REMARK  5 active torsions:
REMARK  status: ('A' for Active; 'I' for Inactive)
REMARK    1  A    between atoms: C_3  and  C_1 
REMARK       I    between atoms: N_10  and  C_3 
REMARK    2  A    between atoms: C_5  and  C_7 
REMARK       I    between atoms: C_7  and  N_11 
REMARK    3  A    between atoms: C_8  and  O_12 
REMARK    4  A    between atoms: N_11  and  N_10 
REMARK    5  A    between atoms: O_12  and  C_16 
ROOT
ATOM      1  C   UNL d   1      -2.380  -0.256   0.029  0.00  0.00     0.103 A 
ATOM      2  N   UNL d   1      -1.613   0.891  -0.032  0.00  0.00    -0.351 N 
ATOM      3  C   UNL d   1      -1.490  -1.313   0.119  0.00  0.00     0.049 A 
ATOM      4  C   UNL d   1      -0.166  -0.790   0.069  0.00  0.00    -0.004 A 
ATOM      5  C   UNL d   1      -0.272   0.595  -0.013  0.00  0.00     0.043 A 
ATOM      6  C   UNL d   1       1.120  -1.367   0.080  0.00  0.00     0.051 A 
ATOM      7  C   UNL d   1       2.259  -0.550  -0.002  0.00  0.00     0.079 A 
ATOM      8  C   UNL d   1       0.848   1.434  -0.058  0.00  0.00     0.033 A 
ATOM      9  C   UNL d   1       2.117   0.835  -0.033  0.00  0.00     0.039 A 
ATOM     10  H   UNL d   1      -2.006   1.822  -0.104  0.00  0.00     0.166 HD
ENDROOT
BRANCH   1  11
ATOM     11  C   UNL d   1      -3.824  -0.193  -0.031  0.00  0.00     0.286 C 
ATOM     12  N   UNL d   1      -4.505  -1.387   0.112  0.00  0.00    -0.262 N 
ATOM     13  H   UNL d   1      -4.067  -2.274   0.341  0.00  0.00     0.190 HD
ATOM     14  O   UNL d   1      -4.422   0.869  -0.205  0.00  0.00    -0.264 OA
BRANCH  12  15
ATOM     15  N   UNL d   1      -5.903  -1.364   0.033  0.00  0.00    -0.263 N 
ATOM     16  C   UNL d   1      -6.615  -2.538   0.166  0.00  0.00     0.271 C 
ATOM     17  O   UNL d   1      -6.061  -3.612   0.382  0.00  0.00    -0.266 OA
ATOM     18  H   UNL d   1      -6.328  -0.469  -0.217  0.00  0.00     0.190 HD
BRANCH  16  19
ATOM     19  C   UNL d   1      -8.111  -2.447   0.111  0.00  0.00     0.055 A 
ATOM     20  C   UNL d   1      -8.850  -1.419  -0.496  0.00  0.00     0.049 A 
ATOM     21 CL   UNL d   1      -8.147  -0.130  -1.409  0.00  0.00    -0.083 Cl
ATOM     22  C   UNL d   1     -10.252  -1.414  -0.413  0.00  0.00     0.025 A 
ATOM     23  C   UNL d   1     -10.930  -2.435   0.251  0.00  0.00     0.002 A 
ATOM     24  C   UNL d   1     -10.212  -3.477   0.826  0.00  0.00     0.001 A 
ATOM     25  C   UNL d   1      -8.815  -3.483   0.756  0.00  0.00     0.019 A 
ENDBRANCH  16  19
ENDBRANCH  12  15
ENDBRANCH   1  11
BRANCH   7  26
ATOM     26  O   UNL d   1       3.443  -1.221   0.059  0.00  0.00    -0.255 OA
BRANCH  26  27
ATOM     27  C   UNL d   1       4.553  -0.762  -0.703  0.00  0.00     0.530 C 
ATOM     28  F   UNL d   1       4.345   0.393  -1.368  0.00  0.00    -0.144 F 
ATOM     29  F   UNL d   1       5.609  -0.594   0.125  0.00  0.00    -0.144 F 
ATOM     30  F   UNL d   1       4.882  -1.712  -1.608  0.00  0.00    -0.144 F 
ENDBRANCH  26  27
ENDBRANCH   7  26
TORSDOF 5
