REMARK  7 active torsions:
REMARK  status: ('A' for Active; 'I' for Inactive)
REMARK    1  A    between atoms: N_10  and  C_1 
REMARK    2  A    between atoms: C_5  and  C_2 
REMARK    3  A    between atoms: C_9  and  O_18 
REMARK    4  A    between atoms: C_11  and  C_9 
REMARK    5  A    between atoms: C_25  and  N_10 
REMARK    6  A    between atoms: O_18  and  C_24 
REMARK    7  A    between atoms: C_24  and  C_25 
ROOT
ATOM      1  C   UNL d   1      -1.057  -1.485   0.148  0.00  0.00     0.044 A 
ATOM      2  C   UNL d   1      -1.737   0.761  -0.511  0.00  0.00     0.119 A 
ATOM      3  N   UNL d   1      -0.577   1.304  -0.078  0.00  0.00    -0.352 N 
ATOM      4  HN  UNL d   1      -0.399   2.303  -0.183  1.00  0.00     0.166 HD
ATOM      5  C   UNL d   1      -1.991  -0.607  -0.422  0.00  0.00     0.064 A 
ATOM      6  C   UNL d   1       0.144  -0.890   0.670  0.00  0.00     0.017 A 
ATOM      7  C   UNL d   1       0.331   0.506   0.488  0.00  0.00     0.045 A 
ATOM      8  C   UNL d   1       1.166  -1.571   1.386  0.00  0.00     0.016 A 
ATOM      9  C   UNL d   1       1.502   1.118   0.916  0.00  0.00     0.030 A 
ATOM     10  C   UNL d   1       2.340  -0.939   1.806  0.00  0.00     0.001 A 
ATOM     11  C   UNL d   1       2.516   0.410   1.556  0.00  0.00     0.002 A 
ENDROOT
BRANCH   1  12
ATOM     12  N   UNL d   1      -1.307  -2.864   0.153  0.00  0.00    -0.382 N 
ATOM     13  C   UNL d   1      -0.230  -3.788  -0.223  0.00  0.00     0.150 C 
BRANCH  12  14
ATOM     14  C   UNL d   1      -2.661  -3.456   0.142  0.00  0.00     0.149 C 
BRANCH  14  15
ATOM     15  C   UNL d   1      -3.084  -3.932   1.536  0.00  0.00     0.199 C 
BRANCH  15  16
ATOM     16  O   UNL d   1      -4.292  -4.723   1.449  0.00  0.00    -0.316 OA
BRANCH  16  17
ATOM     17  C   UNL d   1      -4.131  -6.065   1.575  0.00  0.00     0.293 C 
ATOM     18  O   UNL d   1      -3.065  -6.650   1.699  0.00  0.00    -0.259 OA
BRANCH  17  19
ATOM     19  C   UNL d   1      -5.443  -6.771   1.586  0.00  0.00     0.039 A 
ATOM     20  C   UNL d   1      -5.481  -8.086   2.076  0.00  0.00     0.019 A 
ATOM     21  C   UNL d   1      -6.686  -8.798   2.098  0.00  0.00     0.025 A 
ATOM     22  C   UNL d   1      -7.851  -8.201   1.620  0.00  0.00     0.034 A 
ATOM     23  C   UNL d   1      -7.822  -6.898   1.124  0.00  0.00     0.025 A 
ATOM     24 CL   UNL d   1      -9.331  -9.078   1.639  0.00  0.00    -0.084 Cl
ATOM     25  C   UNL d   1      -6.620  -6.180   1.107  0.00  0.00     0.019 A 
ENDBRANCH  17  19
ENDBRANCH  16  17
ENDBRANCH  15  16
ENDBRANCH  14  15
ENDBRANCH  12  14
ENDBRANCH   1  12
BRANCH   2  26
ATOM     26  C   UNL d   1      -2.801   1.663  -1.119  0.00  0.00     0.432 C 
ATOM     27  F   UNL d   1      -2.440   2.973  -1.228  0.00  0.00    -0.165 F 
ATOM     28  F   UNL d   1      -3.161   1.272  -2.377  0.00  0.00    -0.165 F 
ATOM     29  F   UNL d   1      -3.960   1.658  -0.394  0.00  0.00    -0.165 F 
ENDBRANCH   2  26
TORSDOF 7
