REMARK  6 active torsions:
REMARK  status: ('A' for Active; 'I' for Inactive)
REMARK    1  A    between atoms: N_2  and  C_1 
REMARK    2  A    between atoms: C_3  and  C_1 
REMARK    3  A    between atoms: C_4  and  C_1 
REMARK    4  A    between atoms: N_6  and  C_1 
REMARK       I    between atoms: C_5  and  N_2 
REMARK    5  A    between atoms: C_7  and  C_5 
REMARK    6  A    between atoms: C_8  and  N_6 
ROOT
ATOM      1  C   UNL d   1       0.937  -0.088  -0.010  0.00  0.00     0.306 C 
ENDROOT
BRANCH   1   2
ATOM      2  N   UNL d   1       0.472  -0.090   1.398  0.00  0.00    -0.315 N 
ATOM      3  C   UNL d   1       0.433   1.009   2.208  0.00  0.00     0.255 C 
ATOM      4  O   UNL d   1       0.738   2.135   1.842  0.00  0.00    -0.268 OA
ATOM      5  H   UNL d   1       0.137  -0.978   1.751  0.00  0.00     0.165 HD
BRANCH   3   6
ATOM      6  C   UNL d   1      -0.071   0.759   3.572  0.00  0.00     0.047 A 
ATOM      7  C   UNL d   1      -0.947   1.671   4.146  0.00  0.00     0.104 A 
ATOM      8  N   UNL d   1      -1.524   1.488   5.358  0.00  0.00    -0.374 N 
ATOM      9  C   UNL d   1      -1.192   0.364   6.031  0.00  0.00     0.087 A 
ATOM     10  HN  UNL d   1      -2.180   2.168   5.745  1.00  0.00     0.164 HD
ATOM     11  C   UNL d   1      -0.302  -0.587   5.552  0.00  0.00     0.018 A 
ATOM     12  C   UNL d   1       0.269  -0.384   4.300  0.00  0.00     0.020 A 
ENDBRANCH   3   6
ENDBRANCH   1   2
BRANCH   1  13
ATOM     13  C   UNL d   1       0.423   1.098  -0.895  0.00  0.00     0.441 C 
ATOM     14  F   UNL d   1      -0.854   1.437  -0.597  0.00  0.00    -0.166 F 
ATOM     15  F   UNL d   1       1.190   2.209  -0.739  0.00  0.00    -0.166 F 
ATOM     16  F   UNL d   1       0.462   0.814  -2.220  0.00  0.00    -0.166 F 
ENDBRANCH   1  13
BRANCH   1  17
ATOM     17  C   UNL d   1       0.358  -1.320  -0.773  0.00  0.00     0.441 C 
ATOM     18  F   UNL d   1       0.241  -2.389   0.069  0.00  0.00    -0.166 F 
ATOM     19  F   UNL d   1      -0.893  -1.108  -1.244  0.00  0.00    -0.166 F 
ATOM     20  F   UNL d   1       1.125  -1.723  -1.809  0.00  0.00    -0.166 F 
ENDBRANCH   1  17
BRANCH   1  21
ATOM     21  N   UNL d   1       2.434  -0.048   0.073  0.00  0.00    -0.349 N 
ATOM     22  H   UNL d   1       2.765   0.920   0.121  0.00  0.00     0.162 HD
BRANCH  21  23
ATOM     23  C   UNL d   1       3.321  -0.953   0.611  0.00  0.00     0.032 A 
ATOM     24  C   UNL d   1       2.971  -2.142   1.251  0.00  0.00     0.053 A 
ATOM     25  C   UNL d   1       3.947  -3.035   1.707  0.00  0.00     0.036 A 
ATOM     26 CL   UNL d   1       3.462  -4.469   2.528  0.00  0.00    -0.084 Cl
ATOM     27  C   UNL d   1       5.298  -2.777   1.510  0.00  0.00     0.024 A 
ATOM     28  C   UNL d   1       5.673  -1.613   0.852  0.00  0.00     0.004 A 
ATOM     29  C   UNL d   1       4.693  -0.718   0.409  0.00  0.00     0.029 A 
ENDBRANCH  21  23
ENDBRANCH   1  21
TORSDOF 6
