REMARK  4 active torsions:
REMARK  status: ('A' for Active; 'I' for Inactive)
REMARK    1  A    between atoms: C_4  and  C_1 
REMARK    2  A    between atoms: C_8  and  C_3 
REMARK       I    between atoms: N_7  and  C_4 
REMARK    3  A    between atoms: C_5  and  N_7 
REMARK    4  A    between atoms: O_14  and  C_8 
ROOT
ATOM      1  C   UNL d   1       3.341  -1.289   0.163  0.00  0.00     0.263 C 
ATOM      2  N   UNL d   1       3.574  -2.647   0.305  0.00  0.00    -0.321 N 
ATOM      3  O   UNL d   1       2.230  -0.838  -0.120  0.00  0.00    -0.267 OA
ATOM      4  H   UNL d   1       4.394  -2.909   0.846  0.00  0.00     0.169 HD
ENDROOT
BRANCH   2   5
ATOM      5  C   UNL d   1       2.727  -3.680  -0.175  0.00  0.00     0.052 A 
ATOM      6  C   UNL d   1       2.732  -4.956   0.430  0.00  0.00     0.070 A 
ATOM      7  C   UNL d   1       1.968  -6.014  -0.108  0.00  0.00    -0.043 A 
ATOM      8  C   UNL d   1       1.885  -7.392   0.492  0.00  0.00     0.049 C 
ATOM      9  C   UNL d   1       1.185  -5.764  -1.247  0.00  0.00     0.008 A 
ATOM     10  C   UNL d   1       1.157  -4.503  -1.834  0.00  0.00     0.003 A 
ATOM     11  C   UNL d   1       1.921  -3.466  -1.300  0.00  0.00     0.030 A 
BRANCH   6  12
ATOM     12  C   UNL d   1       3.491  -5.147   1.688  0.00  0.00     0.179 C 
ATOM     13  O   UNL d   1       4.345  -5.995   1.854  0.00  0.00    -0.646 OA
BRANCH  12  14
ATOM     14  O   UNL d   1       3.135  -4.244   2.633  0.00  0.00    -0.773 OA
ATOM     15  H   UNL d   1       2.402  -3.652   2.368  0.00  0.00     0.167 HD
ENDBRANCH  12  14
ENDBRANCH   6  12
ENDBRANCH   2   5
BRANCH   1  16
ATOM     16  C   UNL d   1       4.470  -0.413   0.428  0.00  0.00     0.074 A 
ATOM     17  S   UNL d   1       6.085  -0.958   0.398  0.00  0.00    -0.084 SA
ATOM     18  C   UNL d   1       6.716   0.640   0.534  0.00  0.00     0.016 A 
ATOM     19  C   UNL d   1       8.068   1.031   0.492  0.00  0.00     0.019 A 
ATOM     20  C   UNL d   1       5.692   1.577   0.691  0.00  0.00    -0.018 A 
ATOM     21  C   UNL d   1       8.383   2.388   0.601  0.00  0.00     0.001 A 
ATOM     22  C   UNL d   1       7.382   3.335   0.770  0.00  0.00     0.001 A 
ATOM     23  C   UNL d   1       6.042   2.941   0.823  0.00  0.00     0.013 A 
ATOM     24  C   UNL d   1       4.407   0.948   0.650  0.00  0.00     0.037 A 
ENDBRANCH   1  16
TORSDOF 4
