REMARK  6 active torsions:
REMARK  status: ('A' for Active; 'I' for Inactive)
REMARK    1  A    between atoms: C_2  and  C_1 
REMARK    2  A    between atoms: O_4  and  C_1 
REMARK    3  A    between atoms: S_8  and  C_3 
REMARK    4  A    between atoms: C_6  and  O_4 
REMARK    5  A    between atoms: N_5  and  C_7 
REMARK    6  A    between atoms: C_13  and  S_8 
ROOT
ATOM      1  C   UNL d   1       1.896  -2.245   0.161  0.00  0.00     0.073 C 
ATOM      2  C   UNL d   1       2.521  -1.883  -1.029  0.00  0.00     0.090 C 
ATOM      3  N   UNL d   1       3.057  -2.809  -1.868  0.00  0.00    -0.359 N 
ATOM      4  HN  UNL d   1       3.435  -2.539  -2.777  1.00  0.00     0.166 HD
ATOM      5  C   UNL d   1       2.073  -3.555   0.627  0.00  0.00     0.022 C 
ATOM      6  C   UNL d   1       3.074  -4.095  -1.461  0.00  0.00     0.089 C 
ATOM      7  C   UNL d   1       2.675  -4.497  -0.200  0.00  0.00     0.018 C 
ENDROOT
BRANCH   1   8
ATOM      8  C   UNL d   1       0.835  -1.429   0.817  0.00  0.00     0.301 C 
ATOM      9  O   UNL d   1       0.674  -1.339   2.028  0.00  0.00    -0.259 OA
BRANCH   8  10
ATOM     10  O   UNL d   1      -0.064  -1.128  -0.203  0.00  0.00    -0.273 OA
BRANCH  10  11
ATOM     11  C   UNL d   1      -1.499  -1.047  -0.179  0.00  0.00     0.106 A 
ATOM     12  C   UNL d   1      -2.158  -0.652  -1.373  0.00  0.00     0.064 A 
ATOM     13  C   UNL d   1      -3.551  -0.858  -1.413  0.00  0.00     0.032 A 
ATOM     14  C   UNL d   1      -4.260  -1.375  -0.327  0.00  0.00     0.002 A 
ATOM     15  C   UNL d   1      -3.592  -1.686   0.851  0.00  0.00     0.003 A 
ATOM     16  C   UNL d   1      -2.206  -1.535   0.927  0.00  0.00     0.040 A 
BRANCH  12  17
ATOM     17  N   UNL d   1      -1.567  -0.002  -2.447  0.00  0.00    -0.375 N 
ATOM     18  C   UNL d   1      -0.276   0.669  -2.323  0.00  0.00     0.149 C 
ATOM     19  C   UNL d   1      -0.208   1.877  -3.266  0.00  0.00     0.187 C 
ATOM     20  O   UNL d   1      -0.472   1.498  -4.627  0.00  0.00    -0.388 OA
ATOM     21  C   UNL d   1      -1.758   0.860  -4.725  0.00  0.00     0.187 C 
ATOM     22  C   UNL d   1      -1.842  -0.399  -3.841  0.00  0.00     0.149 C 
ENDBRANCH  12  17
ENDBRANCH  10  11
ENDBRANCH   8  10
ENDBRANCH   1   8
BRANCH   2  23
ATOM     23  S   UNL d   1       2.764  -0.194  -1.527  0.00  0.00    -0.072 SA
BRANCH  23  24
ATOM     24  C   UNL d   1       4.448   0.181  -1.133  0.00  0.00     0.007 A 
ATOM     25  C   UNL d   1       5.482  -0.755  -1.206  0.00  0.00     0.020 A 
ATOM     26  C   UNL d   1       6.788  -0.397  -0.869  0.00  0.00     0.025 A 
ATOM     27  C   UNL d   1       7.068   0.909  -0.474  0.00  0.00     0.034 A 
ATOM     28  C   UNL d   1       6.059   1.866  -0.442  0.00  0.00     0.025 A 
ATOM     29 CL   UNL d   1       8.672   1.340  -0.030  0.00  0.00    -0.084 Cl
ATOM     30  C   UNL d   1       4.752   1.501  -0.772  0.00  0.00     0.020 A 
ENDBRANCH  23  24
ENDBRANCH   2  23
TORSDOF 6
