REMARK  1 active torsions:
REMARK  status: ('A' for Active; 'I' for Inactive)
REMARK    1  A    between atoms: N_6  and  C_1 
REMARK       I    between atoms: C_11  and  N_6 
ROOT
ATOM      1  C   UNL d   1      -3.395   0.907  -0.110  0.00  0.00     0.098 A 
ATOM      2  C   UNL d   1      -3.153  -0.412   0.206  0.00  0.00     0.086 A 
ATOM      3  C   UNL d   1      -0.979   0.452  -0.021  0.00  0.00     0.025 A 
ATOM      4  C   UNL d   1      -1.742  -0.683   0.214  0.00  0.00    -0.016 A 
ATOM      5  S   UNL d   1      -1.963   1.796  -0.384  0.00  0.00    -0.070 SA
ATOM      6  C   UNL d   1       0.497   0.434  -0.035  0.00  0.00    -0.012 A 
ATOM      7  C   UNL d   1      -4.159  -1.431   0.361  0.00  0.00     0.103 C 
ATOM      8  C   UNL d   1      -1.069  -2.007   0.433  0.00  0.00     0.046 C 
ATOM      9  N   UNL d   1      -4.900  -2.315   0.425  0.00  0.00    -0.191 NA
ATOM     10  C   UNL d   1       1.117  -0.840  -0.136  0.00  0.00    -0.046 A 
ATOM     11  C   UNL d   1       0.267  -2.082  -0.326  0.00  0.00     0.044 C 
ATOM     12  C   UNL d   1       1.308   1.566   0.101  0.00  0.00     0.013 A 
ATOM     13  C   UNL d   1       2.514  -0.952  -0.125  0.00  0.00     0.008 A 
ATOM     14  C   UNL d   1       2.704   1.439   0.131  0.00  0.00     0.001 A 
ATOM     15  C   UNL d   1       3.305   0.184   0.017  0.00  0.00     0.001 A 
ENDROOT
BRANCH   1  16
ATOM     16  N   UNL d   1      -4.555   1.639  -0.295  0.00  0.00    -0.320 N 
ATOM     17  C   UNL d   1      -5.500   1.705   0.717  0.00  0.00     0.218 C 
ATOM     18  O   UNL d   1      -5.439   1.105   1.785  0.00  0.00    -0.274 OA
ATOM     19  C   UNL d   1      -6.633   2.661   0.415  0.00  0.00     0.117 C 
ATOM     20  H   UNL d   1      -4.466   2.461  -0.877  0.00  0.00     0.169 HD
ENDBRANCH   1  16
TORSDOF 1
