REMARK  6 active torsions:
REMARK  status: ('A' for Active; 'I' for Inactive)
REMARK    1  A    between atoms: N_6  and  C_1 
REMARK       I    between atoms: C_8  and  N_6 
REMARK    2  A    between atoms: C_12  and  C_8 
REMARK    3  A    between atoms: C_9  and  C_14 
REMARK    4  A    between atoms: O_15  and  C_9 
REMARK    5  A    between atoms: C_10  and  C_12 
REMARK    6  A    between atoms: C_14  and  C_10 
ROOT
ATOM      1  N   UNL d   1       0.467  -3.152  -1.153  0.00  0.00    -0.312 N 
ATOM      2  C   UNL d   1       1.024  -3.606   0.032  0.00  0.00     0.224 C 
ATOM      3  O   UNL d   1       0.831  -3.111   1.144  0.00  0.00    -0.273 OA
ATOM      4  H   UNL d   1       0.411  -3.803  -1.938  0.00  0.00     0.170 HD
ENDROOT
BRANCH   2   5
ATOM      5  C   UNL d   1       1.907  -4.834  -0.121  0.00  0.00     0.112 C 
BRANCH   5   6
ATOM      6  C   UNL d   1       1.192  -6.209  -0.019  0.00  0.00    -0.030 C 
ATOM      7  C   UNL d   1       2.276  -7.309  -0.079  0.00  0.00     0.016 C 
ATOM      8  C   UNL d   1       0.473  -6.347   1.338  0.00  0.00     0.016 C 
BRANCH   6   9
ATOM      9  C   UNL d   1       0.145  -6.447  -1.129  0.00  0.00     0.119 C 
BRANCH   9  10
ATOM     10  C   UNL d   1       0.696  -6.312  -2.527  0.00  0.00     0.140 C 
ATOM     11  O   UNL d   1       0.805  -5.231  -3.083  0.00  0.00    -0.650 OA
BRANCH  10  12
ATOM     12  O   UNL d   1       1.093  -7.473  -3.081  0.00  0.00    -0.776 OA
ATOM     13  H   UNL d   1       0.966  -8.261  -2.518  0.00  0.00     0.167 HD
ENDBRANCH  10  12
ENDBRANCH   9  10
ENDBRANCH   6   9
ENDBRANCH   5   6
ENDBRANCH   2   5
BRANCH   1  14
ATOM     14  C   UNL d   1      -0.432  -2.100  -1.139  0.00  0.00     0.126 A 
ATOM     15  N   UNL d   1      -0.250  -0.877  -0.534  0.00  0.00    -0.281 N 
ATOM     16  N   UNL d   1      -1.312  -0.052  -0.684  0.00  0.00    -0.302 N 
ATOM     17  C   UNL d   1       0.962  -0.315   0.014  0.00  0.00     0.179 C 
ATOM     18  C   UNL d   1      -2.185  -0.764  -1.402  0.00  0.00     0.025 A 
ATOM     19  HN  UNL d   1      -1.421   0.898  -0.329  1.00  0.00     0.186 HD
ATOM     20  C   UNL d   1      -1.662  -2.027  -1.759  0.00  0.00     0.076 A 
ATOM     21  C   UNL d   1      -3.515  -0.196  -1.726  0.00  0.00     0.070 C 
ENDBRANCH   1  14
TORSDOF 6
