REMARK  4 active torsions:
REMARK  status: ('A' for Active; 'I' for Inactive)
REMARK    1  A    between atoms: C_4  and  C_1 
REMARK    2  A    between atoms: O_12  and  C_2 
REMARK    3  A    between atoms: N_5  and  C_4 
REMARK    4  A    between atoms: C_8  and  N_5 
ROOT
ATOM      1  C   UNL d   1      -2.794  -2.438  -0.052  0.00  0.00     0.134 C 
ENDROOT
BRANCH   1   2
ATOM      2  C   UNL d   1      -2.059  -1.116  -0.026  0.00  0.00    -0.011 A 
ATOM      3  C   UNL d   1      -2.657   0.137  -0.214  0.00  0.00     0.073 A 
ATOM      4  C   UNL d   1      -1.910   1.314  -0.164  0.00  0.00     0.038 A 
ATOM      5  C   UNL d   1      -0.529   1.257   0.029  0.00  0.00     0.022 A 
ATOM      6  C   UNL d   1       0.091   0.023   0.170  0.00  0.00     0.011 A 
ATOM      7  C   UNL d   1      -0.660  -1.155   0.146  0.00  0.00     0.030 A 
ATOM      8 BR   UNL d   1       1.969  -0.072   0.372  0.00  0.00    -0.051 Br
BRANCH   3   9
ATOM      9  O   UNL d   1      -3.993   0.281  -0.469  0.00  0.00    -0.360 OA
ATOM     10  H   UNL d   1      -4.360  -0.618  -0.619  0.00  0.00     0.217 HD
ENDBRANCH   3   9
ENDBRANCH   1   2
BRANCH   1  11
ATOM     11  N   UNL d   1      -4.235  -2.281   0.169  0.00  0.00    -0.289 NA
ATOM     12  H   UNL d   1      -4.408  -1.733   1.017  0.00  0.00     0.128 HD
BRANCH  11  13
ATOM     13  C   UNL d   1      -5.021  -3.448   0.234  0.00  0.00     0.008 A 
ATOM     14  C   UNL d   1      -6.340  -3.324   0.704  0.00  0.00     0.026 A 
ATOM     15  C   UNL d   1      -7.183  -4.436   0.795  0.00  0.00     0.044 A 
ATOM     16  C   UNL d   1      -6.720  -5.678   0.392  0.00  0.00     0.116 A 
ATOM     17  C   UNL d   1      -5.443  -5.821  -0.129  0.00  0.00     0.044 A 
ATOM     18  F   UNL d   1      -7.516  -6.750   0.498  0.00  0.00    -0.206 F 
ATOM     19  C   UNL d   1      -4.605  -4.705  -0.228  0.00  0.00     0.026 A 
ENDBRANCH  11  13
ENDBRANCH   1  11
TORSDOF 4
