REMARK  6 active torsions:
REMARK  status: ('A' for Active; 'I' for Inactive)
REMARK    1  A    between atoms: N_9  and  C_3 
REMARK    2  A    between atoms: C_4  and  N_8 
REMARK    3  A    between atoms: N_10  and  C_4 
REMARK    4  A    between atoms: C_11  and  C_5 
REMARK    5  A    between atoms: N_8  and  N_9 
REMARK    6  A    between atoms: C_17  and  N_10 
ROOT
ATOM      1  N   UNL d   1       0.896   0.408   0.679  0.00  0.00    -0.331 N 
ATOM      2  HN  UNL d   1       1.745   0.806   1.081  1.00  0.00     0.168 HD
ATOM      3  C   UNL d   1      -0.196   1.161   0.491  0.00  0.00     0.176 A 
ATOM      4  C   UNL d   1       0.843  -0.895   0.322  0.00  0.00     0.047 A 
ATOM      5  N   UNL d   1      -1.332   0.713  -0.072  0.00  0.00    -0.341 N 
ATOM      6  HN  UNL d   1      -2.121   1.332  -0.254  1.00  0.00     0.167 HD
ATOM      7  C   UNL d   1      -0.309  -1.445  -0.206  0.00  0.00     0.047 A 
ATOM      8  C   UNL d   1      -1.372  -0.591  -0.381  0.00  0.00     0.093 A 
ENDROOT
BRANCH   3   9
ATOM      9  N   UNL d   1      -0.126   2.501   0.902  0.00  0.00    -0.173 NA
ATOM     10  H   UNL d   1       0.857   2.730   1.029  0.00  0.00     0.156 HD
BRANCH   9  11
ATOM     11  N   UNL d   1      -0.814   3.397   0.047  0.00  0.00    -0.291 N 
ATOM     12  H   UNL d   1      -1.438   2.914  -0.602  0.00  0.00     0.183 HD
BRANCH  11  13
ATOM     13  C   UNL d   1      -1.330   4.553   0.568  0.00  0.00     0.187 C 
ATOM     14  S   UNL d   1      -1.472   4.910   2.203  0.00  0.00    -0.040 SA
BRANCH  13  15
ATOM     15  N   UNL d   1      -1.734   5.526  -0.303  0.00  0.00    -0.332 N 
ATOM     16  H   UNL d   1      -2.135   6.315   0.194  0.00  0.00     0.168 HD
BRANCH  15  17
ATOM     17  C   UNL d   1      -1.456   5.760  -1.669  0.00  0.00     0.034 A 
ATOM     18  C   UNL d   1      -0.825   4.868  -2.538  0.00  0.00     0.029 A 
ATOM     19  C   UNL d   1      -0.529   5.242  -3.855  0.00  0.00     0.002 A 
ATOM     20  C   UNL d   1      -0.848   6.516  -4.315  0.00  0.00     0.000 A 
ATOM     21  C   UNL d   1      -1.483   7.414  -3.465  0.00  0.00     0.002 A 
ATOM     22  C   UNL d   1      -1.795   7.033  -2.156  0.00  0.00     0.029 A 
ENDBRANCH  15  17
ENDBRANCH  13  15
ENDBRANCH  11  13
ENDBRANCH   9  11
ENDBRANCH   3   9
BRANCH   4  23
ATOM     23  C   UNL d   1       2.083  -1.673   0.526  0.00  0.00     0.006 A 
ATOM     24  C   UNL d   1       3.041  -1.283   1.468  0.00  0.00     0.101 A 
ATOM     25  N   UNL d   1       4.197  -1.949   1.734  0.00  0.00    -0.374 N 
ATOM     26  C   UNL d   1       4.431  -3.066   1.020  0.00  0.00     0.087 A 
ATOM     27  HN  UNL d   1       4.854  -1.618   2.441  1.00  0.00     0.164 HD
ATOM     28  C   UNL d   1       3.571  -3.543   0.050  0.00  0.00     0.018 A 
ATOM     29  C   UNL d   1       2.392  -2.837  -0.197  0.00  0.00     0.016 A 
ENDBRANCH   4  23
TORSDOF 6
