REMARK  3 active torsions:
REMARK  status: ('A' for Active; 'I' for Inactive)
REMARK    1  A    between atoms: C_2  and  C_1 
REMARK       I    between atoms: N_3  and  C_1 
REMARK    2  A    between atoms: N_4  and  C_2 
REMARK    3  A    between atoms: C_5  and  N_3 
ROOT
ATOM      1  C   UNL d   1       0.951   0.055  -0.306  0.00  0.00     0.284 C 
ATOM      2  N   UNL d   1       1.880   0.436   0.650  0.00  0.00    -0.318 N 
ATOM      3  O   UNL d   1       0.647   0.649  -1.330  0.00  0.00    -0.265 OA
ATOM      4  H   UNL d   1       2.250  -0.331   1.203  0.00  0.00     0.169 HD
ENDROOT
BRANCH   1   5
ATOM      5  C   UNL d   1       0.331  -1.333  -0.053  0.00  0.00     0.167 C 
ATOM      6  S   UNL d   1       1.456  -2.556   0.205  0.00  0.00    -0.054 SA
BRANCH   5   7
ATOM      7  N   UNL d   1      -1.060  -1.468  -0.075  0.00  0.00    -0.363 N 
ATOM      8  C   UNL d   1      -1.759  -2.763  -0.003  0.00  0.00     0.150 C 
ATOM      9  C   UNL d   1      -2.702  -2.935  -1.203  0.00  0.00     0.187 C 
ATOM     10  O   UNL d   1      -3.615  -1.832  -1.311  0.00  0.00    -0.388 OA
ATOM     11  C   UNL d   1      -2.900  -0.593  -1.467  0.00  0.00     0.187 C 
ATOM     12  C   UNL d   1      -1.990  -0.340  -0.259  0.00  0.00     0.150 C 
ENDBRANCH   5   7
ENDBRANCH   1   5
BRANCH   2  13
ATOM     13  C   UNL d   1       2.613   1.640   0.633  0.00  0.00     0.074 A 
ATOM     14  C   UNL d   1       2.106   2.856   0.152  0.00  0.00     0.146 A 
ATOM     15  C   UNL d   1       2.887   4.008   0.146  0.00  0.00     0.086 A 
ATOM     16  F   UNL d   1       0.824   2.970  -0.225  0.00  0.00    -0.204 F 
ATOM     17  C   UNL d   1       4.188   3.946   0.628  0.00  0.00     0.119 A 
ATOM     18  C   UNL d   1       4.706   2.760   1.136  0.00  0.00     0.044 A 
ATOM     19  F   UNL d   1       4.949   5.047   0.619  0.00  0.00    -0.206 F 
ATOM     20  C   UNL d   1       3.914   1.609   1.154  0.00  0.00     0.036 A 
ENDBRANCH   2  13
TORSDOF 3
