REMARK  5 active torsions:
REMARK  status: ('A' for Active; 'I' for Inactive)
REMARK    1  A    between atoms: C_9  and  C_1 
REMARK    2  A    between atoms: N_7  and  C_2 
REMARK    3  A    between atoms: C_6  and  N_7 
REMARK    4  A    between atoms: N_11  and  C_6 
REMARK    5  A    between atoms: C_15  and  N_11 
ROOT
ATOM      1  N   UNL d   1       1.984  -1.320  -0.116  0.00  0.00    -0.318 N 
ATOM      2  H   UNL d   1       1.924  -2.307   0.108  0.00  0.00     0.170 HD
ENDROOT
BRANCH   1   3
ATOM      3  C   UNL d   1       3.276  -0.717  -0.175  0.00  0.00     0.177 C 
ATOM      4  S   UNL d   1       3.649   0.874   0.157  0.00  0.00    -0.040 SA
BRANCH   3   5
ATOM      5  N   UNL d   1       4.288  -1.595  -0.449  0.00  0.00    -0.333 N 
ATOM      6  H   UNL d   1       5.204  -1.203  -0.244  0.00  0.00     0.168 HD
BRANCH   5   7
ATOM      7  C   UNL d   1       4.304  -2.811  -1.168  0.00  0.00     0.035 A 
ATOM      8  C   UNL d   1       3.215  -3.335  -1.869  0.00  0.00     0.055 A 
ATOM      9  C   UNL d   1       3.325  -4.552  -2.561  0.00  0.00     0.058 A 
ATOM     10 CL   UNL d   1       1.907  -5.143  -3.353  0.00  0.00    -0.082 Cl
ATOM     11  C   UNL d   1       4.542  -5.234  -2.594  0.00  0.00     0.055 A 
ATOM     12  C   UNL d   1       5.647  -4.691  -1.939  0.00  0.00     0.028 A 
ATOM     13 CL   UNL d   1       4.748  -6.729  -3.429  0.00  0.00    -0.083 Cl
ATOM     14  C   UNL d   1       5.528  -3.490  -1.232  0.00  0.00     0.031 A 
ENDBRANCH   5   7
ENDBRANCH   3   5
ENDBRANCH   1   3
BRANCH   1  15
ATOM     15  C   UNL d   1       0.805  -0.671  -0.466  0.00  0.00     0.124 A 
ATOM     16  C   UNL d   1      -0.429  -1.274  -0.527  0.00  0.00     0.082 A 
ATOM     17  C   UNL d   1      -1.266  -0.324  -1.168  0.00  0.00     0.068 A 
ATOM     18  N   UNL d   1      -0.622   0.834  -1.379  0.00  0.00    -0.298 N 
ATOM     19  N   UNL d   1       0.615   0.607  -0.914  0.00  0.00    -0.285 N 
ATOM     20  HN  UNL d   1      -0.989   1.689  -1.798  1.00  0.00     0.187 HD
ATOM     21  H   UNL d   1       1.297   1.356  -0.977  0.00  0.00     0.188 HD
BRANCH  17  22
ATOM     22  C   UNL d   1      -2.677  -0.533  -1.629  0.00  0.00     0.033 A 
ATOM     23  S   UNL d   1      -3.561  -1.978  -1.410  0.00  0.00    -0.100 SA
ATOM     24  C   UNL d   1      -4.923  -1.344  -2.230  0.00  0.00     0.050 A 
ATOM     25  C   UNL d   1      -4.707  -0.056  -2.667  0.00  0.00     0.008 A 
ATOM     26  C   UNL d   1      -3.407   0.413  -2.319  0.00  0.00     0.021 A 
ENDBRANCH  17  22
ENDBRANCH   1  15
TORSDOF 5
