REMARK  2 active torsions:
REMARK  status: ('A' for Active; 'I' for Inactive)
REMARK       I    between atoms: N_2  and  C_1 
REMARK    1  A    between atoms: C_9  and  C_1 
REMARK    2  A    between atoms: C_3  and  N_2 
ROOT
ATOM      1  C   UNL d   1      -0.695  -0.645   0.543  0.00  0.00     0.252 C 
ATOM      2  N   UNL d   1       0.317  -1.186  -0.212  0.00  0.00    -0.352 N 
ATOM      3  O   UNL d   1      -1.270  -1.253   1.439  0.00  0.00    -0.268 OA
ATOM      4  H   UNL d   1       0.661  -0.665  -1.008  0.00  0.00     0.163 HD
ENDROOT
BRANCH   2   5
ATOM      5  C   UNL d   1       0.939  -2.473   0.055  0.00  0.00     0.093 C 
ATOM      6  C   UNL d   1       0.042  -3.733  -0.013  0.00  0.00     0.064 C 
ATOM      7  C   UNL d   1       0.963  -4.727   0.645  0.00  0.00    -0.050 A 
ATOM      8  C   UNL d   1       0.978  -6.106   0.524  0.00  0.00     0.007 A 
ATOM      9  C   UNL d   1       1.897  -4.065   1.456  0.00  0.00    -0.050 A 
ATOM     10  C   UNL d   1       1.968  -6.818   1.208  0.00  0.00     0.001 A 
ATOM     11  C   UNL d   1       2.904  -6.152   2.017  0.00  0.00     0.001 A 
ATOM     12  C   UNL d   1       2.865  -4.764   2.157  0.00  0.00     0.007 A 
ATOM     13  C   UNL d   1       1.671  -2.582   1.412  0.00  0.00     0.064 C 
ENDBRANCH   2   5
BRANCH   1  14
ATOM     14  C   UNL d   1      -1.092   0.759   0.230  0.00  0.00     0.032 A 
ATOM     15  C   UNL d   1      -2.418   1.141   0.470  0.00  0.00     0.017 A 
ATOM     16  C   UNL d   1      -2.818   2.466   0.277  0.00  0.00     0.001 A 
ATOM     17  C   UNL d   1      -1.893   3.418  -0.149  0.00  0.00     0.000 A 
ATOM     18  C   UNL d   1      -0.571   3.045  -0.394  0.00  0.00     0.001 A 
ATOM     19  C   UNL d   1      -0.167   1.718  -0.207  0.00  0.00     0.017 A 
ENDBRANCH   1  14
TORSDOF 2
