REMARK  4 active torsions:
REMARK  status: ('A' for Active; 'I' for Inactive)
REMARK    1  A    between atoms: C_2  and  C_1 
REMARK       I    between atoms: N_11  and  C_2 
REMARK    2  A    between atoms: N_4  and  N_11 
REMARK    3  A    between atoms: N_17  and  C_8 
REMARK    4  A    between atoms: C_16  and  C_15 
ROOT
ATOM      1  C   UNL d   1       2.745  -0.392   0.445  0.00  0.00     0.271 C 
ATOM      2  N   UNL d   1       3.714   0.531   0.067  0.00  0.00    -0.266 N 
ATOM      3  O   UNL d   1       1.553  -0.127   0.605  0.00  0.00    -0.266 OA
ATOM      4  H   UNL d   1       4.699   0.293   0.116  0.00  0.00     0.190 HD
ENDROOT
BRANCH   2   5
ATOM      5  N   UNL d   1       3.352   1.842   0.107  0.00  0.00    -0.308 N 
ATOM      6  C   UNL d   1       4.275   2.734  -0.018  0.00  0.00     0.118 C 
ATOM      7  HN  UNL d   1       2.376   2.112   0.233  1.00  0.00     0.186 HD
BRANCH   6   8
ATOM      8  C   UNL d   1       3.951   4.147   0.270  0.00  0.00    -0.017 A 
ATOM      9  C   UNL d   1       4.999   5.053   0.449  0.00  0.00     0.052 A 
ATOM     10  C   UNL d   1       4.677   6.270   1.010  0.00  0.00     0.105 A 
ATOM     11  O   UNL d   1       5.569   7.226   1.388  0.00  0.00    -0.323 OA
ATOM     12  C   UNL d   1       3.381   6.613   1.330  0.00  0.00     0.105 A 
ATOM     13  C   UNL d   1       4.707   8.092   2.158  0.00  0.00     0.352 C 
ATOM     14  O   UNL d   1       3.306   7.820   1.953  0.00  0.00    -0.323 OA
ATOM     15  C   UNL d   1       2.320   5.772   1.081  0.00  0.00     0.040 A 
ATOM     16  C   UNL d   1       2.614   4.513   0.554  0.00  0.00     0.016 A 
ENDBRANCH   6   8
ENDBRANCH   2   5
BRANCH   1  17
ATOM     17  C   UNL d   1       3.210  -1.780   0.714  0.00  0.00     0.054 A 
ATOM     18  C   UNL d   1       2.602  -2.536   1.753  0.00  0.00     0.023 A 
ATOM     19  C   UNL d   1       3.051  -3.850   1.948  0.00  0.00     0.024 A 
ATOM     20  C   UNL d   1       4.015  -4.422   1.110  0.00  0.00     0.002 A 
ATOM     21  C   UNL d   1       4.582  -3.674   0.080  0.00  0.00     0.001 A 
ATOM     22  C   UNL d   1       4.186  -2.356  -0.118  0.00  0.00     0.019 A 
BRANCH  18  23
ATOM     23  N   UNL d   1       1.692  -1.932   2.646  0.00  0.00    -0.296 NA
ATOM     24  C   UNL d   1       0.690  -2.758   3.296  0.00  0.00     0.113 C 
ATOM     25  H   UNL d   1       1.262  -1.113   2.189  0.00  0.00     0.127 HD
ENDBRANCH  18  23
ENDBRANCH   1  17
TORSDOF 4
