REMARK  3 active torsions:
REMARK  status: ('A' for Active; 'I' for Inactive)
REMARK    1  A    between atoms: C_2  and  S_1 
REMARK    2  A    between atoms: N_6  and  S_1 
REMARK    3  A    between atoms: C_16  and  N_6 
ROOT
ATOM      1  N   UNL d   1       0.273   1.646  -0.585  0.00  0.00    -0.280 N 
ATOM      2  H   UNL d   1      -0.219   1.697  -1.477  0.00  0.00     0.179 HD
ENDROOT
BRANCH   1   3
ATOM      3  S   UNL d   1      -0.203   0.341   0.366  0.00  0.00     0.266 S 
ATOM      4  O   UNL d   1      -0.724  -0.670  -0.529  0.00  0.00    -0.200 OA
ATOM      5  O   UNL d   1       0.873   0.033   1.288  0.00  0.00    -0.200 OA
BRANCH   3   6
ATOM      6  C   UNL d   1      -1.564   0.940   1.319  0.00  0.00     0.118 A 
ATOM      7  C   UNL d   1      -2.696   1.412   0.659  0.00  0.00     0.142 A 
ATOM      8  C   UNL d   1      -3.804   1.847   1.383  0.00  0.00     0.086 A 
ATOM      9  F   UNL d   1      -2.731   1.492  -0.677  0.00  0.00    -0.204 F 
ATOM     10  C   UNL d   1      -3.767   1.797   2.770  0.00  0.00     0.119 A 
ATOM     11  C   UNL d   1      -2.644   1.325   3.445  0.00  0.00     0.044 A 
ATOM     12  F   UNL d   1      -4.831   2.208   3.471  0.00  0.00    -0.206 F 
ATOM     13  C   UNL d   1      -1.533   0.891   2.718  0.00  0.00     0.031 A 
ENDBRANCH   3   6
ENDBRANCH   1   3
BRANCH   1  14
ATOM     14  C   UNL d   1       0.727   2.846   0.022  0.00  0.00     0.045 A 
ATOM     15  C   UNL d   1      -0.153   3.925   0.152  0.00  0.00     0.069 A 
ATOM     16  C   UNL d   1       0.375   5.054   0.764  0.00  0.00     0.106 A 
ATOM     17  O   UNL d   1      -0.271   6.226   1.029  0.00  0.00    -0.296 OA
ATOM     18  C   UNL d   1       1.679   5.177   1.218  0.00  0.00     0.068 A 
ATOM     19  C   UNL d   1       0.686   6.999   1.634  0.00  0.00     0.120 A 
ATOM     20  C   UNL d   1       0.271   8.349   2.064  0.00  0.00     0.098 C 
ATOM     21  N   UNL d   1       1.866   6.421   1.762  0.00  0.00    -0.338 N 
ATOM     22  HN  UNL d   1       2.716   6.809   2.170  1.00  0.00     0.168 HD
ATOM     23  C   UNL d   1       2.551   4.092   1.069  0.00  0.00     0.035 A 
ATOM     24  C   UNL d   1       2.050   2.920   0.478  0.00  0.00     0.032 A 
ENDBRANCH   1  14
TORSDOF 3
