REMARK  4 active torsions:
REMARK  status: ('A' for Active; 'I' for Inactive)
REMARK    1  A    between atoms: C_4  and  N_8 
REMARK       I    between atoms: C_7  and  N_8 
REMARK    2  A    between atoms: C_13  and  C_7 
REMARK    3  A    between atoms: S_11  and  C_13 
REMARK    4  A    between atoms: C_14  and  S_11 
ROOT
ATOM      1  C   UNL d   1       3.183   4.256   3.567  0.00  0.00     0.227 C 
ATOM      2  N   UNL d   1       2.813   3.404   2.537  0.00  0.00    -0.356 N 
ATOM      3  O   UNL d   1       2.577   5.295   3.804  0.00  0.00    -0.273 OA
ATOM      4  H   UNL d   1       3.257   2.496   2.484  0.00  0.00     0.162 HD
ENDROOT
BRANCH   1   5
ATOM      5  C   UNL d   1       4.380   3.776   4.384  0.00  0.00     0.182 C 
BRANCH   5   6
ATOM      6  S   UNL d   1       3.929   3.820   6.160  0.00  0.00    -0.121 SA
BRANCH   6   7
ATOM      7  C   UNL d   1       5.491   3.549   6.978  0.00  0.00     0.001 A 
ATOM      8  C   UNL d   1       5.774   4.315   8.118  0.00  0.00     0.020 A 
ATOM      9  C   UNL d   1       6.932   4.083   8.866  0.00  0.00     0.025 A 
ATOM     10  C   UNL d   1       7.812   3.077   8.479  0.00  0.00     0.034 A 
ATOM     11  C   UNL d   1       7.548   2.312   7.346  0.00  0.00     0.025 A 
ATOM     12 CL   UNL d   1       9.218   2.759   9.420  0.00  0.00    -0.084 Cl
ATOM     13  C   UNL d   1       6.387   2.547   6.596  0.00  0.00     0.020 A 
ENDBRANCH   6   7
ENDBRANCH   5   6
ENDBRANCH   1   5
BRANCH   2  14
ATOM     14  C   UNL d   1       1.438   3.381   2.022  0.00  0.00     0.088 C 
ATOM     15  C   UNL d   1       1.381   2.644   0.654  0.00  0.00     0.061 C 
ATOM     16  C   UNL d   1       0.932   1.085   0.663  0.00  0.00     0.225 C 
ATOM     17  N   UNL d   1       1.774   0.898   1.848  0.00  0.00     0.093 N 
ATOM     18  C   UNL d   1      -0.204   0.139   1.255  0.00  0.00     0.038 C 
ATOM     19  C   UNL d   1       0.944   1.127   3.036  0.00  0.00     0.225 C 
ATOM     20  C   UNL d   1       2.630  -0.273   1.831  0.00  0.00     0.310 C 
ATOM     21  C   UNL d   1       0.546   2.627   3.022  0.00  0.00     0.061 C 
ATOM     22  C   UNL d   1      -0.246   0.249   2.769  0.00  0.00     0.038 C 
ENDBRANCH   2  14
TORSDOF 4
