REMARK  2 active torsions:
REMARK  status: ('A' for Active; 'I' for Inactive)
REMARK    1  A    between atoms: C_2  and  C_1 
REMARK       I    between atoms: N_3  and  C_1 
REMARK    2  A    between atoms: C_4  and  N_5 
ROOT
ATOM      1  C   UNL d   1       0.729   0.266   0.509  0.00  0.00     0.257 C 
ATOM      2  N   UNL d   1       0.521  -1.048   0.957  0.00  0.00    -0.345 N 
ATOM      3  N   UNL d   1      -0.331  -3.553   2.030  0.00  0.00    -0.214 N 
ATOM      4  O   UNL d   1       0.062   0.795  -0.378  0.00  0.00    -0.267 OA
ATOM      5  C   UNL d   1       0.988  -1.522   2.273  0.00  0.00     0.146 C 
ATOM      6  C   UNL d   1      -0.670  -1.732   0.423  0.00  0.00     0.146 C 
ATOM      7  C   UNL d   1       0.975  -3.048   2.436  0.00  0.00     0.161 C 
ATOM      8  C   UNL d   1      -0.689  -3.261   0.644  0.00  0.00     0.161 C 
ENDROOT
BRANCH   1   9
ATOM      9  C   UNL d   1       1.840   1.055   1.077  0.00  0.00     0.075 A 
ATOM     10  C   UNL d   1       3.004   1.246   0.318  0.00  0.00     0.051 A 
ATOM     11 CL   UNL d   1       3.194   0.614  -1.280  0.00  0.00    -0.083 Cl
ATOM     12  C   UNL d   1       4.079   1.970   0.848  0.00  0.00     0.025 A 
ATOM     13  C   UNL d   1       4.007   2.491   2.139  0.00  0.00     0.003 A 
ATOM     14  C   UNL d   1       2.838   2.339   2.880  0.00  0.00     0.025 A 
ATOM     15  C   UNL d   1       1.740   1.659   2.338  0.00  0.00     0.051 A 
ATOM     16 CL   UNL d   1       0.288   1.648   3.274  0.00  0.00    -0.083 Cl
ENDBRANCH   1   9
BRANCH   3  17
ATOM     17  C   UNL d   1      -0.835  -4.664   2.668  0.00  0.00     0.679 A 
ATOM     18  N   UNL d   1      -1.731  -5.435   2.035  0.00  0.00    -0.202 N 
ATOM     19  C   UNL d   1      -2.271  -6.458   2.732  0.00  0.00     0.107 A 
ATOM     20  HN  UNL d   1      -1.995  -5.256   1.066  1.00  0.00     0.183 HD
ATOM     21  C   UNL d   1      -1.970  -6.735   4.039  0.00  0.00     0.035 A 
ATOM     22  C   UNL d   1      -1.048  -5.894   4.606  0.00  0.00     0.107 A 
ATOM     23  N   UNL d   1      -0.469  -4.875   3.945  0.00  0.00    -0.202 N 
ATOM     24  HN  UNL d   1       0.226  -4.282   4.398  1.00  0.00     0.183 HD
ENDBRANCH   3  17
TORSDOF 2
