REMARK  7 active torsions:
REMARK  status: ('A' for Active; 'I' for Inactive)
REMARK    1  A    between atoms: C_2  and  C_1 
REMARK       I    between atoms: N_8  and  C_2 
REMARK    2  A    between atoms: O_13  and  C_3 
REMARK    3  A    between atoms: N_10  and  C_4 
REMARK    4  A    between atoms: O_15  and  C_5 
REMARK    5  A    between atoms: C_16  and  N_8 
REMARK    6  A    between atoms: C_11  and  C_17 
REMARK    7  A    between atoms: C_17  and  C_16 
ROOT
ATOM      1  C   UNL d   1       2.752  -1.352   2.143  0.00  0.00     0.253 C 
ATOM      2  O   UNL d   1       3.312  -1.429   3.234  0.00  0.00    -0.268 OA
ATOM      3  N   UNL d   1       3.428  -1.509   0.940  0.00  0.00    -0.356 N 
ATOM      4  H   UNL d   1       2.959  -1.267   0.079  0.00  0.00     0.162 HD
ENDROOT
BRANCH   3   5
ATOM      5  C   UNL d   1       4.845  -1.835   0.854  0.00  0.00     0.127 C 
BRANCH   5   6
ATOM      6  C   UNL d   1       5.091  -3.347   0.751  0.00  0.00     0.058 C 
BRANCH   6   7
ATOM      7  C   UNL d   1       6.555  -3.723   0.639  0.00  0.00    -0.054 A 
ATOM      8  C   UNL d   1       7.039  -4.449  -0.467  0.00  0.00     0.046 A 
ATOM      9  C   UNL d   1       8.381  -4.871  -0.546  0.00  0.00     0.102 A 
ATOM     10  C   UNL d   1       9.258  -4.540   0.501  0.00  0.00     0.101 A 
ATOM     11  C   UNL d   1       8.775  -3.821   1.602  0.00  0.00     0.040 A 
ATOM     12  C   UNL d   1       7.442  -3.416   1.673  0.00  0.00     0.010 A 
BRANCH   9  13
ATOM     13  O   UNL d   1       8.877  -5.630  -1.574  0.00  0.00    -0.353 OA
ATOM     14  C   UNL d   1       8.003  -5.982  -2.637  0.00  0.00     0.210 C 
ENDBRANCH   9  13
BRANCH  10  15
ATOM     15  O   UNL d   1      10.575  -4.896   0.640  0.00  0.00    -0.353 OA
ATOM     16  C   UNL d   1      11.341  -5.054  -0.546  0.00  0.00     0.210 C 
ENDBRANCH  10  15
ENDBRANCH   6   7
ENDBRANCH   5   6
ENDBRANCH   3   5
BRANCH   1  17
ATOM     17  C   UNL d   1       1.277  -1.058   2.034  0.00  0.00     0.058 A 
ATOM     18  C   UNL d   1       0.579  -0.301   3.012  0.00  0.00     0.043 A 
ATOM     19  C   UNL d   1      -0.802  -0.109   2.814  0.00  0.00     0.030 A 
ATOM     20  C   UNL d   1      -1.468  -0.584   1.682  0.00  0.00     0.002 A 
ATOM     21  C   UNL d   1      -0.774  -1.314   0.731  0.00  0.00     0.001 A 
ATOM     22  C   UNL d   1       0.582  -1.572   0.918  0.00  0.00     0.019 A 
BRANCH  18  23
ATOM     23  N   UNL d   1       1.204   0.218   4.141  0.00  0.00    -0.393 N 
ATOM     24  C   UNL d   1       0.706   1.342   4.906  0.00  0.00     0.146 C 
ATOM     25  H   UNL d   1       2.204   0.015   4.219  0.00  0.00     0.159 HD
ENDBRANCH  18  23
ENDBRANCH   1  17
TORSDOF 7
