REMARK  9 active torsions:
REMARK  status: ('A' for Active; 'I' for Inactive)
REMARK    1  A    between atoms: N_2  and  S_1 
REMARK    2  A    between atoms: C_10  and  S_1 
REMARK    3  A    between atoms: N_9  and  C_4 
REMARK    4  A    between atoms: S_11  and  C_4 
REMARK    5  A    between atoms: C_5  and  C_6 
REMARK    6  A    between atoms: C_14  and  N_9 
REMARK    7  A    between atoms: C_19  and  S_11 
REMARK    8  A    between atoms: C_12  and  C_19 
REMARK    9  A    between atoms: O_20  and  C_12 
ROOT
ATOM      1  N   UNL d   1       0.567  -0.942  -1.727  0.00  0.00    -0.260 N 
ATOM      2  HN  UNL d   1       0.081  -1.832  -1.837  1.00  0.00     0.181 HD
ATOM      3  C   UNL d   1       0.469  -0.059  -2.660  0.00  0.00     0.154 C 
ENDROOT
BRANCH   3   4
ATOM      4  N   UNL d   1       0.954   1.229  -2.699  0.00  0.00    -0.336 N 
ATOM      5  H   UNL d   1       1.712   1.450  -2.058  0.00  0.00     0.168 HD
BRANCH   4   6
ATOM      6  C   UNL d   1       0.438   2.352  -3.381  0.00  0.00     0.034 A 
ATOM      7  C   UNL d   1       1.315   3.388  -3.739  0.00  0.00     0.045 A 
ATOM      8  C   UNL d   1       0.888   4.476  -4.524  0.00  0.00     0.050 A 
ATOM      9  C   UNL d   1      -0.444   4.521  -4.959  0.00  0.00     0.016 A 
ATOM     10  C   UNL d   1      -1.331   3.513  -4.597  0.00  0.00     0.003 A 
ATOM     11  C   UNL d   1      -0.893   2.447  -3.808  0.00  0.00     0.029 A 
BRANCH   8  12
ATOM     12  C   UNL d   1       1.835   5.582  -4.915  0.00  0.00     0.417 C 
ATOM     13  F   UNL d   1       3.108   5.392  -4.471  0.00  0.00    -0.166 F 
ATOM     14  F   UNL d   1       1.931   5.738  -6.264  0.00  0.00    -0.166 F 
ATOM     15  F   UNL d   1       1.448   6.793  -4.426  0.00  0.00    -0.166 F 
ENDBRANCH   8  12
ENDBRANCH   4   6
ENDBRANCH   3   4
BRANCH   3  16
ATOM     16  S   UNL d   1      -0.210  -0.687  -4.191  0.00  0.00    -0.083 SA
BRANCH  16  17
ATOM     17  C   UNL d   1      -1.122  -2.136  -3.618  0.00  0.00     0.192 C 
BRANCH  17  18
ATOM     18  C   UNL d   1      -2.248  -1.780  -2.667  0.00  0.00     0.149 C 
ATOM     19  O   UNL d   1      -2.576  -0.655  -2.318  0.00  0.00    -0.649 OA
BRANCH  18  20
ATOM     20  O   UNL d   1      -2.910  -2.877  -2.219  0.00  0.00    -0.776 OA
ATOM     21  H   UNL d   1      -2.556  -3.726  -2.547  0.00  0.00     0.167 HD
ENDBRANCH  18  20
ENDBRANCH  17  18
ENDBRANCH  16  17
ENDBRANCH   3  16
BRANCH   1  22
ATOM     22  S   UNL d   1       1.434  -0.686  -0.395  0.00  0.00     0.264 S 
ATOM     23  O   UNL d   1       2.651   0.010  -0.789  0.00  0.00    -0.200 OA
ATOM     24  O   UNL d   1       1.511  -1.932   0.340  0.00  0.00    -0.200 OA
BRANCH  22  25
ATOM     25  C   UNL d   1       0.566   0.445   0.666  0.00  0.00     0.079 A 
ATOM     26  C   UNL d   1      -0.826   0.516   0.682  0.00  0.00     0.025 A 
ATOM     27  C   UNL d   1      -1.448   1.417   1.552  0.00  0.00     0.002 A 
ATOM     28  C   UNL d   1      -0.685   2.237   2.389  0.00  0.00     0.000 A 
ATOM     29  C   UNL d   1       0.707   2.164   2.363  0.00  0.00     0.002 A 
ATOM     30  C   UNL d   1       1.335   1.269   1.501  0.00  0.00     0.025 A 
ENDBRANCH  22  25
ENDBRANCH   1  22
TORSDOF 9
