REMARK  2 active torsions:
REMARK  status: ('A' for Active; 'I' for Inactive)
REMARK       I    between atoms: N_2  and  C_1 
REMARK    1  A    between atoms: C_7  and  C_1 
REMARK    2  A    between atoms: C_3  and  N_2 
ROOT
ATOM      1  C   UNL d   1       1.202  -0.117   0.137  0.00  0.00     0.257 C 
ATOM      2  N   UNL d   1       0.560  -1.290  -0.183  0.00  0.00    -0.309 N 
ATOM      3  O   UNL d   1       2.349  -0.004   0.564  0.00  0.00    -0.267 OA
ATOM      4  H   UNL d   1      -0.217  -1.265  -0.829  0.00  0.00     0.170 HD
ENDROOT
BRANCH   2   5
ATOM      5  C   UNL d   1       1.118  -2.562  -0.026  0.00  0.00     0.108 A 
ATOM      6  N   UNL d   1       0.675  -3.488  -0.903  0.00  0.00    -0.346 N 
ATOM      7  C   UNL d   1       1.256  -4.714  -0.867  0.00  0.00     0.007 A 
ATOM      8  HN  UNL d   1      -0.068  -3.274  -1.569  1.00  0.00     0.167 HD
ATOM      9  C   UNL d   1       0.883  -5.687  -1.946  0.00  0.00     0.068 C 
ATOM     10  C   UNL d   1       2.216  -5.068   0.074  0.00  0.00     0.025 A 
ATOM     11  C   UNL d   1       2.607  -4.122   1.013  0.00  0.00     0.006 A 
ATOM     12  C   UNL d   1       2.057  -2.847   0.957  0.00  0.00     0.049 A 
ENDBRANCH   2   5
BRANCH   1  13
ATOM     13  C   UNL d   1       0.441   1.122  -0.125  0.00  0.00     0.032 A 
ATOM     14  C   UNL d   1      -0.847   1.288   0.392  0.00  0.00     0.017 A 
ATOM     15  C   UNL d   1      -1.492   2.518   0.244  0.00  0.00     0.001 A 
ATOM     16  C   UNL d   1      -0.858   3.566  -0.426  0.00  0.00     0.000 A 
ATOM     17  C   UNL d   1       0.420   3.392  -0.957  0.00  0.00     0.001 A 
ATOM     18  C   UNL d   1       1.075   2.171  -0.801  0.00  0.00     0.017 A 
ENDBRANCH   1  13
TORSDOF 2
