REMARK  3 active torsions:
REMARK  status: ('A' for Active; 'I' for Inactive)
REMARK    1  A    between atoms: C_2  and  O_1 
REMARK    2  A    between atoms: C_5  and  O_1 
REMARK    3  A    between atoms: C_4  and  C_5 
ROOT
ATOM      1  O   UNL d   1       0.996  -0.011   0.041  0.00  0.00    -0.347 OA
ENDROOT
BRANCH   1   2
ATOM      2  C   UNL d   1       0.433   1.232  -0.052  0.00  0.00     0.069 A 
ATOM      3  C   UNL d   1      -0.873   1.259  -0.547  0.00  0.00     0.038 A 
ATOM      4  C   UNL d   1      -1.560   2.469  -0.677  0.00  0.00     0.021 A 
ATOM      5  C   UNL d   1      -0.941   3.656  -0.292  0.00  0.00     0.006 A 
ATOM      6  C   UNL d   1       0.354   3.638   0.224  0.00  0.00     0.021 A 
ATOM      7  I   UNL d   1      -1.953   5.461  -0.477  0.00  0.00    -0.045 I 
ATOM      8  C   UNL d   1       1.041   2.425   0.345  0.00  0.00     0.038 A 
ENDBRANCH   1   2
BRANCH   1   9
ATOM      9  C   UNL d   1       2.423  -0.056  -0.036  0.00  0.00     0.214 C 
BRANCH   9  10
ATOM     10  C   UNL d   1       2.917  -1.486  -0.026  0.00  0.00    -0.034 A 
ATOM     11  C   UNL d   1       2.153  -2.541  -0.542  0.00  0.00     0.010 A 
ATOM     12  C   UNL d   1       2.649  -3.848  -0.538  0.00  0.00     0.007 A 
ATOM     13  C   UNL d   1       3.925  -4.124  -0.034  0.00  0.00    -0.062 A 
ATOM     14  C   UNL d   1       4.699  -3.071   0.463  0.00  0.00     0.007 A 
ATOM     15  C   UNL d   1       4.444  -5.530  -0.034  0.00  0.00     0.048 C 
ATOM     16  C   UNL d   1       4.202  -1.765   0.461  0.00  0.00     0.010 A 
ENDBRANCH   9  10
ENDBRANCH   1   9
TORSDOF 3
