REMARK  2 active torsions:
REMARK  status: ('A' for Active; 'I' for Inactive)
REMARK    1  A    between atoms: N_6  and  S_1 
REMARK    2  A    between atoms: C_13  and  S_1 
ROOT
ATOM      1  C   UNL d   1       2.212  -2.211  -4.995  0.00  0.00     0.147 A 
ATOM      2  N   UNL d   1       2.336  -3.332  -5.668  0.00  0.00    -0.336 N 
ATOM      3  HN  UNL d   1       1.646  -4.083  -5.666  1.00  0.00     0.168 HD
ATOM      4  S   UNL d   1       3.590  -1.167  -5.125  0.00  0.00    -0.052 SA
ATOM      5  N   UNL d   1       0.663  -0.793  -1.444  0.00  0.00    -0.205 NA
ATOM      6  N   UNL d   1       1.121  -1.895  -4.237  0.00  0.00    -0.360 N 
ATOM      7  C   UNL d   1       4.364  -2.272  -6.181  0.00  0.00     0.036 A 
ATOM      8  C   UNL d   1       3.524  -3.365  -6.381  0.00  0.00     0.051 A 
ATOM      9  C   UNL d   1       1.194  -0.003  -2.619  0.00  0.00     0.127 C 
ATOM     10  C   UNL d   1       5.622  -2.171  -6.799  0.00  0.00     0.045 A 
ATOM     11  C   UNL d   1       0.705  -0.518  -3.976  0.00  0.00     0.140 C 
ATOM     12  C   UNL d   1       3.938  -4.384  -7.263  0.00  0.00     0.032 A 
ATOM     13  C   UNL d   1       6.009  -3.198  -7.662  0.00  0.00     0.035 A 
ATOM     14  C   UNL d   1       0.286  -3.152  -2.269  0.00  0.00     0.035 C 
ATOM     15  C   UNL d   1       1.171  -2.210  -1.454  0.00  0.00     0.109 C 
ATOM     16  C   UNL d   1       0.212  -2.934  -3.782  0.00  0.00     0.126 C 
ATOM     17  C   UNL d   1       5.180  -4.288  -7.905  0.00  0.00     0.026 A 
ATOM     18 CL   UNL d   1       7.541  -3.104  -8.444  0.00  0.00    -0.084 Cl
ENDROOT
BRANCH   5  19
ATOM     19  S   UNL d   1       1.029   0.006   0.055  0.00  0.00     0.243 S 
ATOM     20  O   UNL d   1       2.408   0.444  -0.014  0.00  0.00    -0.206 OA
ATOM     21  O   UNL d   1       0.561  -0.829   1.145  0.00  0.00    -0.206 OA
BRANCH  19  22
ATOM     22  C   UNL d   1      -0.022   1.438   0.036  0.00  0.00     0.074 A 
ATOM     23  C   UNL d   1      -1.408   1.255   0.001  0.00  0.00     0.025 A 
ATOM     24  C   UNL d   1      -2.248   2.369   0.035  0.00  0.00     0.002 A 
ATOM     25  C   UNL d   1      -1.705   3.653   0.106  0.00  0.00     0.000 A 
ATOM     26  C   UNL d   1      -0.319   3.829   0.148  0.00  0.00     0.002 A 
ATOM     27  C   UNL d   1       0.528   2.720   0.116  0.00  0.00     0.025 A 
ENDBRANCH  19  22
ENDBRANCH   5  19
TORSDOF 2
