REMARK  7 active torsions:
REMARK  status: ('A' for Active; 'I' for Inactive)
REMARK       I    between atoms: N_3  and  C_1 
REMARK    1  A    between atoms: O_5  and  C_1 
REMARK       I    between atoms: N_9  and  C_2 
REMARK    2  A    between atoms: C_4  and  C_2 
REMARK    3  A    between atoms: C_4  and  N_3 
REMARK    4  A    between atoms: C_8  and  C_4 
REMARK    5  A    between atoms: C_10  and  O_5 
REMARK    6  A    between atoms: C_12  and  C_8 
REMARK    7  A    between atoms: N_11  and  N_9 
ROOT
ATOM      1  C   UNL d   1       1.337  -2.179  -2.075  0.00  0.00     0.184 C 
ENDROOT
BRANCH   1   2
ATOM      2  C   UNL d   1       2.360  -3.011  -1.284  0.00  0.00     0.073 C 
BRANCH   2   3
ATOM      3  C   UNL d   1       3.132  -2.451  -0.107  0.00  0.00    -0.056 A 
ATOM      4  C   UNL d   1       2.512  -2.160   1.115  0.00  0.00     0.007 A 
ATOM      5  C   UNL d   1       3.275  -1.903   2.260  0.00  0.00     0.001 A 
ATOM      6  C   UNL d   1       4.668  -1.925   2.201  0.00  0.00     0.000 A 
ATOM      7  C   UNL d   1       5.299  -2.171   0.986  0.00  0.00     0.001 A 
ATOM      8  C   UNL d   1       4.538  -2.426  -0.158  0.00  0.00     0.007 A 
ENDBRANCH   2   3
ENDBRANCH   1   2
BRANCH   1   9
ATOM      9  N   UNL d   1       1.870  -0.923  -2.602  0.00  0.00    -0.323 N 
ATOM     10  C   UNL d   1       1.702  -0.538  -3.898  0.00  0.00     0.362 C 
ATOM     11  O   UNL d   1       1.041  -1.169  -4.713  0.00  0.00    -0.238 OA
ATOM     12  H   UNL d   1       2.323  -0.264  -1.976  0.00  0.00     0.165 HD
BRANCH  10  13
ATOM     13  O   UNL d   1       2.348   0.625  -4.123  0.00  0.00    -0.294 OA
BRANCH  13  14
ATOM     14  C   UNL d   1       2.441   1.179  -5.466  0.00  0.00     0.061 C 
ATOM     15  C   UNL d   1       1.067   1.529  -6.051  0.00  0.00     0.046 C 
ATOM     16  C   UNL d   1       3.245   2.478  -5.300  0.00  0.00     0.046 C 
ATOM     17  C   UNL d   1       3.220   0.235  -6.390  0.00  0.00     0.046 C 
ENDBRANCH  13  14
ENDBRANCH  10  13
ENDBRANCH   1   9
BRANCH   1  18
ATOM     18  C   UNL d   1      -0.054  -2.043  -1.417  0.00  0.00     0.255 C 
ATOM     19  O   UNL d   1      -0.393  -2.636  -0.392  0.00  0.00    -0.270 OA
ATOM     20  N   UNL d   1      -0.975  -1.352  -2.207  0.00  0.00    -0.292 N 
ATOM     21  H   UNL d   1      -0.705  -1.032  -3.139  0.00  0.00     0.183 HD
BRANCH  20  22
ATOM     22  N   UNL d   1      -2.335  -1.301  -1.821  0.00  0.00    -0.247 NA
ATOM     23  H   UNL d   1      -2.402  -1.752  -0.898  0.00  0.00     0.143 HD
ATOM     24  H   UNL d   1      -2.870  -1.915  -2.442  0.00  0.00     0.143 HD
ENDBRANCH  20  22
ENDBRANCH   1  18
TORSDOF 7
