REMARK  3 active torsions:
REMARK  status: ('A' for Active; 'I' for Inactive)
REMARK    1  A    between atoms: C_2  and  C_1 
REMARK    2  A    between atoms: C_14  and  C_8 
REMARK    3  A    between atoms: C_15  and  C_11 
ROOT
ATOM      1  C   UNL d   1       1.352   0.723   0.004  0.00  0.00     0.093 A 
ATOM      2  N   UNL d   1       1.311  -0.456  -0.726  0.00  0.00    -0.346 N 
ATOM      3  HN  UNL d   1       2.056  -0.789  -1.338  1.00  0.00     0.167 HD
ATOM      4  C   UNL d   1       0.168  -1.084  -0.514  0.00  0.00     0.086 A 
ATOM      5  S   UNL d   1      -0.912  -0.269   0.560  0.00  0.00    -0.081 SA
ATOM      6  C   UNL d   1       0.231   0.982   0.764  0.00  0.00     0.086 A 
ENDROOT
BRANCH   1   7
ATOM      7  C   UNL d   1       2.516   1.659  -0.025  0.00  0.00     0.192 A 
ATOM      8  O   UNL d   1       3.610   1.519  -0.846  0.00  0.00    -0.271 OA
ATOM      9  C   UNL d   1       4.339   2.640  -0.547  0.00  0.00     0.174 A 
ATOM     10  N   UNL d   1       3.781   3.370   0.398  0.00  0.00    -0.277 N 
ATOM     11  N   UNL d   1       2.602   2.742   0.729  0.00  0.00    -0.276 N 
ATOM     12  HN  UNL d   1       4.150   4.230   0.803  1.00  0.00     0.189 HD
ATOM     13  HN  UNL d   1       1.923   3.053   1.423  1.00  0.00     0.189 HD
BRANCH   9  14
ATOM     14  C   UNL d   1       5.528   2.905  -1.344  0.00  0.00     0.017 A 
ATOM     15  C   UNL d   1       5.948   2.035  -2.361  0.00  0.00     0.016 A 
ATOM     16  C   UNL d   1       7.036   2.363  -3.175  0.00  0.00     0.001 A 
ATOM     17  C   UNL d   1       7.723   3.559  -2.975  0.00  0.00     0.000 A 
ATOM     18  C   UNL d   1       7.337   4.419  -1.950  0.00  0.00     0.001 A 
ATOM     19  C   UNL d   1       6.249   4.092  -1.137  0.00  0.00     0.016 A 
ENDBRANCH   9  14
ENDBRANCH   1   7
BRANCH   4  20
ATOM     20  C   UNL d   1      -0.168  -2.405  -1.057  0.00  0.00     0.013 A 
ATOM     21  C   UNL d   1      -1.475  -2.829  -1.290  0.00  0.00     0.101 A 
ATOM     22  N   UNL d   1      -1.817  -4.059  -1.754  0.00  0.00    -0.374 N 
ATOM     23  C   UNL d   1      -0.805  -4.914  -2.005  0.00  0.00     0.087 A 
ATOM     24  HN  UNL d   1      -2.791  -4.323  -1.905  1.00  0.00     0.164 HD
ATOM     25  C   UNL d   1       0.530  -4.595  -1.827  0.00  0.00     0.018 A 
ATOM     26  C   UNL d   1       0.848  -3.322  -1.354  0.00  0.00     0.017 A 
ENDBRANCH   4  20
TORSDOF 3
