REMARK  6 active torsions:
REMARK  status: ('A' for Active; 'I' for Inactive)
REMARK    1  A    between atoms: N_2  and  S_1 
REMARK    2  A    between atoms: C_5  and  S_1 
REMARK    3  A    between atoms: C_3  and  N_2 
REMARK    4  A    between atoms: C_12  and  N_2 
REMARK    5  A    between atoms: C_4  and  C_3 
REMARK    6  A    between atoms: C_21  and  C_12 
ROOT
ATOM      1  C   UNL d   1      -0.902   1.444   0.696  0.00  0.00     0.214 C 
ATOM      2  C   UNL d   1      -1.341   2.737   1.320  0.00  0.00     0.085 C 
ATOM      3  N   UNL d   1      -1.658   3.734   1.832  0.00  0.00    -0.195 NA
ENDROOT
BRANCH   1   4
ATOM      4  N   UNL d   1       0.595   1.231   0.848  0.00  0.00    -0.180 NA
BRANCH   4   5
ATOM      5  S   UNL d   1       1.317   0.070  -0.179  0.00  0.00     0.245 S 
ATOM      6  O   UNL d   1       0.353  -0.973  -0.460  0.00  0.00    -0.206 OA
ATOM      7  O   UNL d   1       2.620  -0.277   0.344  0.00  0.00    -0.206 OA
BRANCH   5   8
ATOM      8  C   UNL d   1       1.643   0.841  -1.744  0.00  0.00     0.074 A 
ATOM      9  C   UNL d   1       1.351   2.171  -2.043  0.00  0.00     0.025 A 
ATOM     10  C   UNL d   1       1.665   2.667  -3.317  0.00  0.00     0.008 A 
ATOM     11  C   UNL d   1       2.282   1.852  -4.283  0.00  0.00    -0.062 A 
ATOM     12  C   UNL d   1       2.582   0.526  -3.962  0.00  0.00     0.008 A 
ATOM     13  C   UNL d   1       2.608   2.389  -5.646  0.00  0.00     0.048 C 
ATOM     14  C   UNL d   1       2.264   0.024  -2.703  0.00  0.00     0.025 A 
ENDBRANCH   5   8
ENDBRANCH   4   5
BRANCH   4  15
ATOM     15  C   UNL d   1       1.046   1.124   2.265  0.00  0.00     0.148 C 
BRANCH  15  16
ATOM     16  C   UNL d   1       2.424   1.679   2.550  0.00  0.00    -0.044 A 
ATOM     17  C   UNL d   1       2.761   3.005   2.244  0.00  0.00     0.008 A 
ATOM     18  C   UNL d   1       4.015   3.513   2.598  0.00  0.00     0.001 A 
ATOM     19  C   UNL d   1       4.942   2.705   3.256  0.00  0.00     0.000 A 
ATOM     20  C   UNL d   1       4.626   1.382   3.547  0.00  0.00     0.001 A 
ATOM     21  C   UNL d   1       3.375   0.873   3.197  0.00  0.00     0.008 A 
ENDBRANCH  15  16
ENDBRANCH   4  15
ENDBRANCH   1   4
BRANCH   1  22
ATOM     22  C   UNL d   1      -1.796   0.274   1.139  0.00  0.00    -0.023 A 
ATOM     23  C   UNL d   1      -2.360  -0.556   0.147  0.00  0.00     0.049 A 
ATOM     24  C   UNL d   1      -3.018  -1.706   0.533  0.00  0.00     0.105 A 
ATOM     25  O   UNL d   1      -3.518  -2.650  -0.308  0.00  0.00    -0.323 OA
ATOM     26  C   UNL d   1      -3.195  -2.029   1.853  0.00  0.00     0.105 A 
ATOM     27  C   UNL d   1      -3.930  -3.657   0.639  0.00  0.00     0.352 C 
ATOM     28  O   UNL d   1      -3.830  -3.221   2.013  0.00  0.00    -0.323 OA
ATOM     29  C   UNL d   1      -2.741  -1.208   2.861  0.00  0.00     0.040 A 
ATOM     30  C   UNL d   1      -2.033  -0.050   2.500  0.00  0.00     0.013 A 
ENDBRANCH   1  22
TORSDOF 6
