REMARK  1 active torsions:
REMARK  status: ('A' for Active; 'I' for Inactive)
REMARK    1  A    between atoms: C_16  and  N_4 
ROOT
ATOM      1  C   UNL d   1       2.714  -0.692  -0.035  0.00  0.00     0.139 A 
ATOM      2  C   UNL d   1       1.766   0.281   0.013  0.00  0.00     0.105 A 
ATOM      3  N   UNL d   1       4.067  -0.294  -0.150  0.00  0.00    -0.288 N 
ATOM      4  N   UNL d   1       2.296  -2.062  -0.032  0.00  0.00    -0.262 N 
ATOM      5  N   UNL d   1       3.524   1.984   0.104  0.00  0.00    -0.270 N 
ATOM      6  C   UNL d   1       4.498   1.024   0.027  0.00  0.00     0.332 C 
ATOM      7  C   UNL d   1       2.182   1.718  -0.026  0.00  0.00     0.267 C 
ATOM      8  C   UNL d   1       0.927  -2.433  -0.050  0.00  0.00     0.266 A 
ATOM      9  C   UNL d   1      -0.075  -1.374  -0.022  0.00  0.00     0.061 A 
ATOM     10  C   UNL d   1       0.330  -0.064   0.031  0.00  0.00     0.068 A 
ATOM     11  N   UNL d   1      -0.582   0.939   0.078  0.00  0.00    -0.354 N 
ATOM     12  HN  UNL d   1      -0.267   1.907   0.134  1.00  0.00     0.166 HD
ATOM     13  C   UNL d   1      -1.442  -1.681  -0.027  0.00  0.00     0.033 A 
ATOM     14  C   UNL d   1      -2.384  -0.650   0.004  0.00  0.00    -0.005 A 
ATOM     15  C   UNL d   1      -1.898   0.669   0.051  0.00  0.00     0.043 A 
ATOM     16  O   UNL d   1       5.695   1.317   0.071  0.00  0.00    -0.246 OA
ATOM     17  O   UNL d   1       1.379   2.638  -0.178  0.00  0.00    -0.267 OA
ATOM     18  O   UNL d   1       0.499  -3.588  -0.052  0.00  0.00    -0.267 OA
ATOM     19  C   UNL d   1      -3.766  -0.900  -0.016  0.00  0.00     0.056 A 
ATOM     20  C   UNL d   1       5.158  -1.184  -0.528  0.00  0.00     0.163 C 
ATOM     21  C   UNL d   1       3.918   3.385   0.106  0.00  0.00     0.164 C 
ATOM     22  C   UNL d   1      -2.818   1.711   0.063  0.00  0.00     0.033 A 
ATOM     23  C   UNL d   1      -4.656   0.165   0.000  0.00  0.00     0.117 A 
ATOM     24  C   UNL d   1      -4.195   1.473   0.036  0.00  0.00     0.044 A 
ATOM     25  F   UNL d   1      -5.973  -0.073  -0.023  0.00  0.00    -0.206 F 
ENDROOT
BRANCH   4  26
ATOM     26  C   UNL d   1       3.165  -3.200   0.083  0.00  0.00     0.044 A 
ATOM     27  C   UNL d   1       3.155  -4.181  -0.924  0.00  0.00     0.030 A 
ATOM     28  C   UNL d   1       4.005  -5.284  -0.851  0.00  0.00     0.002 A 
ATOM     29  C   UNL d   1       4.860  -5.426   0.238  0.00  0.00     0.000 A 
ATOM     30  C   UNL d   1       4.849  -4.480   1.264  0.00  0.00     0.002 A 
ATOM     31  C   UNL d   1       3.996  -3.374   1.196  0.00  0.00     0.030 A 
ENDBRANCH   4  26
TORSDOF 1
