REMARK  4 active torsions:
REMARK  status: ('A' for Active; 'I' for Inactive)
REMARK    1  A    between atoms: O_2  and  S_1 
REMARK    2  A    between atoms: C_4  and  S_1 
REMARK    3  A    between atoms: C_3  and  O_2 
REMARK       I    between atoms: C_8  and  N_9 
REMARK    4  A    between atoms: N_9  and  C_15 
ROOT
ATOM      1  S   UNL d   1       1.123   0.004   0.002  0.00  0.00     0.303 S 
ATOM      2  O   UNL d   1       2.002   0.627  -0.971  0.00  0.00    -0.193 OA
ATOM      3  O   UNL d   1       1.609  -1.062   0.859  0.00  0.00    -0.193 OA
ENDROOT
BRANCH   1   4
ATOM      4  O   UNL d   1      -0.236  -0.495  -0.752  0.00  0.00    -0.228 OA
BRANCH   4   5
ATOM      5  C   UNL d   1      -0.175  -1.401  -1.786  0.00  0.00     0.107 A 
ATOM      6  C   UNL d   1      -1.083  -1.269  -2.842  0.00  0.00     0.046 A 
ATOM      7  C   UNL d   1      -1.086  -2.189  -3.900  0.00  0.00     0.028 A 
ATOM      8 BR   UNL d   1      -2.338   0.154  -2.892  0.00  0.00    -0.048 Br
ATOM      9  C   UNL d   1      -0.182  -3.258  -3.910  0.00  0.00    -0.061 A 
ATOM     10  C   UNL d   1       0.716  -3.395  -2.848  0.00  0.00     0.009 A 
ATOM     11  C   UNL d   1      -0.193  -4.249  -5.038  0.00  0.00     0.048 C 
ATOM     12  C   UNL d   1       0.716  -2.478  -1.792  0.00  0.00     0.040 A 
ENDBRANCH   4   5
ENDBRANCH   1   4
BRANCH   1  13
ATOM     13  C   UNL d   1       0.558   1.294   1.099  0.00  0.00     0.086 A 
ATOM     14  C   UNL d   1       0.139   0.960   2.389  0.00  0.00     0.028 A 
ATOM     15  C   UNL d   1      -0.165   1.975   3.302  0.00  0.00     0.031 A 
ATOM     16  C   UNL d   1      -0.044   3.325   2.941  0.00  0.00     0.034 A 
ATOM     17  C   UNL d   1       0.356   3.642   1.639  0.00  0.00     0.031 A 
ATOM     18  C   UNL d   1       0.663   2.632   0.718  0.00  0.00     0.028 A 
BRANCH  16  19
ATOM     19  N   UNL d   1      -0.312   4.284   3.942  0.00  0.00    -0.328 N 
ATOM     20  C   UNL d   1      -0.214   5.659   3.837  0.00  0.00     0.218 C 
ATOM     21  O   UNL d   1       0.095   6.298   2.837  0.00  0.00    -0.274 OA
ATOM     22  C   UNL d   1      -0.525   6.377   5.128  0.00  0.00     0.117 C 
ATOM     23  H   UNL d   1      -0.575   3.913   4.846  0.00  0.00     0.169 HD
ENDBRANCH  16  19
ENDBRANCH   1  13
TORSDOF 4
