REMARK  6 active torsions:
REMARK  status: ('A' for Active; 'I' for Inactive)
REMARK    1  A    between atoms: N_2  and  C_1 
REMARK    2  A    between atoms: N_3  and  C_1 
REMARK    3  A    between atoms: C_5  and  N_2 
REMARK    4  A    between atoms: C_6  and  N_3 
REMARK    5  A    between atoms: C_14  and  C_5 
REMARK    6  A    between atoms: O_13  and  C_14 
ROOT
ATOM      1  C   UNL d   1       0.975  -0.079  -0.152  0.00  0.00     0.172 C 
ATOM      2  S   UNL d   1       0.060  -1.479  -0.038  0.00  0.00    -0.041 SA
ENDROOT
BRANCH   1   3
ATOM      3  N   UNL d   1       0.466   1.036   0.439  0.00  0.00    -0.356 N 
ATOM      4  H   UNL d   1      -0.354   0.808   0.996  0.00  0.00     0.162 HD
BRANCH   3   5
ATOM      5  C   UNL d   1       1.096   2.325   0.822  0.00  0.00     0.046 C 
ATOM      6  C   UNL d   1       2.459   2.105   1.500  0.00  0.00     0.040 C 
ATOM      7  C   UNL d   1       1.242   3.260  -0.388  0.00  0.00     0.040 C 
BRANCH   5   8
ATOM      8  C   UNL d   1       0.145   3.025   1.840  0.00  0.00     0.194 C 
BRANCH   8   9
ATOM      9  O   UNL d   1      -0.109   2.167   2.952  0.00  0.00    -0.398 OA
ATOM     10  H   UNL d   1      -0.645   2.668   3.591  0.00  0.00     0.209 HD
ENDBRANCH   8   9
ENDBRANCH   5   8
ENDBRANCH   3   5
ENDBRANCH   1   3
BRANCH   1  11
ATOM     11  N   UNL d   1       2.165   0.057  -0.808  0.00  0.00    -0.333 N 
ATOM     12  H   UNL d   1       2.229   0.876  -1.391  0.00  0.00     0.168 HD
BRANCH  11  13
ATOM     13  C   UNL d   1       3.221  -0.873  -0.916  0.00  0.00     0.034 A 
ATOM     14  C   UNL d   1       4.135  -0.708  -1.965  0.00  0.00     0.032 A 
ATOM     15  C   UNL d   1       5.234  -1.563  -2.083  0.00  0.00     0.044 A 
ATOM     16  C   UNL d   1       5.431  -2.563  -1.138  0.00  0.00     0.116 A 
ATOM     17  C   UNL d   1       4.551  -2.722  -0.077  0.00  0.00     0.044 A 
ATOM     18  F   UNL d   1       6.495  -3.370  -1.244  0.00  0.00    -0.206 F 
ATOM     19  C   UNL d   1       3.445  -1.875   0.034  0.00  0.00     0.032 A 
ENDBRANCH  11  13
ENDBRANCH   1  11
TORSDOF 6
