REMARK  4 active torsions:
REMARK  status: ('A' for Active; 'I' for Inactive)
REMARK    1  A    between atoms: C_8  and  C_5 
REMARK    2  A    between atoms: O_12  and  C_7 
REMARK    3  A    between atoms: C_19  and  O_12 
REMARK    4  A    between atoms: C_17  and  C_19 
ROOT
ATOM      1  N   UNL d   1      -1.571  -1.020   0.063  0.00  0.00    -0.341 N 
ATOM      2  HN  UNL d   1      -1.930  -1.975   0.094  1.00  0.00     0.167 HD
ATOM      3  C   UNL d   1      -0.305  -0.655   0.036  0.00  0.00     0.145 A 
ATOM      4  N   UNL d   1      -0.195   0.731   0.035  0.00  0.00    -0.315 N 
ATOM      5  C   UNL d   1      -2.315   0.135   0.041  0.00  0.00     0.034 A 
ATOM      6  C   UNL d   1      -1.473   1.231   0.026  0.00  0.00     0.123 A 
ATOM      7  C   UNL d   1       0.918  -1.406  -0.010  0.00  0.00     0.113 A 
ATOM      8  C   UNL d   1       1.020   1.411   0.033  0.00  0.00     0.098 A 
ATOM      9  C   UNL d   1       2.165   0.707   0.030  0.00  0.00     0.020 A 
ATOM     10  C   UNL d   1       2.094  -0.746   0.006  0.00  0.00     0.042 A 
ENDROOT
BRANCH   7  11
ATOM     11  O   UNL d   1       0.908  -2.790  -0.086  0.00  0.00    -0.343 OA
BRANCH  11  12
ATOM     12  C   UNL d   1      -0.277  -3.385  -0.627  0.00  0.00     0.214 C 
BRANCH  12  13
ATOM     13  C   UNL d   1       0.013  -4.774  -1.151  0.00  0.00    -0.032 A 
ATOM     14  C   UNL d   1      -0.698  -5.245  -2.269  0.00  0.00     0.035 A 
ATOM     15  C   UNL d   1      -0.477  -6.531  -2.768  0.00  0.00     0.056 A 
ATOM     16 CL   UNL d   1      -1.386  -7.022  -4.153  0.00  0.00    -0.083 Cl
ATOM     17  C   UNL d   1       0.451  -7.368  -2.142  0.00  0.00     0.055 A 
ATOM     18  C   UNL d   1       1.147  -6.915  -1.017  0.00  0.00     0.026 A 
ATOM     19 CL   UNL d   1       0.781  -8.970  -2.701  0.00  0.00    -0.083 Cl
ATOM     20  C   UNL d   1       0.925  -5.628  -0.521  0.00  0.00     0.011 A 
ENDBRANCH  12  13
ENDBRANCH  11  12
ENDBRANCH   7  11
BRANCH   5  21
ATOM     21  C   UNL d   1      -3.828   0.079   0.031  0.00  0.00    -0.007 C 
ATOM     22  C   UNL d   1      -4.330  -1.381   0.029  0.00  0.00     0.021 C 
ATOM     23  C   UNL d   1      -4.390   0.778   1.282  0.00  0.00     0.021 C 
ATOM     24  C   UNL d   1      -4.376   0.771  -1.231  0.00  0.00     0.021 C 
ENDBRANCH   5  21
TORSDOF 4
