REMARK  5 active torsions:
REMARK  status: ('A' for Active; 'I' for Inactive)
REMARK    1  A    between atoms: C_6  and  C_1 
REMARK    2  A    between atoms: S_10  and  C_3 
REMARK    3  A    between atoms: C_9  and  S_10 
REMARK    4  A    between atoms: C_11  and  C_9 
REMARK    5  A    between atoms: C_12  and  C_9 
ROOT
ATOM      1  C   UNL d   1       0.986   0.557  -0.263  0.00  0.00     0.207 A 
ATOM      2  N   UNL d   1       0.987  -0.795  -0.491  0.00  0.00    -0.317 N 
ATOM      3  C   UNL d   1      -0.294  -1.205  -0.303  0.00  0.00     0.161 A 
ATOM      4  N   UNL d   1      -0.241   0.931   0.057  0.00  0.00    -0.280 N 
ATOM      5  HN  UNL d   1      -0.540   1.880   0.280  1.00  0.00     0.188 HD
ATOM      6  N   UNL d   1      -1.046  -0.190   0.036  0.00  0.00    -0.278 N 
ATOM      7  HN  UNL d   1      -2.043  -0.221   0.247  1.00  0.00     0.189 HD
ATOM      8  H   UNL d   1       1.771  -1.374  -0.756  0.00  0.00     0.169 HD
ENDROOT
BRANCH   3   9
ATOM      9  S   UNL d   1      -0.727  -2.849  -0.515  0.00  0.00    -0.072 SA
BRANCH   9  10
ATOM     10  C   UNL d   1      -2.536  -2.802  -0.224  0.00  0.00     0.193 C 
BRANCH  10  11
ATOM     11  C   UNL d   1      -3.213  -2.323  -1.496  0.00  0.00     0.144 C 
ATOM     12  O   UNL d   1      -3.409  -3.074  -2.455  0.00  0.00    -0.297 OA
ATOM     13  C   UNL d   1      -3.632  -0.877  -1.577  0.00  0.00     0.092 C 
ENDBRANCH  10  11
BRANCH  10  14
ATOM     14  C   UNL d   1      -3.031  -4.181   0.217  0.00  0.00     0.144 C 
ATOM     15  O   UNL d   1      -2.303  -5.026   0.745  0.00  0.00    -0.297 OA
ATOM     16  C   UNL d   1      -4.510  -4.463   0.085  0.00  0.00     0.092 C 
ENDBRANCH  10  14
ENDBRANCH   9  10
ENDBRANCH   3   9
BRANCH   1  17
ATOM     17  C   UNL d   1       2.218   1.370  -0.386  0.00  0.00     0.450 C 
ATOM     18  F   UNL d   1       3.266   0.603  -0.799  0.00  0.00    -0.163 F 
ATOM     19  F   UNL d   1       2.095   2.371  -1.293  0.00  0.00    -0.163 F 
ATOM     20  F   UNL d   1       2.593   1.930   0.790  0.00  0.00    -0.163 F 
ENDBRANCH   1  17
TORSDOF 5
