REMARK  5 active torsions:
REMARK  status: ('A' for Active; 'I' for Inactive)
REMARK    1  A    between atoms: C_4  and  C_1 
REMARK       I    between atoms: N_2  and  C_6 
REMARK    2  A    between atoms: C_3  and  N_2 
REMARK    3  A    between atoms: C_6  and  C_16 
REMARK    4  A    between atoms: S_9  and  C_17 
REMARK    5  A    between atoms: C_16  and  S_9 
ROOT
ATOM      1  N   UNL d   1      -5.468   2.904  -2.976  0.00  0.00    -0.324 N 
ATOM      2  C   UNL d   1      -5.122   1.730  -2.326  0.00  0.00     0.231 C 
ATOM      3  O   UNL d   1      -5.898   0.820  -2.047  0.00  0.00    -0.272 OA
ATOM      4  H   UNL d   1      -4.720   3.473  -3.360  0.00  0.00     0.169 HD
ENDROOT
BRANCH   2   5
ATOM      5  C   UNL d   1      -3.636   1.617  -2.015  0.00  0.00     0.182 C 
BRANCH   5   6
ATOM      6  S   UNL d   1      -3.197   2.910  -0.801  0.00  0.00    -0.121 SA
BRANCH   6   7
ATOM      7  C   UNL d   1      -1.541   2.419  -0.370  0.00  0.00     0.001 A 
ATOM      8  C   UNL d   1      -1.258   2.119   0.969  0.00  0.00     0.034 A 
ATOM      9  C   UNL d   1       0.054   1.833   1.379  0.00  0.00     0.049 A 
ATOM     10  C   UNL d   1       1.083   1.856   0.427  0.00  0.00     0.016 A 
ATOM     11  C   UNL d   1       0.802   2.151  -0.908  0.00  0.00     0.002 A 
ATOM     12  C   UNL d   1      -0.507   2.434  -1.304  0.00  0.00     0.018 A 
BRANCH   9  13
ATOM     13  C   UNL d   1       0.369   1.553   2.828  0.00  0.00     0.417 C 
ATOM     14  F   UNL d   1      -0.736   1.412   3.611  0.00  0.00    -0.166 F 
ATOM     15  F   UNL d   1       1.106   2.547   3.397  0.00  0.00    -0.166 F 
ATOM     16  F   UNL d   1       1.092   0.411   2.995  0.00  0.00    -0.166 F 
ENDBRANCH   9  13
ENDBRANCH   6   7
ENDBRANCH   5   6
ENDBRANCH   2   5
BRANCH   1  17
ATOM     17  C   UNL d   1      -6.777   3.375  -3.216  0.00  0.00     0.073 A 
ATOM     18  C   UNL d   1      -6.939   4.412  -4.145  0.00  0.00     0.145 A 
ATOM     19  C   UNL d   1      -8.192   4.935  -4.442  0.00  0.00     0.086 A 
ATOM     20  F   UNL d   1      -5.863   4.901  -4.784  0.00  0.00    -0.204 F 
ATOM     21  C   UNL d   1      -9.299   4.432  -3.773  0.00  0.00     0.119 A 
ATOM     22  C   UNL d   1      -9.166   3.426  -2.822  0.00  0.00     0.044 A 
ATOM     23  F   UNL d   1     -10.513   4.927  -4.043  0.00  0.00    -0.206 F 
ATOM     24  C   UNL d   1      -7.903   2.891  -2.546  0.00  0.00     0.036 A 
ENDBRANCH   1  17
TORSDOF 5
