REMARK  3 active torsions:
REMARK  status: ('A' for Active; 'I' for Inactive)
REMARK    1  A    between atoms: C_14  and  C_3 
REMARK    2  A    between atoms: C_11  and  C_6 
REMARK    3  A    between atoms: C_18  and  C_15 
ROOT
ATOM      1  C   UNL d   1      -0.053   0.268   0.368  0.00  0.00     0.172 A 
ATOM      2  N   UNL d   1      -0.025  -0.530  -0.737  0.00  0.00    -0.235 N 
ATOM      3  C   UNL d   1      -1.954   0.283  -0.491  0.00  0.00     0.207 A 
ATOM      4  N   UNL d   1      -1.220   0.799   0.575  0.00  0.00    -0.316 N 
ATOM      5  HN  UNL d   1      -1.519   1.428   1.321  1.00  0.00     0.169 HD
ATOM      6  C   UNL d   1       2.121  -0.834  -0.054  0.00  0.00     0.060 A 
ATOM      7  N   UNL d   1      -1.242  -0.527  -1.317  0.00  0.00    -0.273 N 
ATOM      8  HN  UNL d   1      -1.551  -1.010  -2.161  1.00  0.00     0.189 HD
ATOM      9  C   UNL d   1       1.189  -1.152  -0.989  0.00  0.00     0.052 A 
ATOM     10  S   UNL d   1       1.467   0.304   1.176  0.00  0.00    -0.048 SA
ATOM     11  C   UNL d   1       1.331  -2.062  -2.162  0.00  0.00     0.072 C 
ENDROOT
BRANCH   6  12
ATOM     12  C   UNL d   1       3.470  -1.312   0.050  0.00  0.00     0.059 A 
ATOM     13  N   UNL d   1       3.956  -2.209  -0.892  0.00  0.00    -0.348 N 
ATOM     14  C   UNL d   1       5.181  -2.593  -0.582  0.00  0.00     0.084 A 
ATOM     15  HN  UNL d   1       3.439  -2.527  -1.711  1.00  0.00     0.166 HD
ATOM     16  S   UNL d   1       5.844  -1.814   0.808  0.00  0.00    -0.081 SA
ATOM     17  C   UNL d   1       4.370  -0.981   1.042  0.00  0.00     0.082 A 
BRANCH  14  18
ATOM     18  C   UNL d   1       5.977  -3.575  -1.341  0.00  0.00    -0.002 A 
ATOM     19  C   UNL d   1       5.795  -3.702  -2.728  0.00  0.00     0.016 A 
ATOM     20  C   UNL d   1       6.553  -4.616  -3.473  0.00  0.00     0.024 A 
ATOM     21  C   UNL d   1       7.492  -5.422  -2.833  0.00  0.00     0.034 A 
ATOM     22  C   UNL d   1       7.672  -5.330  -1.457  0.00  0.00     0.024 A 
ATOM     23 CL   UNL d   1       8.432  -6.537  -3.744  0.00  0.00    -0.084 Cl
ATOM     24  C   UNL d   1       6.917  -4.415  -0.717  0.00  0.00     0.016 A 
ENDBRANCH  14  18
ENDBRANCH   6  12
BRANCH   3  25
ATOM     25  C   UNL d   1      -3.423   0.596  -0.697  0.00  0.00     0.450 C 
ATOM     26  F   UNL d   1      -3.930   1.407   0.273  0.00  0.00    -0.163 F 
ATOM     27  F   UNL d   1      -3.653   1.226  -1.882  0.00  0.00    -0.163 F 
ATOM     28  F   UNL d   1      -4.192  -0.528  -0.696  0.00  0.00    -0.163 F 
ENDBRANCH   3  25
TORSDOF 3
