REMARK  2 active torsions:
REMARK  status: ('A' for Active; 'I' for Inactive)
REMARK    1  A    between atoms: N_2  and  C_3 
REMARK       I    between atoms: C_6  and  N_4 
REMARK    2  A    between atoms: C_15  and  C_6 
ROOT
ATOM      1  C   UNL d   1      -2.171  -0.593  -1.194  0.00  0.00     0.017 A 
ATOM      2  C   UNL d   1      -2.438  -1.249   0.048  0.00  0.00     0.044 A 
ATOM      3  C   UNL d   1      -1.845   0.783  -1.166  0.00  0.00     0.046 A 
ATOM      4  C   UNL d   1      -2.170  -1.247  -2.455  0.00  0.00     0.018 A 
ATOM      5  C   UNL d   1      -1.565   1.445  -2.351  0.00  0.00     0.054 A 
ATOM      6  N   UNL d   1      -1.771   1.490  -0.030  0.00  0.00    -0.365 N 
ATOM      7  HN  UNL d   1      -1.537   2.483  -0.043  1.00  0.00     0.165 HD
ATOM      8  C   UNL d   1      -1.609   0.789  -3.580  0.00  0.00     0.036 A 
ATOM      9  C   UNL d   1      -2.348  -0.488   1.216  0.00  0.00     0.047 A 
ATOM     10  C   UNL d   1      -1.917  -0.559  -3.639  0.00  0.00     0.025 A 
ATOM     11  C   UNL d   1      -2.016   0.850   1.129  0.00  0.00     0.090 A 
ATOM     12 CL   UNL d   1      -1.261   1.648  -5.029  0.00  0.00    -0.084 Cl
ENDROOT
BRANCH   2  13
ATOM     13  N   UNL d   1      -2.718  -2.617   0.101  0.00  0.00    -0.377 N 
ATOM     14  C   UNL d   1      -2.358  -3.415   1.291  0.00  0.00     0.143 C 
ATOM     15  C   UNL d   1      -2.173  -4.891   0.873  0.00  0.00     0.146 C 
ATOM     16  N   UNL d   1      -3.328  -5.405   0.110  0.00  0.00    -0.346 N 
ATOM     17  C   UNL d   1      -3.732  -4.537  -1.011  0.00  0.00     0.146 C 
ATOM     18  C   UNL d   1      -3.858  -6.632   0.461  0.00  0.00     0.243 C 
ATOM     19  C   UNL d   1      -3.968  -3.091  -0.529  0.00  0.00     0.143 C 
ATOM     20  O   UNL d   1      -3.441  -7.278   1.421  0.00  0.00    -0.268 OA
BRANCH  18  21
ATOM     21  C   UNL d   1      -4.983  -7.163  -0.355  0.00  0.00     0.070 C 
ATOM     22  C   UNL d   1      -5.614  -8.300  -0.005  0.00  0.00    -0.026 C 
ATOM     23  C   UNL d   1      -6.756  -8.873  -0.775  0.00  0.00     0.036 C 
ENDBRANCH  18  21
ENDBRANCH   2  13
TORSDOF 2
