REMARK  5 active torsions:
REMARK  status: ('A' for Active; 'I' for Inactive)
REMARK    1  A    between atoms: C_4  and  C_1 
REMARK    2  A    between atoms: C_5  and  C_1 
REMARK    3  A    between atoms: C_8  and  C_5 
REMARK    4  A    between atoms: O_9  and  C_10 
REMARK    5  A    between atoms: C_13  and  O_9 
ROOT
ATOM      1  N   UNL d   1       5.191   0.777  -6.720  0.00  0.00    -0.191 NA
ATOM      2  C   UNL d   1       4.745   0.667  -5.654  0.00  0.00     0.099 C 
ATOM      3  C   UNL d   1       2.302   0.291  -2.837  0.00  0.00     0.011 A 
ATOM      4  C   UNL d   1       2.825   0.428  -4.131  0.00  0.00     0.037 A 
ATOM      5  C   UNL d   1       4.209   0.527  -4.330  0.00  0.00     0.045 A 
ATOM      6  C   UNL d   1       3.182   0.239  -1.746  0.00  0.00     0.015 A 
ATOM      7  C   UNL d   1       4.561   0.342  -1.943  0.00  0.00     0.002 A 
ATOM      8  C   UNL d   1       5.073   0.491  -3.231  0.00  0.00     0.023 A 
ENDROOT
BRANCH   3   9
ATOM      9  C   UNL d   1       0.812   0.219  -2.672  0.00  0.00     0.163 C 
ATOM     10  O   UNL d   1       0.101   0.236  -3.671  0.00  0.00    -0.292 OA
BRANCH   9  11
ATOM     11  C   UNL d   1       0.269   0.137  -1.259  0.00  0.00     0.122 C 
BRANCH  11  12
ATOM     12  C   UNL d   1      -1.231   0.072  -1.097  0.00  0.00    -0.048 C 
ATOM     13  C   UNL d   1      -1.878  -1.170  -1.124  0.00  0.00     0.044 C 
ATOM     14  C   UNL d   1      -3.183  -1.295  -0.639  0.00  0.00     0.076 C 
ATOM     15  C   UNL d   1      -3.913  -0.151  -0.317  0.00  0.00     0.037 C 
ATOM     16  C   UNL d   1      -3.316   1.106  -0.410  0.00  0.00     0.003 C 
ATOM     17  C   UNL d   1      -1.972   1.216  -0.777  0.00  0.00     0.007 C 
BRANCH  14  18
ATOM     18  O   UNL d   1      -3.821  -2.502  -0.450  0.00  0.00    -0.311 OA
BRANCH  18  19
ATOM     19  C   UNL d   1      -3.105  -3.601  -0.021  0.00  0.00     0.076 A 
ATOM     20  C   UNL d   1      -1.914  -3.552   0.713  0.00  0.00     0.037 A 
ATOM     21  C   UNL d   1      -1.220  -4.726   1.011  0.00  0.00     0.003 A 
ATOM     22  C   UNL d   1      -1.754  -5.960   0.648  0.00  0.00     0.000 A 
ATOM     23  C   UNL d   1      -2.988  -6.021   0.002  0.00  0.00     0.003 A 
ATOM     24  C   UNL d   1      -3.660  -4.843  -0.334  0.00  0.00     0.037 A 
ENDBRANCH  18  19
ENDBRANCH  14  18
ENDBRANCH  11  12
ENDBRANCH   9  11
ENDBRANCH   3   9
TORSDOF 5
