REMARK  7 active torsions:
REMARK  status: ('A' for Active; 'I' for Inactive)
REMARK       I    between atoms: N_3  and  C_1 
REMARK    1  A    between atoms: C_6  and  C_1 
REMARK       I    between atoms: C_2  and  N_4 
REMARK    2  A    between atoms: C_15  and  C_2 
REMARK    3  A    between atoms: N_4  and  N_3 
REMARK    4  A    between atoms: C_5  and  C_19 
REMARK       I    between atoms: N_7  and  C_5 
REMARK    5  A    between atoms: C_14  and  N_7 
REMARK    6  A    between atoms: S_13  and  C_15 
REMARK    7  A    between atoms: C_19  and  S_13 
ROOT
ATOM      1  C   UNL d   1       3.286  -3.729  -0.470  0.00  0.00     0.245 C 
ATOM      2  N   UNL d   1       3.482  -3.187  -1.721  0.00  0.00    -0.267 N 
ATOM      3  O   UNL d   1       3.566  -3.128   0.569  0.00  0.00    -0.271 OA
ATOM      4  H   UNL d   1       3.530  -3.778  -2.553  0.00  0.00     0.190 HD
ENDROOT
BRANCH   1   5
ATOM      5  C   UNL d   1       2.571  -5.072  -0.464  0.00  0.00     0.178 C 
BRANCH   5   6
ATOM      6  S   UNL d   1       3.371  -6.311  -1.544  0.00  0.00    -0.150 SA
BRANCH   6   7
ATOM      7  C   UNL d   1       4.845  -6.622  -0.527  0.00  0.00     0.177 C 
BRANCH   7   8
ATOM      8  C   UNL d   1       5.784  -7.709  -1.030  0.00  0.00     0.231 C 
ATOM      9  N   UNL d   1       5.412  -8.381  -2.178  0.00  0.00    -0.327 N 
ATOM     10  H   UNL d   1       4.587  -8.026  -2.651  0.00  0.00     0.169 HD
ATOM     11  O   UNL d   1       6.821  -7.911  -0.394  0.00  0.00    -0.272 OA
BRANCH   9  12
ATOM     12  C   UNL d   1       6.154  -9.389  -2.838  0.00  0.00     0.034 A 
ATOM     13  C   UNL d   1       7.244 -10.046  -2.259  0.00  0.00     0.029 A 
ATOM     14  C   UNL d   1       7.991 -10.975  -2.987  0.00  0.00     0.002 A 
ATOM     15  C   UNL d   1       7.650 -11.267  -4.304  0.00  0.00     0.000 A 
ATOM     16  C   UNL d   1       6.541 -10.650  -4.880  0.00  0.00     0.002 A 
ATOM     17  C   UNL d   1       5.788  -9.725  -4.147  0.00  0.00     0.029 A 
ENDBRANCH   9  12
ENDBRANCH   7   8
ENDBRANCH   6   7
ENDBRANCH   5   6
ENDBRANCH   1   5
BRANCH   2  18
ATOM     18  N   UNL d   1       4.096  -1.930  -1.823  0.00  0.00    -0.263 N 
ATOM     19  C   UNL d   1       4.793  -1.640  -2.979  0.00  0.00     0.270 C 
ATOM     20  O   UNL d   1       4.921  -2.454  -3.892  0.00  0.00    -0.266 OA
ATOM     21  H   UNL d   1       4.148  -1.371  -0.974  0.00  0.00     0.190 HD
BRANCH  19  22
ATOM     22  C   UNL d   1       5.395  -0.283  -3.078  0.00  0.00     0.033 A 
ATOM     23  C   UNL d   1       6.533  -0.117  -3.877  0.00  0.00     0.017 A 
ATOM     24  C   UNL d   1       7.091   1.151  -4.054  0.00  0.00     0.007 A 
ATOM     25  C   UNL d   1       6.509   2.273  -3.449  0.00  0.00    -0.062 A 
ATOM     26  C   UNL d   1       5.375   2.104  -2.646  0.00  0.00     0.007 A 
ATOM     27  C   UNL d   1       7.107   3.633  -3.669  0.00  0.00     0.048 C 
ATOM     28  C   UNL d   1       4.816   0.834  -2.461  0.00  0.00     0.017 A 
ENDBRANCH  19  22
ENDBRANCH   2  18
TORSDOF 7
