REMARK  0 active torsions:
REMARK  status: ('A' for Active; 'I' for Inactive)
ROOT
ATOM      1  C   UNL d   1      -0.721  -0.455   0.074  0.00  0.00     0.005 A 
ATOM      2  C   UNL d   1      -1.105   0.870   0.083  0.00  0.00     0.020 A 
ATOM      3  N   UNL d   1       0.007   1.657   0.115  0.00  0.00    -0.358 N 
ATOM      4  C   UNL d   1       0.703  -0.473   0.063  0.00  0.00     0.003 A 
ATOM      5  C   UNL d   1       1.133   0.861   0.078  0.00  0.00     0.043 A 
ATOM      6  C   UNL d   1       1.672  -1.494   0.014  0.00  0.00     0.056 A 
ATOM      7  N   UNL d   1      -3.067  -1.117   0.309  0.00  0.00     0.087 N 
ATOM      8  C   UNL d   1       2.487   1.221   0.046  0.00  0.00     0.033 A 
ATOM      9  C   UNL d   1      -1.696  -1.588  -0.002  0.00  0.00     0.311 C 
ATOM     10  C   UNL d   1      -2.518   1.330   0.040  0.00  0.00     0.087 C 
ATOM     11  C   UNL d   1       3.019  -1.139  -0.024  0.00  0.00     0.117 A 
ATOM     12  C   UNL d   1       3.428   0.189  -0.011  0.00  0.00     0.044 A 
ATOM     13  F   UNL d   1       3.946  -2.106  -0.083  0.00  0.00    -0.206 F 
ATOM     14  C   UNL d   1      -3.391   0.134  -0.418  0.00  0.00     0.276 C 
ATOM     15  H   UNL d   1       0.018   2.668   0.127  0.00  0.00     0.166 HD
ATOM     16  H   UNL d   1      -3.090  -0.912   1.308  0.00  0.00     0.316 HD
ENDROOT
TORSDOF 0
