REMARK  3 active torsions:
REMARK  status: ('A' for Active; 'I' for Inactive)
REMARK    1  A    between atoms: C_3  and  C_1 
REMARK    2  A    between atoms: C_14  and  N_2 
REMARK    3  A    between atoms: N_17  and  C_8 
ROOT
ATOM      1  C   UNL d   1      -0.521  -2.672  -0.016  0.00  0.00     0.048 C 
ATOM      2  C   UNL d   1      -1.610  -3.185  -0.745  0.00  0.00     0.034 C 
ATOM      3  C   UNL d   1      -1.778  -4.600  -0.837  0.00  0.00     0.013 A 
ATOM      4  C   UNL d   1      -0.897  -5.417  -0.088  0.00  0.00     0.045 A 
ATOM      5  N   UNL d   1       0.046  -4.921   0.713  0.00  0.00    -0.364 N 
ATOM      6  HN  UNL d   1       0.630  -5.534   1.281  1.00  0.00     0.165 HD
ATOM      7  C   UNL d   1       0.204  -3.580   0.748  0.00  0.00     0.105 C 
ATOM      8  C   UNL d   1      -2.756  -5.234  -1.638  0.00  0.00     0.017 A 
ATOM      9  C   UNL d   1      -0.994  -6.798  -0.179  0.00  0.00     0.054 A 
ATOM     10  C   UNL d   1      -1.958  -7.401  -0.978  0.00  0.00     0.036 A 
ATOM     11  C   UNL d   1      -2.850  -6.625  -1.704  0.00  0.00     0.025 A 
ATOM     12 CL   UNL d   1      -2.044  -9.117  -1.071  0.00  0.00    -0.084 Cl
ENDROOT
BRANCH   1  13
ATOM     13  C   UNL d   1      -0.177  -1.244  -0.021  0.00  0.00     0.152 C 
ATOM     14  N   UNL d   1       1.098  -0.679   0.035  0.00  0.00    -0.224 N 
ATOM     15  N   UNL d   1       0.961   0.642   0.296  0.00  0.00     0.001 NA
ATOM     16  N   UNL d   1      -0.333   0.899   0.204  0.00  0.00    -0.007 NA
ATOM     17  N   UNL d   1      -1.050  -0.249   0.007  0.00  0.00    -0.269 N 
ATOM     18  HN  UNL d   1      -2.062  -0.324  -0.099  1.00  0.00     0.185 HD
BRANCH  14  19
ATOM     19  C   UNL d   1       2.370  -1.292  -0.046  0.00  0.00     0.056 A 
ATOM     20  C   UNL d   1       2.562  -2.438  -0.828  0.00  0.00     0.032 A 
ATOM     21  C   UNL d   1       3.740  -3.174  -0.704  0.00  0.00     0.009 A 
ATOM     22  C   UNL d   1       4.745  -2.757   0.174  0.00  0.00    -0.062 A 
ATOM     23  C   UNL d   1       4.590  -1.551   0.871  0.00  0.00     0.009 A 
ATOM     24  C   UNL d   1       5.951  -3.624   0.382  0.00  0.00     0.048 C 
ATOM     25  C   UNL d   1       3.414  -0.807   0.750  0.00  0.00     0.032 A 
ENDBRANCH  14  19
ENDBRANCH   1  13
BRANCH   2  26
ATOM     26  N   UNL d   1      -2.390  -2.319  -1.559  0.00  0.00    -0.301 NA
ATOM     27  H   UNL d   1      -2.370  -1.352  -1.223  0.00  0.00     0.124 HD
ATOM     28  H   UNL d   1      -3.352  -2.625  -1.667  0.00  0.00     0.124 HD
ENDBRANCH   2  26
TORSDOF 3
