REMARK  4 active torsions:
REMARK  status: ('A' for Active; 'I' for Inactive)
REMARK    1  A    between atoms: C_4  and  S_1 
REMARK    2  A    between atoms: N_9  and  S_1 
REMARK    3  A    between atoms: C_2  and  C_3 
REMARK       I    between atoms: C_3  and  N_5 
REMARK    4  A    between atoms: N_5  and  C_6 
ROOT
ATOM      1  C   UNL d   1       0.367  -1.548  -0.451  0.00  0.00     0.081 C 
ATOM      2  C   UNL d   1      -0.892  -3.210  -1.699  0.00  0.00     0.042 C 
ATOM      3  C   UNL d   1      -0.721  -1.886  -1.268  0.00  0.00     0.055 C 
ATOM      4  C   UNL d   1       0.103  -4.162  -1.369  0.00  0.00    -0.035 C 
ATOM      5  C   UNL d   1       1.276  -2.517  -0.027  0.00  0.00     0.026 C 
ATOM      6  C   UNL d   1       1.142  -3.819  -0.487  0.00  0.00     0.010 C 
ATOM      7  C   UNL d   1       0.145  -5.537  -1.984  0.00  0.00     0.050 C 
ENDROOT
BRANCH   2   8
ATOM      8  N   UNL d   1      -2.000  -3.639  -2.475  0.00  0.00    -0.322 N 
ATOM      9  C   UNL d   1      -3.125  -2.922  -2.840  0.00  0.00     0.259 C 
ATOM     10  O   UNL d   1      -3.390  -1.778  -2.483  0.00  0.00    -0.267 OA
ATOM     11  H   UNL d   1      -1.993  -4.616  -2.744  0.00  0.00     0.169 HD
BRANCH   9  12
ATOM     12  C   UNL d   1      -4.080  -3.601  -3.777  0.00  0.00     0.071 A 
ATOM     13  C   UNL d   1      -4.059  -4.978  -4.025  0.00  0.00     0.135 A 
ATOM     14  C   UNL d   1      -4.881  -5.555  -4.992  0.00  0.00     0.085 A 
ATOM     15  F   UNL d   1      -3.231  -5.783  -3.342  0.00  0.00    -0.205 F 
ATOM     16  C   UNL d   1      -5.743  -4.746  -5.719  0.00  0.00     0.119 A 
ATOM     17  C   UNL d   1      -5.827  -3.382  -5.461  0.00  0.00     0.043 A 
ATOM     18  F   UNL d   1      -6.495  -5.284  -6.687  0.00  0.00    -0.206 F 
ATOM     19  C   UNL d   1      -5.004  -2.811  -4.484  0.00  0.00     0.023 A 
ENDBRANCH   9  12
ENDBRANCH   2   8
BRANCH   1  20
ATOM     20  S   UNL d   1       0.722   0.159  -0.057  0.00  0.00     0.260 S 
ATOM     21  O   UNL d   1       0.158   0.977  -1.104  0.00  0.00    -0.200 OA
ATOM     22  O   UNL d   1       2.134   0.237   0.267  0.00  0.00    -0.200 OA
BRANCH  20  23
ATOM     23  N   UNL d   1      -0.155   0.423   1.376  0.00  0.00    -0.315 N 
ATOM     24  C   UNL d   1      -1.616   0.525   1.236  0.00  0.00     0.162 C 
ATOM     25  C   UNL d   1       0.273  -0.329   2.567  0.00  0.00     0.162 C 
ENDBRANCH  20  23
ENDBRANCH   1  20
TORSDOF 4
