REMARK  4 active torsions:
REMARK  status: ('A' for Active; 'I' for Inactive)
REMARK    1  A    between atoms: C_9  and  C_4 
REMARK    2  A    between atoms: C_10  and  C_5 
REMARK    3  A    between atoms: C_15  and  C_7 
REMARK    4  A    between atoms: C_16  and  C_8 
ROOT
ATOM      1  C   UNL d   1      -1.271  -0.036   0.134  0.00  0.00    -0.007 C 
ATOM      2  C   UNL d   1       1.276   0.045   0.137  0.00  0.00    -0.007 C 
ATOM      3  C   UNL d   1       0.028  -0.756  -0.051  0.00  0.00     0.184 C 
ATOM      4  C   UNL d   1      -2.340  -0.820   0.366  0.00  0.00     0.022 C 
ATOM      5  C   UNL d   1       2.420  -0.656   0.217  0.00  0.00     0.022 C 
ATOM      6  O   UNL d   1       0.065  -1.955  -0.335  0.00  0.00    -0.287 OA
ATOM      7  C   UNL d   1       1.174   1.542   0.228  0.00  0.00     0.043 C 
ATOM      8  C   UNL d   1      -1.311   1.463   0.052  0.00  0.00     0.043 C 
ATOM      9  C   UNL d   1      -0.038   2.059  -0.532  0.00  0.00     0.009 C 
ENDROOT
BRANCH   4  10
ATOM     10  C   UNL d   1      -3.699  -0.325   0.569  0.00  0.00    -0.036 A 
ATOM     11  C   UNL d   1      -4.561  -0.211  -0.522  0.00  0.00     0.012 A 
ATOM     12  C   UNL d   1      -5.874   0.221  -0.336  0.00  0.00     0.008 A 
ATOM     13  C   UNL d   1      -6.353   0.541   0.944  0.00  0.00    -0.055 A 
ATOM     14  C   UNL d   1      -5.471   0.447   2.031  0.00  0.00     0.008 A 
ATOM     15  C   UNL d   1      -4.152   0.020   1.845  0.00  0.00     0.012 A 
BRANCH  13  16
ATOM     16  C   UNL d   1      -7.794   0.973   1.156  0.00  0.00     0.010 C 
ATOM     17  C   UNL d   1      -8.112   2.255   0.381  0.00  0.00     0.015 C 
ATOM     18  C   UNL d   1      -8.783  -0.133   0.773  0.00  0.00     0.015 C 
ENDBRANCH  13  16
ENDBRANCH   4  10
BRANCH   5  19
ATOM     19  C   UNL d   1       3.727  -0.065   0.498  0.00  0.00    -0.036 A 
ATOM     20  C   UNL d   1       4.168   0.030   1.819  0.00  0.00     0.012 A 
ATOM     21  C   UNL d   1       5.421   0.567   2.105  0.00  0.00     0.008 A 
ATOM     22  C   UNL d   1       6.261   1.021   1.075  0.00  0.00    -0.055 A 
ATOM     23  C   UNL d   1       5.799   0.944  -0.248  0.00  0.00     0.008 A 
ATOM     24  C   UNL d   1       4.541   0.406  -0.536  0.00  0.00     0.012 A 
BRANCH  22  25
ATOM     25  C   UNL d   1       7.643   1.575   1.377  0.00  0.00     0.010 C 
ATOM     26  C   UNL d   1       7.566   2.814   2.273  0.00  0.00     0.015 C 
ATOM     27  C   UNL d   1       8.552   0.519   2.016  0.00  0.00     0.015 C 
ENDBRANCH  22  25
ENDBRANCH   5  19
TORSDOF 4
