REMARK  9 active torsions:
REMARK  status: ('A' for Active; 'I' for Inactive)
REMARK    1  A    between atoms: N_2  and  C_1 
REMARK    2  A    between atoms: N_3  and  C_5 
REMARK    3  A    between atoms: N_9  and  C_6 
REMARK    4  A    between atoms: N_7  and  N_9 
REMARK    5  A    between atoms: C_16  and  C_10 
REMARK    6  A    between atoms: C_20  and  C_10 
REMARK    7  A    between atoms: C_15  and  C_23 
REMARK    8  A    between atoms: O_26  and  C_15 
REMARK    9  A    between atoms: C_23  and  C_20 
ROOT
ATOM      1  N   UNL d   1       3.188   2.011  -0.544  0.00  0.00    -0.304 N 
ATOM      2  HN  UNL d   1       3.669   1.118  -0.439  1.00  0.00     0.186 HD
ATOM      3  C   UNL d   1       3.873   3.098  -0.775  0.00  0.00     0.036 C 
ENDROOT
BRANCH   1   4
ATOM      4  N   UNL d   1       1.841   2.069  -0.445  0.00  0.00    -0.298 N 
ATOM      5  H   UNL d   1       1.299   2.478  -1.217  0.00  0.00     0.187 HD
BRANCH   4   6
ATOM      6  C   UNL d   1       1.185   1.112   0.361  0.00  0.00     0.081 A 
ATOM      7  C   UNL d   1      -0.195   0.822   0.281  0.00  0.00     0.133 A 
ATOM      8  C   UNL d   1      -0.813  -0.065   1.191  0.00  0.00     0.074 A 
ATOM      9  C   UNL d   1      -0.045  -0.668   2.196  0.00  0.00     0.105 A 
ATOM     10  C   UNL d   1       1.321  -0.410   2.290  0.00  0.00     0.038 A 
ATOM     11  C   UNL d   1       1.918   0.471   1.384  0.00  0.00     0.036 A 
BRANCH   7  12
ATOM     12  N   UNL d   1      -1.040   1.408  -0.772  0.00  0.00    -0.113 N 
ATOM     13  O   UNL d   1      -2.184   0.962  -0.906  0.00  0.00    -0.532 OA
ATOM     14  O   UNL d   1      -0.565   2.320  -1.469  0.00  0.00    -0.532 OA
ENDBRANCH   7  12
BRANCH   9  15
ATOM     15  N   UNL d   1      -0.680  -1.571   3.166  0.00  0.00    -0.116 N 
ATOM     16  O   UNL d   1      -1.899  -1.758   3.063  0.00  0.00    -0.532 OA
ATOM     17  O   UNL d   1       0.041  -2.083   4.035  0.00  0.00    -0.532 OA
ENDBRANCH   9  15
ENDBRANCH   4   6
ENDBRANCH   1   4
BRANCH   3  18
ATOM     18  C   UNL d   1       3.351   4.512  -0.792  0.00  0.00    -0.012 A 
ATOM     19  C   UNL d   1       2.263   4.889   0.006  0.00  0.00     0.014 A 
ATOM     20  C   UNL d   1       1.779   6.201  -0.008  0.00  0.00     0.007 A 
ATOM     21  C   UNL d   1       2.417   7.182  -0.769  0.00  0.00    -0.062 A 
ATOM     22  C   UNL d   1       3.527   6.824  -1.537  0.00  0.00     0.007 A 
ATOM     23  C   UNL d   1       1.884   8.584  -0.790  0.00  0.00     0.048 C 
ATOM     24  C   UNL d   1       3.978   5.499  -1.563  0.00  0.00     0.014 A 
ENDBRANCH   3  18
BRANCH   3  25
ATOM     25  C   UNL d   1       5.395   2.906  -0.903  0.00  0.00     0.069 C 
BRANCH  25  26
ATOM     26  C   UNL d   1       5.814   1.553  -1.471  0.00  0.00     0.117 C 
BRANCH  26  27
ATOM     27  C   UNL d   1       5.318   1.343  -2.882  0.00  0.00     0.258 C 
ATOM     28  O   UNL d   1       5.069   2.234  -3.681  0.00  0.00    -0.265 OA
BRANCH  27  29
ATOM     29  O   UNL d   1       5.275   0.004  -3.147  0.00  0.00    -0.326 OA
ATOM     30  C   UNL d   1       4.855  -0.330  -4.470  0.00  0.00     0.213 C 
ENDBRANCH  27  29
ENDBRANCH  26  27
ENDBRANCH  25  26
ENDBRANCH   3  25
TORSDOF 9
