REMARK  1 active torsions:
REMARK  status: ('A' for Active; 'I' for Inactive)
REMARK    1  A    between atoms: C_12  and  N_1 
ROOT
ATOM      1  N   UNL d   1       0.060  -1.621  -0.016  0.00  0.00    -0.346 N 
ATOM      2  C   UNL d   1      -0.699   0.480  -0.024  0.00  0.00     0.005 A 
ATOM      3  C   UNL d   1       0.729   0.511  -0.024  0.00  0.00     0.005 A 
ATOM      4  C   UNL d   1      -1.095  -0.858  -0.026  0.00  0.00     0.046 A 
ATOM      5  C   UNL d   1       1.182  -0.811  -0.025  0.00  0.00     0.046 A 
ATOM      6  C   UNL d   1      -2.450  -1.231  -0.028  0.00  0.00     0.032 A 
ATOM      7  C   UNL d   1       2.554  -1.121  -0.025  0.00  0.00     0.032 A 
ATOM      8  C   UNL d   1      -1.688   1.488  -0.016  0.00  0.00     0.033 A 
ATOM      9  C   UNL d   1       1.672   1.561  -0.016  0.00  0.00     0.033 A 
ATOM     10  C   UNL d   1       3.034   1.255  -0.009  0.00  0.00     0.011 A 
ATOM     11  C   UNL d   1      -3.035   1.120  -0.012  0.00  0.00     0.011 A 
ATOM     12  C   UNL d   1       3.471  -0.065  -0.014  0.00  0.00     0.021 A 
ATOM     13  C   UNL d   1      -3.414  -0.218  -0.020  0.00  0.00     0.021 A 
ATOM     14 BR   UNL d   1       4.299   2.662   0.011  0.00  0.00    -0.051 Br
ATOM     15 BR   UNL d   1      -4.363   2.468   0.007  0.00  0.00    -0.051 Br
ENDROOT
BRANCH   1  16
ATOM     16  C   UNL d   1       0.080  -3.074   0.065  0.00  0.00     0.125 C 
ATOM     17  C   UNL d   1       0.019  -3.746  -1.296  0.00  0.00     0.027 C 
ENDBRANCH   1  16
TORSDOF 1
