REMARK  5 active torsions:
REMARK  status: ('A' for Active; 'I' for Inactive)
REMARK    1  A    between atoms: C_3  and  C_1 
REMARK    2  A    between atoms: C_15  and  N_2 
REMARK    3  A    between atoms: C_16  and  C_8 
REMARK    4  A    between atoms: S_17  and  C_11 
REMARK    5  A    between atoms: C_22  and  S_17 
ROOT
ATOM      1  C   UNL d   1      -0.382  -2.812  -0.110  0.00  0.00     0.054 A 
ATOM      2  C   UNL d   1       0.003  -3.566   0.998  0.00  0.00     0.060 A 
ATOM      3  N   UNL d   1      -0.186  -4.914   1.034  0.00  0.00    -0.335 N 
ATOM      4  HN  UNL d   1       0.087  -5.454   1.855  1.00  0.00     0.168 HD
ATOM      5  C   UNL d   1      -0.735  -5.519  -0.025  0.00  0.00     0.144 A 
ATOM      6  C   UNL d   1      -0.933  -3.551  -1.148  0.00  0.00     0.108 A 
ATOM      7  N   UNL d   1      -1.133  -4.883  -1.131  0.00  0.00    -0.346 N 
ATOM      8  HN  UNL d   1      -1.562  -5.375  -1.915  1.00  0.00     0.167 HD
ENDROOT
BRANCH   1   9
ATOM      9  C   UNL d   1      -0.165  -1.378  -0.271  0.00  0.00     0.152 C 
ATOM     10  N   UNL d   1      -1.055  -0.451  -0.811  0.00  0.00    -0.224 N 
ATOM     11  N   UNL d   1      -0.375   0.689  -1.068  0.00  0.00     0.001 NA
ATOM     12  N   UNL d   1       0.830   0.519  -0.550  0.00  0.00    -0.007 NA
ATOM     13  N   UNL d   1       0.980  -0.750  -0.067  0.00  0.00    -0.269 N 
ATOM     14  HN  UNL d   1       1.817  -1.139   0.369  1.00  0.00     0.185 HD
BRANCH  10  15
ATOM     15  C   UNL d   1      -2.428  -0.574  -1.126  0.00  0.00     0.056 A 
ATOM     16  C   UNL d   1      -3.269  -1.411  -0.380  0.00  0.00     0.031 A 
ATOM     17  C   UNL d   1      -4.600  -1.577  -0.765  0.00  0.00     0.002 A 
ATOM     18  C   UNL d   1      -5.091  -0.916  -1.890  0.00  0.00     0.000 A 
ATOM     19  C   UNL d   1      -4.265  -0.058  -2.614  0.00  0.00     0.002 A 
ATOM     20  C   UNL d   1      -2.939   0.135  -2.223  0.00  0.00     0.031 A 
ENDBRANCH  10  15
ENDBRANCH   1   9
BRANCH   2  21
ATOM     21  C   UNL d   1       0.640  -3.040   2.231  0.00  0.00    -0.008 A 
ATOM     22  C   UNL d   1       0.280  -1.815   2.823  0.00  0.00     0.014 A 
ATOM     23  C   UNL d   1       0.918  -1.344   3.976  0.00  0.00     0.001 A 
ATOM     24  C   UNL d   1       1.910  -2.104   4.587  0.00  0.00     0.000 A 
ATOM     25  C   UNL d   1       2.265  -3.334   4.047  0.00  0.00     0.001 A 
ATOM     26  C   UNL d   1       1.639  -3.792   2.883  0.00  0.00     0.014 A 
ENDBRANCH   2  21
BRANCH   5  27
ATOM     27  S   UNL d   1      -0.950  -7.277   0.079  0.00  0.00    -0.094 SA
BRANCH  27  28
ATOM     28  C   UNL d   1      -0.943  -7.706  -1.690  0.00  0.00     0.078 C 
ATOM     29  C   UNL d   1      -1.030  -9.214  -1.853  0.00  0.00     0.016 C 
ENDBRANCH  27  28
ENDBRANCH   5  27
TORSDOF 5
