REMARK  2 active torsions:
REMARK  status: ('A' for Active; 'I' for Inactive)
REMARK    1  A    between atoms: C_2  and  C_1 
REMARK       I    between atoms: N_8  and  C_2 
REMARK    2  A    between atoms: C_12  and  N_8 
ROOT
ATOM      1  C   UNL d   1      -0.060   2.382   0.323  0.00  0.00     0.260 C 
ATOM      2  N   UNL d   1      -1.192   3.149   0.104  0.00  0.00    -0.323 N 
ATOM      3  O   UNL d   1      -0.080   1.216   0.701  0.00  0.00    -0.267 OA
ATOM      4  H   UNL d   1      -1.065   4.103  -0.190  0.00  0.00     0.169 HD
ENDROOT
BRANCH   2   5
ATOM      5  C   UNL d   1      -2.536   2.700   0.139  0.00  0.00     0.037 A 
ATOM      6  C   UNL d   1      -2.909   1.369   0.343  0.00  0.00     0.069 A 
ATOM      7  C   UNL d   1      -4.245   0.981   0.228  0.00  0.00     0.104 A 
ATOM      8  O   UNL d   1      -4.506  -0.361   0.346  0.00  0.00    -0.346 OA
ATOM      9  C   UNL d   1      -5.238   1.926  -0.028  0.00  0.00     0.102 A 
ATOM     10  C   UNL d   1      -5.732  -0.686  -0.314  0.00  0.00     0.202 C 
ATOM     11  C   UNL d   1      -6.841   0.242   0.155  0.00  0.00     0.202 C 
ATOM     12  O   UNL d   1      -6.563   1.609  -0.177  0.00  0.00    -0.346 OA
ATOM     13  C   UNL d   1      -4.886   3.263  -0.184  0.00  0.00     0.042 A 
ATOM     14  C   UNL d   1      -3.541   3.647  -0.110  0.00  0.00     0.032 A 
ENDBRANCH   2   5
BRANCH   1  15
ATOM     15  C   UNL d   1       1.222   3.024   0.049  0.00  0.00     0.087 A 
ATOM     16  C   UNL d   1       2.404   2.311  -0.073  0.00  0.00     0.090 A 
ATOM     17  O   UNL d   1       3.430   3.152  -0.341  0.00  0.00    -0.242 OA
ATOM     18  C   UNL d   1       2.751   0.875   0.013  0.00  0.00     0.080 C 
ATOM     19  N   UNL d   1       2.960   4.444  -0.395  0.00  0.00    -0.265 N 
ATOM     20  C   UNL d   1       1.647   4.373  -0.149  0.00  0.00     0.047 A 
ATOM     21  HN  UNL d   1       3.503   5.286  -0.584  1.00  0.00     0.194 HD
ATOM     22  C   UNL d   1       0.889   5.647  -0.115  0.00  0.00     0.071 C 
ENDBRANCH   1  15
TORSDOF 2
