REMARK  3 active torsions:
REMARK  status: ('A' for Active; 'I' for Inactive)
REMARK    1  A    between atoms: O_2  and  C_1 
REMARK    2  A    between atoms: C_5  and  C_1 
REMARK    3  A    between atoms: C_3  and  O_2 
ROOT
ATOM      1  C   UNL d   1       0.921  -0.646   0.545  0.00  0.00     0.298 C 
ATOM      2  O   UNL d   1       0.860  -1.722   1.113  0.00  0.00    -0.259 OA
ENDROOT
BRANCH   1   3
ATOM      3  O   UNL d   1       0.165   0.478   0.821  0.00  0.00    -0.274 OA
BRANCH   3   4
ATOM      4  C   UNL d   1      -1.225   0.392   1.063  0.00  0.00     0.097 A 
ATOM      5  C   UNL d   1      -1.878   1.564   1.461  0.00  0.00     0.045 A 
ATOM      6  C   UNL d   1      -3.274   1.608   1.494  0.00  0.00     0.028 A 
ATOM      7 BR   UNL d   1      -0.915   3.137   1.905  0.00  0.00    -0.048 Br
ATOM      8  C   UNL d   1      -4.025   0.482   1.126  0.00  0.00    -0.061 A 
ATOM      9  C   UNL d   1      -3.361  -0.700   0.782  0.00  0.00     0.009 A 
ATOM     10  C   UNL d   1      -5.522   0.560   1.082  0.00  0.00     0.048 C 
ATOM     11  C   UNL d   1      -1.966  -0.747   0.745  0.00  0.00     0.039 A 
ENDBRANCH   3   4
ENDBRANCH   1   3
BRANCH   1  12
ATOM     12  C   UNL d   1       1.795  -0.364  -0.630  0.00  0.00     0.040 A 
ATOM     13  C   UNL d   1       2.629  -1.389  -1.098  0.00  0.00     0.019 A 
ATOM     14  C   UNL d   1       3.419  -1.191  -2.235  0.00  0.00     0.025 A 
ATOM     15  C   UNL d   1       3.375   0.029  -2.907  0.00  0.00     0.034 A 
ATOM     16  C   UNL d   1       2.544   1.053  -2.457  0.00  0.00     0.025 A 
ATOM     17 CL   UNL d   1       4.347   0.273  -4.305  0.00  0.00    -0.084 Cl
ATOM     18  C   UNL d   1       1.754   0.859  -1.321  0.00  0.00     0.019 A 
ENDBRANCH   1  12
TORSDOF 3
