REMARK  4 active torsions:
REMARK  status: ('A' for Active; 'I' for Inactive)
REMARK    1  A    between atoms: C_6  and  C_2 
REMARK       I    between atoms: C_9  and  N_3 
REMARK    2  A    between atoms: C_12  and  C_9 
REMARK    3  A    between atoms: S_14  and  C_12 
REMARK    4  A    between atoms: C_18  and  S_14 
ROOT
ATOM      1  C   UNL d   1       0.978  -0.773   0.132  0.00  0.00     0.049 A 
ATOM      2  C   UNL d   1       2.380  -1.327   0.164  0.00  0.00     0.245 C 
ATOM      3  N   UNL d   1       3.316  -0.229  -0.237  0.00  0.00    -0.333 N 
ATOM      4  C   UNL d   1       0.592   0.546  -0.007  0.00  0.00    -0.019 A 
ATOM      5  N   UNL d   1      -0.159  -1.536   0.191  0.00  0.00    -0.356 N 
ATOM      6  C   UNL d   1      -0.828   0.590   0.012  0.00  0.00    -0.001 A 
ATOM      7  C   UNL d   1      -1.271  -0.731   0.118  0.00  0.00     0.043 A 
ATOM      8  C   UNL d   1       4.581  -0.430  -0.788  0.00  0.00     0.230 C 
ATOM      9  C   UNL d   1       2.988   1.133   0.254  0.00  0.00     0.131 C 
ATOM     10  C   UNL d   1       1.597   1.629  -0.180  0.00  0.00     0.061 C 
ATOM     11  O   UNL d   1       5.290   0.529  -1.105  0.00  0.00    -0.273 OA
ATOM     12  C   UNL d   1      -1.791   1.616  -0.067  0.00  0.00     0.014 A 
ATOM     13  C   UNL d   1      -2.627  -1.078   0.131  0.00  0.00     0.030 A 
ATOM     14  C   UNL d   1      -3.153   1.285  -0.044  0.00  0.00     0.001 A 
ATOM     15  C   UNL d   1      -3.561  -0.044   0.047  0.00  0.00     0.002 A 
ATOM     16  H   UNL d   1      -0.199  -2.543   0.280  0.00  0.00     0.166 HD
ENDROOT
BRANCH   2  17
ATOM     17  C   UNL d   1       2.749  -2.046   1.493  0.00  0.00     0.413 C 
ATOM     18  F   UNL d   1       1.719  -2.122   2.365  0.00  0.00    -0.168 F 
ATOM     19  F   UNL d   1       3.135  -3.323   1.238  0.00  0.00    -0.168 F 
ATOM     20  F   UNL d   1       3.780  -1.446   2.133  0.00  0.00    -0.168 F 
ENDBRANCH   2  17
BRANCH   8  21
ATOM     21  C   UNL d   1       5.175  -1.832  -0.905  0.00  0.00     0.182 C 
BRANCH  21  22
ATOM     22  S   UNL d   1       4.390  -2.959  -2.097  0.00  0.00    -0.121 SA
BRANCH  22  23
ATOM     23  C   UNL d   1       4.221  -1.929  -3.537  0.00  0.00     0.001 A 
ATOM     24  C   UNL d   1       5.258  -1.111  -3.996  0.00  0.00     0.021 A 
ATOM     25  C   UNL d   1       5.053  -0.266  -5.086  0.00  0.00     0.043 A 
ATOM     26  C   UNL d   1       3.821  -0.260  -5.727  0.00  0.00     0.116 A 
ATOM     27  C   UNL d   1       2.797  -1.105  -5.318  0.00  0.00     0.043 A 
ATOM     28  F   UNL d   1       3.617   0.573  -6.756  0.00  0.00    -0.206 F 
ATOM     29  C   UNL d   1       3.000  -1.947  -4.224  0.00  0.00     0.021 A 
ENDBRANCH  22  23
ENDBRANCH  21  22
ENDBRANCH   8  21
TORSDOF 4
