REMARK  4 active torsions:
REMARK  status: ('A' for Active; 'I' for Inactive)
REMARK    1  A    between atoms: N_10  and  C_1 
REMARK    2  A    between atoms: C_7  and  C_2 
REMARK    3  A    between atoms: C_9  and  C_15 
REMARK    4  A    between atoms: C_12  and  N_11 
ROOT
ATOM      1  N   UNL d   1      -0.935  -2.897   0.070  0.00  0.00    -0.377 N 
ATOM      2  N   UNL d   1      -0.637  -5.713   0.357  0.00  0.00    -0.364 N 
ATOM      3  C   UNL d   1      -0.406  -3.436   1.343  0.00  0.00     0.143 C 
ATOM      4  C   UNL d   1      -1.966  -3.789  -0.510  0.00  0.00     0.143 C 
ATOM      5  C   UNL d   1       0.267  -4.798   1.074  0.00  0.00     0.144 C 
ATOM      6  C   UNL d   1      -1.332  -5.174  -0.819  0.00  0.00     0.144 C 
ENDROOT
BRANCH   1   7
ATOM      7  C   UNL d   1      -1.071  -1.518  -0.097  0.00  0.00     0.045 A 
ATOM      8  C   UNL d   1      -1.283  -0.678   1.002  0.00  0.00     0.064 A 
ATOM      9  C   UNL d   1      -1.303   0.704   0.837  0.00  0.00     0.119 A 
ATOM     10  N   UNL d   1      -1.157   1.285  -0.382  0.00  0.00    -0.352 N 
ATOM     11  C   UNL d   1      -0.960   0.501  -1.451  0.00  0.00     0.045 A 
ATOM     12  HN  UNL d   1      -1.198   2.299  -0.482  1.00  0.00     0.166 HD
ATOM     13  C   UNL d   1      -0.903  -0.908  -1.375  0.00  0.00     0.017 A 
ATOM     14  C   UNL d   1      -0.773   1.125  -2.678  0.00  0.00     0.030 A 
ATOM     15  C   UNL d   1      -0.626  -1.623  -2.568  0.00  0.00     0.016 A 
ATOM     16  C   UNL d   1      -0.460  -0.978  -3.793  0.00  0.00     0.001 A 
ATOM     17  C   UNL d   1      -0.531   0.403  -3.848  0.00  0.00     0.002 A 
BRANCH   9  18
ATOM     18  C   UNL d   1      -1.464   1.583   2.069  0.00  0.00     0.432 C 
ATOM     19  F   UNL d   1      -1.346   2.920   1.830  0.00  0.00    -0.165 F 
ATOM     20  F   UNL d   1      -2.678   1.418   2.674  0.00  0.00    -0.165 F 
ATOM     21  F   UNL d   1      -0.538   1.299   3.033  0.00  0.00    -0.165 F 
ENDBRANCH   9  18
ENDBRANCH   1   7
BRANCH   2  22
ATOM     22  C   UNL d   1      -0.841  -6.976   0.847  0.00  0.00     0.103 A 
ATOM     23  N   UNL d   1      -0.747  -7.159   2.181  0.00  0.00    -0.339 N 
ATOM     24  C   UNL d   1      -0.954  -8.395   2.715  0.00  0.00     0.118 A 
ATOM     25  HN  UNL d   1      -0.520  -6.372   2.789  1.00  0.00     0.167 HD
ATOM     26  C   UNL d   1      -1.240  -9.500   1.919  0.00  0.00     0.034 A 
ATOM     27  C   UNL d   1      -1.321  -9.323   0.546  0.00  0.00     0.006 A 
ATOM     28  C   UNL d   1      -1.130  -8.051   0.010  0.00  0.00     0.048 A 
BRANCH  24  29
ATOM     29  C   UNL d   1      -0.882  -8.572   4.223  0.00  0.00     0.432 C 
ATOM     30  F   UNL d   1      -0.614  -7.426   4.915  0.00  0.00    -0.165 F 
ATOM     31  F   UNL d   1      -2.048  -9.055   4.747  0.00  0.00    -0.165 F 
ATOM     32  F   UNL d   1       0.081  -9.465   4.598  0.00  0.00    -0.165 F 
ENDBRANCH  24  29
ENDBRANCH   2  22
TORSDOF 4
