REMARK  3 active torsions:
REMARK  status: ('A' for Active; 'I' for Inactive)
REMARK    1  A    between atoms: C_4  and  C_1 
REMARK    2  A    between atoms: N_8  and  N_10 
REMARK    3  A    between atoms: C_15  and  C_14 
ROOT
ATOM      1  C   UNL d   1      -0.317   0.886   0.295  0.00  0.00     0.125 A 
ATOM      2  N   UNL d   1      -0.736  -0.439   0.110  0.00  0.00    -0.331 N 
ATOM      3  HN  UNL d   1      -1.703  -0.723  -0.050  1.00  0.00     0.168 HD
ATOM      4  C   UNL d   1       0.284  -1.269   0.169  0.00  0.00     0.163 A 
ATOM      5  C   UNL d   1       1.044   1.022   0.497  0.00  0.00     0.087 A 
ATOM      6  S   UNL d   1       1.809  -0.500   0.457  0.00  0.00    -0.062 SA
ATOM      7  N   UNL d   1       0.164  -2.615   0.021  0.00  0.00    -0.280 N 
ATOM      8  H   UNL d   1      -0.779  -2.963  -0.143  0.00  0.00     0.189 HD
ENDROOT
BRANCH   7   9
ATOM      9  N   UNL d   1       1.224  -3.457   0.077  0.00  0.00    -0.309 N 
ATOM     10  C   UNL d   1       0.999  -4.722  -0.068  0.00  0.00     0.118 C 
ATOM     11  HN  UNL d   1       2.169  -3.104   0.229  1.00  0.00     0.186 HD
BRANCH  10  12
ATOM     12  C   UNL d   1       2.130  -5.671  -0.004  0.00  0.00    -0.019 A 
ATOM     13  C   UNL d   1       3.433  -5.192   0.192  0.00  0.00     0.014 A 
ATOM     14  C   UNL d   1       4.502  -6.084   0.273  0.00  0.00     0.024 A 
ATOM     15  C   UNL d   1       4.267  -7.452   0.157  0.00  0.00     0.034 A 
ATOM     16  C   UNL d   1       2.971  -7.934  -0.046  0.00  0.00     0.024 A 
ATOM     17 CL   UNL d   1       5.583  -8.553   0.268  0.00  0.00    -0.084 Cl
ATOM     18  C   UNL d   1       1.896  -7.043  -0.128  0.00  0.00     0.014 A 
ENDBRANCH  10  12
ENDBRANCH   7   9
BRANCH   1  19
ATOM     19  C   UNL d   1      -1.289   2.026   0.271  0.00  0.00     0.433 C 
ATOM     20  F   UNL d   1      -2.570   1.641   0.037  0.00  0.00    -0.165 F 
ATOM     21  F   UNL d   1      -1.291   2.704   1.451  0.00  0.00    -0.165 F 
ATOM     22  F   UNL d   1      -0.969   2.934  -0.690  0.00  0.00    -0.165 F 
ENDBRANCH   1  19
TORSDOF 3
