REMARK  7 active torsions:
REMARK  status: ('A' for Active; 'I' for Inactive)
REMARK    1  A    between atoms: N_9  and  C_1 
REMARK    2  A    between atoms: N_12  and  C_1 
REMARK    3  A    between atoms: N_3  and  N_9 
REMARK    4  A    between atoms: C_17  and  N_12 
REMARK    5  A    between atoms: C_15  and  C_14 
REMARK    6  A    between atoms: C_19  and  C_17 
REMARK    7  A    between atoms: C_18  and  C_19 
ROOT
ATOM      1  N   UNL d   1       0.208  -0.760   0.943  0.00  0.00    -0.277 N 
ATOM      2  H   UNL d   1       0.745  -1.415   1.497  0.00  0.00     0.189 HD
ENDROOT
BRANCH   1   3
ATOM      3  N   UNL d   1      -1.048  -0.432   1.353  0.00  0.00    -0.309 N 
ATOM      4  C   UNL d   1      -1.580  -1.097   2.321  0.00  0.00     0.118 C 
ATOM      5  HN  UNL d   1      -1.560   0.326   0.902  1.00  0.00     0.186 HD
BRANCH   4   6
ATOM      6  C   UNL d   1      -2.893  -0.676   2.862  0.00  0.00    -0.017 A 
ATOM      7  C   UNL d   1      -3.496  -1.419   3.879  0.00  0.00     0.052 A 
ATOM      8  C   UNL d   1      -4.687  -0.939   4.389  0.00  0.00     0.105 A 
ATOM      9  O   UNL d   1      -5.413  -1.514   5.387  0.00  0.00    -0.323 OA
ATOM     10  C   UNL d   1      -5.269   0.221   3.927  0.00  0.00     0.105 A 
ATOM     11  C   UNL d   1      -6.497  -0.568   5.519  0.00  0.00     0.352 A 
ATOM     12  O   UNL d   1      -6.425   0.520   4.576  0.00  0.00    -0.323 OA
ATOM     13  C   UNL d   1      -4.699   0.969   2.921  0.00  0.00     0.040 A 
ATOM     14  C   UNL d   1      -3.494   0.512   2.384  0.00  0.00     0.016 A 
ENDBRANCH   4   6
ENDBRANCH   1   3
BRANCH   1  15
ATOM     15  C   UNL d   1       0.825   0.036  -0.022  0.00  0.00     0.186 C 
ATOM     16  S   UNL d   1      -0.014   1.020  -1.098  0.00  0.00    -0.040 SA
BRANCH  15  17
ATOM     17  N   UNL d   1       2.216  -0.043   0.045  0.00  0.00    -0.366 N 
ATOM     18  H   UNL d   1       2.590  -0.581   0.812  0.00  0.00     0.161 HD
BRANCH  17  19
ATOM     19  C   UNL d   1       3.065   1.044  -0.449  0.00  0.00     0.126 C 
BRANCH  19  20
ATOM     20  C   UNL d   1       4.561   0.802  -0.254  0.00  0.00     0.058 C 
BRANCH  20  21
ATOM     21  C   UNL d   1       5.356   2.008  -0.704  0.00  0.00    -0.057 A 
ATOM     22  C   UNL d   1       5.649   3.045   0.193  0.00  0.00     0.007 A 
ATOM     23  C   UNL d   1       6.328   4.186  -0.241  0.00  0.00     0.001 A 
ATOM     24  C   UNL d   1       6.719   4.304  -1.574  0.00  0.00     0.000 A 
ATOM     25  C   UNL d   1       6.431   3.280  -2.473  0.00  0.00     0.001 A 
ATOM     26  C   UNL d   1       5.751   2.138  -2.043  0.00  0.00     0.007 A 
ENDBRANCH  20  21
ENDBRANCH  19  20
ENDBRANCH  17  19
ENDBRANCH  15  17
ENDBRANCH   1  15
TORSDOF 7
