REMARK  4 active torsions:
REMARK  status: ('A' for Active; 'I' for Inactive)
REMARK    1  A    between atoms: S_15  and  C_1 
REMARK       I    between atoms: C_4  and  N_11 
REMARK    2  A    between atoms: C_9  and  C_4 
REMARK    3  A    between atoms: C_6  and  C_8 
REMARK    4  A    between atoms: N_11  and  C_13 
ROOT
ATOM      1  C   UNL d   1       4.766   1.292   0.058  0.00  0.00     0.257 C 
ATOM      2  N   UNL d   1       3.433   1.671   0.137  0.00  0.00    -0.323 N 
ATOM      3  O   UNL d   1       5.224   0.167   0.165  0.00  0.00    -0.267 OA
ATOM      4  H   UNL d   1       3.214   2.642  -0.045  0.00  0.00     0.169 HD
ENDROOT
BRANCH   2   5
ATOM      5  C   UNL d   1       2.343   0.836   0.481  0.00  0.00     0.036 A 
ATOM      6  C   UNL d   1       2.486  -0.514   0.825  0.00  0.00     0.051 A 
ATOM      7  C   UNL d   1       1.349  -1.245   1.219  0.00  0.00     0.036 A 
ATOM      8  S   UNL d   1       1.234  -2.890   1.718  0.00  0.00    -0.063 SA
ATOM      9  C   UNL d   1       0.081  -0.671   1.265  0.00  0.00     0.050 A 
ATOM     10  C   UNL d   1      -0.447  -2.691   1.969  0.00  0.00     0.112 A 
ATOM     11  N   UNL d   1      -0.937  -1.506   1.691  0.00  0.00    -0.344 N 
ATOM     12  HN  UNL d   1      -1.918  -1.242   1.777  1.00  0.00     0.167 HD
ATOM     13  C   UNL d   1      -0.059   0.680   0.894  0.00  0.00     0.033 A 
ATOM     14  C   UNL d   1       1.071   1.419   0.510  0.00  0.00     0.032 A 
BRANCH  10  15
ATOM     15  S   UNL d   1      -1.453  -3.992   2.575  0.00  0.00    -0.109 SA
ATOM     16  C   UNL d   1      -3.041  -3.143   2.711  0.00  0.00     0.097 C 
ENDBRANCH  10  15
ENDBRANCH   2   5
BRANCH   1  17
ATOM     17  C   UNL d   1       5.747   2.395  -0.101  0.00  0.00     0.047 A 
ATOM     18  C   UNL d   1       6.856   2.275  -0.956  0.00  0.00     0.063 A 
ATOM     19  C   UNL d   1       7.888   3.233  -0.853  0.00  0.00     0.017 A 
ATOM     20  C   UNL d   1       7.799   4.297   0.043  0.00  0.00     0.001 A 
ATOM     21  C   UNL d   1       6.671   4.438   0.843  0.00  0.00     0.001 A 
ATOM     22  C   UNL d   1       5.651   3.488   0.781  0.00  0.00     0.018 A 
BRANCH  18  23
ATOM     23  C   UNL d   1       7.019   1.193  -1.998  0.00  0.00     0.418 C 
ATOM     24  F   UNL d   1       5.931   0.422  -2.249  0.00  0.00    -0.166 F 
ATOM     25  F   UNL d   1       7.325   1.746  -3.214  0.00  0.00    -0.166 F 
ATOM     26  F   UNL d   1       8.053   0.351  -1.724  0.00  0.00    -0.166 F 
ENDBRANCH  18  23
ENDBRANCH   1  17
TORSDOF 4
