REMARK  4 active torsions:
REMARK  status: ('A' for Active; 'I' for Inactive)
REMARK    1  A    between atoms: C_6  and  C_1 
REMARK    2  A    between atoms: C_5  and  C_2 
REMARK       I    between atoms: N_9  and  C_5 
REMARK    3  A    between atoms: C_10  and  N_9 
REMARK       I    between atoms: C_12  and  N_15 
REMARK    4  A    between atoms: N_15  and  C_17 
ROOT
ATOM      1  C   UNL d   1       0.170  -2.576   0.555  0.00  0.00     0.261 C 
ATOM      2  N   UNL d   1       0.022  -3.907   0.283  0.00  0.00    -0.322 N 
ATOM      3  O   UNL d   1      -0.676  -1.729   0.262  0.00  0.00    -0.267 OA
ATOM      4  H   UNL d   1       0.876  -4.377   0.046  0.00  0.00     0.169 HD
ENDROOT
BRANCH   1   5
ATOM      5  C   UNL d   1       1.437  -2.207   1.182  0.00  0.00     0.093 A 
ATOM      6  C   UNL d   1       2.668  -2.911   1.455  0.00  0.00     0.086 A 
ATOM      7  N   UNL d   1       3.562  -2.084   2.019  0.00  0.00    -0.259 N 
ATOM      8  O   UNL d   1       2.925  -0.887   2.214  0.00  0.00    -0.241 OA
ATOM      9  HN  UNL d   1       4.529  -2.304   2.258  1.00  0.00     0.195 HD
ATOM     10  C   UNL d   1       1.662  -0.957   1.736  0.00  0.00     0.090 A 
ATOM     11  C   UNL d   1       0.848   0.261   1.946  0.00  0.00     0.080 C 
BRANCH   6  12
ATOM     12  C   UNL d   1       3.083  -4.304   1.233  0.00  0.00     0.037 A 
ATOM     13  C   UNL d   1       3.225  -4.841  -0.060  0.00  0.00     0.048 A 
ATOM     14 CL   UNL d   1       2.890  -3.919  -1.487  0.00  0.00    -0.083 Cl
ATOM     15  C   UNL d   1       3.614  -6.175  -0.254  0.00  0.00     0.025 A 
ATOM     16  C   UNL d   1       3.922  -6.984   0.836  0.00  0.00     0.003 A 
ATOM     17  C   UNL d   1       3.832  -6.461   2.122  0.00  0.00     0.025 A 
ATOM     18  C   UNL d   1       3.407  -5.140   2.324  0.00  0.00     0.048 A 
ATOM     19 CL   UNL d   1       3.280  -4.623   3.974  0.00  0.00    -0.083 Cl
ENDBRANCH   6  12
ENDBRANCH   1   5
BRANCH   2  20
ATOM     20  C   UNL d   1      -1.133  -4.547  -0.205  0.00  0.00     0.041 C 
ATOM     21  C   UNL d   1      -2.374  -4.540   0.433  0.00  0.00    -0.033 C 
ATOM     22  C   UNL d   1      -3.276  -5.577   0.102  0.00  0.00     0.038 C 
ATOM     23  C   UNL d   1      -2.770  -3.648   1.575  0.00  0.00     0.050 C 
ATOM     24  C   UNL d   1      -2.979  -6.554  -0.866  0.00  0.00     0.035 C 
ATOM     25  C   UNL d   1      -1.824  -6.400  -1.622  0.00  0.00     0.032 C 
ATOM     26  C   UNL d   1      -0.898  -5.426  -1.271  0.00  0.00     0.032 C 
BRANCH  24  27
ATOM     27  N   UNL d   1      -3.816  -7.681  -0.902  0.00  0.00    -0.327 N 
ATOM     28  C   UNL d   1      -3.780  -8.853  -1.603  0.00  0.00     0.218 C 
ATOM     29  O   UNL d   1      -4.436  -9.807  -1.175  0.00  0.00    -0.274 OA
ATOM     30  C   UNL d   1      -2.989  -8.990  -2.869  0.00  0.00     0.117 C 
ATOM     31  H   UNL d   1      -4.479  -7.756  -0.135  0.00  0.00     0.169 HD
ENDBRANCH  24  27
ENDBRANCH   2  20
TORSDOF 4
