REMARK  9 active torsions:
REMARK  status: ('A' for Active; 'I' for Inactive)
REMARK    1  A    between atoms: C_7  and  C_1 
REMARK    2  A    between atoms: C_9  and  C_6 
REMARK       I    between atoms: N_8  and  C_7 
REMARK    3  A    between atoms: C_12  and  N_8 
REMARK    4  A    between atoms: O_11  and  C_16 
REMARK    5  A    between atoms: C_14  and  O_11 
REMARK    6  A    between atoms: C_13  and  C_12 
REMARK    7  A    between atoms: C_16  and  C_13 
REMARK    8  A    between atoms: O_22  and  C_13 
REMARK    9  A    between atoms: O_23  and  C_17 
ROOT
ATOM      1  C   UNL d   1      -0.232  -2.561   0.104  0.00  0.00     0.269 C 
ATOM      2  N   UNL d   1       0.642  -3.628   0.068  0.00  0.00    -0.353 N 
ATOM      3  O   UNL d   1       0.182  -1.412  -0.014  0.00  0.00    -0.266 OA
ATOM      4  H   UNL d   1       0.315  -4.566   0.253  0.00  0.00     0.162 HD
ENDROOT
BRANCH   2   5
ATOM      5  C   UNL d   1       2.073  -3.427  -0.046  0.00  0.00     0.156 C 
BRANCH   5   6
ATOM      6  C   UNL d   1       2.858  -4.739   0.090  0.00  0.00     0.160 C 
BRANCH   6   7
ATOM      7  C   UNL d   1       4.363  -4.453  -0.026  0.00  0.00     0.209 C 
BRANCH   7   8
ATOM      8  O   UNL d   1       5.103  -5.678   0.006  0.00  0.00    -0.349 OA
BRANCH   8   9
ATOM      9  C   UNL d   1       6.465  -5.543  -0.082  0.00  0.00     0.069 A 
ATOM     10  C   UNL d   1       7.186  -4.408   0.281  0.00  0.00     0.039 A 
ATOM     11  C   UNL d   1       8.580  -4.376   0.161  0.00  0.00     0.039 A 
ATOM     12  C   UNL d   1       9.269  -5.485  -0.330  0.00  0.00     0.068 A 
ATOM     13  C   UNL d   1       8.551  -6.631  -0.674  0.00  0.00     0.039 A 
ATOM     14  C   UNL d   1       7.158  -6.665  -0.544  0.00  0.00     0.039 A 
BRANCH  12  15
ATOM     15  O   UNL d   1      10.622  -5.564  -0.510  0.00  0.00    -0.356 OA
ATOM     16  C   UNL d   1      11.379  -4.405  -0.177  0.00  0.00     0.210 C 
ENDBRANCH  12  15
ENDBRANCH   8   9
ENDBRANCH   7   8
ENDBRANCH   6   7
BRANCH   6  17
ATOM     17  O   UNL d   1       2.540  -5.334   1.360  0.00  0.00    -0.392 OA
ATOM     18  H   UNL d   1       2.992  -4.830   2.058  0.00  0.00     0.210 HD
ENDBRANCH   6  17
ENDBRANCH   5   6
ENDBRANCH   2   5
BRANCH   1  19
ATOM     19  C   UNL d   1      -1.623  -2.910   0.297  0.00  0.00     0.119 A 
ATOM     20  N   UNL d   1      -2.690  -2.038   0.277  0.00  0.00    -0.291 N 
ATOM     21  N   UNL d   1      -3.883  -2.634   0.495  0.00  0.00    -0.302 N 
ATOM     22  C   UNL d   1      -2.711  -0.609   0.064  0.00  0.00     0.178 C 
ATOM     23  C   UNL d   1      -3.597  -3.927   0.666  0.00  0.00     0.036 A 
ATOM     24  HN  UNL d   1      -4.802  -2.193   0.522  1.00  0.00     0.186 HD
ATOM     25  C   UNL d   1      -2.204  -4.145   0.545  0.00  0.00     0.064 A 
BRANCH  23  26
ATOM     26  C   UNL d   1      -4.672  -4.959   0.963  0.00  0.00    -0.007 C 
ATOM     27  C   UNL d   1      -4.400  -5.609   2.336  0.00  0.00     0.021 C 
ATOM     28  C   UNL d   1      -6.087  -4.344   0.999  0.00  0.00     0.021 C 
ATOM     29  C   UNL d   1      -4.660  -6.057  -0.119  0.00  0.00     0.021 C 
ENDBRANCH  23  26
ENDBRANCH   1  19
TORSDOF 9
