REMARK  3 active torsions:
REMARK  status: ('A' for Active; 'I' for Inactive)
REMARK    1  A    between atoms: N_2  and  S_1 
REMARK    2  A    between atoms: C_4  and  S_1 
REMARK    3  A    between atoms: C_3  and  C_7 
ROOT
ATOM      1  S   UNL d   1       1.148  -0.248   0.064  0.00  0.00     0.261 S 
ATOM      2  O   UNL d   1       0.435   0.830   0.720  0.00  0.00    -0.200 OA
ATOM      3  O   UNL d   1       1.686  -0.088  -1.266  0.00  0.00    -0.200 OA
ENDROOT
BRANCH   1   4
ATOM      4  N   UNL d   1       0.149  -1.609   0.069  0.00  0.00    -0.302 N 
ATOM      5  C   UNL d   1      -0.639  -1.927   1.284  0.00  0.00     0.167 C 
ATOM      6  C   UNL d   1       0.115  -2.962   2.125  0.00  0.00     0.136 C 
ATOM      7  C   UNL d   1      -0.601  -3.255   3.431  0.00  0.00     0.041 C 
ATOM      8  O   UNL d   1       0.246  -4.175   1.371  0.00  0.00    -0.378 OA
ATOM      9  C   UNL d   1       1.053  -3.963   0.195  0.00  0.00     0.136 C 
ATOM     10  C   UNL d   1       0.509  -2.828  -0.705  0.00  0.00     0.167 C 
ATOM     11  C   UNL d   1       1.083  -5.290  -0.554  0.00  0.00     0.041 C 
ENDBRANCH   1   4
BRANCH   1  12
ATOM     12  C   UNL d   1       2.511  -0.688   1.128  0.00  0.00     0.080 A 
ATOM     13  C   UNL d   1       3.628  -1.338   0.588  0.00  0.00     0.041 A 
ATOM     14  C   UNL d   1       4.697  -1.708   1.421  0.00  0.00     0.049 A 
ATOM     15  C   UNL d   1       4.636  -1.388   2.788  0.00  0.00     0.016 A 
ATOM     16  C   UNL d   1       3.540  -0.700   3.312  0.00  0.00     0.002 A 
ATOM     17  C   UNL d   1       2.480  -0.338   2.482  0.00  0.00     0.025 A 
BRANCH  14  18
ATOM     18  C   UNL d   1       5.891  -2.454   0.876  0.00  0.00     0.417 C 
ATOM     19  F   UNL d   1       5.835  -2.658  -0.469  0.00  0.00    -0.166 F 
ATOM     20  F   UNL d   1       7.066  -1.810   1.112  0.00  0.00    -0.166 F 
ATOM     21  F   UNL d   1       6.021  -3.690   1.433  0.00  0.00    -0.166 F 
ENDBRANCH  14  18
ENDBRANCH   1  12
TORSDOF 3
