REMARK  3 active torsions:
REMARK  status: ('A' for Active; 'I' for Inactive)
REMARK    1  A    between atoms: C_10  and  C_2 
REMARK       I    between atoms: N_14  and  C_10 
REMARK       I    between atoms: C_11  and  N_15 
REMARK       I    between atoms: N_16  and  C_11 
REMARK    2  A    between atoms: N_15  and  N_14 
REMARK    3  A    between atoms: C_19  and  N_16 
ROOT
ATOM      1  C   UNL d   1      -2.749  -1.661   1.001  0.00  0.00     0.270 C 
ATOM      2  N   UNL d   1      -3.317  -2.758   0.391  0.00  0.00    -0.262 N 
ATOM      3  O   UNL d   1      -1.529  -1.555   1.125  0.00  0.00    -0.266 OA
ATOM      4  H   UNL d   1      -4.311  -2.966   0.333  0.00  0.00     0.190 HD
ENDROOT
BRANCH   2   5
ATOM      5  N   UNL d   1      -2.468  -3.772  -0.092  0.00  0.00    -0.248 N 
ATOM      6  C   UNL d   1      -3.008  -5.048  -0.145  0.00  0.00     0.339 C 
ATOM      7  N   UNL d   1      -2.124  -5.966  -0.674  0.00  0.00    -0.308 N 
ATOM      8  O   UNL d   1      -4.176  -5.245   0.181  0.00  0.00    -0.245 OA
ATOM      9  H   UNL d   1      -1.208  -5.612  -0.908  0.00  0.00     0.170 HD
ATOM     10  H   UNL d   1      -1.484  -3.638   0.127  0.00  0.00     0.192 HD
BRANCH   7  11
ATOM     11  C   UNL d   1      -2.404  -7.299  -1.041  0.00  0.00     0.036 A 
ATOM     12  C   UNL d   1      -3.652  -7.904  -0.868  0.00  0.00     0.031 A 
ATOM     13  C   UNL d   1      -3.881  -9.213  -1.306  0.00  0.00     0.026 A 
ATOM     14  C   UNL d   1      -2.857  -9.928  -1.916  0.00  0.00     0.034 A 
ATOM     15  C   UNL d   1      -1.603  -9.348  -2.083  0.00  0.00     0.026 A 
ATOM     16 CL   UNL d   1      -3.146 -11.529  -2.474  0.00  0.00    -0.084 Cl
ATOM     17  C   UNL d   1      -1.377  -8.037  -1.645  0.00  0.00     0.031 A 
ENDBRANCH   7  11
ENDBRANCH   2   5
BRANCH   1  18
ATOM     18  C   UNL d   1      -3.664  -0.576   1.483  0.00  0.00     0.036 A 
ATOM     19  C   UNL d   1      -5.069  -0.728   1.485  0.00  0.00     0.051 A 
ATOM     20  C   UNL d   1      -5.787   0.406   1.916  0.00  0.00     0.086 A 
ATOM     21  C   UNL d   1      -5.136   1.637   2.341  0.00  0.00     0.085 A 
ATOM     22  N   UNL d   1      -7.111   0.579   2.012  0.00  0.00    -0.240 N 
ATOM     23  N   UNL d   1      -6.083   2.519   2.678  0.00  0.00    -0.240 N 
ATOM     24  C   UNL d   1      -3.739   1.778   2.358  0.00  0.00     0.035 A 
ATOM     25  O   UNL d   1      -7.291   1.872   2.475  0.00  0.00    -0.156 OA
ATOM     26  HN  UNL d   1      -5.945   3.472   3.014  1.00  0.00     0.197 HD
ATOM     27  C   UNL d   1      -3.037   0.637   1.917  0.00  0.00     0.019 A 
ATOM     28  HN  UNL d   1      -7.837  -0.102   1.791  1.00  0.00     0.197 HD
ENDBRANCH   1  18
TORSDOF 3
