REMARK  3 active torsions:
REMARK  status: ('A' for Active; 'I' for Inactive)
REMARK    1  A    between atoms: C_5  and  C_1 
REMARK    2  A    between atoms: O_10  and  C_2 
REMARK    3  A    between atoms: N_4  and  C_5 
ROOT
ATOM      1  C   UNL d   1      -2.096   0.178  -0.175  0.00  0.00     0.004 A 
ATOM      2  C   UNL d   1      -1.016  -0.674  -0.483  0.00  0.00     0.084 A 
ATOM      3  C   UNL d   1       0.322  -0.253  -0.394  0.00  0.00     0.008 A 
ATOM      4  C   UNL d   1      -1.811   1.520   0.107  0.00  0.00     0.012 A 
ATOM      5  C   UNL d   1       0.586   1.091  -0.056  0.00  0.00    -0.023 A 
ATOM      6  C   UNL d   1      -0.489   1.971   0.159  0.00  0.00     0.013 A 
ATOM      7  C   UNL d   1       1.406  -1.135  -0.582  0.00  0.00     0.015 A 
ATOM      8  C   UNL d   1       1.919   1.516   0.081  0.00  0.00     0.012 A 
ATOM      9  C   UNL d   1       2.722  -0.703  -0.421  0.00  0.00     0.001 A 
ATOM     10  C   UNL d   1       2.978   0.621  -0.090  0.00  0.00     0.001 A 
ENDROOT
BRANCH   1  11
ATOM     11  C   UNL d   1      -3.538  -0.305  -0.125  0.00  0.00     0.314 C 
BRANCH  11  12
ATOM     12  N   UNL d   1      -3.619  -1.715   0.299  0.00  0.00     0.096 N 
ATOM     13  C   UNL d   1      -3.287  -1.891   1.736  0.00  0.00     0.299 C 
ATOM     14  C   UNL d   1      -3.249  -3.390   2.064  0.00  0.00     0.198 C 
ATOM     15  O   UNL d   1      -4.520  -4.001   1.800  0.00  0.00    -0.388 OA
ATOM     16  C   UNL d   1      -4.896  -3.810   0.428  0.00  0.00     0.198 C 
ATOM     17  C   UNL d   1      -4.944  -2.315   0.058  0.00  0.00     0.299 C 
ENDBRANCH  11  12
ENDBRANCH   1  11
BRANCH   2  18
ATOM     18  O   UNL d   1      -1.250  -1.988  -0.835  0.00  0.00    -0.359 OA
ATOM     19  H   UNL d   1      -2.183  -2.172  -0.603  0.00  0.00     0.217 HD
ENDBRANCH   2  18
TORSDOF 3
