REMARK  4 active torsions:
REMARK  status: ('A' for Active; 'I' for Inactive)
REMARK    1  A    between atoms: C_6  and  C_1 
REMARK       I    between atoms: N_10  and  C_6 
REMARK    2  A    between atoms: O_13  and  C_7 
REMARK    3  A    between atoms: N_8  and  N_10 
REMARK    4  A    between atoms: C_15  and  C_12 
ROOT
ATOM      1  C   UNL d   1      -0.647  -2.535   0.042  0.00  0.00     0.288 C 
ATOM      2  N   UNL d   1       0.233  -3.608   0.198  0.00  0.00    -0.265 N 
ATOM      3  O   UNL d   1      -0.303  -1.365   0.171  0.00  0.00    -0.264 OA
ATOM      4  H   UNL d   1      -0.089  -4.559   0.098  0.00  0.00     0.190 HD
ENDROOT
BRANCH   1   5
ATOM      5  C   UNL d   1      -2.014  -2.916  -0.289  0.00  0.00     0.123 A 
ATOM      6  N   UNL d   1      -3.062  -2.030  -0.479  0.00  0.00    -0.289 N 
ATOM      7  N   UNL d   1      -4.240  -2.639  -0.736  0.00  0.00    -0.278 N 
ATOM      8  C   UNL d   1      -3.056  -0.585  -0.436  0.00  0.00     0.178 C 
ATOM      9  C   UNL d   1      -3.924  -3.919  -0.764  0.00  0.00     0.157 A 
ATOM     10  HN  UNL d   1      -5.155  -2.210  -0.876  1.00  0.00     0.189 HD
ATOM     11  C   UNL d   1      -2.576  -4.169  -0.505  0.00  0.00     0.094 A 
BRANCH   9  12
ATOM     12  O   UNL d   1      -4.910  -4.775  -1.032  0.00  0.00    -0.345 OA
ATOM     13  H   UNL d   1      -4.566  -5.680  -1.049  0.00  0.00     0.219 HD
ENDBRANCH   9  12
ENDBRANCH   1   5
BRANCH   2  14
ATOM     14  N   UNL d   1       1.571  -3.381   0.361  0.00  0.00    -0.308 N 
ATOM     15  C   UNL d   1       2.328  -4.427   0.460  0.00  0.00     0.118 C 
ATOM     16  HN  UNL d   1       1.954  -2.436   0.403  1.00  0.00     0.186 HD
BRANCH  15  17
ATOM     17  C   UNL d   1       3.801  -4.308   0.549  0.00  0.00    -0.019 A 
ATOM     18  C   UNL d   1       4.404  -3.046   0.573  0.00  0.00     0.013 A 
ATOM     19  C   UNL d   1       5.795  -2.938   0.570  0.00  0.00     0.001 A 
ATOM     20  C   UNL d   1       6.584  -4.087   0.549  0.00  0.00     0.000 A 
ATOM     21  C   UNL d   1       5.985  -5.348   0.548  0.00  0.00     0.001 A 
ATOM     22  C   UNL d   1       4.591  -5.463   0.552  0.00  0.00     0.013 A 
ENDBRANCH  15  17
ENDBRANCH   2  14
TORSDOF 4
