REMARK  3 active torsions:
REMARK  status: ('A' for Active; 'I' for Inactive)
REMARK    1  A    between atoms: C_7  and  C_3 
REMARK    2  A    between atoms: C_8  and  C_4 
REMARK    3  A    between atoms: C_16  and  C_9 
ROOT
ATOM      1  N   UNL d   1       1.253  -0.482  -0.564  0.00  0.00    -0.349 N 
ATOM      2  HN  UNL d   1       2.051  -0.888  -1.051  1.00  0.00     0.166 HD
ATOM      3  C   UNL d   1       0.096  -1.090  -0.383  0.00  0.00     0.084 A 
ATOM      4  C   UNL d   1       1.233   0.787  -0.001  0.00  0.00     0.050 A 
ATOM      5  S   UNL d   1      -1.102  -0.128   0.407  0.00  0.00    -0.081 SA
ATOM      6  C   UNL d   1       0.022   1.152   0.552  0.00  0.00     0.082 A 
ENDROOT
BRANCH   4   7
ATOM      7  C   UNL d   1       2.400   1.663  -0.033  0.00  0.00    -0.009 A 
ATOM      8  C   UNL d   1       3.354   1.521  -1.045  0.00  0.00     0.014 A 
ATOM      9  C   UNL d   1       4.470   2.370  -1.101  0.00  0.00     0.013 A 
ATOM     10  C   UNL d   1       4.673   3.389  -0.153  0.00  0.00    -0.026 A 
ATOM     11  C   UNL d   1       3.711   3.508   0.865  0.00  0.00     0.013 A 
ATOM     12  C   UNL d   1       2.601   2.656   0.931  0.00  0.00     0.014 A 
BRANCH  10  13
ATOM     13  C   UNL d   1       5.850   4.291  -0.214  0.00  0.00    -0.026 A 
ATOM     14  C   UNL d   1       6.459   4.784   0.956  0.00  0.00     0.012 A 
ATOM     15  C   UNL d   1       7.571   5.632   0.902  0.00  0.00     0.001 A 
ATOM     16  C   UNL d   1       8.110   5.998  -0.326  0.00  0.00     0.000 A 
ATOM     17  C   UNL d   1       7.530   5.527  -1.499  0.00  0.00     0.001 A 
ATOM     18  C   UNL d   1       6.410   4.690  -1.442  0.00  0.00     0.012 A 
ENDBRANCH  10  13
ENDBRANCH   4   7
BRANCH   3  19
ATOM     19  C   UNL d   1      -0.217  -2.456  -0.843  0.00  0.00    -0.002 A 
ATOM     20  C   UNL d   1      -1.186  -3.262  -0.219  0.00  0.00     0.016 A 
ATOM     21  C   UNL d   1      -1.471  -4.546  -0.699  0.00  0.00     0.024 A 
ATOM     22  C   UNL d   1      -0.787  -5.042  -1.803  0.00  0.00     0.034 A 
ATOM     23  C   UNL d   1       0.190  -4.268  -2.427  0.00  0.00     0.024 A 
ATOM     24 CL   UNL d   1      -1.148  -6.614  -2.399  0.00  0.00    -0.084 Cl
ATOM     25  C   UNL d   1       0.475  -2.984  -1.946  0.00  0.00     0.016 A 
ENDBRANCH   3  19
TORSDOF 3
