REMARK  7 active torsions:
REMARK  status: ('A' for Active; 'I' for Inactive)
REMARK    1  A    between atoms: S_8  and  C_1 
REMARK    2  A    between atoms: C_6  and  C_9 
REMARK    3  A    between atoms: O_20  and  C_6 
REMARK    4  A    between atoms: C_7  and  C_18 
REMARK       I    between atoms: N_10  and  C_7 
REMARK    5  A    between atoms: C_18  and  S_8 
REMARK    6  A    between atoms: C_19  and  N_10 
REMARK    7  A    between atoms: C_25  and  O_20 
ROOT
ATOM      1  C   UNL d   1       1.681  -5.352   0.111  0.00  0.00     0.231 C 
ATOM      2  N   UNL d   1       0.474  -6.039   0.113  0.00  0.00    -0.327 N 
ATOM      3  O   UNL d   1       1.801  -4.133   0.001  0.00  0.00    -0.272 OA
ATOM      4  H   UNL d   1       0.524  -7.038   0.288  0.00  0.00     0.169 HD
ENDROOT
BRANCH   1   5
ATOM      5  C   UNL d   1       2.916  -6.203   0.369  0.00  0.00     0.185 C 
BRANCH   5   6
ATOM      6  S   UNL d   1       2.886  -7.817  -0.463  0.00  0.00    -0.085 SA
BRANCH   6   7
ATOM      7  C   UNL d   1       2.621  -7.213  -2.108  0.00  0.00     0.145 A 
ATOM      8  N   UNL d   1       3.500  -6.324  -2.595  0.00  0.00    -0.341 N 
ATOM      9  C   UNL d   1       3.171  -5.725  -3.756  0.00  0.00     0.009 A 
ATOM     10  HN  UNL d   1       4.372  -6.113  -2.112  1.00  0.00     0.167 HD
ATOM     11  C   UNL d   1       4.106  -4.676  -4.277  0.00  0.00     0.068 C 
ATOM     12  C   UNL d   1       1.987  -5.996  -4.415  0.00  0.00     0.049 A 
ATOM     13  C   UNL d   1       1.156  -6.938  -3.838  0.00  0.00     0.009 A 
ATOM     14  N   UNL d   1       1.460  -7.556  -2.682  0.00  0.00    -0.341 N 
ATOM     15  C   UNL d   1      -0.175  -7.254  -4.448  0.00  0.00     0.068 C 
ATOM     16  HN  UNL d   1       0.839  -8.249  -2.264  1.00  0.00     0.167 HD
ENDBRANCH   6   7
ENDBRANCH   5   6
ENDBRANCH   1   5
BRANCH   2  17
ATOM     17  C   UNL d   1      -0.796  -5.527  -0.228  0.00  0.00     0.034 A 
ATOM     18  C   UNL d   1      -0.984  -4.235  -0.727  0.00  0.00     0.030 A 
ATOM     19  C   UNL d   1      -2.252  -3.798  -1.119  0.00  0.00     0.020 A 
ATOM     20  C   UNL d   1      -3.358  -4.648  -1.019  0.00  0.00     0.039 A 
ATOM     21  C   UNL d   1      -3.183  -5.932  -0.490  0.00  0.00     0.020 A 
ATOM     22  C   UNL d   1      -1.907  -6.367  -0.104  0.00  0.00     0.030 A 
BRANCH  20  23
ATOM     23  C   UNL d   1      -4.689  -4.261  -1.561  0.00  0.00     0.293 C 
ATOM     24  O   UNL d   1      -5.659  -5.000  -1.579  0.00  0.00    -0.259 OA
BRANCH  23  25
ATOM     25  O   UNL d   1      -4.598  -3.037  -2.137  0.00  0.00    -0.318 OA
BRANCH  25  26
ATOM     26  C   UNL d   1      -5.597  -2.719  -3.113  0.00  0.00     0.174 C 
ATOM     27  C   UNL d   1      -5.117  -3.229  -4.460  0.00  0.00     0.034 C 
ENDBRANCH  25  26
ENDBRANCH  23  25
ENDBRANCH  20  23
ENDBRANCH   2  17
TORSDOF 7
