REMARK  6 active torsions:
REMARK  status: ('A' for Active; 'I' for Inactive)
REMARK    1  A    between atoms: C_3  and  O_15 
REMARK       I    between atoms: N_7  and  C_3 
REMARK    2  A    between atoms: N_8  and  C_4 
REMARK    3  A    between atoms: C_10  and  N_7 
REMARK    4  A    between atoms: C_20  and  N_8 
REMARK    5  A    between atoms: O_15  and  C_19 
REMARK    6  A    between atoms: C_19  and  C_20 
ROOT
ATOM      1  N   UNL d   1      -1.734   1.351  -0.673  0.00  0.00    -0.351 N 
ATOM      2  HN  UNL d   1      -1.801   1.507  -1.679  1.00  0.00     0.166 HD
ATOM      3  C   UNL d   1      -2.715   0.686  -0.019  0.00  0.00     0.102 A 
ATOM      4  N   UNL d   1       1.643   2.463   2.580  0.00  0.00    -0.191 NA
ATOM      5  C   UNL d   1       0.683   2.096   2.042  0.00  0.00     0.101 C 
ATOM      6  C   UNL d   1      -0.492   1.630   1.380  0.00  0.00     0.060 A 
ATOM      7  C   UNL d   1      -2.622   0.513   1.364  0.00  0.00     0.050 A 
ATOM      8  C   UNL d   1      -0.663   1.809   0.022  0.00  0.00     0.112 A 
ATOM      9  C   UNL d   1      -1.503   0.971   2.066  0.00  0.00     0.028 A 
ENDROOT
BRANCH   3  10
ATOM     10  N   UNL d   1      -3.806   0.215  -0.741  0.00  0.00    -0.370 N 
ATOM     11  C   UNL d   1      -3.803   0.483  -2.179  0.00  0.00     0.151 C 
BRANCH  10  12
ATOM     12  C   UNL d   1      -4.526  -0.999  -0.315  0.00  0.00     0.151 C 
BRANCH  12  13
ATOM     13  C   UNL d   1      -3.645  -2.263  -0.286  0.00  0.00     0.200 C 
BRANCH  13  14
ATOM     14  O   UNL d   1      -4.357  -3.438   0.161  0.00  0.00    -0.302 OA
BRANCH  14  15
ATOM     15  C   UNL d   1      -5.205  -3.983  -0.741  0.00  0.00     0.365 C 
ATOM     16  N   UNL d   1      -5.777  -5.180  -0.400  0.00  0.00    -0.303 N 
ATOM     17  H   UNL d   1      -6.428  -5.474  -1.117  0.00  0.00     0.171 HD
ATOM     18  O   UNL d   1      -5.483  -3.466  -1.821  0.00  0.00    -0.238 OA
BRANCH  16  19
ATOM     19  C   UNL d   1      -5.554  -6.086   0.652  0.00  0.00     0.038 A 
ATOM     20  C   UNL d   1      -4.642  -5.906   1.691  0.00  0.00     0.053 A 
ATOM     21  C   UNL d   1      -4.466  -6.910   2.650  0.00  0.00     0.036 A 
ATOM     22 CL   UNL d   1      -3.317  -6.688   3.914  0.00  0.00    -0.084 Cl
ATOM     23  C   UNL d   1      -5.196  -8.096   2.593  0.00  0.00     0.024 A 
ATOM     24  C   UNL d   1      -6.119  -8.280   1.569  0.00  0.00     0.004 A 
ATOM     25  C   UNL d   1      -6.296  -7.280   0.609  0.00  0.00     0.029 A 
ENDBRANCH  16  19
ENDBRANCH  14  15
ENDBRANCH  13  14
ENDBRANCH  12  13
ENDBRANCH  10  12
ENDBRANCH   3  10
TORSDOF 6
