REMARK  8 active torsions:
REMARK  status: ('A' for Active; 'I' for Inactive)
REMARK    1  A    between atoms: C_5  and  C_1 
REMARK    2  A    between atoms: O_15  and  C_2 
REMARK    3  A    between atoms: O_19  and  C_5 
REMARK    4  A    between atoms: C_17  and  C_9 
REMARK    5  A    between atoms: C_10  and  C_11 
REMARK    6  A    between atoms: O_16  and  C_17 
REMARK    7  A    between atoms: C_18  and  O_16 
REMARK    8  A    between atoms: C_25  and  O_19 
ROOT
ATOM      1  C   UNL d   1       0.106   1.585  -0.126  0.00  0.00     0.105 A 
ATOM      2  C   UNL d   1      -0.380   0.319   0.118  0.00  0.00     0.159 A 
ATOM      3  N   UNL d   1       0.321  -0.801  -0.121  0.00  0.00    -0.324 N 
ATOM      4  HN  UNL d   1      -0.068  -1.725   0.072  1.00  0.00     0.169 HD
ATOM      5  C   UNL d   1       1.384   1.636  -0.640  0.00  0.00     0.111 A 
ATOM      6  N   UNL d   1       2.129   0.543  -0.904  0.00  0.00    -0.353 N 
ATOM      7  HN  UNL d   1       3.070   0.614  -1.290  1.00  0.00     0.166 HD
ATOM      8  C   UNL d   1       1.561  -0.650  -0.629  0.00  0.00     0.107 A 
ENDROOT
BRANCH   8   9
ATOM      9  C   UNL d   1       2.358  -1.898  -0.926  0.00  0.00     0.252 C 
BRANCH   9  10
ATOM     10  O   UNL d   1       3.211  -2.184   0.184  0.00  0.00    -0.344 OA
BRANCH  10  11
ATOM     11  C   UNL d   1       4.033  -3.264   0.038  0.00  0.00     0.069 A 
ATOM     12  C   UNL d   1       5.171  -3.256   0.840  0.00  0.00     0.037 A 
ATOM     13  C   UNL d   1       6.081  -4.317   0.790  0.00  0.00     0.011 A 
ATOM     14  C   UNL d   1       5.871  -5.425  -0.051  0.00  0.00    -0.050 A 
ATOM     15  C   UNL d   1       4.710  -5.416  -0.841  0.00  0.00     0.011 A 
ATOM     16  C   UNL d   1       3.801  -4.350  -0.797  0.00  0.00     0.037 A 
BRANCH  14  17
ATOM     17  C   UNL d   1       6.883  -6.583  -0.081  0.00  0.00    -0.024 C 
ATOM     18  C   UNL d   1       6.472  -7.739  -1.021  0.00  0.00     0.019 C 
ATOM     19  C   UNL d   1       8.252  -6.060  -0.565  0.00  0.00     0.019 C 
ATOM     20  C   UNL d   1       7.042  -7.183   1.333  0.00  0.00     0.019 C 
ENDBRANCH  14  17
ENDBRANCH  10  11
ENDBRANCH   9  10
ENDBRANCH   8   9
BRANCH   2  21
ATOM     21  O   UNL d   1      -1.637   0.079   0.603  0.00  0.00    -0.345 OA
ATOM     22  H   UNL d   1      -2.102   0.933   0.713  0.00  0.00     0.219 HD
ENDBRANCH   2  21
BRANCH   1  23
ATOM     23  C   UNL d   1      -0.730   2.777   0.048  0.00  0.00     0.299 C 
ATOM     24  O   UNL d   1      -1.897   2.711   0.407  0.00  0.00    -0.259 OA
BRANCH  23  25
ATOM     25  O   UNL d   1      -0.060   3.873  -0.364  0.00  0.00    -0.318 OA
BRANCH  25  26
ATOM     26  C   UNL d   1      -0.863   5.005  -0.721  0.00  0.00     0.174 C 
ATOM     27  C   UNL d   1      -1.270   4.845  -2.175  0.00  0.00     0.034 C 
ENDBRANCH  25  26
ENDBRANCH  23  25
ENDBRANCH   1  23
TORSDOF 8
