REMARK  0 active torsions:
REMARK  status: ('A' for Active; 'I' for Inactive)
ROOT
ATOM      1  C   UNL d   1      -1.282   1.424  -0.105  0.00  0.00     0.107 C 
ATOM      2  C   UNL d   1       0.029   0.699  -0.012  0.00  0.00     0.008 A 
ATOM      3  N   UNL d   1      -2.426   0.653  -0.094  0.00  0.00    -0.380 N 
ATOM      4  S   UNL d   1      -1.490   3.082  -0.240  0.00  0.00    -0.060 SA
ATOM      5  C   UNL d   1       0.041  -0.713  -0.043  0.00  0.00    -0.043 A 
ATOM      6  C   UNL d   1      -2.423  -0.715   0.367  0.00  0.00     0.125 C 
ATOM      7  C   UNL d   1       1.247   1.387   0.077  0.00  0.00     0.015 A 
ATOM      8  C   UNL d   1      -1.241  -1.494  -0.186  0.00  0.00     0.059 C 
ATOM      9  C   UNL d   1       1.264  -1.400  -0.017  0.00  0.00     0.008 A 
ATOM     10  C   UNL d   1       2.459   0.690   0.114  0.00  0.00     0.001 A 
ATOM     11  C   UNL d   1       2.467  -0.700   0.063  0.00  0.00     0.001 A 
ATOM     12  H   UNL d   1      -3.297   1.173  -0.081  0.00  0.00     0.160 HD
ENDROOT
TORSDOF 0
