REMARK  4 active torsions:
REMARK  status: ('A' for Active; 'I' for Inactive)
REMARK    1  A    between atoms: C_2  and  C_1 
REMARK       I    between atoms: N_5  and  C_1 
REMARK    2  A    between atoms: C_3  and  C_2 
REMARK    3  A    between atoms: C_4  and  C_2 
REMARK    4  A    between atoms: C_13  and  N_5 
ROOT
ATOM      1  C   UNL d   1       0.982  -0.013  -0.116  0.00  0.00     0.244 C 
ATOM      2  N   UNL d   1       0.273   0.630   0.886  0.00  0.00    -0.326 N 
ATOM      3  O   UNL d   1       0.475  -0.683  -1.016  0.00  0.00    -0.272 OA
ATOM      4  H   UNL d   1       0.753   1.305   1.471  0.00  0.00     0.169 HD
ENDROOT
BRANCH   1   5
ATOM      5  C   UNL d   1       2.474   0.122  -0.105  0.00  0.00     0.292 C 
BRANCH   5   6
ATOM      6  C   UNL d   1       2.933   1.528  -0.269  0.00  0.00     0.408 C 
ATOM      7  F   UNL d   1       1.913   2.415  -0.295  0.00  0.00    -0.170 F 
ATOM      8  F   UNL d   1       3.766   1.940   0.708  0.00  0.00    -0.170 F 
ATOM      9  F   UNL d   1       3.602   1.674  -1.438  0.00  0.00    -0.170 F 
ENDBRANCH   5   6
BRANCH   5  10
ATOM     10  C   UNL d   1       3.026  -0.455   1.145  0.00  0.00     0.408 C 
ATOM     11  F   UNL d   1       2.559  -1.704   1.364  0.00  0.00    -0.170 F 
ATOM     12  F   UNL d   1       4.373  -0.554   1.073  0.00  0.00    -0.170 F 
ATOM     13  F   UNL d   1       2.722   0.285   2.232  0.00  0.00    -0.170 F 
ENDBRANCH   5  10
ENDBRANCH   1   5
BRANCH   2  14
ATOM     14  C   UNL d   1      -1.126   0.559   1.095  0.00  0.00     0.034 A 
ATOM     15  C   UNL d   1      -1.962  -0.375   0.477  0.00  0.00     0.029 A 
ATOM     16  C   UNL d   1      -3.338  -0.379   0.724  0.00  0.00     0.002 A 
ATOM     17  C   UNL d   1      -3.896   0.551   1.595  0.00  0.00     0.000 A 
ATOM     18  C   UNL d   1      -3.075   1.480   2.229  0.00  0.00     0.002 A 
ATOM     19  C   UNL d   1      -1.697   1.479   1.988  0.00  0.00     0.029 A 
ENDBRANCH   2  14
TORSDOF 4
