REMARK  4 active torsions:
REMARK  status: ('A' for Active; 'I' for Inactive)
REMARK    1  A    between atoms: C_2  and  C_1 
REMARK    2  A    between atoms: C_3  and  C_2 
REMARK    3  A    between atoms: C_4  and  C_3 
REMARK    4  A    between atoms: C_5  and  C_4 
ROOT
ATOM      1  C   UNL d   1      -0.531  -1.485   1.719  0.00  0.00     0.168 C 
ATOM      2  O   UNL d   1      -0.999  -2.246   2.562  0.00  0.00    -0.292 OA
ENDROOT
BRANCH   1   3
ATOM      3  C   UNL d   1      -0.381  -1.930   0.292  0.00  0.00     0.172 C 
BRANCH   3   4
ATOM      4  C   UNL d   1       1.006  -2.394  -0.047  0.00  0.00     0.239 C 
ATOM      5  O   UNL d   1       1.707  -1.707  -0.800  0.00  0.00    -0.288 OA
BRANCH   4   6
ATOM      6  C   UNL d   1       1.463  -3.725   0.533  0.00  0.00     0.451 C 
ATOM      7  F   UNL d   1       0.656  -4.193   1.518  0.00  0.00    -0.163 F 
ATOM      8  F   UNL d   1       2.712  -3.648   1.065  0.00  0.00    -0.163 F 
ATOM      9  F   UNL d   1       1.504  -4.699  -0.416  0.00  0.00    -0.163 F 
ENDBRANCH   4   6
ENDBRANCH   3   4
ENDBRANCH   1   3
BRANCH   1  10
ATOM     10  C   UNL d   1      -0.101  -0.122   2.135  0.00  0.00     0.025 A 
ATOM     11  C   UNL d   1      -0.392   0.292   3.432  0.00  0.00     0.102 A 
ATOM     12  N   UNL d   1      -0.043   1.500   3.941  0.00  0.00    -0.374 N 
ATOM     13  C   UNL d   1       0.631   2.332   3.122  0.00  0.00     0.087 A 
ATOM     14  HN  UNL d   1      -0.279   1.766   4.897  1.00  0.00     0.164 HD
ATOM     15  C   UNL d   1       0.963   2.017   1.814  0.00  0.00     0.018 A 
ATOM     16  C   UNL d   1       0.587   0.769   1.311  0.00  0.00     0.018 A 
ENDBRANCH   1  10
TORSDOF 4
