REMARK  6 active torsions:
REMARK  status: ('A' for Active; 'I' for Inactive)
REMARK    1  A    between atoms: N_2  and  C_1 
REMARK    2  A    between atoms: N_3  and  C_11 
REMARK    3  A    between atoms: S_7  and  C_4 
REMARK       I    between atoms: C_5  and  N_6 
REMARK    4  A    between atoms: C_14  and  C_5 
REMARK    5  A    between atoms: N_6  and  C_9 
REMARK    6  A    between atoms: C_10  and  S_7 
ROOT
ATOM      1  C   UNL d   1       4.294   2.273   0.793  0.00  0.00     0.052 A 
ATOM      2  C   UNL d   1       4.561   1.702  -0.477  0.00  0.00     0.032 A 
ATOM      3  C   UNL d   1       4.930   3.488   1.123  0.00  0.00     0.031 A 
ATOM      4  C   UNL d   1       5.531   2.302  -1.308  0.00  0.00     0.021 A 
ATOM      5  C   UNL d   1       5.871   4.077   0.275  0.00  0.00     0.002 A 
ATOM      6  C   UNL d   1       6.194   3.468  -0.928  0.00  0.00     0.002 A 
ENDROOT
BRANCH   1   7
ATOM      7  N   UNL d   1       3.449   1.758   1.823  0.00  0.00    -0.322 N 
ATOM      8  C   UNL d   1       3.209   0.425   2.085  0.00  0.00     0.256 C 
ATOM      9  O   UNL d   1       3.639  -0.538   1.458  0.00  0.00    -0.267 OA
ATOM     10  H   UNL d   1       3.207   2.411   2.558  0.00  0.00     0.169 HD
BRANCH   8  11
ATOM     11  C   UNL d   1       2.476   0.077   3.330  0.00  0.00     0.032 A 
ATOM     12  C   UNL d   1       1.635  -1.048   3.277  0.00  0.00     0.019 A 
ATOM     13  C   UNL d   1       1.190  -1.661   4.449  0.00  0.00     0.037 A 
ATOM     14  C   UNL d   1       1.592  -1.143   5.684  0.00  0.00     0.102 A 
ATOM     15  C   UNL d   1       2.357   0.034   5.750  0.00  0.00     0.037 A 
ATOM     16  C   UNL d   1       2.801   0.646   4.568  0.00  0.00     0.019 A 
BRANCH  14  17
ATOM     17  N   UNL d   1       1.294  -1.893   6.913  0.00  0.00    -0.116 N 
ATOM     18  O   UNL d   1       0.711  -2.982   6.797  0.00  0.00    -0.532 OA
ATOM     19  O   UNL d   1       1.670  -1.408   7.989  0.00  0.00    -0.532 OA
ENDBRANCH  14  17
ENDBRANCH   8  11
ENDBRANCH   1   7
BRANCH   2  20
ATOM     20  S   UNL d   1       3.558   0.440  -1.283  0.00  0.00    -0.086 SA
BRANCH  20  21
ATOM     21  C   UNL d   1       4.702  -0.905  -1.617  0.00  0.00     0.038 A 
ATOM     22  C   UNL d   1       4.587  -1.748  -2.735  0.00  0.00     0.121 A 
ATOM     23  C   UNL d   1       5.390  -2.891  -2.911  0.00  0.00     0.061 A 
ATOM     24  C   UNL d   1       6.342  -3.195  -1.948  0.00  0.00     0.036 A 
ATOM     25  C   UNL d   1       6.505  -2.370  -0.840  0.00  0.00     0.025 A 
ATOM     26 CL   UNL d   1       7.317  -4.601  -2.120  0.00  0.00    -0.084 Cl
ATOM     27  C   UNL d   1       5.691  -1.241  -0.678  0.00  0.00     0.023 A 
BRANCH  22  28
ATOM     28  N   UNL d   1       3.640  -1.462  -3.793  0.00  0.00    -0.114 N 
ATOM     29  O   UNL d   1       3.826  -0.432  -4.453  0.00  0.00    -0.532 OA
ATOM     30  O   UNL d   1       2.769  -2.315  -4.014  0.00  0.00    -0.532 OA
ENDBRANCH  22  28
ENDBRANCH  20  21
ENDBRANCH   2  20
TORSDOF 6
