REMARK  3 active torsions:
REMARK  status: ('A' for Active; 'I' for Inactive)
REMARK    1  A    between atoms: C_7  and  N_1 
REMARK    2  A    between atoms: C_5  and  O_10 
REMARK    3  A    between atoms: O_10  and  C_16 
ROOT
ATOM      1  N   UNL d   1       1.714  -0.698   0.079  0.00  0.00    -0.252 N 
ATOM      2  C   UNL d   1       1.766   0.677   0.158  0.00  0.00     0.232 C 
ATOM      3  C   UNL d   1       0.417  -1.142  -0.093  0.00  0.00     0.240 C 
ATOM      4  C   UNL d   1      -0.521   0.041  -0.056  0.00  0.00     0.050 C 
ATOM      5  C   UNL d   1       0.398   1.249  -0.078  0.00  0.00     0.123 C 
ATOM      6  O   UNL d   1       2.734   1.411   0.325  0.00  0.00    -0.273 OA
ATOM      7  O   UNL d   1       0.003  -2.292  -0.190  0.00  0.00    -0.272 OA
ATOM      8  C   UNL d   1      -1.529   0.009  -1.204  0.00  0.00     0.020 C 
ATOM      9  C   UNL d   1      -1.422  -0.001   1.183  0.00  0.00     0.020 C 
ATOM     10  C   UNL d   1      -2.643   0.832   0.806  0.00  0.00     0.001 C 
ATOM     11  C   UNL d   1      -2.704   0.849  -0.720  0.00  0.00     0.001 C 
ENDROOT
BRANCH   1  12
ATOM     12  C   UNL d   1       2.857  -1.562   0.145  0.00  0.00     0.045 A 
ATOM     13  C   UNL d   1       4.100  -1.114   0.619  0.00  0.00     0.033 A 
ATOM     14  C   UNL d   1       5.223  -1.958   0.679  0.00  0.00     0.039 A 
ATOM     15  C   UNL d   1       5.121  -3.288   0.293  0.00  0.00     0.078 A 
ATOM     16  C   UNL d   1       3.907  -3.743  -0.213  0.00  0.00     0.039 A 
ATOM     17  C   UNL d   1       2.793  -2.897  -0.279  0.00  0.00     0.033 A 
BRANCH  15  18
ATOM     18  O   UNL d   1       6.112  -4.218   0.308  0.00  0.00    -0.255 OA
BRANCH  18  19
ATOM     19  C   UNL d   1       7.151  -4.120   1.271  0.00  0.00     0.530 C 
ATOM     20  F   UNL d   1       6.904  -3.243   2.265  0.00  0.00    -0.144 F 
ATOM     21  F   UNL d   1       7.324  -5.339   1.832  0.00  0.00    -0.144 F 
ATOM     22  F   UNL d   1       8.302  -3.774   0.655  0.00  0.00    -0.144 F 
ENDBRANCH  18  19
ENDBRANCH  15  18
ENDBRANCH   1  12
TORSDOF 3
