REMARK  6 active torsions:
REMARK  status: ('A' for Active; 'I' for Inactive)
REMARK    1  A    between atoms: C_4  and  S_1 
REMARK    2  A    between atoms: N_6  and  S_1 
REMARK    3  A    between atoms: S_2  and  C_3 
REMARK    4  A    between atoms: C_16  and  S_2 
REMARK    5  A    between atoms: C_7  and  N_6 
REMARK    6  A    between atoms: N_10  and  C_11 
ROOT
ATOM      1  S   UNL d   1       0.209   0.033   0.189  0.00  0.00     0.269 S 
ATOM      2  O   UNL d   1       0.157  -1.273  -0.434  0.00  0.00    -0.200 OA
ATOM      3  O   UNL d   1       1.249   0.383   1.128  0.00  0.00    -0.200 OA
ENDROOT
BRANCH   1   4
ATOM      4  C   UNL d   1      -1.307   0.149   1.151  0.00  0.00     0.121 A 
ATOM      5  S   UNL d   1      -2.668  -0.696   0.542  0.00  0.00    -0.065 SA
ATOM      6  C   UNL d   1      -3.634  -0.289   1.896  0.00  0.00     0.106 A 
ATOM      7  C   UNL d   1      -2.936   0.507   2.786  0.00  0.00     0.033 A 
ATOM      8  C   UNL d   1      -1.610   0.787   2.342  0.00  0.00     0.035 A 
BRANCH   6   9
ATOM      9  S   UNL d   1      -5.278  -0.977   1.947  0.00  0.00     0.213 S 
ATOM     10  O   UNL d   1      -6.061   0.027   2.664  0.00  0.00    -0.217 OA
ATOM     11  O   UNL d   1      -5.633  -1.388   0.606  0.00  0.00    -0.217 OA
BRANCH   9  12
ATOM     12  C   UNL d   1      -5.135  -2.404   2.977  0.00  0.00     0.064 A 
ATOM     13  C   UNL d   1      -5.352  -2.291   4.354  0.00  0.00     0.024 A 
ATOM     14  C   UNL d   1      -5.206  -3.415   5.165  0.00  0.00     0.002 A 
ATOM     15  C   UNL d   1      -4.866  -4.645   4.599  0.00  0.00     0.000 A 
ATOM     16  C   UNL d   1      -4.673  -4.758   3.221  0.00  0.00     0.002 A 
ATOM     17  C   UNL d   1      -4.808  -3.636   2.402  0.00  0.00     0.024 A 
ENDBRANCH   9  12
ENDBRANCH   6   9
ENDBRANCH   1   4
BRANCH   1  18
ATOM     18  N   UNL d   1       0.086   1.144  -1.059  0.00  0.00    -0.278 N 
ATOM     19  H   UNL d   1       0.089   0.697  -1.972  0.00  0.00     0.179 HD
BRANCH  18  20
ATOM     20  C   UNL d   1       0.712   2.425  -0.972  0.00  0.00     0.069 A 
ATOM     21  C   UNL d   1       2.090   2.664  -1.250  0.00  0.00     0.058 A 
ATOM     22  C   UNL d   1       2.525   4.003  -1.166  0.00  0.00     0.031 A 
ATOM     23  C   UNL d   1       1.649   5.049  -0.844  0.00  0.00     0.002 A 
ATOM     24  C   UNL d   1       0.312   4.779  -0.581  0.00  0.00     0.002 A 
ATOM     25  C   UNL d   1      -0.148   3.471  -0.642  0.00  0.00     0.032 A 
BRANCH  21  26
ATOM     26  N   UNL d   1       2.981   1.639  -1.552  0.00  0.00    -0.375 N 
ATOM     27  C   UNL d   1       4.421   1.768  -1.238  0.00  0.00     0.149 C 
ATOM     28  C   UNL d   1       4.972   0.353  -1.008  0.00  0.00     0.187 C 
ATOM     29  O   UNL d   1       4.797  -0.470  -2.177  0.00  0.00    -0.388 OA
ATOM     30  C   UNL d   1       3.417  -0.539  -2.584  0.00  0.00     0.187 C 
ATOM     31  C   UNL d   1       2.787   0.853  -2.781  0.00  0.00     0.149 C 
ENDBRANCH  21  26
ENDBRANCH  18  20
ENDBRANCH   1  18
TORSDOF 6
