REMARK  4 active torsions:
REMARK  status: ('A' for Active; 'I' for Inactive)
REMARK    1  A    between atoms: C_5  and  S_1 
REMARK    2  A    between atoms: N_6  and  S_1 
REMARK    3  A    between atoms: N_3  and  C_2 
REMARK    4  A    between atoms: N_8  and  C_7 
ROOT
ATOM      1  C   UNL d   1       0.562   2.139   3.306  0.00  0.00     0.130 A 
ATOM      2  C   UNL d   1       1.049   1.660   2.075  0.00  0.00     0.063 A 
ATOM      3  C   UNL d   1       0.718   0.371   1.677  0.00  0.00     0.077 A 
ATOM      4  C   UNL d   1      -0.260   1.375   4.168  0.00  0.00     0.063 A 
ATOM      5  C   UNL d   1      -0.503   0.051   3.735  0.00  0.00     0.033 A 
ATOM      6  C   UNL d   1      -0.031  -0.450   2.513  0.00  0.00     0.027 A 
ENDROOT
BRANCH   3   7
ATOM      7  S   UNL d   1       1.159  -0.176   0.046  0.00  0.00     0.243 S 
ATOM      8  O   UNL d   1       0.412  -1.382  -0.238  0.00  0.00    -0.206 OA
ATOM      9  O   UNL d   1       2.601  -0.143  -0.032  0.00  0.00    -0.206 OA
BRANCH   7  10
ATOM     10  N   UNL d   1       0.536   1.062  -0.941  0.00  0.00    -0.202 NA
ATOM     11  C   UNL d   1      -0.939   1.319  -0.887  0.00  0.00     0.134 C 
ATOM     12  C   UNL d   1      -1.723   0.382  -1.809  0.00  0.00     0.183 C 
ATOM     13  O   UNL d   1      -1.248   0.472  -3.158  0.00  0.00    -0.389 OA
ATOM     14  C   UNL d   1       0.137   0.102  -3.226  0.00  0.00     0.183 C 
ATOM     15  C   UNL d   1       1.003   1.030  -2.365  0.00  0.00     0.134 C 
ENDBRANCH   7  10
ENDBRANCH   3   7
BRANCH   1  16
ATOM     16  N   UNL d   1       0.986   3.484   3.652  0.00  0.00    -0.113 N 
ATOM     17  O   UNL d   1       0.638   4.392   2.881  0.00  0.00    -0.532 OA
ATOM     18  O   UNL d   1       1.684   3.629   4.663  0.00  0.00    -0.532 OA
ENDBRANCH   1  16
BRANCH   4  19
ATOM     19  N   UNL d   1      -0.896   1.820   5.312  0.00  0.00    -0.375 N 
ATOM     20  C   UNL d   1      -1.036   0.984   6.523  0.00  0.00     0.149 C 
ATOM     21  C   UNL d   1      -2.484   1.059   7.040  0.00  0.00     0.187 C 
ATOM     22  O   UNL d   1      -2.888   2.416   7.282  0.00  0.00    -0.388 OA
ATOM     23  C   UNL d   1      -2.795   3.188   6.075  0.00  0.00     0.187 C 
ATOM     24  C   UNL d   1      -1.362   3.205   5.515  0.00  0.00     0.149 C 
ENDBRANCH   4  19
TORSDOF 4
