REMARK  3 active torsions:
REMARK  status: ('A' for Active; 'I' for Inactive)
REMARK    1  A    between atoms: C_3  and  C_16 
REMARK    2  A    between atoms: O_18  and  C_6 
REMARK    3  A    between atoms: N_12  and  N_9 
ROOT
ATOM      1  N   UNL d   1       0.217  -3.252  -0.049  0.00  0.00    -0.311 N 
ATOM      2  HN  UNL d   1       1.031  -2.638   0.002  1.00  0.00     0.186 HD
ATOM      3  C   UNL d   1       0.267  -4.548  -0.088  0.00  0.00     0.121 C 
ENDROOT
BRANCH   1   4
ATOM      4  N   UNL d   1      -1.099  -2.821  -0.087  0.00  0.00    -0.304 N 
ATOM      5  C   UNL d   1      -1.219  -1.534  -0.061  0.00  0.00     0.037 A 
ATOM      6  C   UNL d   1      -2.512  -0.875  -0.054  0.00  0.00    -0.005 A 
ATOM      7  C   UNL d   1      -0.122  -0.497  -0.023  0.00  0.00     0.068 A 
ATOM      8  C   UNL d   1      -2.312   0.500  -0.040  0.00  0.00    -0.042 A 
ATOM      9  C   UNL d   1      -3.766  -1.461  -0.043  0.00  0.00     0.014 A 
ATOM     10  C   UNL d   1      -3.413   1.344  -0.018  0.00  0.00     0.008 A 
ATOM     11  C   UNL d   1      -0.854   0.867  -0.024  0.00  0.00     0.021 A 
ATOM     12  C   UNL d   1      -4.695   0.780  -0.010  0.00  0.00     0.001 A 
ATOM     13  C   UNL d   1      -4.872  -0.614  -0.021  0.00  0.00     0.001 A 
ATOM     14  C   UNL d   1      -0.451   1.733  -1.213  0.00  0.00     0.015 C 
ATOM     15  HN  UNL d   1      -1.895  -3.457  -0.131  1.00  0.00     0.186 HD
ENDBRANCH   1   4
BRANCH   3  16
ATOM     16  C   UNL d   1       1.547  -5.274  -0.009  0.00  0.00     0.017 A 
ATOM     17  C   UNL d   1       1.573  -6.670  -0.040  0.00  0.00     0.099 A 
ATOM     18  C   UNL d   1       2.796  -7.340   0.078  0.00  0.00     0.069 A 
ATOM     19 CL   UNL d   1       2.850  -9.065   0.056  0.00  0.00    -0.081 Cl
ATOM     20  C   UNL d   1       3.986  -6.628   0.222  0.00  0.00     0.050 A 
ATOM     21  C   UNL d   1       3.949  -5.235   0.242  0.00  0.00     0.036 A 
ATOM     22  C   UNL d   1       2.740  -4.553   0.127  0.00  0.00     0.039 A 
ATOM     23 CL   UNL d   1       5.412  -4.347   0.418  0.00  0.00    -0.084 Cl
BRANCH  17  24
ATOM     24  O   UNL d   1       0.405  -7.373  -0.183  0.00  0.00    -0.358 OA
ATOM     25  H   UNL d   1       0.625  -8.324  -0.193  0.00  0.00     0.217 HD
ENDBRANCH  17  24
ENDBRANCH   3  16
TORSDOF 3
