REMARK  5 active torsions:
REMARK  status: ('A' for Active; 'I' for Inactive)
REMARK    1  A    between atoms: C_8  and  C_3 
REMARK       I    between atoms: C_7  and  N_9 
REMARK    2  A    between atoms: C_11  and  C_7 
REMARK    3  A    between atoms: N_9  and  C_15 
REMARK    4  A    between atoms: C_12  and  C_11 
REMARK    5  A    between atoms: O_20  and  C_19 
ROOT
ATOM      1  C   UNL d   1       2.095  -2.332  -0.051  0.00  0.00    -0.009 A 
ATOM      2  C   UNL d   1       2.508  -2.777  -1.315  0.00  0.00     0.016 A 
ATOM      3  C   UNL d   1       2.538  -3.030   1.081  0.00  0.00     0.016 A 
ATOM      4  C   UNL d   1       3.777  -4.580  -0.311  0.00  0.00     0.034 A 
ATOM      5  C   UNL d   1       3.335  -3.900  -1.446  0.00  0.00     0.030 A 
ATOM      6  C   UNL d   1       3.400  -4.125   0.954  0.00  0.00     0.030 A 
ENDROOT
BRANCH   4   7
ATOM      7  N   UNL d   1       4.608  -5.716  -0.388  0.00  0.00    -0.327 N 
ATOM      8  C   UNL d   1       4.400  -6.745  -1.299  0.00  0.00     0.226 C 
ATOM      9  O   UNL d   1       3.478  -6.800  -2.102  0.00  0.00    -0.273 OA
ATOM     10  H   UNL d   1       5.114  -5.971   0.450  0.00  0.00     0.169 HD
BRANCH   8  11
ATOM     11  C   UNL d   1       5.442  -7.843  -1.217  0.00  0.00     0.141 C 
BRANCH  11  12
ATOM     12  C   UNL d   1       5.193  -8.875  -0.135  0.00  0.00    -0.047 A 
ATOM     13  C   UNL d   1       4.000  -9.614  -0.104  0.00  0.00     0.044 A 
ATOM     14  C   UNL d   1       3.818 -10.634   0.842  0.00  0.00     0.068 A 
ATOM     15  C   UNL d   1       4.835 -10.907   1.760  0.00  0.00     0.037 A 
ATOM     16  C   UNL d   1       6.021 -10.176   1.741  0.00  0.00     0.003 A 
ATOM     17  C   UNL d   1       6.200  -9.162   0.798  0.00  0.00     0.007 A 
BRANCH  14  18
ATOM     18  O   UNL d   1       2.717 -11.436   0.969  0.00  0.00    -0.356 OA
ATOM     19  C   UNL d   1       1.641 -11.198   0.071  0.00  0.00     0.210 C 
ENDBRANCH  14  18
ENDBRANCH  11  12
ENDBRANCH   8  11
ENDBRANCH   4   7
BRANCH   1  20
ATOM     20  C   UNL d   1       1.228  -1.162   0.050  0.00  0.00     0.049 A 
ATOM     21  N   UNL d   1       0.378  -0.805  -0.988  0.00  0.00    -0.353 N 
ATOM     22  C   UNL d   1      -0.271   0.299  -0.685  0.00  0.00     0.047 A 
ATOM     23  HN  UNL d   1       0.271  -1.323  -1.860  1.00  0.00     0.166 HD
ATOM     24  S   UNL d   1       0.102   0.978   0.848  0.00  0.00    -0.087 SA
ATOM     25  C   UNL d   1      -1.255   0.970  -1.577  0.00  0.00     0.076 C 
ATOM     26  C   UNL d   1       1.210  -0.299   1.129  0.00  0.00     0.081 A 
ENDBRANCH   1  20
TORSDOF 5
