REMARK  3 active torsions:
REMARK  status: ('A' for Active; 'I' for Inactive)
REMARK    1  A    between atoms: N_2  and  S_1 
REMARK    2  A    between atoms: C_5  and  S_1 
REMARK    3  A    between atoms: C_3  and  N_4 
ROOT
ATOM      1  C   UNL d   1      -0.073  -1.234   0.648  0.00  0.00     0.079 A 
ATOM      2  N   UNL d   1      -2.866  -5.375   2.732  0.00  0.00    -0.191 NA
ATOM      3  C   UNL d   1      -2.270  -4.490   2.279  0.00  0.00     0.099 C 
ATOM      4  C   UNL d   1      -1.124  -1.803  -0.081  0.00  0.00     0.027 A 
ATOM      5  C   UNL d   1       0.272  -1.756   1.900  0.00  0.00     0.027 A 
ATOM      6  C   UNL d   1      -1.528  -3.385   1.727  0.00  0.00     0.044 A 
ATOM      7  C   UNL d   1      -1.854  -2.871   0.464  0.00  0.00     0.024 A 
ATOM      8  C   UNL d   1      -0.459  -2.826   2.440  0.00  0.00     0.024 A 
ENDROOT
BRANCH   1   9
ATOM      9  S   UNL d   1       0.972   0.031  -0.091  0.00  0.00     0.260 S 
ATOM     10  O   UNL d   1       2.252  -0.046   0.581  0.00  0.00    -0.200 OA
ATOM     11  O   UNL d   1       0.868  -0.131  -1.524  0.00  0.00    -0.200 OA
BRANCH   9  12
ATOM     12  N   UNL d   1       0.207   1.478   0.360  0.00  0.00    -0.304 N 
ATOM     13  C   UNL d   1      -0.868   1.965  -0.563  0.00  0.00     0.155 C 
ATOM     14  C   UNL d   1      -0.264   2.739  -1.752  0.00  0.00     0.161 C 
ATOM     15  N   UNL d   1       0.461   3.885  -1.213  0.00  0.00    -0.214 N 
ATOM     16  C   UNL d   1       1.563   3.562  -0.306  0.00  0.00     0.161 C 
ATOM     17  C   UNL d   1       1.073   2.624   0.829  0.00  0.00     0.155 C 
BRANCH  15  18
ATOM     18  C   UNL d   1       0.394   5.083  -1.880  0.00  0.00     0.679 A 
ATOM     19  N   UNL d   1      -0.296   5.130  -3.036  0.00  0.00    -0.202 N 
ATOM     20  C   UNL d   1      -0.499   6.326  -3.615  0.00  0.00     0.107 A 
ATOM     21  HN  UNL d   1      -0.656   4.277  -3.462  1.00  0.00     0.183 HD
ATOM     22  C   UNL d   1      -0.058   7.503  -3.075  0.00  0.00     0.035 A 
ATOM     23  C   UNL d   1       0.650   7.370  -1.906  0.00  0.00     0.107 A 
ATOM     24  N   UNL d   1       0.901   6.186  -1.306  0.00  0.00    -0.202 N 
ATOM     25  HN  UNL d   1       1.454   6.132  -0.451  1.00  0.00     0.183 HD
ENDBRANCH  15  18
ENDBRANCH   9  12
ENDBRANCH   1   9
TORSDOF 3
