REMARK  4 active torsions:
REMARK  status: ('A' for Active; 'I' for Inactive)
REMARK    1  A    between atoms: N_7  and  C_2 
REMARK    2  A    between atoms: S_8  and  C_2 
REMARK    3  A    between atoms: C_11  and  N_7 
REMARK    4  A    between atoms: C_9  and  C_11 
ROOT
ATOM      1  C   UNL d   1       0.071  -0.477  -0.075  0.00  0.00     0.152 C 
ATOM      2  C   UNL d   1      -0.054  -1.831   0.006  0.00  0.00     0.077 C 
ATOM      3  C   UNL d   1      -1.084   0.358  -0.100  0.00  0.00     0.113 C 
ATOM      4  C   UNL d   1       1.329   0.199  -0.106  0.00  0.00     0.113 C 
ATOM      5  N   UNL d   1       2.337   0.773  -0.134  0.00  0.00    -0.191 NA
ATOM      6  N   UNL d   1      -2.008   1.063  -0.123  0.00  0.00    -0.191 NA
ENDROOT
BRANCH   2   7
ATOM      7  N   UNL d   1      -1.319  -2.432   0.064  0.00  0.00    -0.282 NA
ATOM      8  H   UNL d   1      -1.322  -3.173   0.764  0.00  0.00     0.128 HD
BRANCH   7   9
ATOM      9  C   UNL d   1      -1.981  -2.924  -1.144  0.00  0.00     0.119 C 
BRANCH   9  10
ATOM     10  C   UNL d   1      -3.385  -2.418  -1.126  0.00  0.00    -0.022 C 
ATOM     11  C   UNL d   1      -4.483  -3.189  -1.110  0.00  0.00     0.008 C 
ENDBRANCH   9  10
ENDBRANCH   7   9
ENDBRANCH   2   7
BRANCH   2  12
ATOM     12  S   UNL d   1       1.429  -2.795   0.136  0.00  0.00    -0.120 SA
ATOM     13  C   UNL d   1       0.877  -4.505   0.033  0.00  0.00     0.097 C 
ENDBRANCH   2  12
TORSDOF 4
