REMARK  4 active torsions:
REMARK  status: ('A' for Active; 'I' for Inactive)
REMARK    1  A    between atoms: N_2  and  S_1 
REMARK    2  A    between atoms: C_9  and  S_1 
REMARK    3  A    between atoms: C_10  and  C_4 
REMARK    4  A    between atoms: O_13  and  C_10 
ROOT
ATOM      1  N   UNL d   1       0.427  -0.808  -1.424  0.00  0.00    -0.245 N 
ATOM      2  C   UNL d   1       0.690  -2.096  -1.811  0.00  0.00     0.120 A 
ATOM      3  C   UNL d   1      -0.022  -2.354  -2.967  0.00  0.00    -0.006 A 
ATOM      4  C   UNL d   1      -0.488  -0.213  -2.268  0.00  0.00     0.060 A 
ATOM      5  C   UNL d   1      -0.771  -1.165  -3.260  0.00  0.00     0.002 A 
ATOM      6  C   UNL d   1      -1.092   1.058  -2.276  0.00  0.00     0.031 A 
ATOM      7  C   UNL d   1      -1.680  -0.826  -4.286  0.00  0.00     0.014 A 
ATOM      8  C   UNL d   1      -1.990   1.363  -3.304  0.00  0.00     0.002 A 
ATOM      9  C   UNL d   1      -2.281   0.436  -4.297  0.00  0.00     0.001 A 
ENDROOT
BRANCH   1  10
ATOM     10  S   UNL d   1       1.028  -0.137   0.025  0.00  0.00     0.269 S 
ATOM     11  O   UNL d   1       1.242   1.272  -0.251  0.00  0.00    -0.200 OA
ATOM     12  O   UNL d   1       2.108  -1.003   0.454  0.00  0.00    -0.200 OA
BRANCH  10  13
ATOM     13  C   UNL d   1      -0.295  -0.305   1.192  0.00  0.00     0.080 A 
ATOM     14  C   UNL d   1      -0.822  -1.571   1.469  0.00  0.00     0.025 A 
ATOM     15  C   UNL d   1      -1.842  -1.698   2.413  0.00  0.00     0.002 A 
ATOM     16  C   UNL d   1      -2.323  -0.570   3.081  0.00  0.00     0.000 A 
ATOM     17  C   UNL d   1      -1.782   0.689   2.812  0.00  0.00     0.002 A 
ATOM     18  C   UNL d   1      -0.763   0.825   1.869  0.00  0.00     0.025 A 
ENDBRANCH  10  13
ENDBRANCH   1  10
BRANCH   3  19
ATOM     19  C   UNL d   1      -0.039  -3.631  -3.740  0.00  0.00     0.205 C 
BRANCH  19  20
ATOM     20  O   UNL d   1       1.182  -4.351  -3.616  0.00  0.00    -0.396 OA
ATOM     21  H   UNL d   1       1.884  -3.754  -3.928  0.00  0.00     0.209 HD
ENDBRANCH  19  20
ENDBRANCH   3  19
TORSDOF 4
