REMARK  8 active torsions:
REMARK  status: ('A' for Active; 'I' for Inactive)
REMARK    1  A    between atoms: O_21  and  C_1 
REMARK    2  A    between atoms: C_3  and  C_2 
REMARK       I    between atoms: N_9  and  C_3 
REMARK    3  A    between atoms: O_23  and  C_4 
REMARK    4  A    between atoms: O_22  and  C_5 
REMARK       I    between atoms: C_6  and  N_11 
REMARK    5  A    between atoms: C_17  and  C_6 
REMARK    6  A    between atoms: N_11  and  N_9 
REMARK    7  A    between atoms: C_13  and  O_14 
REMARK    8  A    between atoms: O_14  and  C_17 
ROOT
ATOM      1  C   UNL d   1      -2.760   0.772   0.317  0.00  0.00     0.270 C 
ATOM      2  N   UNL d   1      -3.141   1.911  -0.383  0.00  0.00    -0.263 N 
ATOM      3  O   UNL d   1      -3.507   0.125   1.040  0.00  0.00    -0.266 OA
ATOM      4  H   UNL d   1      -2.596   2.218  -1.181  0.00  0.00     0.190 HD
ENDROOT
BRANCH   2   5
ATOM      5  N   UNL d   1      -4.508   2.242  -0.428  0.00  0.00    -0.265 N 
ATOM      6  C   UNL d   1      -5.367   1.450  -1.172  0.00  0.00     0.260 C 
ATOM      7  O   UNL d   1      -4.985   0.566  -1.940  0.00  0.00    -0.269 OA
ATOM      8  H   UNL d   1      -4.839   2.941   0.228  0.00  0.00     0.190 HD
BRANCH   6   9
ATOM      9  C   UNL d   1      -6.843   1.789  -0.992  0.00  0.00     0.280 C 
BRANCH   9  10
ATOM     10  O   UNL d   1      -7.218   2.649  -2.061  0.00  0.00    -0.340 OA
BRANCH  10  11
ATOM     11  C   UNL d   1      -8.541   2.979  -2.191  0.00  0.00     0.091 A 
ATOM     12  C   UNL d   1      -8.837   4.126  -2.949  0.00  0.00     0.069 A 
ATOM     13  C   UNL d   1     -10.158   4.528  -3.162  0.00  0.00     0.050 A 
ATOM     14 CL   UNL d   1      -7.577   5.097  -3.632  0.00  0.00    -0.081 Cl
ATOM     15  C   UNL d   1     -11.195   3.775  -2.625  0.00  0.00     0.035 A 
ATOM     16  C   UNL d   1     -10.923   2.629  -1.881  0.00  0.00     0.026 A 
ATOM     17 CL   UNL d   1     -12.826   4.257  -2.884  0.00  0.00    -0.084 Cl
ATOM     18  C   UNL d   1      -9.599   2.230  -1.665  0.00  0.00     0.040 A 
ENDBRANCH  10  11
ENDBRANCH   9  10
ENDBRANCH   6   9
ENDBRANCH   2   5
BRANCH   1  19
ATOM     19  C   UNL d   1      -1.333   0.353   0.149  0.00  0.00     0.039 A 
ATOM     20  C   UNL d   1      -0.334   1.272  -0.180  0.00  0.00     0.057 A 
ATOM     21  C   UNL d   1       1.006   0.876  -0.295  0.00  0.00     0.105 A 
ATOM     22  C   UNL d   1       1.353  -0.469  -0.071  0.00  0.00     0.135 A 
ATOM     23  C   UNL d   1       0.354  -1.392   0.322  0.00  0.00     0.105 A 
ATOM     24  C   UNL d   1      -0.983  -0.978   0.398  0.00  0.00     0.057 A 
BRANCH  21  25
ATOM     25  O   UNL d   1       1.812   1.934  -0.625  0.00  0.00    -0.353 OA
ATOM     26  C   UNL d   1       3.207   1.721  -0.790  0.00  0.00     0.210 C 
ENDBRANCH  21  25
BRANCH  22  27
ATOM     27  O   UNL d   1       2.677  -0.823  -0.119  0.00  0.00    -0.351 OA
ATOM     28  C   UNL d   1       2.969  -1.950  -0.945  0.00  0.00     0.210 C 
ENDBRANCH  22  27
BRANCH  23  29
ATOM     29  O   UNL d   1       0.771  -2.667   0.616  0.00  0.00    -0.353 OA
ATOM     30  C   UNL d   1      -0.128  -3.493   1.349  0.00  0.00     0.210 C 
ENDBRANCH  23  29
ENDBRANCH   1  19
TORSDOF 8
