REMARK  4 active torsions:
REMARK  status: ('A' for Active; 'I' for Inactive)
REMARK    1  A    between atoms: C_9  and  N_1 
REMARK    2  A    between atoms: C_12  and  N_2 
REMARK    3  A    between atoms: C_18  and  C_12 
REMARK    4  A    between atoms: S_17  and  C_16 
ROOT
ATOM      1  N   UNL d   1       0.901  -1.417   0.129  0.00  0.00    -0.247 N 
ATOM      2  N   UNL d   1       2.103   0.668   0.030  0.00  0.00    -0.260 N 
ATOM      3  C   UNL d   1       2.132  -0.739   0.179  0.00  0.00     0.338 A 
ATOM      4  C   UNL d   1      -0.271  -0.691   0.045  0.00  0.00     0.150 A 
ATOM      5  C   UNL d   1      -0.240   0.668  -0.054  0.00  0.00     0.147 A 
ATOM      6  C   UNL d   1       0.949   1.442  -0.083  0.00  0.00     0.282 A 
ATOM      7  N   UNL d   1      -1.561  -1.149  -0.001  0.00  0.00    -0.336 N 
ATOM      8  HN  UNL d   1      -1.877  -2.118   0.036  1.00  0.00     0.168 HD
ATOM      9  N   UNL d   1      -1.543   1.069  -0.133  0.00  0.00    -0.345 N 
ATOM     10  C   UNL d   1      -2.306  -0.067  -0.105  0.00  0.00     0.182 A 
ATOM     11  O   UNL d   1       3.200  -1.321   0.400  0.00  0.00    -0.246 OA
ATOM     12  O   UNL d   1       0.928   2.664  -0.182  0.00  0.00    -0.265 OA
ATOM     13  H   UNL d   1      -1.872   2.023  -0.210  0.00  0.00     0.167 HD
ENDROOT
BRANCH   1  14
ATOM     14  C   UNL d   1       0.832  -2.840   0.181  0.00  0.00     0.047 A 
ATOM     15  C   UNL d   1      -0.085  -3.501   1.017  0.00  0.00     0.048 A 
ATOM     16  C   UNL d   1      -0.085  -4.897   1.131  0.00  0.00     0.002 A 
ATOM     17  C   UNL d   1       0.829  -5.639   0.374  0.00  0.00     0.018 A 
ATOM     18  C   UNL d   1       1.724  -5.003  -0.484  0.00  0.00     0.004 A 
ATOM     19  C   UNL d   1       1.733  -3.612  -0.568  0.00  0.00     0.030 A 
BRANCH  16  20
ATOM     20  S   UNL d   1      -1.119  -5.799   2.280  0.00  0.00    -0.134 SA
ATOM     21  C   UNL d   1      -2.605  -4.767   2.355  0.00  0.00     0.095 C 
ENDBRANCH  16  20
ENDBRANCH   1  14
BRANCH   2  22
ATOM     22  C   UNL d   1       3.382   1.366   0.050  0.00  0.00     0.175 C 
BRANCH  22  23
ATOM     23  C   UNL d   1       4.058   1.359  -1.304  0.00  0.00    -0.040 A 
ATOM     24  C   UNL d   1       3.808   2.376  -2.236  0.00  0.00     0.009 A 
ATOM     25  C   UNL d   1       4.405   2.340  -3.498  0.00  0.00     0.001 A 
ATOM     26  C   UNL d   1       5.251   1.287  -3.844  0.00  0.00     0.000 A 
ATOM     27  C   UNL d   1       5.511   0.275  -2.925  0.00  0.00     0.001 A 
ATOM     28  C   UNL d   1       4.922   0.312  -1.662  0.00  0.00     0.009 A 
ENDBRANCH  22  23
ENDBRANCH   2  22
TORSDOF 4
