REMARK  2 active torsions:
REMARK  status: ('A' for Active; 'I' for Inactive)
REMARK    1  A    between atoms: C_11  and  C_3 
REMARK    2  A    between atoms: N_16  and  C_4 
ROOT
ATOM      1  C   UNL d   1      -3.722  -3.810  -1.048  0.00  0.00    -0.042 A 
ATOM      2  C   UNL d   1      -3.638  -4.743   0.007  0.00  0.00    -0.019 A 
ATOM      3  C   UNL d   1      -4.616  -5.788  -0.223  0.00  0.00    -0.019 A 
ATOM      4  C   UNL d   1      -5.306  -5.508  -1.423  0.00  0.00    -0.043 A 
ATOM      5  C   UNL d   1      -1.992  -2.478  -0.051  0.00  0.00    -0.008 A 
ATOM      6  C   UNL d   1      -4.782  -4.231  -2.044  0.00  0.00     0.078 A 
ATOM      7  C   UNL d   1      -2.912  -2.685  -1.091  0.00  0.00     0.022 A 
ATOM      8  C   UNL d   1      -2.724  -4.560   1.029  0.00  0.00     0.014 A 
ATOM      9  C   UNL d   1      -1.899  -3.427   0.992  0.00  0.00     0.014 A 
ATOM     10  C   UNL d   1      -4.931  -6.914   0.518  0.00  0.00     0.013 A 
ATOM     11  C   UNL d   1      -6.310  -6.336  -1.895  0.00  0.00     0.008 A 
ATOM     12  C   UNL d   1      -5.946  -7.757   0.049  0.00  0.00     0.001 A 
ATOM     13  C   UNL d   1      -6.629  -7.471  -1.145  0.00  0.00     0.001 A 
ENDROOT
BRANCH   5  14
ATOM     14  C   UNL d   1      -1.137  -1.293  -0.027  0.00  0.00     0.051 A 
ATOM     15  N   UNL d   1       0.118  -1.313   0.565  0.00  0.00    -0.336 N 
ATOM     16  C   UNL d   1       0.676  -0.131   0.484  0.00  0.00     0.142 A 
ATOM     17  HN  UNL d   1       0.545  -2.131   1.001  1.00  0.00     0.168 HD
ATOM     18  S   UNL d   1      -0.251   1.070  -0.320  0.00  0.00    -0.064 SA
ATOM     19  C   UNL d   1      -1.510  -0.069  -0.545  0.00  0.00     0.083 A 
BRANCH  16  20
ATOM     20  N   UNL d   1       1.887   0.152   0.986  0.00  0.00    -0.380 N 
ATOM     21  H   UNL d   1       2.479  -0.635   1.223  0.00  0.00     0.158 HD
ATOM     22  H   UNL d   1       2.371   0.981   0.665  0.00  0.00     0.158 HD
ENDBRANCH  16  20
ENDBRANCH   5  14
TORSDOF 2
