REMARK  5 active torsions:
REMARK  status: ('A' for Active; 'I' for Inactive)
REMARK    1  A    between atoms: C_6  and  N_1 
REMARK    2  A    between atoms: S_2  and  C_9 
REMARK    3  A    between atoms: N_5  and  S_2 
REMARK    4  A    between atoms: C_7  and  C_14 
REMARK    5  A    between atoms: C_14  and  N_13 
ROOT
ATOM      1  C   UNL d   1       2.871  -1.561   0.129  0.00  0.00     0.067 A 
ATOM      2  C   UNL d   1       5.084  -3.249   0.323  0.00  0.00     0.081 A 
ATOM      3  C   UNL d   1       3.158  -2.476  -0.901  0.00  0.00     0.062 A 
ATOM      4  C   UNL d   1       4.277  -3.300  -0.816  0.00  0.00     0.051 A 
ATOM      5  C   UNL d   1       3.741  -1.470   1.229  0.00  0.00     0.033 A 
ATOM      6  C   UNL d   1       4.842  -2.321   1.335  0.00  0.00     0.027 A 
ATOM      7 CL   UNL d   1       2.233  -2.551  -2.361  0.00  0.00    -0.082 Cl
ENDROOT
BRANCH   2   8
ATOM      8  S   UNL d   1       6.436  -4.396   0.467  0.00  0.00     0.261 S 
ATOM      9  O   UNL d   1       6.780  -4.821  -0.868  0.00  0.00    -0.200 OA
ATOM     10  O   UNL d   1       7.423  -3.802   1.351  0.00  0.00    -0.200 OA
BRANCH   8  11
ATOM     11  N   UNL d   1       5.708  -5.705   1.269  0.00  0.00    -0.303 N 
ATOM     12  C   UNL d   1       5.403  -5.503   2.707  0.00  0.00     0.165 C 
ATOM     13  C   UNL d   1       5.130  -6.867   3.354  0.00  0.00     0.293 C 
ATOM     14  N   UNL d   1       3.977  -7.580   2.770  0.00  0.00     0.096 N 
ATOM     15  C   UNL d   1       4.212  -7.724   1.308  0.00  0.00     0.293 C 
ATOM     16  C   UNL d   1       4.610  -6.426   0.557  0.00  0.00     0.165 C 
BRANCH  14  17
ATOM     17  C   UNL d   1       2.679  -6.939   3.047  0.00  0.00     0.316 C 
BRANCH  17  18
ATOM     18  C   UNL d   1       2.364  -6.677   4.507  0.00  0.00     0.030 A 
ATOM     19  C   UNL d   1       2.177  -5.353   4.934  0.00  0.00     0.126 A 
ATOM     20  F   UNL d   1       2.354  -4.341   4.070  0.00  0.00    -0.205 F 
ATOM     21  C   UNL d   1       1.809  -5.036   6.240  0.00  0.00     0.043 A 
ATOM     22  C   UNL d   1       1.608  -6.053   7.165  0.00  0.00     0.005 A 
ATOM     23  C   UNL d   1       1.810  -7.378   6.778  0.00  0.00     0.024 A 
ATOM     24  C   UNL d   1       2.195  -7.689   5.464  0.00  0.00     0.045 A 
ATOM     25 CL   UNL d   1       2.444  -9.357   5.095  0.00  0.00    -0.084 Cl
ENDBRANCH  17  18
ENDBRANCH  14  17
ENDBRANCH   8  11
ENDBRANCH   2   8
BRANCH   1  26
ATOM     26  N   UNL d   1       1.743  -0.716   0.075  0.00  0.00    -0.250 N 
ATOM     27  C   UNL d   1       1.819   0.647   0.172  0.00  0.00     0.232 C 
ATOM     28  C   UNL d   1       0.449   1.223  -0.047  0.00  0.00     0.123 C 
ATOM     29  O   UNL d   1       2.818   1.332   0.344  0.00  0.00    -0.273 OA
ATOM     30  C   UNL d   1      -0.481   0.010  -0.011  0.00  0.00     0.050 C 
ATOM     31  C   UNL d   1       0.453  -1.182  -0.010  0.00  0.00     0.240 C 
ATOM     32  C   UNL d   1      -1.472  -0.046  -1.172  0.00  0.00     0.020 C 
ATOM     33  C   UNL d   1      -1.395   0.012   1.218  0.00  0.00     0.020 C 
ATOM     34  O   UNL d   1       0.084  -2.348   0.015  0.00  0.00    -0.272 OA
ATOM     35  C   UNL d   1      -2.656   0.802  -0.724  0.00  0.00     0.001 C 
ATOM     36  C   UNL d   1      -2.615   0.829   0.801  0.00  0.00     0.001 C 
ENDBRANCH   1  26
TORSDOF 5
