REMARK  4 active torsions:
REMARK  status: ('A' for Active; 'I' for Inactive)
REMARK    1  A    between atoms: C_5  and  C_1 
REMARK    2  A    between atoms: C_7  and  C_2 
REMARK       I    between atoms: N_10  and  C_7 
REMARK    3  A    between atoms: C_9  and  N_11 
REMARK    4  A    between atoms: N_11  and  N_10 
ROOT
ATOM      1  C   UNL d   1      -1.337  -0.707   0.298  0.00  0.00     0.086 A 
ATOM      2  C   UNL d   1      -0.039  -1.273   0.042  0.00  0.00     0.094 A 
ATOM      3  N   UNL d   1      -1.215   0.608   0.543  0.00  0.00    -0.259 N 
ATOM      4  HN  UNL d   1      -1.962   1.243   0.825  1.00  0.00     0.195 HD
ATOM      5  O   UNL d   1       0.096   0.936   0.344  0.00  0.00    -0.241 OA
ATOM      6  C   UNL d   1       0.805  -0.175   0.038  0.00  0.00     0.090 A 
ATOM      7  C   UNL d   1       2.237   0.077  -0.226  0.00  0.00     0.080 C 
ENDROOT
BRANCH   2   8
ATOM      8  C   UNL d   1       0.337  -2.659  -0.182  0.00  0.00     0.271 C 
ATOM      9  N   UNL d   1       1.547  -3.018   0.393  0.00  0.00    -0.282 N 
ATOM     10  H   UNL d   1       2.135  -2.364   0.900  0.00  0.00     0.184 HD
ATOM     11  O   UNL d   1      -0.388  -3.459  -0.769  0.00  0.00    -0.266 OA
BRANCH   9  12
ATOM     12  N   UNL d   1       2.025  -4.334   0.256  0.00  0.00    -0.201 NA
ATOM     13  H   UNL d   1       1.248  -4.972   0.045  0.00  0.00     0.153 HD
BRANCH  12  14
ATOM     14  C   UNL d   1       2.840  -4.803   1.328  0.00  0.00     0.051 A 
ATOM     15  C   UNL d   1       2.755  -6.172   1.656  0.00  0.00     0.050 A 
ATOM     16  C   UNL d   1       3.575  -6.742   2.633  0.00  0.00     0.035 A 
ATOM     17 CL   UNL d   1       3.429  -8.417   3.007  0.00  0.00    -0.084 Cl
ATOM     18  C   UNL d   1       4.523  -5.975   3.302  0.00  0.00     0.026 A 
ATOM     19  C   UNL d   1       4.657  -4.628   2.976  0.00  0.00     0.027 A 
ATOM     20  C   UNL d   1       3.842  -4.051   1.992  0.00  0.00     0.057 A 
ATOM     21 CL   UNL d   1       4.177  -2.390   1.627  0.00  0.00    -0.082 Cl
ENDBRANCH  12  14
ENDBRANCH   9  12
ENDBRANCH   2   8
BRANCH   1  22
ATOM     22  C   UNL d   1      -2.675  -1.315   0.384  0.00  0.00     0.037 A 
ATOM     23  C   UNL d   1      -2.943  -2.434   1.197  0.00  0.00     0.048 A 
ATOM     24 CL   UNL d   1      -1.750  -3.190   2.205  0.00  0.00    -0.083 Cl
ATOM     25  C   UNL d   1      -4.243  -2.956   1.308  0.00  0.00     0.025 A 
ATOM     26  C   UNL d   1      -5.314  -2.341   0.666  0.00  0.00     0.003 A 
ATOM     27  C   UNL d   1      -5.082  -1.219  -0.117  0.00  0.00     0.025 A 
ATOM     28  C   UNL d   1      -3.779  -0.723  -0.279  0.00  0.00     0.048 A 
ATOM     29 CL   UNL d   1      -3.636   0.640  -1.348  0.00  0.00    -0.083 Cl
ENDBRANCH   1  22
TORSDOF 4
