REMARK  6 active torsions:
REMARK  status: ('A' for Active; 'I' for Inactive)
REMARK    1  A    between atoms: C_4  and  C_2 
REMARK    2  A    between atoms: C_12  and  C_3 
REMARK    3  A    between atoms: O_10  and  C_4 
REMARK    4  A    between atoms: N_5  and  O_10 
REMARK    5  A    between atoms: C_11  and  C_7 
REMARK    6  A    between atoms: N_15  and  C_7 
ROOT
ATOM      1  N   UNL d   1      -1.838   4.482  -0.051  0.00  0.00    -0.246 N 
ATOM      2  HN  UNL d   1      -1.127   5.200   0.085  1.00  0.00     0.196 HD
ATOM      3  C   UNL d   1      -3.107   4.734  -0.182  0.00  0.00     0.109 C 
ENDROOT
BRANCH   1   4
ATOM      4  O   UNL d   1      -1.555   3.088  -0.119  0.00  0.00    -0.193 OA
BRANCH   4   5
ATOM      5  C   UNL d   1      -0.187   2.895  -0.178  0.00  0.00     0.322 C 
ATOM      6  O   UNL d   1       0.647   3.796  -0.263  0.00  0.00    -0.257 OA
BRANCH   5   7
ATOM      7  C   UNL d   1       0.183   1.480  -0.147  0.00  0.00     0.082 A 
ATOM      8  S   UNL d   1      -0.919   0.189   0.061  0.00  0.00    -0.088 SA
ATOM      9  C   UNL d   1       0.331  -1.013   0.085  0.00  0.00    -0.009 A 
ATOM     10  C   UNL d   1       1.557  -0.417  -0.152  0.00  0.00     0.017 A 
ATOM     11  C   UNL d   1       1.473   0.998  -0.272  0.00  0.00     0.026 A 
BRANCH   9  12
ATOM     12  C   UNL d   1       0.027  -2.502   0.342  0.00  0.00    -0.018 C 
ATOM     13  C   UNL d   1      -0.701  -3.126  -0.863  0.00  0.00     0.020 C 
ATOM     14  C   UNL d   1       1.331  -3.306   0.563  0.00  0.00     0.020 C 
ATOM     15  C   UNL d   1      -0.830  -2.679   1.612  0.00  0.00     0.020 C 
ENDBRANCH   9  12
ENDBRANCH   5   7
ENDBRANCH   4   5
ENDBRANCH   1   4
BRANCH   3  16
ATOM     16  C   UNL d   1      -3.588   6.165  -0.113  0.00  0.00     0.010 A 
ATOM     17  C   UNL d   1      -2.861   7.270  -0.604  0.00  0.00    -0.049 A 
ATOM     18  C   UNL d   1      -1.511   7.166  -1.259  0.00  0.00     0.049 C 
ATOM     19  C   UNL d   1      -3.404   8.563  -0.453  0.00  0.00     0.007 A 
ATOM     20  C   UNL d   1      -4.654   8.762   0.134  0.00  0.00     0.001 A 
ATOM     21  C   UNL d   1      -5.380   7.671   0.595  0.00  0.00     0.001 A 
ATOM     22  C   UNL d   1      -4.848   6.385   0.478  0.00  0.00     0.015 A 
ENDBRANCH   3  16
BRANCH   3  23
ATOM     23  N   UNL d   1      -4.050   3.748  -0.377  0.00  0.00    -0.286 NA
ATOM     24  H   UNL d   1      -3.638   2.869  -0.659  0.00  0.00     0.125 HD
ATOM     25  H   UNL d   1      -4.846   4.011  -0.949  0.00  0.00     0.125 HD
ENDBRANCH   3  23
TORSDOF 6
