REMARK  0 active torsions:
REMARK  status: ('A' for Active; 'I' for Inactive)
ROOT
ATOM      1  C   UNL d   1       1.226   1.469   0.009  0.00  0.00     0.272 A 
ATOM      2  N   UNL d   1       2.428  -0.671   0.034  0.00  0.00    -0.306 N 
ATOM      3  HN  UNL d   1       3.315  -1.173   0.046  1.00  0.00     0.186 HD
ATOM      4  N   UNL d   1       2.393   0.705  -0.005  0.00  0.00    -0.262 N 
ATOM      5  C   UNL d   1      -0.044   0.721   0.013  0.00  0.00     0.045 A 
ATOM      6  C   UNL d   1       1.301  -1.309   0.055  0.00  0.00     0.119 A 
ATOM      7  C   UNL d   1      -0.006  -0.664   0.030  0.00  0.00    -0.004 A 
ATOM      8  O   UNL d   1       1.205   2.697   0.007  0.00  0.00    -0.266 OA
ATOM      9  C   UNL d   1       3.672   1.384  -0.059  0.00  0.00     0.181 C 
ATOM     10  C   UNL d   1      -1.277   1.380  -0.020  0.00  0.00     0.018 A 
ATOM     11  C   UNL d   1      -1.181  -1.419   0.014  0.00  0.00     0.014 A 
ATOM     12  C   UNL d   1      -2.460   0.636  -0.042  0.00  0.00     0.001 A 
ATOM     13  C   UNL d   1      -2.411  -0.760  -0.026  0.00  0.00     0.001 A 
ENDROOT
TORSDOF 0
