REMARK  5 active torsions:
REMARK  status: ('A' for Active; 'I' for Inactive)
REMARK    1  A    between atoms: S_3  and  C_1 
REMARK    2  A    between atoms: C_16  and  N_2 
REMARK    3  A    between atoms: C_8  and  S_3 
REMARK    4  A    between atoms: N_7  and  C_4 
REMARK    5  A    between atoms: O_19  and  C_9 
ROOT
ATOM      1  C   UNL d   1      -0.108  -1.323  -0.309  0.00  0.00     0.175 A 
ATOM      2  N   UNL d   1       1.131  -0.713  -0.144  0.00  0.00    -0.255 N 
ATOM      3  N   UNL d   1      -1.075  -0.431  -0.265  0.00  0.00    -0.276 N 
ATOM      4  HN  UNL d   1      -2.073  -0.626  -0.345  1.00  0.00     0.189 HD
ATOM      5  C   UNL d   1       0.791   0.639  -0.056  0.00  0.00     0.245 A 
ATOM      6  N   UNL d   1      -0.509   0.801  -0.094  0.00  0.00    -0.263 N 
ATOM      7  HN  UNL d   1      -1.009   1.686  -0.012  1.00  0.00     0.190 HD
ENDROOT
BRANCH   1   8
ATOM      8  S   UNL d   1      -0.444  -3.023  -0.258  0.00  0.00    -0.032 SA
BRANCH   8   9
ATOM      9  C   UNL d   1      -0.557  -3.377  -2.008  0.00  0.00     0.110 A 
ATOM     10  C   UNL d   1      -1.310  -4.420  -2.538  0.00  0.00     0.138 A 
ATOM     11  C   UNL d   1      -1.188  -4.789  -3.884  0.00  0.00     0.059 A 
ATOM     12  C   UNL d   1      -0.298  -4.085  -4.680  0.00  0.00     0.028 A 
ATOM     13  C   UNL d   1       0.394  -3.026  -4.117  0.00  0.00     0.108 A 
ATOM     14 BR   UNL d   1      -0.005  -4.581  -6.473  0.00  0.00    -0.050 Br
ATOM     15  N   UNL d   1       0.280  -2.665  -2.814  0.00  0.00    -0.357 N 
ATOM     16  HN  UNL d   1       0.811  -1.876  -2.445  1.00  0.00     0.166 HD
BRANCH  10  17
ATOM     17  N   UNL d   1      -2.222  -5.171  -1.718  0.00  0.00    -0.113 N 
ATOM     18  O   UNL d   1      -1.728  -5.929  -0.874  0.00  0.00    -0.532 OA
ATOM     19  O   UNL d   1      -3.425  -5.056  -1.980  0.00  0.00    -0.532 OA
ENDBRANCH  10  17
ENDBRANCH   8   9
ENDBRANCH   1   8
BRANCH   2  20
ATOM     20  C   UNL d   1       2.458  -1.247  -0.092  0.00  0.00     0.045 A 
ATOM     21  C   UNL d   1       2.817  -2.404  -0.792  0.00  0.00     0.030 A 
ATOM     22  C   UNL d   1       4.142  -2.848  -0.820  0.00  0.00     0.002 A 
ATOM     23  C   UNL d   1       5.127  -2.155  -0.130  0.00  0.00     0.000 A 
ATOM     24  C   UNL d   1       4.784  -1.027   0.609  0.00  0.00     0.002 A 
ATOM     25  C   UNL d   1       3.459  -0.578   0.634  0.00  0.00     0.030 A 
ENDBRANCH   2  20
BRANCH   5  26
ATOM     26  O   UNL d   1       1.623   1.673  -0.041  0.00  0.00    -0.331 OA
ATOM     27  H   UNL d   1       2.432   1.412  -0.512  0.00  0.00     0.221 HD
ENDBRANCH   5  26
TORSDOF 5
