REMARK  4 active torsions:
REMARK  status: ('A' for Active; 'I' for Inactive)
REMARK    1  A    between atoms: C_5  and  C_1 
REMARK    2  A    between atoms: N_3  and  C_2 
REMARK       I    between atoms: C_4  and  N_3 
REMARK    3  A    between atoms: C_7  and  C_4 
REMARK    4  A    between atoms: O_19  and  C_5 
ROOT
ATOM      1  N   UNL d   1       2.496   1.612  -0.057  0.00  0.00    -0.321 N 
ATOM      2  C   UNL d   1       2.731   2.974  -0.082  0.00  0.00     0.256 C 
ATOM      3  O   UNL d   1       3.817   3.529  -0.199  0.00  0.00    -0.267 OA
ATOM      4  H   UNL d   1       1.537   1.296  -0.100  0.00  0.00     0.169 HD
ENDROOT
BRANCH   2   5
ATOM      5  C   UNL d   1       1.516   3.835  -0.000  0.00  0.00     0.033 A 
ATOM      6  C   UNL d   1       1.589   5.031   0.726  0.00  0.00     0.030 A 
ATOM      7  C   UNL d   1       0.484   5.904   0.779  0.00  0.00    -0.009 A 
ATOM      8  C   UNL d   1       0.524   7.109   1.495  0.00  0.00     0.015 A 
ATOM      9  C   UNL d   1      -0.706   5.587   0.091  0.00  0.00     0.042 A 
ATOM     10  C   UNL d   1      -0.582   7.951   1.496  0.00  0.00     0.018 A 
ATOM     11  C   UNL d   1      -1.697   7.557   0.782  0.00  0.00     0.088 A 
ATOM     12  N   UNL d   1      -1.779   6.397   0.093  0.00  0.00    -0.365 N 
ATOM     13  HN  UNL d   1      -2.629   6.144  -0.411  1.00  0.00     0.165 HD
ATOM     14  C   UNL d   1      -0.755   4.396  -0.621  0.00  0.00     0.031 A 
ATOM     15  C   UNL d   1       0.338   3.520  -0.678  0.00  0.00     0.019 A 
ENDBRANCH   2   5
BRANCH   1  16
ATOM     16  C   UNL d   1       3.456   0.598  -0.147  0.00  0.00     0.058 C 
ATOM     17  C   UNL d   1       4.819   0.634   0.125  0.00  0.00     0.106 C 
ATOM     18  S   UNL d   1       5.590  -0.847  -0.311  0.00  0.00    -0.094 SA
ATOM     19  C   UNL d   1       4.109  -1.592  -0.693  0.00  0.00     0.053 C 
ATOM     20  C   UNL d   1       3.054  -0.722  -0.552  0.00  0.00     0.038 C 
BRANCH  17  21
ATOM     21  C   UNL d   1       5.670   1.631   0.745  0.00  0.00     0.302 C 
ATOM     22  O   UNL d   1       6.840   1.859   0.457  0.00  0.00    -0.259 OA
BRANCH  21  23
ATOM     23  O   UNL d   1       5.013   2.191   1.804  0.00  0.00    -0.322 OA
ATOM     24  C   UNL d   1       5.683   3.276   2.445  0.00  0.00     0.213 C 
ENDBRANCH  21  23
ENDBRANCH  17  21
ENDBRANCH   1  16
TORSDOF 4
