REMARK  3 active torsions:
REMARK  status: ('A' for Active; 'I' for Inactive)
REMARK    1  A    between atoms: N_5  and  C_1 
REMARK    2  A    between atoms: C_11  and  C_2 
REMARK    3  A    between atoms: N_12  and  C_10 
ROOT
ATOM      1  C   UNL d   1      -0.731   1.035   0.035  0.00  0.00     0.158 A 
ATOM      2  C   UNL d   1       0.685   1.059   0.016  0.00  0.00     0.112 A 
ATOM      3  N   UNL d   1      -1.178  -0.219   0.060  0.00  0.00    -0.223 N 
ATOM      4  HN  UNL d   1      -2.146  -0.536   0.102  1.00  0.00     0.198 HD
ATOM      5  N   UNL d   1       1.113  -0.215  -0.001  0.00  0.00    -0.237 N 
ATOM      6  HN  UNL d   1       2.080  -0.539  -0.022  1.00  0.00     0.197 HD
ATOM      7  O   UNL d   1      -0.031  -0.999   0.017  0.00  0.00    -0.155 OA
ENDROOT
BRANCH   2   8
ATOM      8  C   UNL d   1       1.635   2.169   0.003  0.00  0.00    -0.004 A 
ATOM      9  C   UNL d   1       2.909   2.006   0.576  0.00  0.00     0.015 A 
ATOM     10  C   UNL d   1       3.857   3.033   0.526  0.00  0.00     0.024 A 
ATOM     11  C   UNL d   1       3.540   4.232  -0.103  0.00  0.00     0.034 A 
ATOM     12  C   UNL d   1       2.279   4.418  -0.667  0.00  0.00     0.024 A 
ATOM     13 CL   UNL d   1       4.715   5.486  -0.195  0.00  0.00    -0.084 Cl
ATOM     14  C   UNL d   1       1.329   3.392  -0.613  0.00  0.00     0.015 A 
ENDBRANCH   2   8
BRANCH   1  15
ATOM     15  N   UNL d   1      -1.572   2.158   0.123  0.00  0.00    -0.335 N 
ATOM     16  C   UNL d   1      -2.732   1.977  -0.419  0.00  0.00     0.179 C 
ATOM     17  HN  UNL d   1      -1.294   3.030   0.572  1.00  0.00     0.168 HD
BRANCH  16  18
ATOM     18  N   UNL d   1      -3.760   2.896  -0.467  0.00  0.00    -0.386 N 
ATOM     19  C   UNL d   1      -3.712   4.134   0.295  0.00  0.00     0.149 C 
ATOM     20  C   UNL d   1      -5.058   2.555  -1.030  0.00  0.00     0.149 C 
ENDBRANCH  16  18
ENDBRANCH   1  15
TORSDOF 3
