REMARK  5 active torsions:
REMARK  status: ('A' for Active; 'I' for Inactive)
REMARK    1  A    between atoms: C_16  and  N_3 
REMARK    2  A    between atoms: C_14  and  N_4 
REMARK    3  A    between atoms: S_17  and  C_10 
REMARK    4  A    between atoms: C_15  and  C_13 
REMARK    5  A    between atoms: C_18  and  C_14 
ROOT
ATOM      1  C   UNL d   1      -0.441  -1.233   0.344  0.00  0.00     0.153 A 
ATOM      2  C   UNL d   1      -0.709  -2.645   0.310  0.00  0.00     0.098 A 
ATOM      3  N   UNL d   1      -0.322  -0.370   1.445  0.00  0.00    -0.305 N 
ATOM      4  N   UNL d   1      -1.280  -3.327  -0.752  0.00  0.00    -0.284 N 
ATOM      5  N   UNL d   1      -0.193  -0.558  -0.757  0.00  0.00    -0.281 N 
ATOM      6  HN  UNL d   1      -0.273  -0.920  -1.708  1.00  0.00     0.188 HD
ATOM      7  N   UNL d   1      -1.356  -4.668  -0.537  0.00  0.00    -0.301 N 
ATOM      8  HN  UNL d   1      -1.772  -5.372  -1.147  1.00  0.00     0.187 HD
ATOM      9  C   UNL d   1      -0.385  -3.631   1.223  0.00  0.00     0.062 A 
ATOM     10  C   UNL d   1       0.171   0.792   0.887  0.00  0.00     0.160 A 
ATOM     11  N   UNL d   1       0.187   0.700  -0.421  0.00  0.00    -0.278 N 
ATOM     12  HN  UNL d   1       0.441   1.443  -1.071  1.00  0.00     0.189 HD
ATOM     13  C   UNL d   1      -0.768  -4.864   0.647  0.00  0.00     0.036 A 
ENDROOT
BRANCH   4  14
ATOM     14  C   UNL d   1      -1.641  -2.840  -2.083  0.00  0.00     0.187 C 
BRANCH  14  15
ATOM     15  C   UNL d   1      -3.088  -2.431  -2.229  0.00  0.00    -0.038 A 
ATOM     16  C   UNL d   1      -4.125  -3.367  -2.101  0.00  0.00     0.015 A 
ATOM     17  C   UNL d   1      -5.458  -3.020  -2.370  0.00  0.00    -0.061 A 
ATOM     18  C   UNL d   1      -6.564  -4.025  -2.253  0.00  0.00     0.048 C 
ATOM     19  C   UNL d   1      -5.753  -1.707  -2.760  0.00  0.00     0.007 A 
ATOM     20  C   UNL d   1      -4.734  -0.763  -2.880  0.00  0.00     0.001 A 
ATOM     21  C   UNL d   1      -3.411  -1.121  -2.613  0.00  0.00     0.009 A 
ENDBRANCH  14  15
ENDBRANCH   4  14
BRANCH   3  22
ATOM     22  C   UNL d   1      -0.642  -0.740   2.826  0.00  0.00     0.094 C 
ATOM     23  C   UNL d   1      -2.097  -1.251   2.995  0.00  0.00     0.026 C 
ATOM     24  C   UNL d   1      -3.114  -0.123   3.116  0.00  0.00     0.002 C 
ATOM     25  C   UNL d   1      -2.796   0.786   4.294  0.00  0.00     0.000 C 
ATOM     26  C   UNL d   1      -1.380   1.334   4.195  0.00  0.00     0.002 C 
ATOM     27  C   UNL d   1      -0.343   0.226   3.998  0.00  0.00     0.026 C 
ENDBRANCH   3  22
BRANCH  13  28
ATOM     28  C   UNL d   1      -0.550  -6.255   1.218  0.00  0.00    -0.007 C 
ATOM     29  C   UNL d   1      -1.512  -6.494   2.397  0.00  0.00     0.021 C 
ATOM     30  C   UNL d   1      -0.781  -7.364   0.169  0.00  0.00     0.021 C 
ATOM     31  C   UNL d   1       0.903  -6.393   1.724  0.00  0.00     0.021 C 
ENDBRANCH  13  28
BRANCH  10  32
ATOM     32  S   UNL d   1       0.781   2.206   1.668  0.00  0.00    -0.105 SA
ATOM     33  H   UNL d   1       1.710   1.635   2.442  0.00  0.00     0.110 HD
ENDBRANCH  10  32
TORSDOF 5
