REMARK  4 active torsions:
REMARK  status: ('A' for Active; 'I' for Inactive)
REMARK    1  A    between atoms: C_4  and  C_1 
REMARK    2  A    between atoms: O_7  and  C_2 
REMARK    3  A    between atoms: O_9  and  C_4 
REMARK    4  A    between atoms: C_10  and  O_7 
ROOT
ATOM      1  C   UNL d   1      -0.074   1.092   0.335  0.00  0.00     0.151 A 
ATOM      2  C   UNL d   1      -0.087  -1.075  -0.042  0.00  0.00     0.191 A 
ATOM      3  O   UNL d   1      -0.833  -0.045   0.447  0.00  0.00    -0.281 OA
ATOM      4  C   UNL d   1       1.134   0.788  -0.259  0.00  0.00     0.049 A 
ATOM      5  C   UNL d   1       1.118  -0.604  -0.519  0.00  0.00     0.067 A 
ENDROOT
BRANCH   2   6
ATOM      6  O   UNL d   1      -0.685  -2.259   0.053  0.00  0.00    -0.288 OA
BRANCH   6   7
ATOM      7  C   UNL d   1       0.055  -3.417   0.077  0.00  0.00     0.078 A 
ATOM      8  C   UNL d   1       1.220  -3.550   0.838  0.00  0.00     0.037 A 
ATOM      9  C   UNL d   1       1.911  -4.762   0.847  0.00  0.00     0.003 A 
ATOM     10  C   UNL d   1       1.424  -5.847   0.122  0.00  0.00     0.000 A 
ATOM     11  C   UNL d   1       0.242  -5.725  -0.611  0.00  0.00     0.003 A 
ATOM     12  C   UNL d   1      -0.446  -4.511  -0.629  0.00  0.00     0.037 A 
ENDBRANCH   6   7
ENDBRANCH   2   6
BRANCH   1  13
ATOM     13  C   UNL d   1      -0.613   2.336   0.827  0.00  0.00     0.201 C 
ATOM     14  O   UNL d   1      -0.042   3.416   0.830  0.00  0.00    -0.645 OA
BRANCH  13  15
ATOM     15  O   UNL d   1      -1.874   2.170   1.306  0.00  0.00    -0.771 OA
ATOM     16  H   UNL d   1      -2.145   1.232   1.213  0.00  0.00     0.167 HD
ENDBRANCH  13  15
ENDBRANCH   1  13
TORSDOF 4
