REMARK  6 active torsions:
REMARK  status: ('A' for Active; 'I' for Inactive)
REMARK    1  A    between atoms: C_2  and  S_1 
REMARK    2  A    between atoms: C_8  and  S_1 
REMARK    3  A    between atoms: N_6  and  C_3 
REMARK    4  A    between atoms: C_9  and  N_4 
REMARK    5  A    between atoms: C_14  and  C_9 
REMARK    6  A    between atoms: C_15  and  C_9 
ROOT
ATOM      1  C   UNL d   1       0.118  -3.275   1.118  0.00  0.00     0.159 C 
ATOM      2  C   UNL d   1       0.030  -1.934   1.184  0.00  0.00     0.121 C 
ATOM      3  C   UNL d   1      -0.553  -4.149   2.001  0.00  0.00     0.113 C 
ATOM      4  N   UNL d   1      -1.101  -4.869   2.719  0.00  0.00    -0.191 NA
ENDROOT
BRANCH   1   5
ATOM      5  S   UNL d   1       1.194  -3.993  -0.040  0.00  0.00     0.218 S 
ATOM      6  O   UNL d   1       2.510  -4.096   0.560  0.00  0.00    -0.216 OA
ATOM      7  O   UNL d   1       1.044  -3.320  -1.321  0.00  0.00    -0.216 OA
BRANCH   5   8
ATOM      8  C   UNL d   1       0.638  -5.681  -0.304  0.00  0.00     0.065 A 
ATOM      9  C   UNL d   1      -0.253  -5.980  -1.342  0.00  0.00     0.025 A 
ATOM     10  C   UNL d   1      -0.622  -7.311  -1.576  0.00  0.00     0.025 A 
ATOM     11  C   UNL d   1      -0.076  -8.335  -0.799  0.00  0.00     0.034 A 
ATOM     12  C   UNL d   1       0.843  -8.041   0.208  0.00  0.00     0.025 A 
ATOM     13 CL   UNL d   1      -0.522  -9.970  -1.096  0.00  0.00    -0.084 Cl
ATOM     14  C   UNL d   1       1.204  -6.713   0.457  0.00  0.00     0.025 A 
ENDBRANCH   5   8
ENDBRANCH   1   5
BRANCH   2  15
ATOM     15  N   UNL d   1      -0.609  -1.104   2.118  0.00  0.00    -0.385 N 
ATOM     16  C   UNL d   1      -0.554  -1.363   3.584  0.00  0.00     0.152 C 
ATOM     17  C   UNL d   1       0.274  -0.279   4.327  0.00  0.00     0.293 C 
ATOM     18  N   UNL d   1      -0.147   1.131   4.076  0.00  0.00     0.105 N 
ATOM     19  C   UNL d   1      -0.105   1.302   2.601  0.00  0.00     0.293 C 
ATOM     20  C   UNL d   1      -0.978   0.303   1.809  0.00  0.00     0.152 C 
BRANCH  18  21
ATOM     21  C   UNL d   1      -1.487   1.415   4.687  0.00  0.00     0.289 C 
BRANCH  21  22
ATOM     22  C   UNL d   1      -1.457   1.235   6.210  0.00  0.00    -0.021 A 
ATOM     23  C   UNL d   1      -0.586   1.996   7.008  0.00  0.00     0.010 A 
ATOM     24  C   UNL d   1      -0.605   1.879   8.397  0.00  0.00     0.001 A 
ATOM     25  C   UNL d   1      -1.478   0.982   9.008  0.00  0.00     0.000 A 
ATOM     26  C   UNL d   1      -2.314   0.183   8.230  0.00  0.00     0.001 A 
ATOM     27  C   UNL d   1      -2.305   0.306   6.839  0.00  0.00     0.010 A 
ENDBRANCH  21  22
BRANCH  21  28
ATOM     28  C   UNL d   1      -2.108   2.784   4.341  0.00  0.00    -0.021 A 
ATOM     29  C   UNL d   1      -3.508   2.905   4.228  0.00  0.00     0.010 A 
ATOM     30  C   UNL d   1      -4.105   4.126   3.898  0.00  0.00     0.001 A 
ATOM     31  C   UNL d   1      -3.316   5.255   3.695  0.00  0.00     0.000 A 
ATOM     32  C   UNL d   1      -1.935   5.168   3.852  0.00  0.00     0.001 A 
ATOM     33  C   UNL d   1      -1.337   3.947   4.183  0.00  0.00     0.010 A 
ENDBRANCH  21  28
ENDBRANCH  18  21
ENDBRANCH   2  15
TORSDOF 6
