REMARK  2 active torsions:
REMARK  status: ('A' for Active; 'I' for Inactive)
REMARK    1  A    between atoms: S_6  and  C_4 
REMARK    2  A    between atoms: C_9  and  S_6 
ROOT
ATOM      1  S   UNL d   1      -1.437  -1.796  -0.055  0.00  0.00     0.177 S 
ATOM      2  C   UNL d   1      -2.690  -0.535   0.112  0.00  0.00     0.166 A 
ATOM      3  C   UNL d   1      -0.076  -0.715   0.017  0.00  0.00     0.066 A 
ATOM      4  C   UNL d   1      -1.980   0.830   0.144  0.00  0.00     0.101 A 
ATOM      5  C   UNL d   1      -0.483   0.613   0.112  0.00  0.00    -0.022 A 
ATOM      6  O   UNL d   1      -1.493  -2.344  -1.394  0.00  0.00    -0.223 OA
ATOM      7  O   UNL d   1      -1.420  -2.620   1.135  0.00  0.00    -0.223 OA
ATOM      8  C   UNL d   1       0.498   1.602   0.122  0.00  0.00     0.010 A 
ATOM      9  C   UNL d   1       1.250  -1.113  -0.036  0.00  0.00     0.024 A 
ATOM     10  C   UNL d   1       1.849   1.231   0.066  0.00  0.00     0.001 A 
ATOM     11  C   UNL d   1       2.223  -0.119  -0.006  0.00  0.00     0.002 A 
ENDROOT
BRANCH   4  12
ATOM     12  S   UNL d   1      -2.474   1.798   1.632  0.00  0.00    -0.119 SA
BRANCH  12  13
ATOM     13  C   UNL d   1      -4.224   2.001   1.356  0.00  0.00     0.001 A 
ATOM     14  C   UNL d   1      -5.123   1.471   2.290  0.00  0.00     0.020 A 
ATOM     15  C   UNL d   1      -6.501   1.641   2.124  0.00  0.00     0.025 A 
ATOM     16  C   UNL d   1      -6.982   2.354   1.029  0.00  0.00     0.034 A 
ATOM     17  C   UNL d   1      -6.096   2.896   0.099  0.00  0.00     0.025 A 
ATOM     18 CL   UNL d   1      -8.675   2.578   0.830  0.00  0.00    -0.084 Cl
ATOM     19  C   UNL d   1      -4.717   2.721   0.264  0.00  0.00     0.020 A 
ENDBRANCH  12  13
ENDBRANCH   4  12
TORSDOF 2
