REMARK  3 active torsions:
REMARK  status: ('A' for Active; 'I' for Inactive)
REMARK    1  A    between atoms: C_6  and  C_1 
REMARK    2  A    between atoms: C_5  and  C_2 
REMARK       I    between atoms: N_9  and  C_5 
REMARK    3  A    between atoms: N_10  and  N_9 
ROOT
ATOM      1  C   UNL d   1      -0.065   0.008   1.165  0.00  0.00     0.086 C 
ATOM      2  C   UNL d   1      -0.153  -1.110   0.256  0.00  0.00     0.094 C 
ATOM      3  N   UNL d   1      -0.932   0.962   0.783  0.00  0.00    -0.259 N 
ATOM      4  HN  UNL d   1      -1.155   1.816   1.294  1.00  0.00     0.195 HD
ATOM      5  O   UNL d   1      -1.459   0.575  -0.418  0.00  0.00    -0.241 OA
ATOM      6  C   UNL d   1      -0.992  -0.653  -0.747  0.00  0.00     0.090 C 
ATOM      7  C   UNL d   1      -1.437  -1.144  -2.068  0.00  0.00     0.080 C 
ENDROOT
BRANCH   2   8
ATOM      8  C   UNL d   1       0.511  -2.405   0.277  0.00  0.00     0.271 C 
ATOM      9  N   UNL d   1      -0.346  -3.456  -0.065  0.00  0.00    -0.285 N 
ATOM     10  H   UNL d   1      -1.337  -3.256  -0.183  0.00  0.00     0.184 HD
ATOM     11  O   UNL d   1       1.685  -2.527   0.595  0.00  0.00    -0.266 OA
BRANCH   9  12
ATOM     12  N   UNL d   1       0.017  -4.814  -0.184  0.00  0.00    -0.229 NA
ATOM     13  C   UNL d   1       1.109  -5.067  -1.130  0.00  0.00     0.113 C 
ATOM     14  C   UNL d   1       1.167  -6.565  -1.439  0.00  0.00     0.016 C 
ATOM     15  C   UNL d   1       1.370  -7.382  -0.166  0.00  0.00     0.002 C 
ATOM     16  C   UNL d   1       0.345  -7.003   0.902  0.00  0.00     0.016 C 
ATOM     17  C   UNL d   1       0.237  -5.485   1.100  0.00  0.00     0.113 C 
ENDBRANCH   9  12
ENDBRANCH   2   8
BRANCH   1  18
ATOM     18  C   UNL d   1       0.746   0.231   2.377  0.00  0.00     0.037 A 
ATOM     19  C   UNL d   1       1.416   1.464   2.586  0.00  0.00     0.048 A 
ATOM     20 CL   UNL d   1       1.404   2.778   1.448  0.00  0.00    -0.083 Cl
ATOM     21  C   UNL d   1       2.162   1.705   3.752  0.00  0.00     0.025 A 
ATOM     22  C   UNL d   1       2.292   0.719   4.718  0.00  0.00     0.003 A 
ATOM     23  C   UNL d   1       1.639  -0.495   4.542  0.00  0.00     0.025 A 
ATOM     24  C   UNL d   1       0.846  -0.728   3.403  0.00  0.00     0.048 A 
ATOM     25 CL   UNL d   1      -0.069  -2.200   3.424  0.00  0.00    -0.083 Cl
ENDBRANCH   1  18
TORSDOF 3
