REMARK  4 active torsions:
REMARK  status: ('A' for Active; 'I' for Inactive)
REMARK    1  A    between atoms: C_8  and  C_2 
REMARK    2  A    between atoms: S_19  and  C_5 
REMARK    3  A    between atoms: C_21  and  S_19 
REMARK    4  A    between atoms: C_23  and  C_21 
ROOT
ATOM      1  N   UNL d   1       0.847   0.001  -0.009  0.00  0.00    -0.315 N 
ATOM      2  C   UNL d   1       0.021   1.104  -0.131  0.00  0.00     0.134 A 
ATOM      3  N   UNL d   1      -1.226   0.666  -0.208  0.00  0.00    -0.283 N 
ATOM      4  HN  UNL d   1      -2.058   1.254  -0.259  1.00  0.00     0.188 HD
ATOM      5  C   UNL d   1       0.027  -1.095  -0.102  0.00  0.00     0.162 A 
ATOM      6  N   UNL d   1      -1.219  -0.709  -0.211  0.00  0.00    -0.278 N 
ATOM      7  HN  UNL d   1      -2.035  -1.316  -0.284  1.00  0.00     0.189 HD
ATOM      8  C   UNL d   1       2.270  -0.030   0.210  0.00  0.00     0.160 C 
ENDROOT
BRANCH   2   9
ATOM      9  C   UNL d   1       0.406   2.523  -0.133  0.00  0.00     0.012 A 
ATOM     10  C   UNL d   1      -0.429   3.438   0.553  0.00  0.00     0.049 A 
ATOM     11  C   UNL d   1      -0.013   4.783   0.527  0.00  0.00     0.086 A 
ATOM     12  N   UNL d   1      -0.574   5.862   1.086  0.00  0.00    -0.240 N 
ATOM     13  C   UNL d   1       1.192   5.209  -0.167  0.00  0.00     0.085 A 
ATOM     14  O   UNL d   1       0.246   6.928   0.761  0.00  0.00    -0.156 OA
ATOM     15  HN  UNL d   1      -1.431   5.892   1.639  1.00  0.00     0.197 HD
ATOM     16  N   UNL d   1       1.333   6.530  -0.004  0.00  0.00    -0.240 N 
ATOM     17  HN  UNL d   1       2.082   7.120  -0.366  1.00  0.00     0.197 HD
ATOM     18  C   UNL d   1       2.009   4.308  -0.872  0.00  0.00     0.035 A 
ATOM     19  C   UNL d   1       1.565   2.968  -0.844  0.00  0.00     0.018 A 
ENDBRANCH   2   9
BRANCH   5  20
ATOM     20  S   UNL d   1       0.603  -2.727  -0.065  0.00  0.00    -0.088 SA
BRANCH  20  21
ATOM     21  C   UNL d   1      -0.793  -3.598  -0.837  0.00  0.00     0.121 C 
BRANCH  21  22
ATOM     22  C   UNL d   1      -0.569  -5.094  -0.861  0.00  0.00    -0.048 A 
ATOM     23  C   UNL d   1      -1.064  -5.901   0.173  0.00  0.00     0.009 A 
ATOM     24  C   UNL d   1      -0.871  -7.286   0.154  0.00  0.00     0.024 A 
ATOM     25  C   UNL d   1      -0.173  -7.870  -0.900  0.00  0.00     0.034 A 
ATOM     26  C   UNL d   1       0.338  -7.084  -1.929  0.00  0.00     0.024 A 
ATOM     27 CL   UNL d   1       0.056  -9.575  -0.932  0.00  0.00    -0.084 Cl
ATOM     28  C   UNL d   1       0.144  -5.698  -1.909  0.00  0.00     0.009 A 
ENDBRANCH  21  22
ENDBRANCH  20  21
ENDBRANCH   5  20
TORSDOF 4
