REMARK  1 active torsions:
REMARK  status: ('A' for Active; 'I' for Inactive)
REMARK    1  A    between atoms: C_7  and  C_6 
ROOT
ATOM      1  C   UNL d   1       0.084   1.546   0.038  0.00  0.00    -0.013 A 
ATOM      2  C   UNL d   1       1.273   0.654   0.059  0.00  0.00    -0.014 A 
ATOM      3  C   UNL d   1      -1.139   0.696   0.033  0.00  0.00    -0.014 A 
ATOM      4  C   UNL d   1       0.768  -0.670   0.014  0.00  0.00    -0.014 A 
ATOM      5  C   UNL d   1      -0.689  -0.643   0.005  0.00  0.00    -0.014 A 
ATOM      6  C   UNL d   1       0.023   2.888  -0.021  0.00  0.00     0.024 C 
ATOM      7  C   UNL d   1      -2.492   0.999   0.048  0.00  0.00     0.013 A 
ATOM      8  C   UNL d   1       2.637   0.886   0.129  0.00  0.00     0.013 A 
ATOM      9  C   UNL d   1       1.629  -1.759   0.001  0.00  0.00     0.013 A 
ATOM     10  C   UNL d   1      -1.599  -1.690  -0.010  0.00  0.00     0.013 A 
ATOM     11  C   UNL d   1       3.503  -0.213   0.127  0.00  0.00     0.001 A 
ATOM     12  C   UNL d   1      -3.406  -0.058   0.035  0.00  0.00     0.001 A 
ATOM     13  C   UNL d   1       3.005  -1.522   0.055  0.00  0.00     0.001 A 
ATOM     14  C   UNL d   1      -2.965  -1.390   0.006  0.00  0.00     0.001 A 
ENDROOT
BRANCH   6  15
ATOM     15  C   UNL d   1       1.148   3.820  -0.101  0.00  0.00    -0.035 A 
ATOM     16  C   UNL d   1       1.676   4.170  -1.349  0.00  0.00     0.013 A 
ATOM     17  C   UNL d   1       2.724   5.090  -1.435  0.00  0.00     0.024 A 
ATOM     18  C   UNL d   1       3.244   5.656  -0.273  0.00  0.00     0.034 A 
ATOM     19  C   UNL d   1       2.731   5.305   0.976  0.00  0.00     0.024 A 
ATOM     20 CL   UNL d   1       4.524   6.801  -0.379  0.00  0.00    -0.084 Cl
ATOM     21  C   UNL d   1       1.681   4.386   1.062  0.00  0.00     0.013 A 
ENDBRANCH   6  15
TORSDOF 1
