REMARK  3 active torsions:
REMARK  status: ('A' for Active; 'I' for Inactive)
REMARK    1  A    between atoms: C_2  and  S_1 
REMARK    2  A    between atoms: N_4  and  S_1 
REMARK    3  A    between atoms: C_7  and  N_6 
ROOT
ATOM      1  N   UNL d   1       0.539  -1.133  -0.320  0.00  0.00    -0.303 N 
ATOM      2  N   UNL d   1      -0.799  -2.255   1.960  0.00  0.00    -0.377 N 
ATOM      3  C   UNL d   1      -0.837  -0.698   0.070  0.00  0.00     0.155 C 
ATOM      4  C   UNL d   1       0.910  -2.478   0.216  0.00  0.00     0.155 C 
ATOM      5  C   UNL d   1      -1.064  -0.844   1.588  0.00  0.00     0.143 C 
ATOM      6  C   UNL d   1       0.611  -2.622   1.723  0.00  0.00     0.143 C 
ENDROOT
BRANCH   2   7
ATOM      7  C   UNL d   1      -1.482  -2.716   3.092  0.00  0.00     0.044 A 
ATOM      8  C   UNL d   1      -2.898  -2.885   3.060  0.00  0.00     0.017 A 
ATOM      9  C   UNL d   1      -3.556  -3.267   4.252  0.00  0.00     0.046 A 
ATOM     10  C   UNL d   1      -3.679  -2.716   1.889  0.00  0.00     0.018 A 
ATOM     11  C   UNL d   1      -4.940  -3.379   4.256  0.00  0.00     0.054 A 
ATOM     12  N   UNL d   1      -2.896  -3.530   5.388  0.00  0.00    -0.365 N 
ATOM     13  C   UNL d   1      -5.692  -3.151   3.105  0.00  0.00     0.036 A 
ATOM     14  C   UNL d   1      -5.065  -2.832   1.911  0.00  0.00     0.025 A 
ATOM     15 CL   UNL d   1      -7.407  -3.275   3.157  0.00  0.00    -0.084 Cl
ATOM     16  C   UNL d   1      -1.553  -3.425   5.377  0.00  0.00     0.090 A 
ATOM     17  HN  UNL d   1      -3.396  -3.802   6.235  1.00  0.00     0.165 HD
ATOM     18  C   UNL d   1      -0.815  -3.023   4.279  0.00  0.00     0.047 A 
ENDBRANCH   2   7
BRANCH   1  19
ATOM     19  S   UNL d   1       1.720   0.070  -0.351  0.00  0.00     0.267 S 
ATOM     20  O   UNL d   1       1.406   1.044   0.670  0.00  0.00    -0.200 OA
ATOM     21  O   UNL d   1       3.031  -0.537  -0.448  0.00  0.00    -0.200 OA
BRANCH  19  22
ATOM     22  C   UNL d   1       1.478   0.927  -1.896  0.00  0.00     0.121 A 
ATOM     23  S   UNL d   1       1.688  -0.021  -3.311  0.00  0.00    -0.069 SA
ATOM     24  C   UNL d   1       1.297   1.289  -4.309  0.00  0.00     0.052 A 
ATOM     25 BR   UNL d   1       1.270   1.175  -6.178  0.00  0.00    -0.043 Br
ATOM     26  C   UNL d   1       0.997   2.433  -3.614  0.00  0.00     0.028 A 
ATOM     27  C   UNL d   1       1.102   2.222  -2.205  0.00  0.00     0.035 A 
ENDBRANCH  19  22
ENDBRANCH   1  19
TORSDOF 3
