REMARK  2 active torsions:
REMARK  status: ('A' for Active; 'I' for Inactive)
REMARK    1  A    between atoms: S_2  and  C_1 
REMARK    2  A    between atoms: O_10  and  S_2 
ROOT
ATOM      1  C   UNL d   1      -2.327   0.040  -0.003  0.00  0.00     0.217 A 
ATOM      2  N   UNL d   1      -1.591   1.141   0.035  0.00  0.00    -0.330 N 
ATOM      3  HN  UNL d   1      -1.921   2.105   0.073  1.00  0.00     0.168 HD
ATOM      4  N   UNL d   1      -1.537  -1.081  -0.027  0.00  0.00    -0.330 N 
ATOM      5  C   UNL d   1      -0.288   0.702   0.013  0.00  0.00     0.061 A 
ATOM      6  C   UNL d   1      -0.226  -0.688  -0.021  0.00  0.00     0.061 A 
ATOM      7  C   UNL d   1       0.909   1.435   0.023  0.00  0.00     0.032 A 
ATOM      8  C   UNL d   1       0.970  -1.406  -0.039  0.00  0.00     0.032 A 
ATOM      9  C   UNL d   1       2.153  -0.657  -0.025  0.00  0.00     0.002 A 
ATOM     10  C   UNL d   1       2.127   0.738   0.004  0.00  0.00     0.002 A 
ATOM     11  H   UNL d   1      -1.889  -2.030  -0.038  0.00  0.00     0.168 HD
ENDROOT
BRANCH   1  12
ATOM     12  S   UNL d   1      -4.089  -0.077  -0.004  0.00  0.00     0.164 S 
ATOM     13  O   UNL d   1      -4.548   0.596  -1.197  0.00  0.00    -0.596 OA
ATOM     14  O   UNL d   1      -4.377  -1.460   0.298  0.00  0.00    -0.596 OA
BRANCH  12  15
ATOM     15  O   UNL d   1      -4.479   0.845   1.258  0.00  0.00    -0.290 OA
ATOM     16  H   UNL d   1      -4.520   1.776   0.950  0.00  0.00     0.232 HD
ENDBRANCH  12  15
ENDBRANCH   1  12
TORSDOF 2
