REMARK  6 active torsions:
REMARK  status: ('A' for Active; 'I' for Inactive)
REMARK    1  A    between atoms: C_6  and  C_2 
REMARK       I    between atoms: C_11  and  N_3 
REMARK    2  A    between atoms: C_20  and  C_11 
REMARK    3  A    between atoms: C_12  and  S_18 
REMARK    4  A    between atoms: C_19  and  C_15 
REMARK    5  A    between atoms: S_18  and  C_20 
REMARK    6  A    between atoms: O_33  and  C_29 
ROOT
ATOM      1  C   UNL d   1       1.873   0.938   1.323  0.00  0.00     0.049 A 
ATOM      2  C   UNL d   1       3.014   1.099   0.346  0.00  0.00     0.245 C 
ATOM      3  N   UNL d   1       3.366  -0.267  -0.158  0.00  0.00    -0.333 N 
ATOM      4  C   UNL d   1       1.120  -0.197   1.556  0.00  0.00    -0.019 A 
ATOM      5  N   UNL d   1       1.418   1.925   2.158  0.00  0.00    -0.356 N 
ATOM      6  C   UNL d   1       0.162   0.116   2.561  0.00  0.00    -0.001 A 
ATOM      7  C   UNL d   1       0.377   1.448   2.925  0.00  0.00     0.043 A 
ATOM      8  C   UNL d   1       4.651  -0.411  -0.674  0.00  0.00     0.230 C 
ATOM      9  C   UNL d   1       2.243  -1.195  -0.423  0.00  0.00     0.131 C 
ATOM     10  C   UNL d   1       1.396  -1.471   0.837  0.00  0.00     0.061 C 
ATOM     11  O   UNL d   1       5.416   0.557  -0.717  0.00  0.00    -0.273 OA
ATOM     12  C   UNL d   1      -0.865  -0.599   3.209  0.00  0.00     0.014 A 
ATOM     13  C   UNL d   1      -0.379   2.096   3.909  0.00  0.00     0.030 A 
ATOM     14  C   UNL d   1      -1.630   0.036   4.196  0.00  0.00     0.001 A 
ATOM     15  C   UNL d   1      -1.387   1.364   4.541  0.00  0.00     0.002 A 
ATOM     16  H   UNL d   1       1.771   2.871   2.212  0.00  0.00     0.166 HD
ENDROOT
BRANCH   8  17
ATOM     17  C   UNL d   1       5.125  -1.787  -1.121  0.00  0.00     0.185 C 
BRANCH  17  18
ATOM     18  S   UNL d   1       4.909  -1.950  -2.910  0.00  0.00    -0.085 SA
BRANCH  18  19
ATOM     19  C   UNL d   1       5.205  -3.685  -3.131  0.00  0.00     0.145 A 
ATOM     20  N   UNL d   1       5.053  -4.123  -4.386  0.00  0.00    -0.336 N 
ATOM     21  C   UNL d   1       5.082  -5.454  -4.618  0.00  0.00     0.045 A 
ATOM     22  HN  UNL d   1       4.918  -3.465  -5.153  1.00  0.00     0.168 HD
ATOM     23  C   UNL d   1       5.305  -6.347  -3.592  0.00  0.00     0.047 A 
ATOM     24  C   UNL d   1       5.479  -5.800  -2.340  0.00  0.00     0.092 A 
ATOM     25  N   UNL d   1       5.424  -4.481  -2.075  0.00  0.00    -0.347 N 
ATOM     26  HN  UNL d   1       5.542  -4.112  -1.132  1.00  0.00     0.167 HD
BRANCH  21  27
ATOM     27  C   UNL d   1       4.744  -5.844  -6.005  0.00  0.00    -0.009 A 
ATOM     28  C   UNL d   1       5.125  -7.063  -6.592  0.00  0.00     0.016 A 
ATOM     29  C   UNL d   1       4.736  -7.394  -7.903  0.00  0.00     0.037 A 
ATOM     30  C   UNL d   1       3.965  -6.508  -8.654  0.00  0.00     0.068 A 
ATOM     31  C   UNL d   1       3.579  -5.299  -8.094  0.00  0.00     0.037 A 
ATOM     32  C   UNL d   1       3.972  -4.969  -6.797  0.00  0.00     0.016 A 
BRANCH  30  33
ATOM     33  O   UNL d   1       3.499  -6.732  -9.920  0.00  0.00    -0.356 OA
ATOM     34  C   UNL d   1       4.332  -7.535 -10.743  0.00  0.00     0.210 C 
ENDBRANCH  30  33
ENDBRANCH  21  27
ENDBRANCH  18  19
ENDBRANCH  17  18
ENDBRANCH   8  17
BRANCH   2  35
ATOM     35  C   UNL d   1       2.756   2.169  -0.760  0.00  0.00     0.413 C 
ATOM     36  F   UNL d   1       1.544   2.767  -0.622  0.00  0.00    -0.168 F 
ATOM     37  F   UNL d   1       3.672   3.166  -0.696  0.00  0.00    -0.168 F 
ATOM     38  F   UNL d   1       2.790   1.654  -2.011  0.00  0.00    -0.168 F 
ENDBRANCH   2  35
TORSDOF 6
