REMARK  9 active torsions:
REMARK  status: ('A' for Active; 'I' for Inactive)
REMARK    1  A    between atoms: C_5  and  N_1 
REMARK       I    between atoms: N_2  and  C_3 
REMARK    2  A    between atoms: C_4  and  N_2 
REMARK    3  A    between atoms: C_3  and  C_6 
REMARK    4  A    between atoms: N_15  and  C_4 
REMARK    5  A    between atoms: O_19  and  C_9 
REMARK    6  A    between atoms: O_20  and  C_13 
REMARK    7  A    between atoms: C_21  and  N_15 
REMARK    8  A    between atoms: C_17  and  C_25 
REMARK    9  A    between atoms: C_25  and  C_21 
ROOT
ATOM      1  C   UNL d   1      -2.046   3.973   4.304  0.00  0.00     0.174 C 
ATOM      2  S   UNL d   1      -2.619   2.955   3.110  0.00  0.00    -0.041 SA
ENDROOT
BRANCH   1   3
ATOM      3  N   UNL d   1      -0.722   4.349   4.237  0.00  0.00    -0.300 N 
ATOM      4  C   UNL d   1       0.037   5.007   5.198  0.00  0.00     0.257 C 
ATOM      5  O   UNL d   1      -0.399   5.408   6.272  0.00  0.00    -0.267 OA
ATOM      6  H   UNL d   1      -0.241   3.941   3.447  0.00  0.00     0.171 HD
BRANCH   4   7
ATOM      7  C   UNL d   1       1.479   5.153   4.887  0.00  0.00     0.034 A 
ATOM      8  C   UNL d   1       1.919   5.518   3.611  0.00  0.00     0.053 A 
ATOM      9  C   UNL d   1       3.297   5.651   3.378  0.00  0.00     0.103 A 
ATOM     10  C   UNL d   1       4.227   5.411   4.399  0.00  0.00     0.036 A 
ATOM     11  C   UNL d   1       3.774   5.056   5.671  0.00  0.00     0.003 A 
ATOM     12  C   UNL d   1       2.406   4.939   5.918  0.00  0.00     0.017 A 
BRANCH   9  13
ATOM     13  N   UNL d   1       3.771   6.062   2.050  0.00  0.00    -0.116 N 
ATOM     14  O   UNL d   1       2.915   6.338   1.198  0.00  0.00    -0.532 OA
ATOM     15  O   UNL d   1       4.994   6.103   1.861  0.00  0.00    -0.532 OA
ENDBRANCH   9  13
ENDBRANCH   4   7
ENDBRANCH   1   3
BRANCH   1  16
ATOM     16  N   UNL d   1      -2.764   4.481   5.352  0.00  0.00    -0.367 N 
ATOM     17  H   UNL d   1      -2.200   4.997   6.029  0.00  0.00     0.161 HD
BRANCH  16  18
ATOM     18  C   UNL d   1      -4.020   3.930   5.853  0.00  0.00     0.126 C 
BRANCH  18  19
ATOM     19  C   UNL d   1      -4.696   4.844   6.877  0.00  0.00     0.058 C 
BRANCH  19  20
ATOM     20  C   UNL d   1      -5.859   4.152   7.547  0.00  0.00    -0.054 A 
ATOM     21  C   UNL d   1      -5.648   3.350   8.682  0.00  0.00     0.046 A 
ATOM     22  C   UNL d   1      -6.701   2.655   9.304  0.00  0.00     0.102 A 
ATOM     23  C   UNL d   1      -7.998   2.784   8.778  0.00  0.00     0.101 A 
ATOM     24  C   UNL d   1      -8.202   3.580   7.641  0.00  0.00     0.040 A 
ATOM     25  C   UNL d   1      -7.147   4.255   7.026  0.00  0.00     0.010 A 
BRANCH  22  26
ATOM     26  O   UNL d   1      -6.517   1.844  10.392  0.00  0.00    -0.353 OA
ATOM     27  C   UNL d   1      -5.209   1.720  10.933  0.00  0.00     0.210 C 
ENDBRANCH  22  26
BRANCH  23  28
ATOM     28  O   UNL d   1      -9.166   2.217   9.221  0.00  0.00    -0.353 OA
ATOM     29  C   UNL d   1      -9.149   1.431  10.402  0.00  0.00     0.210 C 
ENDBRANCH  23  28
ENDBRANCH  19  20
ENDBRANCH  18  19
ENDBRANCH  16  18
ENDBRANCH   1  16
TORSDOF 9
