REMARK  5 active torsions:
REMARK  status: ('A' for Active; 'I' for Inactive)
REMARK    1  A    between atoms: C_11  and  C_1 
REMARK    2  A    between atoms: S_13  and  C_5 
REMARK    3  A    between atoms: C_10  and  C_12 
REMARK    4  A    between atoms: C_17  and  S_13 
REMARK    5  A    between atoms: C_18  and  C_17 
ROOT
ATOM      1  C   UNL d   1      -0.316  -1.022   0.075  0.00  0.00     0.192 A 
ATOM      2  O   UNL d   1      -1.167   0.059   0.042  0.00  0.00    -0.266 OA
ATOM      3  N   UNL d   1       0.952  -0.663   0.132  0.00  0.00    -0.275 N 
ATOM      4  HN  UNL d   1       1.760  -1.284   0.177  1.00  0.00     0.189 HD
ATOM      5  C   UNL d   1      -0.287   1.112   0.066  0.00  0.00     0.204 A 
ATOM      6  N   UNL d   1       0.969   0.713   0.118  0.00  0.00    -0.272 N 
ATOM      7  HN  UNL d   1       1.795   1.311   0.142  1.00  0.00     0.189 HD
ENDROOT
BRANCH   1   8
ATOM      8  C   UNL d   1      -0.893  -2.363   0.058  0.00  0.00     0.086 A 
ATOM      9  N   UNL d   1      -2.242  -2.456  -0.071  0.00  0.00    -0.349 N 
ATOM     10  C   UNL d   1      -2.806  -3.701  -0.084  0.00  0.00     0.117 A 
ATOM     11  HN  UNL d   1      -2.818  -1.619  -0.157  1.00  0.00     0.166 HD
ATOM     12  C   UNL d   1      -2.037  -4.861   0.042  0.00  0.00     0.034 A 
ATOM     13  C   UNL d   1      -0.658  -4.750   0.171  0.00  0.00     0.005 A 
ATOM     14  C   UNL d   1      -0.076  -3.486   0.174  0.00  0.00     0.034 A 
BRANCH  10  15
ATOM     15  C   UNL d   1      -4.316  -3.844  -0.231  0.00  0.00     0.432 C 
ATOM     16  F   UNL d   1      -4.978  -2.665  -0.403  0.00  0.00    -0.165 F 
ATOM     17  F   UNL d   1      -4.664  -4.624  -1.297  0.00  0.00    -0.165 F 
ATOM     18  F   UNL d   1      -4.889  -4.438   0.856  0.00  0.00    -0.165 F 
ENDBRANCH  10  15
ENDBRANCH   1   8
BRANCH   5  19
ATOM     19  S   UNL d   1      -0.738   2.786  -0.018  0.00  0.00    -0.080 SA
BRANCH  19  20
ATOM     20  C   UNL d   1      -2.343   2.777   0.820  0.00  0.00     0.121 C 
BRANCH  20  21
ATOM     21  C   UNL d   1      -2.902   4.178   0.945  0.00  0.00    -0.049 A 
ATOM     22  C   UNL d   1      -3.664   4.737  -0.093  0.00  0.00     0.008 A 
ATOM     23  C   UNL d   1      -4.164   6.037   0.012  0.00  0.00     0.001 A 
ATOM     24  C   UNL d   1      -3.907   6.796   1.151  0.00  0.00     0.000 A 
ATOM     25  C   UNL d   1      -3.144   6.257   2.187  0.00  0.00     0.001 A 
ATOM     26  C   UNL d   1      -2.642   4.958   2.082  0.00  0.00     0.008 A 
ENDBRANCH  20  21
ENDBRANCH  19  20
ENDBRANCH   5  19
TORSDOF 5
