REMARK  2 active torsions:
REMARK  status: ('A' for Active; 'I' for Inactive)
REMARK    1  A    between atoms: C_2  and  C_1 
REMARK       I    between atoms: N_3  and  C_1 
REMARK    2  A    between atoms: C_9  and  N_3 
ROOT
ATOM      1  C   UNL d   1       1.103  -0.166  -0.048  0.00  0.00     0.262 C 
ATOM      2  N   UNL d   1       0.339   0.746  -0.757  0.00  0.00    -0.322 N 
ATOM      3  O   UNL d   1       2.310  -0.324  -0.198  0.00  0.00    -0.267 OA
ATOM      4  H   UNL d   1      -0.617   0.904  -0.455  0.00  0.00     0.169 HD
ENDROOT
BRANCH   1   5
ATOM      5  C   UNL d   1       0.409  -0.992   0.971  0.00  0.00     0.109 A 
ATOM      6  C   UNL d   1       0.983  -2.202   1.376  0.00  0.00     0.135 A 
ATOM      7  F   UNL d   1       2.112  -2.661   0.819  0.00  0.00    -0.205 F 
ATOM      8  C   UNL d   1       0.386  -2.997   2.355  0.00  0.00     0.043 A 
ATOM      9  C   UNL d   1      -0.807  -2.593   2.949  0.00  0.00     0.006 A 
ATOM     10  C   UNL d   1      -1.401  -1.398   2.548  0.00  0.00     0.043 A 
ATOM     11  C   UNL d   1      -0.795  -0.610   1.564  0.00  0.00     0.135 A 
ATOM     12  F   UNL d   1      -1.407   0.530   1.206  0.00  0.00    -0.205 F 
ENDBRANCH   1   5
BRANCH   2  13
ATOM     13  C   UNL d   1       0.786   1.514  -1.859  0.00  0.00     0.050 A 
ATOM     14  C   UNL d   1       2.022   1.363  -2.487  0.00  0.00     0.117 A 
ATOM     15  N   UNL d   1       2.428   2.083  -3.565  0.00  0.00    -0.373 N 
ATOM     16  C   UNL d   1       1.569   3.005  -4.040  0.00  0.00     0.088 A 
ATOM     17  HN  UNL d   1       3.341   1.933  -3.995  1.00  0.00     0.164 HD
ATOM     18  C   UNL d   1       0.321   3.239  -3.489  0.00  0.00     0.019 A 
ATOM     19  C   UNL d   1      -0.075   2.478  -2.387  0.00  0.00     0.032 A 
ENDBRANCH   2  13
TORSDOF 2
