REMARK  2 active torsions:
REMARK  status: ('A' for Active; 'I' for Inactive)
REMARK    1  A    between atoms: C_10  and  C_5 
REMARK    2  A    between atoms: O_13  and  C_11 
ROOT
ATOM      1  C   UNL d   1       0.131  -0.385   0.140  0.00  0.00     0.046 A 
ATOM      2  C   UNL d   1       1.363  -1.190   0.172  0.00  0.00     0.165 C 
ATOM      3  O   UNL d   1       1.432   1.677   0.144  0.00  0.00    -0.340 OA
ATOM      4  C   UNL d   1       0.238   1.005   0.168  0.00  0.00     0.083 A 
ATOM      5  C   UNL d   1       2.525   0.927  -0.425  0.00  0.00     0.169 C 
ATOM      6  C   UNL d   1       2.656  -0.430   0.268  0.00  0.00     0.121 C 
ATOM      7  C   UNL d   1      -1.123  -1.003   0.106  0.00  0.00     0.054 A 
ATOM      8  O   UNL d   1       1.314  -2.415   0.211  0.00  0.00    -0.292 OA
ATOM      9  C   UNL d   1      -0.915   1.790   0.193  0.00  0.00     0.040 A 
ATOM     10  C   UNL d   1      -2.263  -0.207   0.096  0.00  0.00     0.066 A 
ATOM     11  C   UNL d   1      -2.169   1.181   0.144  0.00  0.00     0.039 A 
ENDROOT
BRANCH   5  12
ATOM     12  C   UNL d   1       2.518   0.901  -1.956  0.00  0.00    -0.029 A 
ATOM     13  C   UNL d   1       1.579   1.626  -2.710  0.00  0.00     0.010 A 
ATOM     14  C   UNL d   1       1.599   1.608  -4.106  0.00  0.00     0.001 A 
ATOM     15  C   UNL d   1       2.579   0.886  -4.779  0.00  0.00     0.000 A 
ATOM     16  C   UNL d   1       3.540   0.188  -4.055  0.00  0.00     0.001 A 
ATOM     17  C   UNL d   1       3.514   0.198  -2.658  0.00  0.00     0.010 A 
ENDBRANCH   5  12
BRANCH  10  18
ATOM     18  O   UNL d   1      -3.510  -0.754   0.039  0.00  0.00    -0.361 OA
ATOM     19  H   UNL d   1      -3.427  -1.721  -0.018  0.00  0.00     0.217 HD
ENDBRANCH  10  18
TORSDOF 2
