REMARK  4 active torsions:
REMARK  status: ('A' for Active; 'I' for Inactive)
REMARK    1  A    between atoms: N_6  and  C_1 
REMARK       I    between atoms: C_4  and  N_6 
REMARK    2  A    between atoms: C_5  and  C_4 
REMARK    3  A    between atoms: C_10  and  C_7 
REMARK    4  A    between atoms: O_22  and  C_11 
ROOT
ATOM      1  C   UNL d   1       0.319  -1.161  -0.205  0.00  0.00     0.151 A 
ATOM      2  N   UNL d   1       1.454  -0.539  -0.360  0.00  0.00    -0.335 N 
ATOM      3  HN  UNL d   1       2.339  -0.984  -0.605  1.00  0.00     0.168 HD
ATOM      4  C   UNL d   1       1.277   0.817  -0.143  0.00  0.00     0.051 A 
ATOM      5  S   UNL d   1      -1.042  -0.191   0.139  0.00  0.00    -0.063 SA
ATOM      6  C   UNL d   1      -0.031   1.199   0.093  0.00  0.00     0.083 A 
ENDROOT
BRANCH   1   7
ATOM      7  N   UNL d   1       0.064  -2.503  -0.234  0.00  0.00    -0.303 N 
ATOM      8  C   UNL d   1       1.016  -3.413  -0.633  0.00  0.00     0.260 C 
ATOM      9  O   UNL d   1       2.093  -3.179  -1.172  0.00  0.00    -0.267 OA
ATOM     10  H   UNL d   1      -0.874  -2.785   0.000  0.00  0.00     0.171 HD
BRANCH   8  11
ATOM     11  C   UNL d   1       0.636  -4.841  -0.468  0.00  0.00     0.066 A 
ATOM     12  C   UNL d   1       1.106  -5.793  -1.385  0.00  0.00     0.081 A 
ATOM     13  C   UNL d   1       0.721  -7.127  -1.281  0.00  0.00     0.039 A 
ATOM     14  C   UNL d   1      -0.116  -7.530  -0.239  0.00  0.00     0.022 A 
ATOM     15  C   UNL d   1      -0.547  -6.595   0.701  0.00  0.00     0.012 A 
ATOM     16  C   UNL d   1      -0.174  -5.254   0.598  0.00  0.00     0.039 A 
ATOM     17 BR   UNL d   1      -1.655  -7.146   2.131  0.00  0.00    -0.051 Br
BRANCH  12  18
ATOM     18  O   UNL d   1       1.948  -5.481  -2.418  0.00  0.00    -0.360 OA
ATOM     19  H   UNL d   1       2.299  -4.574  -2.262  0.00  0.00     0.217 HD
ENDBRANCH  12  18
ENDBRANCH   8  11
ENDBRANCH   1   7
BRANCH   4  20
ATOM     20  C   UNL d   1       2.420   1.720  -0.159  0.00  0.00    -0.008 A 
ATOM     21  C   UNL d   1       2.469   2.865   0.650  0.00  0.00     0.026 A 
ATOM     22  C   UNL d   1       3.609   3.689   0.671  0.00  0.00    -0.025 A 
ATOM     23  C   UNL d   1       3.677   4.825   1.494  0.00  0.00     0.012 A 
ATOM     24  C   UNL d   1       4.716   3.363  -0.145  0.00  0.00    -0.026 A 
ATOM     25  C   UNL d   1       4.815   5.633   1.503  0.00  0.00     0.001 A 
ATOM     26  C   UNL d   1       5.900   5.317   0.690  0.00  0.00     0.001 A 
ATOM     27  C   UNL d   1       5.852   4.186  -0.126  0.00  0.00     0.012 A 
ATOM     28  C   UNL d   1       4.663   2.216  -0.949  0.00  0.00     0.013 A 
ATOM     29  C   UNL d   1       3.529   1.401  -0.950  0.00  0.00     0.014 A 
ENDBRANCH   4  20
TORSDOF 4
