REMARK  4 active torsions:
REMARK  status: ('A' for Active; 'I' for Inactive)
REMARK    1  A    between atoms: C_10  and  N_1 
REMARK    2  A    between atoms: C_13  and  C_2 
REMARK    3  A    between atoms: C_9  and  C_7 
REMARK    4  A    between atoms: N_15  and  C_12 
ROOT
ATOM      1  N   UNL d   1       1.489  -1.064   0.027  0.00  0.00    -0.262 N 
ATOM      2  C   UNL d   1       0.151  -1.381  -0.033  0.00  0.00     0.126 A 
ATOM      3  N   UNL d   1      -0.650  -0.355  -0.091  0.00  0.00    -0.337 N 
ATOM      4  HN  UNL d   1      -1.668  -0.364  -0.150  1.00  0.00     0.167 HD
ATOM      5  C   UNL d   1       0.178   0.742  -0.056  0.00  0.00     0.104 A 
ATOM      6  C   UNL d   1       1.604   0.302  -0.046  0.00  0.00     0.280 A 
ATOM      7  C   UNL d   1      -0.190   2.026   0.003  0.00  0.00     0.048 C 
ATOM      8  O   UNL d   1       2.588   1.015  -0.133  0.00  0.00    -0.265 OA
ENDROOT
BRANCH   7   9
ATOM      9  C   UNL d   1      -1.603   2.421   0.070  0.00  0.00    -0.012 A 
ATOM     10  C   UNL d   1      -2.303   2.529   1.277  0.00  0.00     0.046 A 
ATOM     11  C   UNL d   1      -3.669   2.850   1.286  0.00  0.00     0.054 A 
ATOM     12 CL   UNL d   1      -1.524   2.277   2.804  0.00  0.00    -0.083 Cl
ATOM     13  C   UNL d   1      -4.388   3.081   0.102  0.00  0.00     0.031 A 
ATOM     14  C   UNL d   1      -3.660   2.983  -1.094  0.00  0.00     0.030 A 
ATOM     15  C   UNL d   1      -2.295   2.655  -1.118  0.00  0.00     0.015 A 
BRANCH  13  16
ATOM     16  N   UNL d   1      -5.737   3.395   0.109  0.00  0.00    -0.390 N 
ATOM     17  C   UNL d   1      -6.391   4.017   1.255  0.00  0.00     0.149 C 
ATOM     18  C   UNL d   1      -6.617   3.047  -1.002  0.00  0.00     0.149 C 
ENDBRANCH  13  16
ENDBRANCH   7   9
BRANCH   1  19
ATOM     19  C   UNL d   1       2.589  -1.911  -0.165  0.00  0.00     0.044 A 
ATOM     20  C   UNL d   1       3.323  -2.340   0.947  0.00  0.00     0.033 A 
ATOM     21  C   UNL d   1       4.382  -3.231   0.781  0.00  0.00     0.044 A 
ATOM     22  C   UNL d   1       4.736  -3.642  -0.499  0.00  0.00     0.116 A 
ATOM     23  C   UNL d   1       4.047  -3.182  -1.617  0.00  0.00     0.044 A 
ATOM     24  F   UNL d   1       5.756  -4.496  -0.657  0.00  0.00    -0.206 F 
ATOM     25  C   UNL d   1       2.961  -2.318  -1.453  0.00  0.00     0.033 A 
ENDBRANCH   1  19
BRANCH   2  26
ATOM     26  C   UNL d   1      -0.382  -2.764   0.004  0.00  0.00     0.009 A 
ATOM     27  C   UNL d   1       0.199  -3.770   0.783  0.00  0.00     0.015 A 
ATOM     28  C   UNL d   1      -0.385  -5.037   0.855  0.00  0.00     0.001 A 
ATOM     29  C   UNL d   1      -1.573  -5.298   0.179  0.00  0.00     0.000 A 
ATOM     30  C   UNL d   1      -2.179  -4.293  -0.573  0.00  0.00     0.001 A 
ATOM     31  C   UNL d   1      -1.588  -3.030  -0.659  0.00  0.00     0.015 A 
ENDBRANCH   2  26
TORSDOF 4
