REMARK  3 active torsions:
REMARK  status: ('A' for Active; 'I' for Inactive)
REMARK    1  A    between atoms: S_2  and  C_1 
REMARK    2  A    between atoms: C_7  and  S_2 
REMARK    3  A    between atoms: C_5  and  C_4 
REMARK       I    between atoms: N_10  and  C_5 
ROOT
ATOM      1  C   UNL d   1       1.443  -1.218  -0.456  0.00  0.00     0.048 C 
ATOM      2  C   UNL d   1       0.119  -0.731  -0.149  0.00  0.00     0.009 A 
ATOM      3  C   UNL d   1      -1.124  -1.453  -0.155  0.00  0.00     0.044 A 
ATOM      4  C   UNL d   1       0.015   0.662   0.134  0.00  0.00    -0.024 A 
ATOM      5  C   UNL d   1       2.570  -0.389  -0.290  0.00  0.00     0.022 C 
ATOM      6  C   UNL d   1      -2.365  -0.802  -0.034  0.00  0.00     0.018 A 
ATOM      7  C   UNL d   1       2.431   0.938   0.083  0.00  0.00     0.002 C 
ATOM      8  C   UNL d   1      -2.421   0.567   0.158  0.00  0.00     0.002 A 
ATOM      9  C   UNL d   1       1.159   1.463   0.261  0.00  0.00     0.012 C 
ATOM     10  C   UNL d   1      -1.236   1.284   0.270  0.00  0.00     0.012 A 
ENDROOT
BRANCH   1  11
ATOM     11  S   UNL d   1       1.755  -2.862  -1.167  0.00  0.00     0.086 S 
ATOM     12  O   UNL d   1       3.241  -3.000  -1.326  0.00  0.00    -0.247 OA
BRANCH  11  13
ATOM     13  C   UNL d   1       1.125  -2.599  -2.854  0.00  0.00     0.036 A 
ATOM     14  C   UNL d   1       0.583  -1.405  -3.348  0.00  0.00     0.021 A 
ATOM     15  C   UNL d   1       0.020  -1.348  -4.624  0.00  0.00     0.001 A 
ATOM     16  C   UNL d   1       0.017  -2.475  -5.440  0.00  0.00     0.000 A 
ATOM     17  C   UNL d   1       0.594  -3.658  -4.985  0.00  0.00     0.001 A 
ATOM     18  C   UNL d   1       1.143  -3.716  -3.703  0.00  0.00     0.021 A 
ENDBRANCH  11  13
ENDBRANCH   1  11
BRANCH   3  19
ATOM     19  C   UNL d   1      -1.240  -2.931  -0.221  0.00  0.00     0.252 C 
ATOM     20  O   UNL d   1      -1.954  -3.451  -1.067  0.00  0.00    -0.268 OA
ATOM     21  N   UNL d   1      -0.576  -3.622   0.765  0.00  0.00    -0.361 N 
ATOM     22  C   UNL d   1      -0.728  -5.051   0.880  0.00  0.00     0.149 C 
ATOM     23  H   UNL d   1      -0.106  -3.118   1.507  0.00  0.00     0.162 HD
ENDBRANCH   3  19
TORSDOF 3
