REMARK  6 active torsions:
REMARK  status: ('A' for Active; 'I' for Inactive)
REMARK    1  A    between atoms: N_2  and  C_1 
REMARK    2  A    between atoms: N_5  and  C_1 
REMARK    3  A    between atoms: C_8  and  N_2 
REMARK    4  A    between atoms: C_4  and  C_7 
REMARK    5  A    between atoms: O_10  and  C_4 
REMARK    6  A    between atoms: C_7  and  N_5 
ROOT
ATOM      1  C   UNL d   1       1.340   0.137  -0.070  0.00  0.00     0.172 C 
ATOM      2  S   UNL d   1       2.930  -0.194  -0.456  0.00  0.00    -0.041 SA
ENDROOT
BRANCH   1   3
ATOM      3  N   UNL d   1       0.544   1.166  -0.508  0.00  0.00    -0.333 N 
ATOM      4  H   UNL d   1      -0.434   0.926  -0.592  0.00  0.00     0.168 HD
BRANCH   3   5
ATOM      5  C   UNL d   1       0.892   2.379  -1.147  0.00  0.00     0.034 A 
ATOM      6  C   UNL d   1      -0.092   2.996  -1.935  0.00  0.00     0.032 A 
ATOM      7  C   UNL d   1       0.171   4.202  -2.591  0.00  0.00     0.044 A 
ATOM      8  C   UNL d   1       1.413   4.804  -2.442  0.00  0.00     0.116 A 
ATOM      9  C   UNL d   1       2.387   4.226  -1.641  0.00  0.00     0.044 A 
ATOM     10  F   UNL d   1       1.667   5.960  -3.068  0.00  0.00    -0.206 F 
ATOM     11  C   UNL d   1       2.125   3.018  -0.988  0.00  0.00     0.032 A 
ENDBRANCH   3   5
ENDBRANCH   1   3
BRANCH   1  12
ATOM     12  N   UNL d   1       0.736  -0.771   0.757  0.00  0.00    -0.357 N 
ATOM     13  H   UNL d   1       1.274  -1.633   0.834  0.00  0.00     0.162 HD
BRANCH  12  14
ATOM     14  C   UNL d   1      -0.661  -0.822   1.200  0.00  0.00     0.231 C 
BRANCH  14  15
ATOM     15  C   UNL d   1      -0.793  -1.541   2.536  0.00  0.00     0.158 C 
ATOM     16  O   UNL d   1      -1.843  -1.998   2.965  0.00  0.00    -0.649 OA
BRANCH  15  17
ATOM     17  O   UNL d   1       0.355  -1.541   3.257  0.00  0.00    -0.775 OA
ATOM     18  H   UNL d   1       1.050  -1.017   2.807  0.00  0.00     0.167 HD
ENDBRANCH  15  17
ENDBRANCH  14  15
ENDBRANCH  12  14
ENDBRANCH   1  12
TORSDOF 6
