REMARK  2 active torsions:
REMARK  status: ('A' for Active; 'I' for Inactive)
REMARK    1  A    between atoms: C_7  and  C_1 
REMARK    2  A    between atoms: C_8  and  C_7 
ROOT
ATOM      1  C   UNL d   1      -1.272   0.787  -0.214  0.00  0.00     0.028 C 
ATOM      2  C   UNL d   1      -0.131   1.561   0.108  0.00  0.00    -0.041 C 
ATOM      3  C   UNL d   1      -1.168  -0.615  -0.393  0.00  0.00    -0.041 C 
ATOM      4  C   UNL d   1       1.139   0.936   0.143  0.00  0.00    -0.049 C 
ATOM      5  C   UNL d   1       0.064  -1.259  -0.117  0.00  0.00    -0.049 C 
ATOM      6  C   UNL d   1       1.232  -0.480   0.076  0.00  0.00    -0.049 C 
ATOM      7  C   UNL d   1      -0.254   3.050   0.347  0.00  0.00     0.050 C 
ATOM      8  C   UNL d   1      -2.332  -1.437  -0.901  0.00  0.00     0.050 C 
ATOM      9  C   UNL d   1       2.407   1.756   0.264  0.00  0.00     0.049 C 
ATOM     10  C   UNL d   1       0.143  -2.769  -0.093  0.00  0.00     0.049 C 
ATOM     11  C   UNL d   1       2.601  -1.126   0.159  0.00  0.00     0.049 C 
ENDROOT
BRANCH   1  12
ATOM     12  C   UNL d   1      -2.562   1.498  -0.474  0.00  0.00     0.193 C 
ATOM     13  O   UNL d   1      -2.572   2.425  -1.281  0.00  0.00    -0.287 OA
BRANCH  12  14
ATOM     14  C   UNL d   1      -3.844   1.093   0.169  0.00  0.00     0.015 A 
ATOM     15  C   UNL d   1      -5.037   1.413  -0.500  0.00  0.00     0.017 A 
ATOM     16  C   UNL d   1      -6.266   0.971  -0.007  0.00  0.00     0.025 A 
ATOM     17  C   UNL d   1      -6.307   0.216   1.162  0.00  0.00     0.034 A 
ATOM     18  C   UNL d   1      -5.131  -0.073   1.857  0.00  0.00     0.025 A 
ATOM     19 CL   UNL d   1      -7.814  -0.372   1.744  0.00  0.00    -0.084 Cl
ATOM     20  C   UNL d   1      -3.898   0.373   1.368  0.00  0.00     0.017 A 
ENDBRANCH  12  14
ENDBRANCH   1  12
TORSDOF 2
