REMARK  5 active torsions:
REMARK  status: ('A' for Active; 'I' for Inactive)
REMARK    1  A    between atoms: N_2  and  C_1 
REMARK    2  A    between atoms: N_4  and  C_1 
REMARK       I    between atoms: C_3  and  N_2 
REMARK    3  A    between atoms: O_8  and  C_3 
REMARK    4  A    between atoms: C_7  and  N_4 
REMARK    5  A    between atoms: C_12  and  O_8 
ROOT
ATOM      1  C   UNL d   1       1.021   0.086   0.001  0.00  0.00     0.176 C 
ATOM      2  S   UNL d   1       2.583  -0.505  -0.013  0.00  0.00    -0.041 SA
ENDROOT
BRANCH   1   3
ATOM      3  N   UNL d   1       0.519   1.105  -0.764  0.00  0.00    -0.279 N 
ATOM      4  C   UNL d   1       1.105   1.747  -1.826  0.00  0.00     0.366 C 
ATOM      5  O   UNL d   1       1.943   1.291  -2.589  0.00  0.00    -0.238 OA
ATOM      6  H   UNL d   1      -0.208   1.654  -0.342  0.00  0.00     0.173 HD
BRANCH   4   7
ATOM      7  O   UNL d   1       0.530   2.970  -1.960  0.00  0.00    -0.304 OA
BRANCH   7   8
ATOM      8  C   UNL d   1       1.130   3.815  -2.957  0.00  0.00     0.176 C 
ATOM      9  C   UNL d   1       2.272   4.584  -2.319  0.00  0.00     0.034 C 
ENDBRANCH   7   8
ENDBRANCH   4   7
ENDBRANCH   1   3
BRANCH   1  10
ATOM     10  N   UNL d   1       0.150  -0.531   0.848  0.00  0.00    -0.359 N 
ATOM     11  H   UNL d   1       0.617  -1.252   1.391  0.00  0.00     0.162 HD
BRANCH  10  12
ATOM     12  C   UNL d   1      -1.325  -0.498   0.966  0.00  0.00     0.021 C 
ATOM     13  C   UNL d   1      -2.014  -0.544  -0.408  0.00  0.00     0.037 C 
ATOM     14  C   UNL d   1      -1.743  -1.763   1.741  0.00  0.00     0.037 C 
ATOM     15  C   UNL d   1      -1.790   0.731   1.761  0.00  0.00     0.037 C 
ENDBRANCH  10  12
ENDBRANCH   1  10
TORSDOF 5
