REMARK  3 active torsions:
REMARK  status: ('A' for Active; 'I' for Inactive)
REMARK    1  A    between atoms: C_8  and  N_1 
REMARK    2  A    between atoms: C_12  and  N_3 
REMARK    3  A    between atoms: C_13  and  C_8 
ROOT
ATOM      1  N   UNL d   1      -0.653   1.166  -0.041  0.00  0.00    -0.261 N 
ATOM      2  C   UNL d   1      -1.345  -0.030  -0.252  0.00  0.00     0.332 C 
ATOM      3  N   UNL d   1      -0.603  -1.202  -0.028  0.00  0.00    -0.304 N 
ATOM      4  C   UNL d   1       0.723   1.255   0.100  0.00  0.00     0.274 C 
ATOM      5  C   UNL d   1       1.466  -0.022   0.096  0.00  0.00     0.128 C 
ATOM      6  C   UNL d   1       0.773  -1.163   0.069  0.00  0.00     0.124 C 
ATOM      7  C   UNL d   1       2.881  -0.023   0.130  0.00  0.00     0.106 C 
ATOM      8  N   UNL d   1       4.043  -0.100   0.139  0.00  0.00    -0.191 NA
ATOM      9  O   UNL d   1      -2.520  -0.063  -0.618  0.00  0.00    -0.246 OA
ATOM     10  O   UNL d   1       1.334   2.317   0.202  0.00  0.00    -0.266 OA
ENDROOT
BRANCH   1  11
ATOM     11  C   UNL d   1      -1.420   2.411  -0.027  0.00  0.00     0.175 C 
BRANCH  11  12
ATOM     12  C   UNL d   1      -2.083   2.652   1.317  0.00  0.00    -0.040 A 
ATOM     13  C   UNL d   1      -1.424   3.357   2.336  0.00  0.00     0.009 A 
ATOM     14  C   UNL d   1      -2.010   3.489   3.599  0.00  0.00     0.001 A 
ATOM     15  C   UNL d   1      -3.256   2.921   3.857  0.00  0.00     0.000 A 
ATOM     16  C   UNL d   1      -3.934   2.248   2.844  0.00  0.00     0.001 A 
ATOM     17  C   UNL d   1      -3.353   2.119   1.582  0.00  0.00     0.009 A 
ENDBRANCH  11  12
ENDBRANCH   1  11
BRANCH   3  18
ATOM     18  C   UNL d   1      -1.310  -2.507  -0.057  0.00  0.00     0.086 C 
ATOM     19  C   UNL d   1      -1.217  -3.167  -1.433  0.00  0.00     0.032 C 
ATOM     20  C   UNL d   1      -0.856  -3.485   1.039  0.00  0.00     0.032 C 
ENDBRANCH   3  18
TORSDOF 3
