REMARK  7 active torsions:
REMARK  status: ('A' for Active; 'I' for Inactive)
REMARK    1  A    between atoms: C_12  and  N_7 
REMARK    2  A    between atoms: N_11  and  C_10 
REMARK    3  A    between atoms: C_19  and  N_11 
REMARK    4  A    between atoms: C_15  and  C_12 
REMARK    5  A    between atoms: O_20  and  C_15 
REMARK    6  A    between atoms: C_21  and  C_19 
REMARK    7  A    between atoms: C_22  and  O_20 
ROOT
ATOM      1  C   UNL d   1      -0.249  -0.835  -0.036  0.00  0.00     0.160 A 
ATOM      2  C   UNL d   1      -0.568   0.487  -0.040  0.00  0.00     0.165 A 
ATOM      3  N   UNL d   1      -1.348  -1.616  -0.036  0.00  0.00    -0.174 N 
ATOM      4  HN  UNL d   1      -1.377  -2.636  -0.025  1.00  0.00     0.186 HD
ATOM      5  N   UNL d   1       1.048  -1.282  -0.009  0.00  0.00    -0.287 N 
ATOM      6  N   UNL d   1       1.738   1.002  -0.006  0.00  0.00    -0.269 N 
ATOM      7  N   UNL d   1      -1.953   0.527  -0.065  0.00  0.00    -0.165 N 
ATOM      8  C   UNL d   1       2.091  -0.358   0.000  0.00  0.00     0.332 A 
ATOM      9  C   UNL d   1       0.429   1.506   0.001  0.00  0.00     0.282 A 
ATOM     10  C   UNL d   1      -2.378  -0.792  -0.053  0.00  0.00     0.683 A 
ATOM     11  O   UNL d   1       3.269  -0.727   0.018  0.00  0.00    -0.246 OA
ATOM     12  O   UNL d   1       0.168   2.704   0.048  0.00  0.00    -0.265 OA
ATOM     13  C   UNL d   1       1.365  -2.697   0.004  0.00  0.00     0.163 C 
ATOM     14  C   UNL d   1       2.804   1.986   0.005  0.00  0.00     0.164 C 
ENDROOT
BRANCH  10  15
ATOM     15  N   UNL d   1      -3.664  -1.189  -0.059  0.00  0.00    -0.222 N 
ATOM     16  H   UNL d   1      -4.448  -0.535  -0.009  0.00  0.00     0.178 HD
BRANCH  15  17
ATOM     17  C   UNL d   1      -3.975  -2.506   0.483  0.00  0.00     0.176 C 
BRANCH  17  18
ATOM     18  C   UNL d   1      -5.202  -3.123  -0.151  0.00  0.00    -0.040 A 
ATOM     19  C   UNL d   1      -5.464  -3.008  -1.524  0.00  0.00     0.009 A 
ATOM     20  C   UNL d   1      -6.543  -3.682  -2.102  0.00  0.00     0.001 A 
ATOM     21  C   UNL d   1      -7.364  -4.490  -1.317  0.00  0.00     0.000 A 
ATOM     22  C   UNL d   1      -7.111  -4.622   0.046  0.00  0.00     0.001 A 
ATOM     23  C   UNL d   1      -6.036  -3.945   0.625  0.00  0.00     0.009 A 
ENDBRANCH  17  18
ENDBRANCH  15  17
ENDBRANCH  10  15
BRANCH   7  24
ATOM     24  C   UNL d   1      -2.724   1.760   0.053  0.00  0.00     0.259 C 
BRANCH  24  25
ATOM     25  C   UNL d   1      -4.074   1.792  -0.609  0.00  0.00     0.277 C 
ATOM     26  O   UNL d   1      -5.006   1.041  -0.348  0.00  0.00    -0.263 OA
BRANCH  25  27
ATOM     27  O   UNL d   1      -4.131   2.806  -1.519  0.00  0.00    -0.321 OA
BRANCH  27  28
ATOM     28  C   UNL d   1      -5.281   2.821  -2.378  0.00  0.00     0.174 C 
ATOM     29  C   UNL d   1      -4.921   2.067  -3.643  0.00  0.00     0.034 C 
ENDBRANCH  27  28
ENDBRANCH  25  27
ENDBRANCH  24  25
ENDBRANCH   7  24
TORSDOF 7
