REMARK  7 active torsions:
REMARK  status: ('A' for Active; 'I' for Inactive)
REMARK    1  A    between atoms: C_7  and  C_1 
REMARK    2  A    between atoms: C_14  and  N_2 
REMARK    3  A    between atoms: S_3  and  C_9 
REMARK    4  A    between atoms: N_17  and  S_3 
REMARK    5  A    between atoms: C_18  and  C_4 
REMARK       I    between atoms: N_10  and  C_7 
REMARK    6  A    between atoms: C_15  and  N_10 
REMARK    7  A    between atoms: C_24  and  C_18 
ROOT
ATOM      1  C   UNL d   1      -0.714   2.444   0.121  0.00  0.00     0.259 C 
ATOM      2  N   UNL d   1       0.138   3.491   0.401  0.00  0.00    -0.323 N 
ATOM      3  O   UNL d   1      -1.902   2.578  -0.138  0.00  0.00    -0.267 OA
ATOM      4  H   UNL d   1       1.085   3.266   0.640  0.00  0.00     0.169 HD
ENDROOT
BRANCH   1   5
ATOM      5  C   UNL d   1      -0.169   1.082   0.151  0.00  0.00     0.073 C 
ATOM      6  C   UNL d   1       1.094   0.497   0.329  0.00  0.00     0.051 C 
ATOM      7  N   UNL d   1       0.861  -0.894   0.265  0.00  0.00    -0.260 N 
ATOM      8  N   UNL d   1      -0.462  -1.177   0.244  0.00  0.00    -0.304 N 
ATOM      9  C   UNL d   1      -1.051  -0.016   0.030  0.00  0.00     0.126 C 
ATOM     10  HN  UNL d   1      -0.906  -2.087   0.367  1.00  0.00     0.186 HD
BRANCH   6  11
ATOM     11  C   UNL d   1       2.413   1.086   0.762  0.00  0.00     0.060 C 
BRANCH  11  12
ATOM     12  C   UNL d   1       3.394   1.580  -0.308  0.00  0.00     0.002 C 
ATOM     13  C   UNL d   1       2.898   2.623  -1.293  0.00  0.00     0.005 C 
ENDBRANCH  11  12
ENDBRANCH   6  11
BRANCH   7  14
ATOM     14  C   UNL d   1       1.731  -2.014   0.128  0.00  0.00     0.056 A 
ATOM     15  C   UNL d   1       1.296  -3.268   0.598  0.00  0.00     0.031 A 
ATOM     16  C   UNL d   1       1.990  -4.432   0.266  0.00  0.00     0.002 A 
ATOM     17  C   UNL d   1       3.119  -4.356  -0.543  0.00  0.00     0.000 A 
ATOM     18  C   UNL d   1       3.573  -3.116  -0.988  0.00  0.00     0.002 A 
ATOM     19  C   UNL d   1       2.883  -1.947  -0.651  0.00  0.00     0.031 A 
ENDBRANCH   7  14
ENDBRANCH   1   5
BRANCH   2  20
ATOM     20  C   UNL d   1      -0.169   4.866   0.265  0.00  0.00     0.036 A 
ATOM     21  C   UNL d   1      -1.419   5.346  -0.132  0.00  0.00     0.054 A 
ATOM     22  C   UNL d   1      -1.600   6.700  -0.426  0.00  0.00     0.076 A 
ATOM     23  C   UNL d   1      -0.558   7.609  -0.255  0.00  0.00     0.025 A 
ATOM     24  C   UNL d   1       0.674   7.151   0.210  0.00  0.00     0.004 A 
ATOM     25  C   UNL d   1       0.871   5.788   0.458  0.00  0.00     0.029 A 
BRANCH  22  26
ATOM     26  S   UNL d   1      -3.086   7.182  -1.252  0.00  0.00     0.239 S 
ATOM     27  O   UNL d   1      -2.892   8.486  -1.847  0.00  0.00    -0.206 OA
ATOM     28  O   UNL d   1      -3.594   6.066  -2.015  0.00  0.00    -0.206 OA
BRANCH  26  29
ATOM     29  N   UNL d   1      -4.177   7.415   0.002  0.00  0.00    -0.225 NA
ATOM     30  H   UNL d   1      -4.530   8.373  -0.041  0.00  0.00     0.136 HD
ATOM     31  H   UNL d   1      -4.917   6.714  -0.064  0.00  0.00     0.136 HD
ENDBRANCH  26  29
ENDBRANCH  22  26
ENDBRANCH   2  20
TORSDOF 7
