REMARK  4 active torsions:
REMARK  status: ('A' for Active; 'I' for Inactive)
REMARK    1  A    between atoms: N_2  and  C_1 
REMARK    2  A    between atoms: N_3  and  C_1 
REMARK    3  A    between atoms: C_5  and  N_2 
REMARK    4  A    between atoms: C_7  and  N_3 
ROOT
ATOM      1  C   UNL d   1       1.102  -0.048   0.074  0.00  0.00     0.176 C 
ATOM      2  S   UNL d   1       2.738  -0.067   0.440  0.00  0.00    -0.041 SA
ENDROOT
BRANCH   1   3
ATOM      3  N   UNL d   1       0.568  -0.069  -1.186  0.00  0.00    -0.333 N 
ATOM      4  H   UNL d   1      -0.149   0.631  -1.341  0.00  0.00     0.168 HD
BRANCH   3   5
ATOM      5  C   UNL d   1       1.004  -0.800  -2.307  0.00  0.00     0.034 A 
ATOM      6  C   UNL d   1       1.681  -2.019  -2.178  0.00  0.00     0.032 A 
ATOM      7  C   UNL d   1       2.014  -2.763  -3.312  0.00  0.00     0.044 A 
ATOM      8  C   UNL d   1       1.674  -2.284  -4.570  0.00  0.00     0.116 A 
ATOM      9  C   UNL d   1       0.995  -1.079  -4.714  0.00  0.00     0.044 A 
ATOM     10  F   UNL d   1       1.990  -2.999  -5.656  0.00  0.00    -0.206 F 
ATOM     11  C   UNL d   1       0.645  -0.343  -3.580  0.00  0.00     0.032 A 
ENDBRANCH   3   5
ENDBRANCH   1   3
BRANCH   1  12
ATOM     12  N   UNL d   1       0.233   0.132   1.115  0.00  0.00    -0.333 N 
ATOM     13  H   UNL d   1       0.708   0.373   1.979  0.00  0.00     0.168 HD
BRANCH  12  14
ATOM     14  C   UNL d   1      -1.138  -0.178   1.244  0.00  0.00     0.034 A 
ATOM     15  C   UNL d   1      -1.890  -0.866   0.289  0.00  0.00     0.029 A 
ATOM     16  C   UNL d   1      -3.229  -1.186   0.533  0.00  0.00     0.002 A 
ATOM     17  C   UNL d   1      -3.826  -0.834   1.740  0.00  0.00     0.000 A 
ATOM     18  C   UNL d   1      -3.084  -0.161   2.706  0.00  0.00     0.002 A 
ATOM     19  C   UNL d   1      -1.748   0.164   2.459  0.00  0.00     0.029 A 
ENDBRANCH  12  14
ENDBRANCH   1  12
TORSDOF 4
