REMARK  8 active torsions:
REMARK  status: ('A' for Active; 'I' for Inactive)
REMARK    1  A    between atoms: N_2  and  C_1 
REMARK    2  A    between atoms: N_4  and  C_1 
REMARK    3  A    between atoms: C_5  and  N_2 
REMARK    4  A    between atoms: C_10  and  N_4 
REMARK    5  A    between atoms: C_11  and  N_4 
REMARK    6  A    between atoms: O_8  and  C_7 
REMARK    7  A    between atoms: C_16  and  C_10 
REMARK    8  A    between atoms: C_15  and  C_11 
ROOT
ATOM      1  N   UNL d   1       0.624  -1.007   1.048  0.00  0.00    -0.333 N 
ATOM      2  H   UNL d   1       1.084  -0.892   1.942  0.00  0.00     0.168 HD
ENDROOT
BRANCH   1   3
ATOM      3  C   UNL d   1       1.200  -0.211   0.053  0.00  0.00     0.174 C 
ATOM      4  S   UNL d   1       0.401   0.597  -1.186  0.00  0.00    -0.041 SA
BRANCH   3   5
ATOM      5  N   UNL d   1       2.602  -0.159   0.245  0.00  0.00    -0.358 N 
BRANCH   5   6
ATOM      6  C   UNL d   1       3.322  -1.222  -0.467  0.00  0.00     0.125 C 
BRANCH   6   7
ATOM      7  C   UNL d   1       4.520  -1.780   0.298  0.00  0.00     0.015 C 
ATOM      8  C   UNL d   1       4.105  -2.534   1.553  0.00  0.00     0.006 C 
ENDBRANCH   6   7
ENDBRANCH   5   6
BRANCH   5   9
ATOM      9  C   UNL d   1       3.262   1.156   0.249  0.00  0.00     0.125 C 
BRANCH   9  10
ATOM     10  C   UNL d   1       2.918   1.976   1.497  0.00  0.00     0.015 C 
ATOM     11  C   UNL d   1       3.467   1.344   2.769  0.00  0.00     0.006 C 
ENDBRANCH   9  10
ENDBRANCH   5   9
ENDBRANCH   3   5
ENDBRANCH   1   3
BRANCH   1  12
ATOM     12  C   UNL d   1      -0.701  -1.482   1.062  0.00  0.00     0.036 A 
ATOM     13  C   UNL d   1      -1.262  -2.076  -0.069  0.00  0.00     0.066 A 
ATOM     14  C   UNL d   1      -2.599  -2.475  -0.072  0.00  0.00     0.070 A 
ATOM     15  C   UNL d   1      -3.355  -2.339   1.093  0.00  0.00     0.037 A 
ATOM     16  C   UNL d   1      -2.783  -1.802   2.243  0.00  0.00     0.005 A 
ATOM     17  C   UNL d   1      -1.448  -1.390   2.241  0.00  0.00     0.029 A 
BRANCH  14  18
ATOM     18  O   UNL d   1      -3.249  -3.018  -1.147  0.00  0.00    -0.356 OA
ATOM     19  C   UNL d   1      -2.703  -2.677  -2.418  0.00  0.00     0.210 C 
ENDBRANCH  14  18
ENDBRANCH   1  12
TORSDOF 8
