REMARK  3 active torsions:
REMARK  status: ('A' for Active; 'I' for Inactive)
REMARK    1  A    between atoms: C_7  and  N_1 
REMARK    2  A    between atoms: C_12  and  C_6 
REMARK    3  A    between atoms: N_11  and  C_10 
ROOT
ATOM      1  N   UNL d   1       0.012  -0.929  -0.116  0.00  0.00    -0.252 N 
ATOM      2  C   UNL d   1      -1.236  -0.314   0.052  0.00  0.00     0.231 C 
ATOM      3  C   UNL d   1       1.250  -0.267  -0.112  0.00  0.00     0.231 C 
ATOM      4  C   UNL d   1      -1.219   1.147   0.417  0.00  0.00     0.113 C 
ATOM      5  C   UNL d   1       1.234   1.220   0.150  0.00  0.00     0.113 C 
ATOM      6  C   UNL d   1      -0.068   1.878  -0.255  0.00  0.00     0.036 C 
ATOM      7  O   UNL d   1      -2.324  -0.884  -0.055  0.00  0.00    -0.273 OA
ATOM      8  O   UNL d   1       2.346  -0.826  -0.199  0.00  0.00    -0.273 OA
ENDROOT
BRANCH   1   9
ATOM      9  C   UNL d   1       0.028  -2.352  -0.294  0.00  0.00     0.045 A 
ATOM     10  C   UNL d   1       0.748  -2.938  -1.333  0.00  0.00     0.032 A 
ATOM     11  C   UNL d   1       0.800  -4.334  -1.470  0.00  0.00     0.031 A 
ATOM     12  C   UNL d   1       0.182  -5.204  -0.557  0.00  0.00     0.029 A 
ATOM     13  C   UNL d   1      -0.535  -4.585   0.480  0.00  0.00     0.031 A 
ATOM     14  C   UNL d   1      -0.637  -3.190   0.601  0.00  0.00     0.032 A 
BRANCH  12  15
ATOM     15  N   UNL d   1       0.327  -6.584  -0.623  0.00  0.00    -0.390 N 
ATOM     16  C   UNL d   1      -0.721  -7.479  -0.134  0.00  0.00     0.149 C 
ATOM     17  C   UNL d   1       1.273  -7.213  -1.542  0.00  0.00     0.149 C 
ENDBRANCH  12  15
ENDBRANCH   1   9
BRANCH   6  18
ATOM     18  C   UNL d   1      -0.074   3.355   0.107  0.00  0.00    -0.053 A 
ATOM     19  C   UNL d   1      -0.177   4.326  -0.900  0.00  0.00     0.007 A 
ATOM     20  C   UNL d   1      -0.198   5.685  -0.572  0.00  0.00     0.001 A 
ATOM     21  C   UNL d   1      -0.113   6.090   0.756  0.00  0.00     0.000 A 
ATOM     22  C   UNL d   1       0.000   5.138   1.766  0.00  0.00     0.001 A 
ATOM     23  C   UNL d   1       0.022   3.780   1.442  0.00  0.00     0.007 A 
ENDBRANCH   6  18
TORSDOF 3
