REMARK  4 active torsions:
REMARK  status: ('A' for Active; 'I' for Inactive)
REMARK       I    between atoms: N_2  and  C_1 
REMARK       I    between atoms: N_3  and  C_1 
REMARK    1  A    between atoms: N_4  and  N_2 
REMARK    2  A    between atoms: N_6  and  N_3 
REMARK    3  A    between atoms: C_9  and  C_14 
REMARK    4  A    between atoms: C_10  and  C_13 
ROOT
ATOM      1  C   UNL d   1       0.882  -0.056   0.027  0.00  0.00     0.353 C 
ATOM      2  N   UNL d   1       0.212  -0.175   1.247  0.00  0.00    -0.251 N 
ATOM      3  N   UNL d   1      -0.009   0.048  -1.042  0.00  0.00    -0.251 N 
ATOM      4  O   UNL d   1       2.105  -0.045  -0.091  0.00  0.00    -0.244 OA
ATOM      5  H   UNL d   1      -0.796  -0.180   1.288  0.00  0.00     0.191 HD
ATOM      6  H   UNL d   1      -1.006   0.032  -0.886  0.00  0.00     0.191 HD
ENDROOT
BRANCH   2   7
ATOM      7  N   UNL d   1       0.932  -0.288   2.403  0.00  0.00    -0.308 N 
ATOM      8  C   UNL d   1       0.263  -0.396   3.504  0.00  0.00     0.107 C 
ATOM      9  HN  UNL d   1       1.952  -0.288   2.398  1.00  0.00     0.186 HD
BRANCH   8  10
ATOM     10  C   UNL d   1       0.973  -0.522   4.795  0.00  0.00     0.014 C 
ATOM     11  C   UNL d   1       0.317  -0.635   5.958  0.00  0.00    -0.029 C 
ATOM     12  C   UNL d   1       1.017  -0.763   7.275  0.00  0.00     0.036 C 
ENDBRANCH   8  10
ENDBRANCH   2   7
BRANCH   3  13
ATOM     13  N   UNL d   1       0.468   0.172  -2.318  0.00  0.00    -0.308 N 
ATOM     14  C   UNL d   1      -0.414   0.263  -3.259  0.00  0.00     0.107 C 
ATOM     15  HN  UNL d   1       1.468   0.190  -2.517  1.00  0.00     0.186 HD
BRANCH  14  16
ATOM     16  C   UNL d   1       0.002   0.401  -4.672  0.00  0.00     0.014 C 
ATOM     17  C   UNL d   1      -0.902   0.497  -5.658  0.00  0.00    -0.029 C 
ATOM     18  C   UNL d   1      -0.525   0.637  -7.099  0.00  0.00     0.036 C 
ENDBRANCH  14  16
ENDBRANCH   3  13
TORSDOF 4
