REMARK  7 active torsions:
REMARK  status: ('A' for Active; 'I' for Inactive)
REMARK    1  A    between atoms: N_3  and  C_1 
REMARK       I    between atoms: C_2  and  N_5 
REMARK       I    between atoms: N_6  and  C_2 
REMARK    2  A    between atoms: N_5  and  N_3 
REMARK    3  A    between atoms: C_11  and  N_6 
REMARK    4  A    between atoms: C_20  and  C_15 
REMARK    5  A    between atoms: C_21  and  C_20 
REMARK    6  A    between atoms: C_23  and  C_21 
REMARK    7  A    between atoms: C_22  and  C_23 
ROOT
ATOM      1  C   UNL d   1       3.576  -3.712  -0.076  0.00  0.00     0.312 C 
ATOM      2  N   UNL d   1       3.103  -2.781  -0.966  0.00  0.00    -0.172 NA
ATOM      3  N   UNL d   1       2.821  -4.835   0.140  0.00  0.00    -0.313 N 
ATOM      4  O   UNL d   1       4.611  -3.545   0.571  0.00  0.00    -0.252 OA
ATOM      5  H   UNL d   1       2.957  -3.160  -1.893  0.00  0.00     0.152 HD
ATOM      6  H   UNL d   1       3.235  -5.388   0.879  0.00  0.00     0.170 HD
ENDROOT
BRANCH   2   7
ATOM      7  N   UNL d   1       3.780  -1.539  -1.018  0.00  0.00    -0.217 NA
ATOM      8  H   UNL d   1       4.527  -1.490  -0.308  0.00  0.00     0.147 HD
BRANCH   7   9
ATOM      9  C   UNL d   1       2.904  -0.419  -0.903  0.00  0.00     0.046 A 
ATOM     10  C   UNL d   1       1.586  -0.460  -1.393  0.00  0.00     0.050 A 
ATOM     11  C   UNL d   1       0.767   0.670  -1.353  0.00  0.00     0.035 A 
ATOM     12 CL   UNL d   1      -0.849   0.570  -1.938  0.00  0.00    -0.084 Cl
ATOM     13  C   UNL d   1       1.247   1.876  -0.856  0.00  0.00     0.026 A 
ATOM     14  C   UNL d   1       2.563   1.954  -0.401  0.00  0.00     0.027 A 
ATOM     15  C   UNL d   1       3.386   0.821  -0.435  0.00  0.00     0.056 A 
ATOM     16 CL   UNL d   1       5.014   0.984   0.127  0.00  0.00    -0.082 Cl
ENDBRANCH   7   9
ENDBRANCH   2   7
BRANCH   3  17
ATOM     17  C   UNL d   1       1.449  -5.071  -0.114  0.00  0.00     0.035 A 
ATOM     18  C   UNL d   1       0.704  -4.474  -1.130  0.00  0.00     0.030 A 
ATOM     19  C   UNL d   1      -0.686  -4.610  -1.175  0.00  0.00     0.009 A 
ATOM     20  C   UNL d   1      -1.359  -5.361  -0.209  0.00  0.00    -0.058 A 
ATOM     21  C   UNL d   1      -0.605  -6.066   0.733  0.00  0.00     0.009 A 
ATOM     22  C   UNL d   1       0.787  -5.927   0.774  0.00  0.00     0.030 A 
BRANCH  20  23
ATOM     23  C   UNL d   1      -2.867  -5.351  -0.166  0.00  0.00     0.038 C 
BRANCH  23  24
ATOM     24  C   UNL d   1      -3.439  -4.791   1.146  0.00  0.00     0.005 C 
BRANCH  24  25
ATOM     25  C   UNL d   1      -3.004  -3.349   1.444  0.00  0.00    -0.000 C 
BRANCH  25  26
ATOM     26  C   UNL d   1      -3.599  -2.858   2.765  0.00  0.00    -0.005 C 
ATOM     27  C   UNL d   1      -3.145  -1.446   3.098  0.00  0.00     0.005 C 
ENDBRANCH  25  26
ENDBRANCH  24  25
ENDBRANCH  23  24
ENDBRANCH  20  23
ENDBRANCH   3  17
TORSDOF 7
