REMARK  4 active torsions:
REMARK  status: ('A' for Active; 'I' for Inactive)
REMARK    1  A    between atoms: C_7  and  N_1 
REMARK    2  A    between atoms: S_8  and  C_2 
REMARK    3  A    between atoms: C_15  and  S_8 
REMARK    4  A    between atoms: C_14  and  C_15 
ROOT
ATOM      1  N   UNL d   1      -0.062  -1.324   0.070  0.00  0.00    -0.218 N 
ATOM      2  C   UNL d   1       1.109  -0.617  -0.170  0.00  0.00     0.177 A 
ATOM      3  N   UNL d   1       0.888   0.663   0.035  0.00  0.00    -0.264 N 
ATOM      4  HN  UNL d   1       1.563   1.422  -0.053  1.00  0.00     0.186 HD
ATOM      5  N   UNL d   1      -1.017  -0.413   0.397  0.00  0.00     0.001 NA
ATOM      6  N   UNL d   1      -0.426   0.771   0.387  0.00  0.00    -0.006 NA
ENDROOT
BRANCH   2   7
ATOM      7  S   UNL d   1       2.599  -1.259  -0.793  0.00  0.00    -0.087 SA
BRANCH   7   8
ATOM      8  C   UNL d   1       3.710   0.140  -0.442  0.00  0.00     0.121 C 
BRANCH   8   9
ATOM      9  C   UNL d   1       5.169  -0.243  -0.491  0.00  0.00    -0.043 A 
ATOM     10  C   UNL d   1       5.833  -0.411  -1.715  0.00  0.00     0.050 A 
ATOM     11  C   UNL d   1       7.195  -0.718  -1.739  0.00  0.00     0.119 A 
ATOM     12  F   UNL d   1       7.813  -0.862  -2.918  0.00  0.00    -0.206 F 
ATOM     13  C   UNL d   1       7.920  -0.868  -0.567  0.00  0.00     0.084 A 
ATOM     14  C   UNL d   1       7.262  -0.712   0.644  0.00  0.00     0.119 A 
ATOM     15  C   UNL d   1       5.904  -0.407   0.695  0.00  0.00     0.050 A 
ATOM     16  F   UNL d   1       7.949  -0.846   1.788  0.00  0.00    -0.206 F 
ENDBRANCH   8   9
ENDBRANCH   7   8
ENDBRANCH   2   7
BRANCH   1  17
ATOM     17  C   UNL d   1      -0.365  -2.711   0.043  0.00  0.00     0.068 A 
ATOM     18  C   UNL d   1       0.468  -3.653   0.698  0.00  0.00    -0.033 A 
ATOM     19  C   UNL d   1       0.165  -5.023   0.586  0.00  0.00     0.009 A 
ATOM     20  C   UNL d   1       1.617  -3.312   1.613  0.00  0.00     0.050 C 
ATOM     21  C   UNL d   1      -0.972  -5.462  -0.077  0.00  0.00     0.001 A 
ATOM     22  C   UNL d   1      -1.834  -4.534  -0.647  0.00  0.00     0.009 A 
ATOM     23  C   UNL d   1      -1.548  -3.157  -0.612  0.00  0.00    -0.033 A 
ATOM     24  C   UNL d   1      -2.564  -2.261  -1.277  0.00  0.00     0.050 C 
ENDBRANCH   1  17
TORSDOF 4
