REMARK  6 active torsions:
REMARK  status: ('A' for Active; 'I' for Inactive)
REMARK    1  A    between atoms: C_2  and  S_1 
REMARK    2  A    between atoms: N_3  and  S_1 
REMARK    3  A    between atoms: C_10  and  N_3 
REMARK    4  A    between atoms: C_7  and  C_10 
REMARK    5  A    between atoms: O_17  and  C_8 
REMARK    6  A    between atoms: O_18  and  C_15 
ROOT
ATOM      1  S   UNL d   1       1.102  -0.025   0.051  0.00  0.00     0.262 S 
ATOM      2  O   UNL d   1       1.997  -0.906   0.772  0.00  0.00    -0.200 OA
ATOM      3  O   UNL d   1      -0.084   0.507   0.702  0.00  0.00    -0.200 OA
ENDROOT
BRANCH   1   4
ATOM      4  C   UNL d   1       0.567  -0.844  -1.441  0.00  0.00     0.115 A 
ATOM      5  C   UNL d   1       0.979  -2.196  -1.539  0.00  0.00     0.065 A 
ATOM      6  C   UNL d   1       0.482  -3.047  -2.523  0.00  0.00     0.069 A 
ATOM      7  C   UNL d   1      -0.407  -2.538  -3.458  0.00  0.00     0.039 A 
ATOM      8  C   UNL d   1      -0.789  -1.196  -3.399  0.00  0.00     0.041 A 
ATOM      9  C   UNL d   1      -0.320  -0.327  -2.394  0.00  0.00     0.091 A 
BRANCH   6  10
ATOM     10  O   UNL d   1       0.771  -4.376  -2.654  0.00  0.00    -0.356 OA
ATOM     11  C   UNL d   1       1.660  -4.936  -1.693  0.00  0.00     0.210 C 
ENDBRANCH   6  10
BRANCH   9  12
ATOM     12  O   UNL d   1      -0.924   0.890  -2.506  0.00  0.00    -0.354 OA
ATOM     13  C   UNL d   1      -0.203   2.072  -2.213  0.00  0.00     0.210 C 
ENDBRANCH   9  12
ENDBRANCH   1   4
BRANCH   1  14
ATOM     14  N   UNL d   1       2.001   1.276  -0.464  0.00  0.00    -0.309 N 
ATOM     15  H   UNL d   1       1.730   2.166  -0.047  0.00  0.00     0.172 HD
BRANCH  14  16
ATOM     16  C   UNL d   1       3.420   1.048  -0.677  0.00  0.00     0.197 C 
BRANCH  16  17
ATOM     17  C   UNL d   1       4.083   2.273  -1.206  0.00  0.00     0.070 A 
ATOM     18  O   UNL d   1       3.652   3.500  -0.780  0.00  0.00    -0.325 OA
ATOM     19  C   UNL d   1       4.452   4.426  -1.367  0.00  0.00     0.142 A 
ATOM     20  C   UNL d   1       5.399   3.817  -2.154  0.00  0.00     0.027 A 
ATOM     21  C   UNL d   1       5.163   2.428  -2.050  0.00  0.00     0.036 A 
ENDBRANCH  16  17
ENDBRANCH  14  16
ENDBRANCH   1  14
TORSDOF 6
