REMARK  6 active torsions:
REMARK  status: ('A' for Active; 'I' for Inactive)
REMARK    1  A    between atoms: C_8  and  C_1 
REMARK       I    between atoms: C_2  and  N_5 
REMARK    2  A    between atoms: C_11  and  C_2 
REMARK    3  A    between atoms: N_5  and  C_7 
REMARK    4  A    between atoms: C_7  and  C_8 
REMARK    5  A    between atoms: C_9  and  C_7 
REMARK    6  A    between atoms: O_20  and  C_9 
ROOT
ATOM      1  C   UNL d   1       3.586  -2.366   0.086  0.00  0.00     0.189 C 
ENDROOT
BRANCH   1   2
ATOM      2  N   UNL d   1       3.952  -1.447   1.173  0.00  0.00    -0.343 N 
ATOM      3  C   UNL d   1       3.405  -1.390   2.435  0.00  0.00     0.252 C 
ATOM      4  O   UNL d   1       2.490  -2.111   2.823  0.00  0.00    -0.268 OA
ATOM      5  H   UNL d   1       4.691  -0.795   0.953  0.00  0.00     0.163 HD
BRANCH   3   6
ATOM      6  C   UNL d   1       3.963  -0.305   3.313  0.00  0.00     0.032 A 
ATOM      7  C   UNL d   1       3.108   0.350   4.212  0.00  0.00     0.018 A 
ATOM      8  C   UNL d   1       3.549   1.483   4.908  0.00  0.00     0.025 A 
ATOM      9  C   UNL d   1       4.849   1.953   4.722  0.00  0.00     0.034 A 
ATOM     10  C   UNL d   1       5.732   1.265   3.893  0.00  0.00     0.025 A 
ATOM     11 CL   UNL d   1       5.363   3.401   5.498  0.00  0.00    -0.084 Cl
ATOM     12  C   UNL d   1       5.293   0.128   3.197  0.00  0.00     0.018 A 
ENDBRANCH   3   6
ENDBRANCH   1   2
BRANCH   1  13
ATOM     13  C   UNL d   1       2.092  -2.539  -0.226  0.00  0.00     0.075 C 
BRANCH  13  14
ATOM     14  C   UNL d   1       1.262  -1.355  -0.680  0.00  0.00    -0.037 A 
ATOM     15  C   UNL d   1       1.411  -0.566  -1.899  0.00  0.00    -0.011 A 
ATOM     16  C   UNL d   1       0.283   0.239  -2.123  0.00  0.00     0.015 A 
ATOM     17  C   UNL d   1       2.436  -0.517  -2.883  0.00  0.00     0.037 A 
ATOM     18  C   UNL d   1       0.136   1.030  -3.284  0.00  0.00     0.021 A 
ATOM     19  S   UNL d   1      -0.851   0.121  -0.840  0.00  0.00    -0.101 SA
ATOM     20  C   UNL d   1       1.170   1.068  -4.217  0.00  0.00     0.025 A 
ATOM     21  C   UNL d   1       2.314   0.315  -4.004  0.00  0.00     0.035 A 
ATOM     22 CL   UNL d   1       3.609   0.412  -5.138  0.00  0.00    -0.084 Cl
ATOM     23  C   UNL d   1       0.105  -1.006  -0.007  0.00  0.00     0.058 A 
ENDBRANCH  13  14
ENDBRANCH   1  13
BRANCH   1  24
ATOM     24  C   UNL d   1       4.193  -3.783   0.151  0.00  0.00     0.281 C 
ATOM     25  O   UNL d   1       4.023  -4.614  -0.738  0.00  0.00    -0.263 OA
BRANCH  24  26
ATOM     26  O   UNL d   1       4.947  -4.016   1.260  0.00  0.00    -0.325 OA
ATOM     27  C   UNL d   1       5.456  -5.353   1.320  0.00  0.00     0.213 C 
ENDBRANCH  24  26
ENDBRANCH   1  24
TORSDOF 6
