REMARK  4 active torsions:
REMARK  status: ('A' for Active; 'I' for Inactive)
REMARK    1  A    between atoms: N_7  and  C_1 
REMARK    2  A    between atoms: C_5  and  C_2 
REMARK       I    between atoms: C_9  and  N_8 
REMARK    3  A    between atoms: C_12  and  C_9 
REMARK    4  A    between atoms: C_21  and  C_12 
ROOT
ATOM      1  C   UNL d   1      -1.129  -1.469   0.212  0.00  0.00     0.045 A 
ATOM      2  C   UNL d   1       0.340   0.439  -0.086  0.00  0.00     0.119 A 
ATOM      3  N   UNL d   1      -0.631   1.153  -0.707  0.00  0.00    -0.352 N 
ATOM      4  HN  UNL d   1      -0.437   2.086  -1.069  1.00  0.00     0.166 HD
ATOM      5  C   UNL d   1       0.126  -0.865   0.366  0.00  0.00     0.064 A 
ATOM      6  C   UNL d   1      -2.171  -0.679  -0.362  0.00  0.00     0.017 A 
ATOM      7  C   UNL d   1      -1.849   0.613  -0.836  0.00  0.00     0.045 A 
ATOM      8  C   UNL d   1      -3.526  -1.091  -0.454  0.00  0.00     0.016 A 
ATOM      9  C   UNL d   1      -2.829   1.378  -1.453  0.00  0.00     0.030 A 
ATOM     10  C   UNL d   1      -4.498  -0.304  -1.070  0.00  0.00     0.001 A 
ATOM     11  C   UNL d   1      -4.144   0.931  -1.588  0.00  0.00     0.002 A 
ENDROOT
BRANCH   1  12
ATOM     12  N   UNL d   1      -1.332  -2.794   0.602  0.00  0.00    -0.377 N 
ATOM     13  C   UNL d   1      -0.649  -3.395   1.775  0.00  0.00     0.143 C 
ATOM     14  C   UNL d   1       0.330  -4.515   1.362  0.00  0.00     0.145 C 
ATOM     15  N   UNL d   1      -0.335  -5.481   0.477  0.00  0.00    -0.349 N 
ATOM     16  C   UNL d   1      -0.830  -4.840  -0.745  0.00  0.00     0.145 C 
ATOM     17  C   UNL d   1      -0.821  -6.660   1.040  0.00  0.00     0.224 C 
ATOM     18  C   UNL d   1      -1.867  -3.754  -0.396  0.00  0.00     0.143 C 
ATOM     19  O   UNL d   1      -0.513  -6.973   2.195  0.00  0.00    -0.273 OA
BRANCH  17  20
ATOM     20  C   UNL d   1      -1.676  -7.594   0.181  0.00  0.00     0.141 C 
BRANCH  20  21
ATOM     21  C   UNL d   1      -2.872  -8.258   0.844  0.00  0.00    -0.050 A 
ATOM     22  C   UNL d   1      -3.438  -7.815   2.046  0.00  0.00     0.007 A 
ATOM     23  C   UNL d   1      -4.576  -8.434   2.572  0.00  0.00     0.001 A 
ATOM     24  C   UNL d   1      -5.177  -9.492   1.893  0.00  0.00     0.000 A 
ATOM     25  C   UNL d   1      -4.639  -9.935   0.689  0.00  0.00     0.001 A 
ATOM     26  C   UNL d   1      -3.497  -9.323   0.169  0.00  0.00     0.007 A 
ENDBRANCH  20  21
ENDBRANCH  17  20
ENDBRANCH   1  12
BRANCH   2  27
ATOM     27  C   UNL d   1       1.701   1.079   0.141  0.00  0.00     0.432 C 
ATOM     28  F   UNL d   1       1.853   2.304  -0.439  0.00  0.00    -0.165 F 
ATOM     29  F   UNL d   1       1.977   1.260   1.466  0.00  0.00    -0.165 F 
ATOM     30  F   UNL d   1       2.726   0.314  -0.340  0.00  0.00    -0.165 F 
ENDBRANCH   2  27
TORSDOF 4
