REMARK  5 active torsions:
REMARK  status: ('A' for Active; 'I' for Inactive)
REMARK       I    between atoms: C_2  and  N_1 
REMARK       I    between atoms: C_3  and  N_1 
REMARK    1  A    between atoms: C_5  and  C_2 
REMARK       I    between atoms: N_9  and  C_3 
REMARK    2  A    between atoms: C_4  and  C_8 
REMARK    3  A    between atoms: C_15  and  N_9 
REMARK    4  A    between atoms: O_17  and  C_10 
REMARK    5  A    between atoms: C_21  and  O_17 
ROOT
ATOM      1  N   UNL d   1       1.199   0.131   0.034  0.00  0.00    -0.275 N 
ATOM      2  C   UNL d   1       0.422   0.394   1.147  0.00  0.00     0.261 C 
ATOM      3  C   UNL d   1       0.876  -0.576  -1.100  0.00  0.00     0.327 C 
ATOM      4  N   UNL d   1      -0.416  -1.010  -1.178  0.00  0.00    -0.309 N 
ATOM      5  O   UNL d   1       1.760  -0.733  -1.941  0.00  0.00    -0.247 OA
ATOM      6  O   UNL d   1      -0.774   0.126   1.234  0.00  0.00    -0.267 OA
ATOM      7  H   UNL d   1       2.146   0.479  -0.019  0.00  0.00     0.173 HD
ATOM      8  H   UNL d   1      -1.032  -0.660  -0.445  0.00  0.00     0.170 HD
ENDROOT
BRANCH   2   9
ATOM      9  C   UNL d   1       1.105   1.102   2.251  0.00  0.00     0.048 A 
ATOM     10  C   UNL d   1       2.450   0.897   2.524  0.00  0.00     0.107 A 
ATOM     11  N   UNL d   1       3.127   1.553   3.489  0.00  0.00    -0.346 N 
ATOM     12  C   UNL d   1       2.423   2.420   4.256  0.00  0.00     0.147 A 
ATOM     13  HN  UNL d   1       4.125   1.403   3.635  1.00  0.00     0.167 HD
ATOM     14  C   UNL d   1       1.075   2.686   4.068  0.00  0.00     0.057 A 
ATOM     15  C   UNL d   1       0.402   2.004   3.053  0.00  0.00     0.022 A 
BRANCH  12  16
ATOM     16  O   UNL d   1       3.065   3.087   5.291  0.00  0.00    -0.294 OA
BRANCH  16  17
ATOM     17  C   UNL d   1       4.111   2.425   5.897  0.00  0.00     0.077 A 
ATOM     18  C   UNL d   1       5.243   3.175   6.225  0.00  0.00     0.039 A 
ATOM     19  C   UNL d   1       6.336   2.552   6.835  0.00  0.00     0.026 A 
ATOM     20  C   UNL d   1       6.289   1.187   7.119  0.00  0.00     0.034 A 
ATOM     21  C   UNL d   1       5.148   0.443   6.827  0.00  0.00     0.026 A 
ATOM     22 CL   UNL d   1       7.646   0.412   7.837  0.00  0.00    -0.084 Cl
ATOM     23  C   UNL d   1       4.051   1.068   6.234  0.00  0.00     0.039 A 
ENDBRANCH  16  17
ENDBRANCH  12  16
ENDBRANCH   2   9
BRANCH   4  24
ATOM     24  C   UNL d   1      -1.016  -1.707  -2.241  0.00  0.00     0.037 A 
ATOM     25  C   UNL d   1      -0.291  -2.362  -3.240  0.00  0.00     0.045 A 
ATOM     26  C   UNL d   1      -0.950  -3.006  -4.301  0.00  0.00     0.050 A 
ATOM     27  C   UNL d   1      -2.351  -2.977  -4.350  0.00  0.00     0.016 A 
ATOM     28  C   UNL d   1      -3.079  -2.343  -3.345  0.00  0.00     0.003 A 
ATOM     29  C   UNL d   1      -2.413  -1.725  -2.286  0.00  0.00     0.029 A 
BRANCH  26  30
ATOM     30  C   UNL d   1      -0.174  -3.714  -5.384  0.00  0.00     0.417 C 
ATOM     31  F   UNL d   1       1.173  -3.722  -5.188  0.00  0.00    -0.166 F 
ATOM     32  F   UNL d   1      -0.537  -5.022  -5.508  0.00  0.00    -0.166 F 
ATOM     33  F   UNL d   1      -0.371  -3.157  -6.612  0.00  0.00    -0.166 F 
ENDBRANCH  26  30
ENDBRANCH   4  24
TORSDOF 5
