REMARK  3 active torsions:
REMARK  status: ('A' for Active; 'I' for Inactive)
REMARK    1  A    between atoms: C_6  and  C_1 
REMARK    2  A    between atoms: C_10  and  C_4 
REMARK    3  A    between atoms: O_8  and  C_6 
ROOT
ATOM      1  C   UNL d   1      -0.809  -1.313   0.002  0.00  0.00     0.069 A 
ATOM      2  C   UNL d   1      -1.204   0.024   0.002  0.00  0.00     0.022 A 
ATOM      3  N   UNL d   1      -0.070   0.797   0.014  0.00  0.00    -0.362 N 
ATOM      4  C   UNL d   1       0.639  -1.312  -0.006  0.00  0.00    -0.018 A 
ATOM      5  C   UNL d   1       1.049   0.012   0.008  0.00  0.00     0.013 A 
ATOM      6  C   UNL d   1      -2.532   0.698   0.010  0.00  0.00     0.069 C 
ATOM      7  C   UNL d   1       2.402   0.627   0.001  0.00  0.00     0.068 C 
ATOM      8  H   UNL d   1      -0.063   1.809   0.017  0.00  0.00     0.165 HD
ENDROOT
BRANCH   1   9
ATOM      9  C   UNL d   1      -1.679  -2.498   0.009  0.00  0.00     0.295 C 
ATOM     10  O   UNL d   1      -1.320  -3.596   0.416  0.00  0.00    -0.259 OA
BRANCH   9  11
ATOM     11  O   UNL d   1      -2.921  -2.253  -0.506  0.00  0.00    -0.322 OA
ATOM     12  C   UNL d   1      -3.793  -3.381  -0.509  0.00  0.00     0.213 C 
ENDBRANCH   9  11
ENDBRANCH   1   9
BRANCH   4  13
ATOM     13  C   UNL d   1       1.544  -2.510  -0.076  0.00  0.00     0.037 C 
ATOM     14  C   UNL d   1       2.049  -2.967   1.283  0.00  0.00     0.010 C 
ENDBRANCH   4  13
TORSDOF 3
