REMARK  6 active torsions:
REMARK  status: ('A' for Active; 'I' for Inactive)
REMARK    1  A    between atoms: C_9  and  C_1 
REMARK    2  A    between atoms: N_19  and  C_3 
REMARK    3  A    between atoms: C_18  and  C_6 
REMARK       I    between atoms: N_17  and  C_9 
REMARK    4  A    between atoms: C_23  and  C_10 
REMARK    5  A    between atoms: C_12  and  C_16 
REMARK    6  A    between atoms: N_13  and  N_17 
ROOT
ATOM      1  C   UNL d   1       2.457   0.110   0.102  0.00  0.00     0.174 A 
ATOM      2  C   UNL d   1       0.328   0.888   0.026  0.00  0.00     0.056 A 
ATOM      3  C   UNL d   1       1.694   1.261   0.157  0.00  0.00     0.081 A 
ATOM      4  C   UNL d   1       0.345  -0.510  -0.014  0.00  0.00     0.162 A 
ATOM      5  O   UNL d   1       1.633  -0.978   0.014  0.00  0.00    -0.285 OA
ATOM      6  C   UNL d   1      -0.930   1.529  -0.057  0.00  0.00    -0.007 A 
ATOM      7  N   UNL d   1      -0.714  -1.339  -0.076  0.00  0.00    -0.335 N 
ATOM      8  HN  UNL d   1      -0.621  -2.354  -0.085  1.00  0.00     0.168 HD
ATOM      9  C   UNL d   1      -1.913  -0.711  -0.127  0.00  0.00     0.045 A 
ATOM     10  C   UNL d   1      -2.050   0.680  -0.117  0.00  0.00     0.043 A 
ENDROOT
BRANCH   1  11
ATOM     11  C   UNL d   1       3.897  -0.031   0.146  0.00  0.00     0.296 C 
ATOM     12  N   UNL d   1       4.379  -1.331   0.036  0.00  0.00    -0.264 N 
ATOM     13  H   UNL d   1       3.737  -2.110  -0.060  0.00  0.00     0.190 HD
ATOM     14  O   UNL d   1       4.643   0.944   0.268  0.00  0.00    -0.264 OA
BRANCH  12  15
ATOM     15  N   UNL d   1       5.734  -1.510   0.039  0.00  0.00    -0.308 N 
ATOM     16  C   UNL d   1       6.197  -2.715  -0.038  0.00  0.00     0.126 C 
ATOM     17  HN  UNL d   1       6.366  -0.712   0.100  1.00  0.00     0.186 HD
BRANCH  16  18
ATOM     18  C   UNL d   1       7.628  -2.911  -0.038  0.00  0.00     0.021 A 
ATOM     19  S   UNL d   1       8.275  -4.491  -0.085  0.00  0.00    -0.101 SA
ATOM     20  C   UNL d   1       9.884  -3.901  -0.048  0.00  0.00     0.050 A 
ATOM     21  C   UNL d   1       9.930  -2.527  -0.006  0.00  0.00     0.008 A 
ATOM     22  C   UNL d   1       8.626  -1.954   0.001  0.00  0.00     0.021 A 
ENDBRANCH  16  18
ENDBRANCH  12  15
ENDBRANCH   1  11
BRANCH   3  23
ATOM     23  N   UNL d   1       2.201   2.502   0.305  0.00  0.00    -0.396 N 
ATOM     24  H   UNL d   1       1.638   3.280   0.638  0.00  0.00     0.156 HD
ATOM     25  H   UNL d   1       3.203   2.625   0.481  0.00  0.00     0.156 HD
ENDBRANCH   3  23
BRANCH   6  26
ATOM     26  C   UNL d   1      -1.079   2.994  -0.102  0.00  0.00    -0.025 A 
ATOM     27  C   UNL d   1      -0.302   3.787  -0.965  0.00  0.00     0.012 A 
ATOM     28  C   UNL d   1      -0.428   5.179  -0.992  0.00  0.00     0.001 A 
ATOM     29  C   UNL d   1      -1.375   5.807  -0.190  0.00  0.00     0.000 A 
ATOM     30  C   UNL d   1      -2.191   5.043   0.639  0.00  0.00     0.001 A 
ATOM     31  C   UNL d   1      -2.039   3.654   0.688  0.00  0.00     0.012 A 
ENDBRANCH   6  26
BRANCH   9  32
ATOM     32  C   UNL d   1      -3.106  -1.590  -0.195  0.00  0.00    -0.009 A 
ATOM     33  C   UNL d   1      -3.147  -2.815   0.495  0.00  0.00     0.013 A 
ATOM     34  C   UNL d   1      -4.283  -3.633   0.463  0.00  0.00     0.001 A 
ATOM     35  C   UNL d   1      -5.404  -3.245  -0.265  0.00  0.00     0.000 A 
ATOM     36  C   UNL d   1      -5.388  -2.045  -0.967  0.00  0.00     0.001 A 
ATOM     37  C   UNL d   1      -4.251  -1.231  -0.935  0.00  0.00     0.013 A 
ENDBRANCH   9  32
TORSDOF 6
