REMARK  9 active torsions:
REMARK  status: ('A' for Active; 'I' for Inactive)
REMARK    1  A    between atoms: S_6  and  C_1 
REMARK    2  A    between atoms: C_7  and  C_3 
REMARK    3  A    between atoms: C_12  and  S_6 
REMARK    4  A    between atoms: C_8  and  C_12 
REMARK       I    between atoms: N_17  and  C_8 
REMARK    5  A    between atoms: C_9  and  C_14 
REMARK    6  A    between atoms: C_10  and  C_15 
REMARK    7  A    between atoms: C_16  and  C_11 
REMARK    8  A    between atoms: C_28  and  C_12 
REMARK    9  A    between atoms: C_19  and  N_17 
ROOT
ATOM      1  C   UNL d   1      -0.092  -0.825   0.653  0.00  0.00     0.093 A 
ATOM      2  C   UNL d   1      -1.230  -0.277   1.266  0.00  0.00     0.093 A 
ATOM      3  C   UNL d   1      -1.482   1.087   1.076  0.00  0.00     0.073 A 
ATOM      4  N   UNL d   1       0.796  -0.092  -0.059  0.00  0.00    -0.348 N 
ATOM      5  HN  UNL d   1       1.617  -0.528  -0.478  1.00  0.00     0.166 HD
ATOM      6  C   UNL d   1       0.566   1.231  -0.200  0.00  0.00     0.051 A 
ATOM      7  C   UNL d   1      -0.562   1.845   0.323  0.00  0.00     0.048 A 
ATOM      8  C   UNL d   1      -2.101  -1.109   2.053  0.00  0.00     0.103 C 
ATOM      9  N   UNL d   1      -2.802  -1.761   2.709  0.00  0.00    -0.191 NA
ENDROOT
BRANCH   1  10
ATOM     10  S   UNL d   1       0.155  -2.578   0.590  0.00  0.00    -0.091 SA
BRANCH  10  11
ATOM     11  C   UNL d   1       2.029  -2.738   0.510  0.00  0.00     0.179 C 
BRANCH  11  12
ATOM     12  C   UNL d   1       2.655  -2.215   1.812  0.00  0.00     0.240 C 
ATOM     13  N   UNL d   1       3.926  -1.732   1.938  0.00  0.00    -0.326 N 
ATOM     14  H   UNL d   1       4.070  -1.539   2.930  0.00  0.00     0.169 HD
ATOM     15  O   UNL d   1       2.026  -2.237   2.884  0.00  0.00    -0.272 OA
BRANCH  13  16
ATOM     16  C   UNL d   1       4.958  -1.293   1.103  0.00  0.00     0.036 A 
ATOM     17  C   UNL d   1       4.990  -1.355  -0.285  0.00  0.00     0.045 A 
ATOM     18  C   UNL d   1       6.004  -0.694  -1.016  0.00  0.00     0.050 A 
ATOM     19  C   UNL d   1       7.024  -0.011  -0.333  0.00  0.00     0.032 A 
ATOM     20  C   UNL d   1       7.036   0.033   1.064  0.00  0.00     0.050 A 
ATOM     21  C   UNL d   1       6.019  -0.638   1.763  0.00  0.00     0.045 A 
BRANCH  18  22
ATOM     22  C   UNL d   1       5.964  -0.691  -2.528  0.00  0.00     0.417 C 
ATOM     23  F   UNL d   1       6.730   0.290  -3.083  0.00  0.00    -0.166 F 
ATOM     24  F   UNL d   1       6.396  -1.861  -3.067  0.00  0.00    -0.166 F 
ATOM     25  F   UNL d   1       4.707  -0.495  -3.015  0.00  0.00    -0.166 F 
ENDBRANCH  18  22
BRANCH  20  26
ATOM     26  C   UNL d   1       8.075   0.829   1.821  0.00  0.00     0.417 C 
ATOM     27  F   UNL d   1       8.773   1.691   1.031  0.00  0.00    -0.166 F 
ATOM     28  F   UNL d   1       7.523   1.592   2.804  0.00  0.00    -0.166 F 
ATOM     29  F   UNL d   1       9.000   0.041   2.430  0.00  0.00    -0.166 F 
ENDBRANCH  20  26
ENDBRANCH  13  16
ENDBRANCH  11  12
BRANCH  11  30
ATOM     30  C   UNL d   1       2.237  -4.240   0.305  0.00  0.00    -0.035 A 
ATOM     31  C   UNL d   1       2.076  -5.134   1.383  0.00  0.00     0.009 A 
ATOM     32  C   UNL d   1       1.907  -6.499   1.161  0.00  0.00     0.001 A 
ATOM     33  C   UNL d   1       1.920  -6.998  -0.137  0.00  0.00     0.000 A 
ATOM     34  C   UNL d   1       2.142  -6.139  -1.212  0.00  0.00     0.001 A 
ATOM     35  C   UNL d   1       2.305  -4.767  -0.996  0.00  0.00     0.009 A 
ENDBRANCH  11  30
ENDBRANCH  10  11
ENDBRANCH   1  10
BRANCH   3  36
ATOM     36  C   UNL d   1      -2.707   1.798   1.595  0.00  0.00     0.419 C 
ATOM     37  F   UNL d   1      -3.570   1.034   2.308  0.00  0.00    -0.166 F 
ATOM     38  F   UNL d   1      -2.379   2.843   2.401  0.00  0.00    -0.166 F 
ATOM     39  F   UNL d   1      -3.441   2.330   0.578  0.00  0.00    -0.166 F 
ENDBRANCH   3  36
BRANCH   6  40
ATOM     40  C   UNL d   1       1.598   1.934  -0.968  0.00  0.00     0.031 A 
ATOM     41  S   UNL d   1       1.984   3.577  -0.644  0.00  0.00    -0.100 SA
ATOM     42  C   UNL d   1       3.226   3.596  -1.817  0.00  0.00     0.050 A 
ATOM     43  C   UNL d   1       3.348   2.385  -2.458  0.00  0.00     0.008 A 
ATOM     44  C   UNL d   1       2.412   1.429  -1.968  0.00  0.00     0.021 A 
ENDBRANCH   6  40
TORSDOF 9
