REMARK  3 active torsions:
REMARK  status: ('A' for Active; 'I' for Inactive)
REMARK       I    between atoms: N_2  and  C_1 
REMARK    1  A    between atoms: C_6  and  C_1 
REMARK    2  A    between atoms: C_4  and  N_2 
REMARK    3  A    between atoms: N_3  and  C_5 
ROOT
ATOM      1  C   UNL d   1       0.751  -2.461   0.213  0.00  0.00     0.061 A 
ATOM      2  C   UNL d   1       1.961  -2.392   0.958  0.00  0.00     0.057 A 
ATOM      3  C   UNL d   1       0.246  -3.692  -0.241  0.00  0.00     0.032 A 
ATOM      4  C   UNL d   1       2.631  -3.616   1.163  0.00  0.00     0.031 A 
ATOM      5  C   UNL d   1       0.955  -4.870  -0.040  0.00  0.00     0.002 A 
ATOM      6  C   UNL d   1       2.149  -4.832   0.663  0.00  0.00     0.002 A 
ENDROOT
BRANCH   1   7
ATOM      7  N   UNL d   1      -0.019  -1.329  -0.158  0.00  0.00    -0.321 N 
ATOM      8  C   UNL d   1       0.519  -0.268  -0.861  0.00  0.00     0.256 C 
ATOM      9  O   UNL d   1       1.664  -0.219  -1.308  0.00  0.00    -0.267 OA
ATOM     10  H   UNL d   1      -0.992  -1.521  -0.347  0.00  0.00     0.169 HD
BRANCH   8  11
ATOM     11  C   UNL d   1      -0.402   0.884  -1.139  0.00  0.00     0.032 A 
ATOM     12  C   UNL d   1       0.119   1.974  -1.854  0.00  0.00     0.018 A 
ATOM     13  C   UNL d   1      -0.658   3.112  -2.092  0.00  0.00     0.025 A 
ATOM     14  C   UNL d   1      -1.966   3.164  -1.621  0.00  0.00     0.034 A 
ATOM     15  C   UNL d   1      -2.506   2.084  -0.924  0.00  0.00     0.025 A 
ATOM     16 CL   UNL d   1      -2.916   4.573  -1.884  0.00  0.00    -0.084 Cl
ATOM     17  C   UNL d   1      -1.726   0.946  -0.678  0.00  0.00     0.018 A 
ENDBRANCH   8  11
ENDBRANCH   1   7
BRANCH   2  18
ATOM     18  N   UNL d   1       2.487  -1.208   1.469  0.00  0.00    -0.375 N 
ATOM     19  C   UNL d   1       3.920  -1.086   1.787  0.00  0.00     0.149 C 
ATOM     20  C   UNL d   1       4.347   0.385   1.641  0.00  0.00     0.187 C 
ATOM     21  O   UNL d   1       3.548   1.256   2.462  0.00  0.00    -0.388 OA
ATOM     22  C   UNL d   1       2.160   1.135   2.096  0.00  0.00     0.187 C 
ATOM     23  C   UNL d   1       1.656  -0.308   2.286  0.00  0.00     0.149 C 
ENDBRANCH   2  18
TORSDOF 3
