REMARK  4 active torsions:
REMARK  status: ('A' for Active; 'I' for Inactive)
REMARK    1  A    between atoms: C_2  and  C_1 
REMARK       I    between atoms: N_3  and  C_1 
REMARK    2  A    between atoms: C_8  and  N_3 
REMARK    3  A    between atoms: C_12  and  N_3 
REMARK    4  A    between atoms: C_9  and  C_12 
ROOT
ATOM      1  N   UNL d   1      -1.327  -1.379  -3.759  0.00  0.00    -0.197 NA
ATOM      2  C   UNL d   1      -1.557  -1.040  -2.675  0.00  0.00     0.060 C 
ATOM      3  C   UNL d   1      -1.873  -0.650  -1.300  0.00  0.00     0.143 C 
ENDROOT
BRANCH   3   4
ATOM      4  C   UNL d   1      -1.024  -1.431  -0.288  0.00  0.00     0.140 C 
BRANCH   4   5
ATOM      5  N   UNL d   1       0.445  -1.273  -0.318  0.00  0.00    -0.342 N 
ATOM      6  C   UNL d   1       0.957   0.045  -0.340  0.00  0.00     0.255 C 
ATOM      7  O   UNL d   1       0.228   1.029  -0.459  0.00  0.00    -0.267 OA
BRANCH   6   8
ATOM      8  C   UNL d   1       2.415   0.307  -0.226  0.00  0.00     0.053 A 
ATOM      9  C   UNL d   1       2.918   1.227   0.709  0.00  0.00     0.049 A 
ATOM     10 CL   UNL d   1       1.916   2.134   1.788  0.00  0.00    -0.083 Cl
ATOM     11  C   UNL d   1       4.301   1.413   0.828  0.00  0.00     0.025 A 
ATOM     12  C   UNL d   1       5.184   0.680   0.035  0.00  0.00     0.002 A 
ATOM     13  C   UNL d   1       4.689  -0.201  -0.922  0.00  0.00     0.001 A 
ATOM     14  C   UNL d   1       3.311  -0.355  -1.082  0.00  0.00     0.019 A 
ENDBRANCH   6   8
BRANCH   5  15
ATOM     15  C   UNL d   1       1.272  -2.462   0.036  0.00  0.00     0.087 C 
ATOM     16  C   UNL d   1       1.431  -3.436  -1.149  0.00  0.00     0.025 C 
ATOM     17  C   UNL d   1       0.583  -4.704  -1.107  0.00  0.00     0.002 C 
ATOM     18  C   UNL d   1       0.545  -5.333   0.277  0.00  0.00     0.000 C 
ATOM     19  C   UNL d   1       0.017  -4.341   1.302  0.00  0.00     0.002 C 
ATOM     20  C   UNL d   1       0.908  -3.108   1.386  0.00  0.00     0.025 C 
ENDBRANCH   5  15
ENDBRANCH   4   5
ENDBRANCH   3   4
TORSDOF 4
