REMARK  4 active torsions:
REMARK  status: ('A' for Active; 'I' for Inactive)
REMARK    1  A    between atoms: N_13  and  C_3 
REMARK    2  A    between atoms: C_17  and  C_4 
REMARK    3  A    between atoms: C_8  and  N_15 
REMARK    4  A    between atoms: C_9  and  C_10 
ROOT
ATOM      1  N   UNL d   1      -0.228   2.874  -0.005  0.00  0.00    -0.266 NA
ATOM      2  N   UNL d   1       1.070   5.442   0.689  0.00  0.00    -0.365 N 
ATOM      3  C   UNL d   1       0.168   3.243   1.390  0.00  0.00     0.116 C 
ATOM      4  C   UNL d   1       0.191   4.761   1.655  0.00  0.00     0.139 C 
ATOM      5  C   UNL d   1       0.480   4.655  -1.586  0.00  0.00     0.035 C 
ATOM      6  C   UNL d   1       0.783   3.271  -1.014  0.00  0.00     0.098 C 
ATOM      7  C   UNL d   1       0.412   5.794  -0.570  0.00  0.00     0.125 C 
ENDROOT
BRANCH   1   8
ATOM      8  C   UNL d   1      -0.469   1.470  -0.094  0.00  0.00     0.108 A 
ATOM      9  N   UNL d   1       0.100   0.679   0.841  0.00  0.00    -0.331 N 
ATOM     10  C   UNL d   1      -0.113  -0.644   0.786  0.00  0.00     0.118 A 
ATOM     11  HN  UNL d   1       0.682   1.081   1.576  1.00  0.00     0.168 HD
ATOM     12  N   UNL d   1      -0.867  -1.247  -0.145  0.00  0.00    -0.344 N 
ATOM     13  C   UNL d   1      -1.446  -0.453  -1.080  0.00  0.00     0.032 A 
ATOM     14  HN  UNL d   1      -0.999  -2.258  -0.151  1.00  0.00     0.167 HD
ATOM     15  C   UNL d   1      -2.297  -1.167  -2.091  0.00  0.00     0.070 C 
ATOM     16  C   UNL d   1      -1.273   0.926  -1.101  0.00  0.00     0.094 A 
ATOM     17 CL   UNL d   1      -2.049   1.906  -2.297  0.00  0.00    -0.079 Cl
BRANCH  10  18
ATOM     18  C   UNL d   1       0.530  -1.469   1.813  0.00  0.00     0.023 A 
ATOM     19  C   UNL d   1       1.309  -0.904   2.826  0.00  0.00     0.102 A 
ATOM     20  N   UNL d   1       1.941  -1.595   3.810  0.00  0.00    -0.374 N 
ATOM     21  C   UNL d   1       1.796  -2.934   3.792  0.00  0.00     0.087 A 
ATOM     22  HN  UNL d   1       2.495  -1.125   4.525  1.00  0.00     0.164 HD
ATOM     23  C   UNL d   1       1.048  -3.609   2.842  0.00  0.00     0.018 A 
ATOM     24  C   UNL d   1       0.411  -2.866   1.850  0.00  0.00     0.018 A 
ENDBRANCH  10  18
ENDBRANCH   1   8
BRANCH   2  25
ATOM     25  C   UNL d   1       2.094   6.248   1.170  0.00  0.00     0.125 A 
ATOM     26  N   UNL d   1       1.973   6.743   2.428  0.00  0.00    -0.350 N 
ATOM     27  C   UNL d   1       2.972   7.502   2.945  0.00  0.00     0.106 A 
ATOM     28  HN  UNL d   1       1.139   6.546   2.980  1.00  0.00     0.166 HD
ATOM     29  C   UNL d   1       4.137   7.814   2.270  0.00  0.00     0.065 A 
ATOM     30  C   UNL d   1       4.278   7.303   0.984  0.00  0.00     0.045 A 
ATOM     31  C   UNL d   1       3.264   6.514   0.430  0.00  0.00     0.078 A 
ATOM     32 CL   UNL d   1       3.612   5.832  -1.121  0.00  0.00    -0.080 Cl
BRANCH  29  33
ATOM     33  C   UNL d   1       5.195   8.651   2.915  0.00  0.00     0.418 C 
ATOM     34  F   UNL d   1       6.284   8.848   2.122  0.00  0.00    -0.166 F 
ATOM     35  F   UNL d   1       4.746   9.892   3.246  0.00  0.00    -0.166 F 
ATOM     36  F   UNL d   1       5.668   8.102   4.067  0.00  0.00    -0.166 F 
ENDBRANCH  29  33
ENDBRANCH   2  25
TORSDOF 4
