REMARK  7 active torsions:
REMARK  status: ('A' for Active; 'I' for Inactive)
REMARK    1  A    between atoms: N_5  and  C_1 
REMARK    2  A    between atoms: C_4  and  C_6 
REMARK    3  A    between atoms: C_7  and  C_8 
REMARK       I    between atoms: C_8  and  N_22 
REMARK    4  A    between atoms: C_27  and  N_12 
REMARK    5  A    between atoms: N_22  and  C_29 
REMARK    6  A    between atoms: C_28  and  C_27 
REMARK    7  A    between atoms: C_29  and  C_28 
ROOT
ATOM      1  N   UNL d   1       0.113   2.655  -0.120  0.00  0.00    -0.214 N 
ATOM      2  N   UNL d   1       0.630   5.543   0.122  0.00  0.00     0.091 N 
ATOM      3  C   UNL d   1      -0.551   3.419   0.943  0.00  0.00     0.171 C 
ATOM      4  C   UNL d   1       1.384   3.207  -0.596  0.00  0.00     0.171 C 
ATOM      5  C   UNL d   1      -0.642   4.916   0.559  0.00  0.00     0.292 C 
ATOM      6  C   UNL d   1       1.204   4.699  -0.955  0.00  0.00     0.292 C 
ENDROOT
BRANCH   1   7
ATOM      7  C   UNL d   1       0.050   1.279   0.013  0.00  0.00     0.680 A 
ATOM      8  N   UNL d   1       1.056   0.527  -0.461  0.00  0.00    -0.186 N 
ATOM      9  C   UNL d   1       0.948  -0.824  -0.398  0.00  0.00     0.133 A 
ATOM     10  HN  UNL d   1       1.887   0.964  -0.861  1.00  0.00     0.184 HD
ATOM     11  C   UNL d   1      -0.174  -1.441   0.118  0.00  0.00     0.052 A 
ATOM     12  C   UNL d   1      -1.150  -0.602   0.588  0.00  0.00     0.108 A 
ATOM     13  N   UNL d   1      -1.051   0.737   0.557  0.00  0.00    -0.202 N 
ATOM     14  HN  UNL d   1      -1.793   1.325   0.935  1.00  0.00     0.183 HD
BRANCH   9  15
ATOM     15  C   UNL d   1       2.087  -1.686  -0.913  0.00  0.00     0.433 C 
ATOM     16  F   UNL d   1       3.165  -0.986  -1.367  0.00  0.00    -0.165 F 
ATOM     17  F   UNL d   1       2.571  -2.530   0.045  0.00  0.00    -0.165 F 
ATOM     18  F   UNL d   1       1.705  -2.493  -1.946  0.00  0.00    -0.165 F 
ENDBRANCH   9  15
ENDBRANCH   1   7
BRANCH   2  19
ATOM     19  C   UNL d   1       1.545   5.740   1.258  0.00  0.00     0.274 C 
BRANCH  19  20
ATOM     20  C   UNL d   1       2.800   6.548   0.903  0.00  0.00     0.050 C 
BRANCH  20  21
ATOM     21  C   UNL d   1       2.458   7.924   0.337  0.00  0.00     0.125 C 
BRANCH  21  22
ATOM     22  N   UNL d   1       3.642   8.638  -0.088  0.00  0.00    -0.356 N 
ATOM     23  C   UNL d   1       4.424   9.384   0.769  0.00  0.00     0.258 C 
ATOM     24  O   UNL d   1       4.162   9.480   1.966  0.00  0.00    -0.267 OA
ATOM     25  H   UNL d   1       3.917   8.592  -1.060  0.00  0.00     0.162 HD
BRANCH  23  26
ATOM     26  C   UNL d   1       5.566  10.051   0.152  0.00  0.00     0.072 A 
ATOM     27  S   UNL d   1       5.995   9.805  -1.492  0.00  0.00    -0.097 SA
ATOM     28  C   UNL d   1       7.320  10.879  -1.382  0.00  0.00     0.050 A 
ATOM     29  C   UNL d   1       7.442  11.419  -0.123  0.00  0.00     0.009 A 
ATOM     30  C   UNL d   1       6.435  10.938   0.763  0.00  0.00     0.025 A 
ENDBRANCH  23  26
ENDBRANCH  21  22
ENDBRANCH  20  21
ENDBRANCH  19  20
ENDBRANCH   2  19
TORSDOF 7
