REMARK  2 active torsions:
REMARK  status: ('A' for Active; 'I' for Inactive)
REMARK    1  A    between atoms: C_7  and  N_2 
REMARK    2  A    between atoms: S_9  and  C_6 
ROOT
ATOM      1  C   UNL d   1       0.636   0.656   0.592  0.00  0.00     0.167 A 
ATOM      2  N   UNL d   1       0.998  -0.598   0.094  0.00  0.00    -0.237 N 
ATOM      3  S   UNL d   1      -1.120   0.804   0.510  0.00  0.00    -0.033 SA
ATOM      4  N   UNL d   1      -0.037  -1.349  -0.438  0.00  0.00    -0.280 N 
ATOM      5  HN  UNL d   1       0.070  -2.255  -0.893  1.00  0.00     0.189 HD
ATOM      6  C   UNL d   1      -1.157  -0.732  -0.273  0.00  0.00     0.127 A 
ATOM      7  S   UNL d   1       1.570   1.943   1.102  0.00  0.00    -0.050 SA
ENDROOT
BRANCH   2   8
ATOM      8  C   UNL d   1       2.273  -1.238   0.075  0.00  0.00     0.058 A 
ATOM      9  C   UNL d   1       3.277  -0.954   1.011  0.00  0.00     0.033 A 
ATOM     10  C   UNL d   1       4.508  -1.626   0.978  0.00  0.00     0.026 A 
ATOM     11  C   UNL d   1       4.748  -2.593   0.009  0.00  0.00     0.034 A 
ATOM     12  C   UNL d   1       3.764  -2.905  -0.922  0.00  0.00     0.026 A 
ATOM     13 CL   UNL d   1       6.257  -3.416  -0.028  0.00  0.00    -0.084 Cl
ATOM     14  C   UNL d   1       2.533  -2.240  -0.878  0.00  0.00     0.033 A 
ENDBRANCH   2   8
BRANCH   6  15
ATOM     15  S   UNL d   1      -2.675  -1.376  -0.784  0.00  0.00    -0.117 SA
ATOM     16  H   UNL d   1      -3.423  -0.383  -0.286  0.00  0.00     0.109 HD
ENDBRANCH   6  15
TORSDOF 2
