REMARK  2 active torsions:
REMARK  status: ('A' for Active; 'I' for Inactive)
REMARK    1  A    between atoms: C_2  and  C_1 
REMARK       I    between atoms: N_8  and  C_1 
REMARK    2  A    between atoms: O_10  and  C_3 
ROOT
ATOM      1  C   UNL d   1       0.269  -1.375   0.066  0.00  0.00     0.037 A 
ATOM      2  C   UNL d   1      -0.095  -3.486   1.091  0.00  0.00     0.142 A 
ATOM      3  N   UNL d   1      -1.169  -3.746   0.317  0.00  0.00    -0.347 N 
ATOM      4  HN  UNL d   1      -1.688  -4.620   0.400  1.00  0.00     0.167 HD
ATOM      5  C   UNL d   1       0.655  -2.327   1.007  0.00  0.00     0.073 A 
ATOM      6  C   UNL d   1      -1.526  -2.796  -0.574  0.00  0.00     0.091 A 
ATOM      7  C   UNL d   1      -0.851  -1.603  -0.732  0.00  0.00     0.034 A 
ENDROOT
BRANCH   1   8
ATOM      8  C   UNL d   1       1.002  -0.099  -0.106  0.00  0.00     0.249 C 
ATOM      9  O   UNL d   1       0.450   0.899  -0.550  0.00  0.00    -0.268 OA
ATOM     10  N   UNL d   1       2.332  -0.091   0.206  0.00  0.00    -0.366 N 
ATOM     11  H   UNL d   1       2.869  -0.937   0.336  0.00  0.00     0.159 HD
ATOM     12  H   UNL d   1       2.840   0.754  -0.023  0.00  0.00     0.159 HD
ENDBRANCH   1   8
BRANCH   2  13
ATOM     13  O   UNL d   1       0.312  -4.407   2.037  0.00  0.00    -0.341 OA
ATOM     14  C   UNL d   1      -0.526  -5.559   2.086  0.00  0.00     0.211 C 
ENDBRANCH   2  13
TORSDOF 2
