REMARK  2 active torsions:
REMARK  status: ('A' for Active; 'I' for Inactive)
REMARK    1  A    between atoms: C_11  and  C_2 
REMARK    2  A    between atoms: C_13  and  C_9 
ROOT
ATOM      1  N   UNL d   1       1.228  -0.678  -0.042  0.00  0.00    -0.234 N 
ATOM      2  C   UNL d   1       0.058  -1.442  -0.026  0.00  0.00     0.150 A 
ATOM      3  C   UNL d   1       1.161   0.730   0.004  0.00  0.00     0.130 A 
ATOM      4  N   UNL d   1       2.517  -1.093  -0.094  0.00  0.00    -0.289 N 
ATOM      5  HN  UNL d   1       2.853  -2.052  -0.177  1.00  0.00     0.188 HD
ATOM      6  N   UNL d   1      -0.024   1.417   0.016  0.00  0.00    -0.344 N 
ATOM      7  HN  UNL d   1      -0.064   2.436   0.032  1.00  0.00     0.167 HD
ATOM      8  C   UNL d   1       2.462   1.175   0.053  0.00  0.00     0.084 A 
ATOM      9  C   UNL d   1       3.254   0.018  -0.015  0.00  0.00     0.086 A 
ATOM     10  C   UNL d   1      -1.123  -0.800  -0.008  0.00  0.00    -0.002 A 
ATOM     11  C   UNL d   1      -1.090   0.681   0.005  0.00  0.00     0.019 A 
ATOM     12  C   UNL d   1      -2.535  -1.260   0.020  0.00  0.00     0.043 A 
ATOM     13  C   UNL d   1      -2.472   1.249   0.013  0.00  0.00     0.058 A 
ATOM     14  C   UNL d   1      -3.384   0.019   0.010  0.00  0.00     0.011 A 
ENDROOT
BRANCH   9  15
ATOM     15  C   UNL d   1       4.746  -0.009   0.005  0.00  0.00     0.103 A 
ATOM     16  O   UNL d   1       5.543   1.094   0.159  0.00  0.00    -0.320 OA
ATOM     17  C   UNL d   1       6.832   0.667   0.147  0.00  0.00     0.142 A 
ATOM     18  C   UNL d   1       6.888  -0.695  -0.030  0.00  0.00     0.027 A 
ATOM     19  C   UNL d   1       5.544  -1.132  -0.117  0.00  0.00     0.041 A 
ENDBRANCH   9  15
BRANCH   2  20
ATOM     20  C   UNL d   1       0.164  -2.921   0.002  0.00  0.00     0.435 C 
ATOM     21  F   UNL d   1       1.412  -3.445  -0.031  0.00  0.00    -0.165 F 
ATOM     22  F   UNL d   1      -0.423  -3.417   1.127  0.00  0.00    -0.165 F 
ATOM     23  F   UNL d   1      -0.509  -3.478  -1.042  0.00  0.00    -0.165 F 
ENDBRANCH   2  20
TORSDOF 2
