REMARK  3 active torsions:
REMARK  status: ('A' for Active; 'I' for Inactive)
REMARK    1  A    between atoms: C_3  and  C_1 
REMARK       I    between atoms: N_5  and  C_3 
REMARK    2  A    between atoms: C_10  and  N_5 
REMARK    3  A    between atoms: C_22  and  C_18 
ROOT
ATOM      1  C   UNL d   1      -3.852  -0.137  -0.153  0.00  0.00     0.273 C 
ATOM      2  N   UNL d   1      -4.480  -1.365  -0.191  0.00  0.00    -0.308 N 
ATOM      3  O   UNL d   1      -4.399   0.957  -0.092  0.00  0.00    -0.266 OA
ATOM      4  H   UNL d   1      -3.901  -2.185  -0.233  0.00  0.00     0.170 HD
ENDROOT
BRANCH   1   5
ATOM      5  C   UNL d   1      -2.400  -0.217  -0.165  0.00  0.00     0.102 A 
ATOM      6  N   UNL d   1      -1.631   0.923  -0.032  0.00  0.00    -0.351 N 
ATOM      7  C   UNL d   1      -0.291   0.622  -0.034  0.00  0.00     0.043 A 
ATOM      8  H   UNL d   1      -2.026   1.848   0.073  0.00  0.00     0.166 HD
ATOM      9  C   UNL d   1       0.828   1.451   0.087  0.00  0.00     0.031 A 
ATOM     10  C   UNL d   1      -0.187  -0.756  -0.185  0.00  0.00    -0.007 A 
ATOM     11  C   UNL d   1       2.093   0.846   0.065  0.00  0.00     0.009 A 
ATOM     12  C   UNL d   1       2.245  -0.539  -0.074  0.00  0.00    -0.058 A 
ATOM     13  C   UNL d   1       1.094  -1.340  -0.206  0.00  0.00     0.021 A 
ATOM     14  C   UNL d   1      -1.510  -1.271  -0.283  0.00  0.00     0.049 A 
BRANCH  12  15
ATOM     15  C   UNL d   1       3.584  -1.244  -0.076  0.00  0.00     0.034 C 
ATOM     16  C   UNL d   1       4.830  -0.376   0.033  0.00  0.00     0.010 C 
ENDBRANCH  12  15
ENDBRANCH   1   5
BRANCH   2  17
ATOM     17  C   UNL d   1      -5.860  -1.573  -0.100  0.00  0.00     0.108 A 
ATOM     18  N   UNL d   1      -6.707  -0.535  -0.003  0.00  0.00    -0.345 N 
ATOM     19  C   UNL d   1      -8.038  -0.770   0.136  0.00  0.00     0.024 A 
ATOM     20  HN  UNL d   1      -6.354   0.421  -0.033  1.00  0.00     0.167 HD
ATOM     21  C   UNL d   1      -8.896   0.455   0.247  0.00  0.00     0.069 C 
ATOM     22  C   UNL d   1      -8.557  -2.061   0.186  0.00  0.00     0.033 A 
ATOM     23  C   UNL d   1      -7.678  -3.133   0.065  0.00  0.00     0.025 A 
ATOM     24 BR   UNL d   1     -10.399  -2.424   0.425  0.00  0.00    -0.049 Br
ATOM     25  C   UNL d   1      -6.313  -2.887  -0.084  0.00  0.00     0.050 A 
ENDBRANCH   2  17
TORSDOF 3
