REMARK  3 active torsions:
REMARK  status: ('A' for Active; 'I' for Inactive)
REMARK    1  A    between atoms: C_7  and  C_2 
REMARK    2  A    between atoms: O_21  and  C_14 
REMARK    3  A    between atoms: O_22  and  C_18 
ROOT
ATOM      1  C   UNL d   1      -0.005   0.786   0.237  0.00  0.00     0.024 C 
ATOM      2  C   UNL d   1      -1.276   1.602  -0.014  0.00  0.00     0.106 C 
ATOM      3  C   UNL d   1      -0.026  -0.555   0.383  0.00  0.00     0.021 C 
ATOM      4  C   UNL d   1      -2.550   0.752   0.167  0.00  0.00     0.057 C 
ATOM      5  N   UNL d   1      -1.239  -1.215   0.488  0.00  0.00    -0.362 N 
ATOM      6  C   UNL d   1      -2.476  -0.592   0.375  0.00  0.00     0.023 C 
ATOM      7  C   UNL d   1       1.304   1.508   0.269  0.00  0.00     0.159 C 
ATOM      8  C   UNL d   1      -3.804   1.399   0.070  0.00  0.00     0.098 C 
ATOM      9  N   UNL d   1      -4.842   1.922   0.006  0.00  0.00    -0.192 NA
ATOM     10  C   UNL d   1       1.224  -1.410   0.326  0.00  0.00     0.067 C 
ATOM     11  C   UNL d   1       2.472  -0.672  -0.226  0.00  0.00    -0.036 C 
ATOM     12  C   UNL d   1       2.565   0.692   0.472  0.00  0.00     0.092 C 
ATOM     13  O   UNL d   1       1.337   2.726   0.212  0.00  0.00    -0.293 OA
ATOM     14  C   UNL d   1      -3.699  -1.482   0.353  0.00  0.00     0.069 C 
ATOM     15  C   UNL d   1       2.429  -0.466  -1.757  0.00  0.00     0.015 C 
ATOM     16  C   UNL d   1       3.730  -1.509   0.068  0.00  0.00     0.015 C 
ATOM     17  H   UNL d   1      -1.229  -2.228   0.599  0.00  0.00     0.165 HD
ENDROOT
BRANCH   2  18
ATOM     18  C   UNL d   1      -1.259   2.199  -1.443  0.00  0.00    -0.008 A 
ATOM     19  C   UNL d   1      -1.403   3.546  -1.818  0.00  0.00     0.075 A 
ATOM     20  C   UNL d   1      -1.363   3.883  -3.187  0.00  0.00     0.040 A 
ATOM     21  C   UNL d   1      -1.141   2.946  -4.188  0.00  0.00     0.039 A 
ATOM     22  C   UNL d   1      -0.954   1.624  -3.840  0.00  0.00     0.068 A 
ATOM     23  C   UNL d   1      -1.071   1.254  -2.499  0.00  0.00     0.047 A 
BRANCH  19  24
ATOM     24  O   UNL d   1      -1.601   4.696  -1.123  0.00  0.00    -0.355 OA
ATOM     25  C   UNL d   1      -1.583   4.786   0.280  0.00  0.00     0.210 C 
ENDBRANCH  19  24
BRANCH  22  26
ATOM     26  O   UNL d   1      -0.660   0.623  -4.725  0.00  0.00    -0.356 OA
ATOM     27  C   UNL d   1       0.078   1.058  -5.865  0.00  0.00     0.210 C 
ENDBRANCH  22  26
ENDBRANCH   2  18
TORSDOF 3
