REMARK  3 active torsions:
REMARK  status: ('A' for Active; 'I' for Inactive)
REMARK    1  A    between atoms: N_2  and  C_1 
REMARK    2  A    between atoms: C_9  and  C_5 
REMARK    3  A    between atoms: O_12  and  N_10 
ROOT
ATOM      1  C   UNL d   1       0.127   1.195  -0.003  0.00  0.00     0.144 A 
ATOM      2  S   UNL d   1      -1.008  -0.073  -0.013  0.00  0.00    -0.065 SA
ATOM      3  C   UNL d   1       1.429   0.745   0.004  0.00  0.00     0.045 A 
ATOM      4  C   UNL d   1       0.230  -1.256  -0.010  0.00  0.00     0.024 A 
ATOM      5  C   UNL d   1       1.485  -0.679   0.001  0.00  0.00     0.023 A 
ENDROOT
BRANCH   4   6
ATOM      6  C   UNL d   1      -0.110  -2.657  -0.018  0.00  0.00     0.132 C 
ATOM      7  N   UNL d   1       0.833  -3.547  -0.019  0.00  0.00    -0.279 N 
ATOM      8  HN  UNL d   1       1.833  -3.344  -0.013  1.00  0.00     0.193 HD
BRANCH   7   9
ATOM      9  O   UNL d   1       0.271  -4.827  -0.028  0.00  0.00    -0.290 OA
ATOM     10  H   UNL d   1       1.061  -5.402  -0.029  0.00  0.00     0.244 HD
ENDBRANCH   7   9
ENDBRANCH   4   6
BRANCH   1  11
ATOM     11  N   UNL d   1      -0.299   2.570  -0.003  0.00  0.00    -0.108 N 
ATOM     12  O   UNL d   1       0.599   3.423   0.000  0.00  0.00    -0.531 OA
ATOM     13  O   UNL d   1      -1.514   2.809  -0.006  0.00  0.00    -0.531 OA
ENDBRANCH   1  11
TORSDOF 3
