REMARK  2 active torsions:
REMARK  status: ('A' for Active; 'I' for Inactive)
REMARK    1  A    between atoms: C_5  and  C_1 
REMARK    2  A    between atoms: C_12  and  N_8 
ROOT
ATOM      1  C   UNL d   1      -1.210  -1.867   3.292  0.00  0.00     0.125 A 
ATOM      2  N   UNL d   1      -0.446  -2.601   2.385  0.00  0.00    -0.332 N 
ATOM      3  HN  UNL d   1       0.082  -3.440   2.628  1.00  0.00     0.168 HD
ATOM      4  C   UNL d   1      -0.488  -2.080   1.179  0.00  0.00     0.149 A 
ATOM      5  S   UNL d   1      -1.440  -0.644   1.068  0.00  0.00    -0.064 SA
ATOM      6  C   UNL d   1      -1.782  -0.733   2.743  0.00  0.00     0.087 A 
ATOM      7  N   UNL d   1       0.098  -2.588   0.070  0.00  0.00    -0.337 N 
ATOM      8  H   UNL d   1      -0.153  -2.193  -0.828  0.00  0.00     0.168 HD
ENDROOT
BRANCH   7   9
ATOM      9  C   UNL d   1       1.228  -3.426   0.033  0.00  0.00     0.034 A 
ATOM     10  C   UNL d   1       1.419  -4.263  -1.074  0.00  0.00     0.030 A 
ATOM     11  C   UNL d   1       2.508  -5.141  -1.137  0.00  0.00     0.009 A 
ATOM     12  C   UNL d   1       3.436  -5.196  -0.093  0.00  0.00    -0.062 A 
ATOM     13  C   UNL d   1       3.245  -4.377   1.021  0.00  0.00     0.009 A 
ATOM     14  C   UNL d   1       4.604  -6.132  -0.167  0.00  0.00     0.048 C 
ATOM     15  C   UNL d   1       2.146  -3.516   1.087  0.00  0.00     0.030 A 
ENDBRANCH   7   9
BRANCH   1  16
ATOM     16  C   UNL d   1      -1.360  -2.317   4.715  0.00  0.00     0.433 C 
ATOM     17  F   UNL d   1      -0.901  -3.575   4.936  0.00  0.00    -0.165 F 
ATOM     18  F   UNL d   1      -0.696  -1.497   5.573  0.00  0.00    -0.165 F 
ATOM     19  F   UNL d   1      -2.664  -2.304   5.104  0.00  0.00    -0.165 F 
ENDBRANCH   1  16
TORSDOF 2
