REMARK  3 active torsions:
REMARK  status: ('A' for Active; 'I' for Inactive)
REMARK    1  A    between atoms: C_2  and  S_1 
REMARK    2  A    between atoms: N_8  and  S_1 
REMARK    3  A    between atoms: C_16  and  N_8 
ROOT
ATOM      1  S   UNL d   1       0.311  -0.381  -2.455  0.00  0.00     0.265 S 
ATOM      2  O   UNL d   1      -0.003  -1.566  -1.685  0.00  0.00    -0.200 OA
ATOM      3  O   UNL d   1      -0.575   0.068  -3.508  0.00  0.00    -0.200 OA
ENDROOT
BRANCH   1   4
ATOM      4  C   UNL d   1       1.894  -0.616  -3.156  0.00  0.00     0.110 A 
ATOM      5  C   UNL d   1       3.024  -0.974  -2.403  0.00  0.00     0.108 A 
ATOM      6  C   UNL d   1       4.322  -1.190  -3.038  0.00  0.00     0.086 A 
ATOM      7  N   UNL d   1       3.180  -1.163  -1.084  0.00  0.00    -0.238 N 
ATOM      8  N   UNL d   1       5.209  -1.514  -2.091  0.00  0.00    -0.239 N 
ATOM      9  C   UNL d   1       4.521  -1.056  -4.426  0.00  0.00     0.034 A 
ATOM     10  O   UNL d   1       4.507  -1.510  -0.900  0.00  0.00    -0.156 OA
ATOM     11  HN  UNL d   1       6.199  -1.723  -2.221  1.00  0.00     0.197 HD
ATOM     12  C   UNL d   1       3.372  -0.699  -5.155  0.00  0.00     0.004 A 
ATOM     13  C   UNL d   1       2.106  -0.489  -4.548  0.00  0.00     0.028 A 
ATOM     14  HN  UNL d   1       2.465  -1.070  -0.363  1.00  0.00     0.197 HD
ENDBRANCH   1   4
BRANCH   1  15
ATOM     15  N   UNL d   1       0.503   0.876  -1.367  0.00  0.00    -0.280 N 
ATOM     16  H   UNL d   1       0.560   0.618  -0.384  0.00  0.00     0.179 HD
BRANCH  15  17
ATOM     17  C   UNL d   1       0.864   2.180  -1.780  0.00  0.00     0.045 A 
ATOM     18  C   UNL d   1       2.187   2.599  -1.659  0.00  0.00     0.069 A 
ATOM     19  C   UNL d   1       2.515   3.927  -1.923  0.00  0.00     0.104 A 
ATOM     20  O   UNL d   1       3.827   4.282  -1.739  0.00  0.00    -0.346 OA
ATOM     21  C   UNL d   1       1.530   4.833  -2.327  0.00  0.00     0.102 A 
ATOM     22  C   UNL d   1       3.954   5.699  -1.574  0.00  0.00     0.202 C 
ATOM     23  C   UNL d   1       3.183   6.433  -2.659  0.00  0.00     0.202 C 
ATOM     24  O   UNL d   1       1.780   6.157  -2.577  0.00  0.00    -0.346 OA
ATOM     25  C   UNL d   1       0.209   4.407  -2.460  0.00  0.00     0.042 A 
ATOM     26  C   UNL d   1      -0.125   3.077  -2.188  0.00  0.00     0.033 A 
ENDBRANCH  15  17
ENDBRANCH   1  15
TORSDOF 3
