REMARK  5 active torsions:
REMARK  status: ('A' for Active; 'I' for Inactive)
REMARK    1  A    between atoms: N_2  and  C_1 
REMARK    2  A    between atoms: N_3  and  C_1 
REMARK       I    between atoms: C_4  and  N_2 
REMARK    3  A    between atoms: C_5  and  N_3 
REMARK    4  A    between atoms: O_11  and  C_4 
REMARK    5  A    between atoms: C_15  and  O_11 
ROOT
ATOM      1  N   UNL d   1       0.183  -0.937   0.403  0.00  0.00    -0.319 N 
ATOM      2  H   UNL d   1       0.606  -1.750   0.830  0.00  0.00     0.169 HD
ENDROOT
BRANCH   1   3
ATOM      3  C   UNL d   1       1.084   0.036   0.061  0.00  0.00     0.181 C 
ATOM      4  S   UNL d   1       2.686  -0.294   0.426  0.00  0.00    -0.040 SA
BRANCH   3   5
ATOM      5  N   UNL d   1       0.583   1.172  -0.525  0.00  0.00    -0.279 N 
ATOM      6  C   UNL d   1       1.236   2.345  -0.808  0.00  0.00     0.366 C 
ATOM      7  O   UNL d   1       2.421   2.486  -1.064  0.00  0.00    -0.238 OA
ATOM      8  H   UNL d   1      -0.429   1.260  -0.478  0.00  0.00     0.173 HD
BRANCH   6   9
ATOM      9  O   UNL d   1       0.340   3.370  -0.772  0.00  0.00    -0.304 OA
BRANCH   9  10
ATOM     10  C   UNL d   1       0.933   4.675  -0.677  0.00  0.00     0.176 C 
ATOM     11  C   UNL d   1       1.176   4.984   0.790  0.00  0.00     0.034 C 
ENDBRANCH   9  10
ENDBRANCH   6   9
ENDBRANCH   3   5
ENDBRANCH   1   3
BRANCH   1  12
ATOM     12  C   UNL d   1      -1.206  -0.953   0.234  0.00  0.00     0.107 A 
ATOM     13  N   UNL d   1      -1.828   0.111  -0.325  0.00  0.00    -0.346 N 
ATOM     14  C   UNL d   1      -3.171   0.040  -0.503  0.00  0.00     0.007 A 
ATOM     15  HN  UNL d   1      -1.303   0.940  -0.603  1.00  0.00     0.167 HD
ATOM     16  C   UNL d   1      -3.836   1.211  -1.159  0.00  0.00     0.068 C 
ATOM     17  C   UNL d   1      -3.921  -1.070  -0.123  0.00  0.00     0.025 A 
ATOM     18  C   UNL d   1      -3.269  -2.145   0.468  0.00  0.00     0.006 A 
ATOM     19  C   UNL d   1      -1.892  -2.088   0.652  0.00  0.00     0.048 A 
ENDBRANCH   1  12
TORSDOF 5
