REMARK  6 active torsions:
REMARK  status: ('A' for Active; 'I' for Inactive)
REMARK    1  A    between atoms: C_9  and  C_1 
REMARK    2  A    between atoms: C_3  and  N_2 
REMARK    3  A    between atoms: C_13  and  C_4 
REMARK    4  A    between atoms: C_15  and  C_11 
REMARK    5  A    between atoms: O_20  and  C_13 
REMARK    6  A    between atoms: C_23  and  O_20 
ROOT
ATOM      1  C   UNL d   1       1.060  -0.833   0.092  0.00  0.00     0.160 C 
ATOM      2  N   UNL d   1       1.019   0.536   0.243  0.00  0.00    -0.228 N 
ATOM      3  C   UNL d   1      -0.259  -1.269   0.023  0.00  0.00     0.090 C 
ATOM      4  N   UNL d   1      -0.258   0.956   0.491  0.00  0.00    -0.302 N 
ATOM      5  HN  UNL d   1      -0.563   1.888   0.772  1.00  0.00     0.186 HD
ATOM      6  C   UNL d   1      -1.016  -0.117   0.287  0.00  0.00     0.127 C 
ENDROOT
BRANCH   2   7
ATOM      7  C   UNL d   1       2.020   1.513   0.105  0.00  0.00     0.171 A 
ATOM      8  N   UNL d   1       3.178   1.312  -0.486  0.00  0.00    -0.334 N 
ATOM      9  C   UNL d   1       3.911   2.498  -0.476  0.00  0.00     0.051 A 
ATOM     10  HN  UNL d   1       3.489   0.428  -0.888  1.00  0.00     0.168 HD
ATOM     11  C   UNL d   1       3.298   3.546   0.188  0.00  0.00     0.083 A 
ATOM     12  S   UNL d   1       1.737   3.085   0.713  0.00  0.00    -0.062 SA
BRANCH   9  13
ATOM     13  C   UNL d   1       5.228   2.603  -1.100  0.00  0.00    -0.009 A 
ATOM     14  C   UNL d   1       5.720   3.833  -1.565  0.00  0.00     0.014 A 
ATOM     15  C   UNL d   1       6.988   3.926  -2.147  0.00  0.00     0.001 A 
ATOM     16  C   UNL d   1       7.776   2.784  -2.278  0.00  0.00     0.000 A 
ATOM     17  C   UNL d   1       7.292   1.553  -1.836  0.00  0.00     0.001 A 
ATOM     18  C   UNL d   1       6.024   1.461  -1.253  0.00  0.00     0.014 A 
ENDBRANCH   9  13
ENDBRANCH   2   7
BRANCH   1  19
ATOM     19  C   UNL d   1       2.307  -1.615   0.050  0.00  0.00     0.435 C 
ATOM     20  F   UNL d   1       3.395  -0.967   0.526  0.00  0.00    -0.165 F 
ATOM     21  F   UNL d   1       2.197  -2.722   0.831  0.00  0.00    -0.165 F 
ATOM     22  F   UNL d   1       2.597  -2.038  -1.204  0.00  0.00    -0.165 F 
ENDBRANCH   1  19
BRANCH   3  23
ATOM     23  C   UNL d   1      -0.727  -2.609  -0.265  0.00  0.00     0.297 C 
ATOM     24  O   UNL d   1       0.022  -3.537  -0.535  0.00  0.00    -0.259 OA
BRANCH  23  25
ATOM     25  O   UNL d   1      -2.088  -2.677  -0.279  0.00  0.00    -0.318 OA
BRANCH  25  26
ATOM     26  C   UNL d   1      -2.641  -3.886  -0.820  0.00  0.00     0.174 C 
ATOM     27  C   UNL d   1      -2.741  -3.749  -2.329  0.00  0.00     0.034 C 
ENDBRANCH  25  26
ENDBRANCH  23  25
ENDBRANCH   3  23
TORSDOF 6
