REMARK  1 active torsions:
REMARK  status: ('A' for Active; 'I' for Inactive)
REMARK    1  A    between atoms: C_2  and  C_1 
ROOT
ATOM      1  C   UNL d   1      -1.541   0.257   0.111  0.00  0.00     0.004 C 
ATOM      2  C   UNL d   1      -0.763   1.014   1.227  0.00  0.00     0.020 C 
ATOM      3  C   UNL d   1      -0.994   0.747  -1.258  0.00  0.00     0.020 C 
ATOM      4  C   UNL d   1      -1.218  -1.257   0.250  0.00  0.00     0.020 C 
ATOM      5  C   UNL d   1       0.520   0.493  -1.369  0.00  0.00    -0.013 C 
ATOM      6  C   UNL d   1       0.296  -1.510   0.142  0.00  0.00    -0.013 C 
ATOM      7  C   UNL d   1       0.749   0.762   1.122  0.00  0.00    -0.013 C 
ATOM      8  C   UNL d   1       1.020  -0.744   1.260  0.00  0.00     0.009 C 
ATOM      9  C   UNL d   1       0.796  -1.012  -1.224  0.00  0.00     0.009 C 
ATOM     10  C   UNL d   1       1.248   1.249  -0.246  0.00  0.00     0.009 C 
ENDROOT
BRANCH   1  11
ATOM     11  C   UNL d   1      -3.037   0.501   0.215  0.00  0.00     0.025 A 
ATOM     12  N   UNL d   1      -3.524   1.321   1.227  0.00  0.00    -0.356 N 
ATOM     13  C   UNL d   1      -4.834   1.411   1.160  0.00  0.00     0.047 A 
ATOM     14  HN  UNL d   1      -2.945   1.787   1.925  1.00  0.00     0.166 HD
ATOM     15  C   UNL d   1      -5.671   2.208   2.096  0.00  0.00     0.076 C 
ATOM     16  S   UNL d   1      -5.569   0.526  -0.113  0.00  0.00    -0.087 SA
ATOM     17  C   UNL d   1      -4.022  -0.017  -0.609  0.00  0.00     0.077 A 
ENDBRANCH   1  11
TORSDOF 1
