REMARK  7 active torsions:
REMARK  status: ('A' for Active; 'I' for Inactive)
REMARK       I    between atoms: N_3  and  C_1 
REMARK    1  A    between atoms: C_6  and  C_1 
REMARK       I    between atoms: C_2  and  N_4 
REMARK    2  A    between atoms: C_16  and  C_2 
REMARK    3  A    between atoms: N_4  and  N_3 
REMARK    4  A    between atoms: C_5  and  C_20 
REMARK       I    between atoms: N_7  and  C_5 
REMARK    5  A    between atoms: C_15  and  N_7 
REMARK    6  A    between atoms: S_13  and  C_16 
REMARK    7  A    between atoms: C_20  and  S_13 
ROOT
ATOM      1  C   UNL d   1       0.296   3.619   0.527  0.00  0.00     0.245 C 
ATOM      2  N   UNL d   1       0.120   3.344  -0.814  0.00  0.00    -0.267 N 
ATOM      3  O   UNL d   1      -0.101   2.867   1.415  0.00  0.00    -0.271 OA
ATOM      4  H   UNL d   1       0.274   4.041  -1.544  0.00  0.00     0.190 HD
ENDROOT
BRANCH   1   5
ATOM      5  C   UNL d   1       1.075   4.891   0.817  0.00  0.00     0.178 C 
BRANCH   5   6
ATOM      6  S   UNL d   1       0.241   6.379   0.148  0.00  0.00    -0.150 SA
BRANCH   6   7
ATOM      7  C   UNL d   1      -1.212   6.368   1.237  0.00  0.00     0.177 C 
BRANCH   7   8
ATOM      8  C   UNL d   1      -2.206   7.505   1.050  0.00  0.00     0.231 C 
ATOM      9  N   UNL d   1      -1.888   8.489   0.135  0.00  0.00    -0.327 N 
ATOM     10  H   UNL d   1      -1.068   8.317  -0.440  0.00  0.00     0.169 HD
ATOM     11  O   UNL d   1      -3.246   7.465   1.715  0.00  0.00    -0.272 OA
BRANCH   9  12
ATOM     12  C   UNL d   1      -2.710   9.589  -0.216  0.00  0.00     0.034 A 
ATOM     13  C   UNL d   1      -3.792  10.013   0.563  0.00  0.00     0.029 A 
ATOM     14  C   UNL d   1      -4.636  11.037   0.125  0.00  0.00     0.002 A 
ATOM     15  C   UNL d   1      -4.400  11.659  -1.095  0.00  0.00     0.000 A 
ATOM     16  C   UNL d   1      -3.294  11.286  -1.858  0.00  0.00     0.002 A 
ATOM     17  C   UNL d   1      -2.442  10.265  -1.412  0.00  0.00     0.029 A 
ENDBRANCH   9  12
ENDBRANCH   7   8
ENDBRANCH   6   7
ENDBRANCH   5   6
ENDBRANCH   1   5
BRANCH   2  18
ATOM     18  N   UNL d   1      -0.645   2.227  -1.170  0.00  0.00    -0.263 N 
ATOM     19  C   UNL d   1      -0.835   1.974  -2.514  0.00  0.00     0.270 C 
ATOM     20  O   UNL d   1      -0.419   2.725  -3.393  0.00  0.00    -0.266 OA
ATOM     21  H   UNL d   1      -0.815   1.545  -0.433  0.00  0.00     0.190 HD
BRANCH  19  22
ATOM     22  C   UNL d   1      -1.557   0.720  -2.864  0.00  0.00     0.033 A 
ATOM     23  C   UNL d   1      -2.482   0.123  -1.996  0.00  0.00     0.019 A 
ATOM     24  C   UNL d   1      -3.152  -1.044  -2.381  0.00  0.00     0.025 A 
ATOM     25  C   UNL d   1      -2.902  -1.611  -3.630  0.00  0.00     0.034 A 
ATOM     26  C   UNL d   1      -1.990  -1.022  -4.502  0.00  0.00     0.025 A 
ATOM     27 CL   UNL d   1      -3.735  -3.041  -4.100  0.00  0.00    -0.084 Cl
ATOM     28  C   UNL d   1      -1.321   0.146  -4.122  0.00  0.00     0.019 A 
ENDBRANCH  19  22
ENDBRANCH   2  18
TORSDOF 7
