REMARK  4 active torsions:
REMARK  status: ('A' for Active; 'I' for Inactive)
REMARK    1  A    between atoms: C_8  and  C_3 
REMARK    2  A    between atoms: C_18  and  C_4 
REMARK    3  A    between atoms: C_6  and  C_14 
REMARK    4  A    between atoms: N_7  and  C_9 
ROOT
ATOM      1  C   UNL d   1       0.006  -2.654  -0.040  0.00  0.00     0.013 A 
ATOM      2  C   UNL d   1      -0.456  -5.402  -0.154  0.00  0.00     0.082 A 
ATOM      3  N   UNL d   1      -0.938  -4.617  -1.137  0.00  0.00    -0.356 N 
ATOM      4  HN  UNL d   1      -1.470  -5.012  -1.912  1.00  0.00     0.166 HD
ATOM      5  C   UNL d   1      -0.693  -3.285  -1.063  0.00  0.00     0.103 A 
ATOM      6  C   UNL d   1       0.504  -3.484   0.965  0.00  0.00     0.019 A 
ATOM      7  C   UNL d   1       0.276  -4.862   0.905  0.00  0.00     0.043 A 
ENDROOT
BRANCH   1   8
ATOM      8  C   UNL d   1       0.219  -1.204  -0.000  0.00  0.00     0.086 A 
ATOM      9  N   UNL d   1       1.265  -0.609   0.540  0.00  0.00    -0.349 N 
ATOM     10  C   UNL d   1       1.177   0.768   0.385  0.00  0.00     0.050 A 
ATOM     11  HN  UNL d   1       2.032  -1.094   1.007  1.00  0.00     0.166 HD
ATOM     12  C   UNL d   1       0.042   1.202  -0.268  0.00  0.00     0.082 A 
ATOM     13  S   UNL d   1      -0.953  -0.127  -0.671  0.00  0.00    -0.081 SA
BRANCH  10  14
ATOM     14  C   UNL d   1       2.237   1.667   0.824  0.00  0.00    -0.009 A 
ATOM     15  C   UNL d   1       3.563   1.216   0.856  0.00  0.00     0.014 A 
ATOM     16  C   UNL d   1       4.601   2.082   1.214  0.00  0.00     0.001 A 
ATOM     17  C   UNL d   1       4.322   3.404   1.558  0.00  0.00     0.000 A 
ATOM     18  C   UNL d   1       3.005   3.858   1.556  0.00  0.00     0.001 A 
ATOM     19  C   UNL d   1       1.968   2.993   1.196  0.00  0.00     0.014 A 
ENDBRANCH  10  14
ENDBRANCH   1   8
BRANCH   2  20
ATOM     20  N   UNL d   1      -0.735  -6.781  -0.157  0.00  0.00    -0.269 NA
ATOM     21  C   UNL d   1      -1.947  -7.104  -0.920  0.00  0.00     0.098 C 
ATOM     22  C   UNL d   1      -2.331  -8.545  -0.588  0.00  0.00     0.028 C 
ATOM     23  C   UNL d   1      -1.190  -9.529  -0.896  0.00  0.00     0.096 C 
ATOM     24  C   UNL d   1       0.128  -9.050  -0.255  0.00  0.00     0.028 C 
ATOM     25  C   UNL d   1       0.430  -7.577  -0.559  0.00  0.00     0.098 C 
BRANCH  23  26
ATOM     26  C   UNL d   1      -1.043  -9.800  -2.393  0.00  0.00     0.391 C 
ATOM     27  F   UNL d   1      -1.985  -9.175  -3.131  0.00  0.00    -0.171 F 
ATOM     28  F   UNL d   1       0.163  -9.429  -2.874  0.00  0.00    -0.171 F 
ATOM     29  F   UNL d   1      -1.171 -11.127  -2.633  0.00  0.00    -0.171 F 
ENDBRANCH  23  26
ENDBRANCH   2  20
TORSDOF 4
