REMARK  5 active torsions:
REMARK  status: ('A' for Active; 'I' for Inactive)
REMARK    1  A    between atoms: C_2  and  S_1 
REMARK    2  A    between atoms: C_5  and  S_1 
REMARK    3  A    between atoms: C_10  and  C_2 
REMARK    4  A    between atoms: C_3  and  C_8 
REMARK       I    between atoms: N_17  and  C_3 
REMARK    5  A    between atoms: N_4  and  C_10 
ROOT
ATOM      1  C   UNL d   1       0.899   0.794  -2.556  0.00  0.00     0.287 C 
ENDROOT
BRANCH   1   2
ATOM      2  N   UNL d   1       0.433   0.540  -3.943  0.00  0.00     0.089 N 
ATOM      3  C   UNL d   1       0.910   1.633  -4.813  0.00  0.00     0.273 C 
ATOM      4  C   UNL d   1       0.467   1.448  -6.266  0.00  0.00     0.044 C 
ATOM      5  C   UNL d   1       0.923   0.100  -6.829  0.00  0.00     0.081 C 
ATOM      6  C   UNL d   1       0.465  -1.016  -5.888  0.00  0.00     0.044 C 
ATOM      7  C   UNL d   1       0.900  -0.765  -4.442  0.00  0.00     0.273 C 
BRANCH   5   8
ATOM      8  C   UNL d   1       2.430   0.042  -7.066  0.00  0.00     0.219 C 
ATOM      9  O   UNL d   1       3.180  -0.792  -6.574  0.00  0.00    -0.273 OA
ATOM     10  N   UNL d   1       2.929   0.985  -7.917  0.00  0.00    -0.370 N 
ATOM     11  H   UNL d   1       2.339   1.540  -8.519  0.00  0.00     0.159 HD
ATOM     12  H   UNL d   1       3.912   0.912  -8.145  0.00  0.00     0.159 HD
ENDBRANCH   5   8
ENDBRANCH   1   2
BRANCH   1  13
ATOM     13  C   UNL d   1       0.452  -0.249  -1.534  0.00  0.00     0.176 C 
BRANCH  13  14
ATOM     14  S   UNL d   1       1.058   0.188   0.081  0.00  0.00     0.177 S 
ATOM     15  O   UNL d   1       0.396   1.403   0.512  0.00  0.00    -0.223 OA
ATOM     16  O   UNL d   1       2.506   0.100   0.069  0.00  0.00    -0.223 OA
BRANCH  14  17
ATOM     17  C   UNL d   1       0.472  -1.128   1.131  0.00  0.00     0.059 A 
ATOM     18  C   UNL d   1       1.265  -2.265   1.322  0.00  0.00     0.025 A 
ATOM     19  C   UNL d   1       0.850  -3.250   2.223  0.00  0.00     0.025 A 
ATOM     20  C   UNL d   1      -0.342  -3.087   2.930  0.00  0.00     0.034 A 
ATOM     21  C   UNL d   1      -1.131  -1.953   2.736  0.00  0.00     0.025 A 
ATOM     22 CL   UNL d   1      -0.830  -4.282   4.068  0.00  0.00    -0.084 Cl
ATOM     23  C   UNL d   1      -0.725  -0.966   1.837  0.00  0.00     0.025 A 
ENDBRANCH  14  17
ENDBRANCH  13  14
ENDBRANCH   1  13
TORSDOF 5
