REMARK  2 active torsions:
REMARK  status: ('A' for Active; 'I' for Inactive)
REMARK    1  A    between atoms: C_2  and  C_1 
REMARK       I    between atoms: N_3  and  C_2 
REMARK    2  A    between atoms: C_5  and  N_3 
ROOT
ATOM      1  C   UNL d   1      -1.277   1.274   1.566  0.00  0.00     0.082 A 
ATOM      2  C   UNL d   1      -0.885   0.160   2.339  0.00  0.00     0.058 A 
ATOM      3  C   UNL d   1      -1.641   2.476   2.195  0.00  0.00     0.058 A 
ATOM      4 CL   UNL d   1      -1.320   1.125  -0.167  0.00  0.00    -0.080 Cl
ATOM      5 CL   UNL d   1      -2.166   3.867   1.313  0.00  0.00    -0.082 Cl
ATOM      6  C   UNL d   1      -0.832   0.291   3.732  0.00  0.00     0.031 A 
ATOM      7  C   UNL d   1      -1.178   1.493   4.351  0.00  0.00     0.004 A 
ATOM      8  C   UNL d   1      -1.590   2.580   3.587  0.00  0.00     0.026 A 
ENDROOT
BRANCH   2   9
ATOM      9  N   UNL d   1      -0.523  -1.041   1.676  0.00  0.00    -0.322 N 
ATOM     10  C   UNL d   1      -0.351  -2.302   2.247  0.00  0.00     0.277 C 
ATOM     11  O   UNL d   1      -0.687  -2.560   3.407  0.00  0.00    -0.268 OA
ATOM     12  H   UNL d   1      -0.455  -0.971   0.663  0.00  0.00     0.169 HD
BRANCH  10  13
ATOM     13  C   UNL d   1       0.203  -3.395   1.294  0.00  0.00     0.269 C 
ATOM     14 CL   UNL d   1       1.307  -2.672   0.086  0.00  0.00    -0.073 Cl
ATOM     15 CL   UNL d   1      -1.183  -4.141   0.460  0.00  0.00    -0.073 Cl
ATOM     16 CL   UNL d   1       1.098  -4.617   2.231  0.00  0.00    -0.073 Cl
ENDBRANCH  10  13
ENDBRANCH   2   9
TORSDOF 2
