REMARK  6 active torsions:
REMARK  status: ('A' for Active; 'I' for Inactive)
REMARK    1  A    between atoms: C_2  and  C_1 
REMARK    2  A    between atoms: O_11  and  C_2 
REMARK    3  A    between atoms: C_3  and  C_9 
REMARK    4  A    between atoms: C_12  and  C_4 
REMARK    5  A    between atoms: C_15  and  O_11 
REMARK    6  A    between atoms: O_14  and  C_12 
ROOT
ATOM      1  C   UNL d   1      -0.761   1.121  -0.051  0.00  0.00     0.056 A 
ATOM      2  N   UNL d   1       1.331  -0.093  -0.043  0.00  0.00    -0.373 N 
ATOM      3  HN  UNL d   1       2.351  -0.099  -0.046  1.00  0.00     0.164 HD
ATOM      4  C   UNL d   1      -1.474  -0.087  -0.050  0.00  0.00     0.041 A 
ATOM      5  C   UNL d   1      -0.780  -1.297  -0.038  0.00  0.00     0.034 A 
ATOM      6  C   UNL d   1       0.627   1.065  -0.051  0.00  0.00     0.105 A 
ATOM      7  C   UNL d   1       0.613  -1.243  -0.031  0.00  0.00     0.108 A 
ENDROOT
BRANCH   1   8
ATOM      8  C   UNL d   1      -1.392   2.456   0.031  0.00  0.00     0.294 C 
ATOM      9  O   UNL d   1      -0.755   3.496   0.086  0.00  0.00    -0.259 OA
BRANCH   8  10
ATOM     10  O   UNL d   1      -2.735   2.333   0.155  0.00  0.00    -0.318 OA
BRANCH  10  11
ATOM     11  C   UNL d   1      -3.407   3.486   0.684  0.00  0.00     0.174 C 
ATOM     12  C   UNL d   1      -3.421   3.361   2.197  0.00  0.00     0.034 C 
ENDBRANCH  10  11
ENDBRANCH   8  10
ENDBRANCH   1   8
BRANCH   5  13
ATOM     13  C   UNL d   1      -1.471  -2.554  -0.020  0.00  0.00    -0.063 C 
ATOM     14  C   UNL d   1      -2.047  -3.613  -0.005  0.00  0.00    -0.075 C 
BRANCH  14  15
ATOM     15  C   UNL d   1      -2.733  -4.907   0.009  0.00  0.00     0.258 C 
BRANCH  15  16
ATOM     16  O   UNL d   1      -3.892  -4.856  -0.815  0.00  0.00    -0.389 OA
ATOM     17  H   UNL d   1      -4.438  -4.124  -0.484  0.00  0.00     0.210 HD
ENDBRANCH  15  16
ENDBRANCH  14  15
ENDBRANCH   5  13
TORSDOF 6
