REMARK  4 active torsions:
REMARK  status: ('A' for Active; 'I' for Inactive)
REMARK    1  A    between atoms: N_3  and  S_1 
REMARK       I    between atoms: C_2  and  N_8 
REMARK       I    between atoms: N_5  and  C_2 
REMARK    2  A    between atoms: C_4  and  N_3 
REMARK    3  A    between atoms: C_6  and  N_5 
REMARK    4  A    between atoms: N_8  and  C_12 
ROOT
ATOM      1  C   UNL d   1      -2.141  -5.308   0.073  0.00  0.00     0.325 C 
ATOM      2  N   UNL d   1      -2.370  -4.520   1.162  0.00  0.00    -0.308 N 
ATOM      3  N   UNL d   1      -0.843  -5.499  -0.292  0.00  0.00    -0.309 N 
ATOM      4  O   UNL d   1      -3.008  -5.946  -0.523  0.00  0.00    -0.247 OA
ATOM      5  H   UNL d   1      -1.627  -4.523   1.843  0.00  0.00     0.170 HD
ATOM      6  H   UNL d   1      -0.773  -6.308  -0.899  0.00  0.00     0.170 HD
ENDROOT
BRANCH   3   7
ATOM      7  C   UNL d   1       0.334  -4.736  -0.156  0.00  0.00     0.038 A 
ATOM      8  C   UNL d   1       0.402  -3.398   0.245  0.00  0.00     0.054 A 
ATOM      9  C   UNL d   1       1.643  -2.727   0.265  0.00  0.00     0.030 A 
ATOM     10  C   UNL d   1       2.828  -3.396  -0.085  0.00  0.00    -0.040 A 
ATOM     11  C   UNL d   1       2.743  -4.723  -0.514  0.00  0.00     0.011 A 
ATOM     12  C   UNL d   1       4.185  -2.750  -0.047  0.00  0.00     0.050 C 
ATOM     13  C   UNL d   1       1.513  -5.379  -0.552  0.00  0.00     0.030 A 
BRANCH   9  14
ATOM     14  N   UNL d   1       1.705  -1.344   0.626  0.00  0.00    -0.185 NA
ATOM     15  H   UNL d   1       1.232  -1.098   1.498  0.00  0.00     0.146 HD
BRANCH  14  16
ATOM     16  S   UNL d   1       1.322  -0.190  -0.550  0.00  0.00     0.210 S 
ATOM     17  O   UNL d   1       0.825   0.952   0.198  0.00  0.00    -0.211 OA
ATOM     18  O   UNL d   1       0.541  -0.789  -1.607  0.00  0.00    -0.211 OA
ATOM     19  C   UNL d   1       2.921   0.260  -1.192  0.00  0.00     0.180 C 
ENDBRANCH  14  16
ENDBRANCH   9  14
ENDBRANCH   3   7
BRANCH   2  20
ATOM     20  C   UNL d   1      -3.645  -4.062   1.582  0.00  0.00     0.047 A 
ATOM     21  C   UNL d   1      -3.902  -3.839   2.961  0.00  0.00     0.001 A 
ATOM     22  C   UNL d   1      -5.055  -3.099   3.328  0.00  0.00    -0.024 A 
ATOM     23  C   UNL d   1      -3.102  -4.362   4.005  0.00  0.00     0.014 A 
ATOM     24  C   UNL d   1      -5.295  -2.800   4.680  0.00  0.00     0.012 A 
ATOM     25  C   UNL d   1      -5.960  -2.685   2.340  0.00  0.00     0.012 A 
ATOM     26  C   UNL d   1      -4.465  -3.297   5.683  0.00  0.00     0.001 A 
ATOM     27  C   UNL d   1      -3.388  -4.107   5.347  0.00  0.00     0.001 A 
ATOM     28  C   UNL d   1      -5.761  -3.025   1.005  0.00  0.00     0.003 A 
ATOM     29  C   UNL d   1      -4.606  -3.707   0.626  0.00  0.00     0.030 A 
ENDBRANCH   2  20
TORSDOF 4
