REMARK  3 active torsions:
REMARK  status: ('A' for Active; 'I' for Inactive)
REMARK    1  A    between atoms: C_7  and  C_1 
REMARK    2  A    between atoms: C_6  and  C_2 
REMARK    3  A    between atoms: C_16  and  C_11 
ROOT
ATOM      1  C   UNL d   1      -0.864   2.493  -0.035  0.00  0.00    -0.001 A 
ATOM      2  C   UNL d   1      -0.547   3.393  -1.046  0.00  0.00    -0.038 A 
ATOM      3  C   UNL d   1      -1.036   4.706  -1.014  0.00  0.00    -0.042 A 
ATOM      4  C   UNL d   1      -2.246   4.259   1.040  0.00  0.00    -0.049 A 
ATOM      5  C   UNL d   1      -1.867   5.141   0.013  0.00  0.00     0.016 A 
ATOM      6  C   UNL d   1      -1.712   2.948   1.000  0.00  0.00     0.022 A 
ATOM      7  C   UNL d   1      -0.564   5.502  -2.211  0.00  0.00    -0.020 C 
ATOM      8  C   UNL d   1       0.268   3.171  -2.287  0.00  0.00     0.041 C 
ATOM      9  C   UNL d   1       0.594   4.608  -2.713  0.00  0.00     0.018 C 
ATOM     10  C   UNL d   1      -0.046   6.894  -1.836  0.00  0.00     0.020 C 
ATOM     11  C   UNL d   1      -1.684   5.612  -3.253  0.00  0.00     0.020 C 
ENDROOT
BRANCH   1  12
ATOM     12  C   UNL d   1      -0.324   1.133   0.017  0.00  0.00     0.061 A 
ATOM     13  C   UNL d   1      -0.066   0.360   1.183  0.00  0.00     0.067 A 
ATOM     14  C   UNL d   1       0.472  -0.825   0.736  0.00  0.00     0.134 A 
ATOM     15  N   UNL d   1       0.503  -0.724  -0.618  0.00  0.00    -0.296 N 
ATOM     16  N   UNL d   1       0.017   0.437  -1.079  0.00  0.00    -0.300 N 
ATOM     17  H   UNL d   1       0.845  -1.403  -1.293  0.00  0.00     0.187 HD
ATOM     18  HN  UNL d   1      -0.074   0.728  -2.052  1.00  0.00     0.187 HD
BRANCH  14  19
ATOM     19  C   UNL d   1       0.969  -2.021   1.423  0.00  0.00     0.434 C 
ATOM     20  F   UNL d   1       0.855  -1.929   2.770  0.00  0.00    -0.165 F 
ATOM     21  F   UNL d   1       0.291  -3.131   1.038  0.00  0.00    -0.165 F 
ATOM     22  F   UNL d   1       2.276  -2.246   1.145  0.00  0.00    -0.165 F 
ENDBRANCH  14  19
ENDBRANCH   1  12
BRANCH   4  23
ATOM     23  C   UNL d   1      -3.167   4.718   2.187  0.00  0.00    -0.024 C 
ATOM     24  C   UNL d   1      -2.294   5.295   3.318  0.00  0.00     0.019 C 
ATOM     25  C   UNL d   1      -4.168   5.804   1.726  0.00  0.00     0.019 C 
ATOM     26  C   UNL d   1      -4.019   3.568   2.774  0.00  0.00     0.019 C 
ENDBRANCH   4  23
TORSDOF 3
