REMARK  6 active torsions:
REMARK  status: ('A' for Active; 'I' for Inactive)
REMARK    1  A    between atoms: C_2  and  C_1 
REMARK    2  A    between atoms: C_3  and  C_2 
REMARK    3  A    between atoms: N_5  and  C_4 
REMARK       I    between atoms: C_6  and  N_5 
REMARK    4  A    between atoms: C_18  and  C_6 
REMARK    5  A    between atoms: C_14  and  N_15 
REMARK    6  A    between atoms: N_15  and  C_18 
ROOT
ATOM      1  C   UNL d   1       2.518  -2.381   0.507  0.00  0.00     0.043 A 
ATOM      2  C   UNL d   1       2.557  -0.964   0.418  0.00  0.00     0.049 A 
ATOM      3  C   UNL d   1       1.311  -3.027   0.824  0.00  0.00     0.041 A 
ATOM      4  C   UNL d   1       1.381  -0.233   0.642  0.00  0.00     0.032 A 
ATOM      5  C   UNL d   1       0.156  -2.269   1.041  0.00  0.00     0.035 A 
ATOM      6  C   UNL d   1       0.187  -0.885   0.953  0.00  0.00     0.026 A 
ATOM      7 CL   UNL d   1      -1.327  -3.054   1.421  0.00  0.00    -0.084 Cl
ENDROOT
BRANCH   2   8
ATOM      8  N   UNL d   1       3.754  -0.314   0.041  0.00  0.00    -0.325 N 
ATOM      9  C   UNL d   1       4.048   1.032   0.102  0.00  0.00     0.250 C 
ATOM     10  O   UNL d   1       3.389   1.882   0.697  0.00  0.00    -0.271 OA
ATOM     11  H   UNL d   1       4.541  -0.918  -0.213  0.00  0.00     0.169 HD
BRANCH   9  12
ATOM     12  C   UNL d   1       5.358   1.411  -0.594  0.00  0.00     0.372 C 
BRANCH  12  13
ATOM     13  N   UNL d   1       5.605   0.669  -1.854  0.00  0.00     0.097 N 
ATOM     14  H   UNL d   1       6.570   0.865  -2.124  0.00  0.00     0.317 HD
BRANCH  13  15
ATOM     15  C   UNL d   1       4.721   1.104  -2.954  0.00  0.00     0.229 C 
ATOM     16  C   UNL d   1       3.421   0.270  -3.082  0.00  0.00     0.075 C 
ATOM     17  C   UNL d   1       3.099   0.428  -4.537  0.00  0.00    -0.050 A 
ATOM     18  C   UNL d   1       1.897   0.177  -5.176  0.00  0.00     0.007 A 
ATOM     19  C   UNL d   1       4.226   0.839  -5.255  0.00  0.00    -0.050 A 
ATOM     20  C   UNL d   1       1.832   0.358  -6.561  0.00  0.00     0.001 A 
ATOM     21  C   UNL d   1       2.963   0.772  -7.280  0.00  0.00     0.001 A 
ATOM     22  C   UNL d   1       4.175   1.009  -6.629  0.00  0.00     0.007 A 
ATOM     23  C   UNL d   1       5.408   0.981  -4.346  0.00  0.00     0.075 C 
ENDBRANCH  13  15
ENDBRANCH  12  13
ENDBRANCH   9  12
ENDBRANCH   2   8
BRANCH   1  24
ATOM     24  C   UNL d   1       3.772  -3.162   0.334  0.00  0.00     0.196 C 
ATOM     25  O   UNL d   1       4.863  -2.593   0.460  0.00  0.00    -0.287 OA
BRANCH  24  26
ATOM     26  C   UNL d   1       3.829  -4.570  -0.112  0.00  0.00     0.037 A 
ATOM     27  C   UNL d   1       4.677  -5.484   0.529  0.00  0.00     0.048 A 
ATOM     28 CL   UNL d   1       5.362  -5.190   2.088  0.00  0.00    -0.083 Cl
ATOM     29  C   UNL d   1       4.980  -6.702  -0.088  0.00  0.00     0.025 A 
ATOM     30  C   UNL d   1       4.424  -7.014  -1.329  0.00  0.00     0.002 A 
ATOM     31  C   UNL d   1       3.535  -6.128  -1.939  0.00  0.00     0.001 A 
ATOM     32  C   UNL d   1       3.237  -4.904  -1.336  0.00  0.00     0.017 A 
ENDBRANCH  24  26
ENDBRANCH   1  24
TORSDOF 6
