REMARK  6 active torsions:
REMARK  status: ('A' for Active; 'I' for Inactive)
REMARK    1  A    between atoms: N_3  and  C_1 
REMARK       I    between atoms: C_2  and  N_3 
REMARK       I    between atoms: N_8  and  C_2 
REMARK    2  A    between atoms: C_13  and  N_8 
REMARK    3  A    between atoms: C_20  and  C_15 
REMARK    4  A    between atoms: C_21  and  C_20 
REMARK    5  A    between atoms: C_23  and  C_21 
REMARK    6  A    between atoms: C_22  and  C_23 
ROOT
ATOM      1  C   UNL d   1      -1.095   4.216   0.386  0.00  0.00     0.325 C 
ATOM      2  N   UNL d   1      -0.213   3.809   1.352  0.00  0.00    -0.305 N 
ATOM      3  N   UNL d   1      -1.924   3.318  -0.198  0.00  0.00    -0.309 N 
ATOM      4  O   UNL d   1      -1.180   5.362  -0.045  0.00  0.00    -0.247 OA
ATOM      5  H   UNL d   1      -0.466   2.993   1.881  0.00  0.00     0.171 HD
ATOM      6  H   UNL d   1      -2.281   3.748  -1.043  0.00  0.00     0.170 HD
ENDROOT
BRANCH   2   7
ATOM      7  C   UNL d   1       0.643   4.746   2.027  0.00  0.00     0.080 C 
ATOM      8  C   UNL d   1       1.257   5.851   1.403  0.00  0.00     0.064 C 
ATOM      9  C   UNL d   1       1.782   6.903   2.159  0.00  0.00     0.050 C 
ATOM     10 CL   UNL d   1       1.632   5.877  -0.294  0.00  0.00    -0.082 Cl
ATOM     11  C   UNL d   1       1.825   6.799   3.543  0.00  0.00     0.037 C 
ATOM     12  C   UNL d   1       1.419   5.627   4.171  0.00  0.00     0.050 C 
ATOM     13 CL   UNL d   1       2.439   8.106   4.477  0.00  0.00    -0.084 Cl
ATOM     14  C   UNL d   1       0.832   4.606   3.415  0.00  0.00     0.064 C 
ATOM     15 CL   UNL d   1       0.310   3.179   4.246  0.00  0.00    -0.082 Cl
ENDBRANCH   2   7
BRANCH   3  16
ATOM     16  C   UNL d   1      -2.438   2.051   0.075  0.00  0.00     0.036 A 
ATOM     17  C   UNL d   1      -2.378   1.373   1.290  0.00  0.00     0.030 A 
ATOM     18  C   UNL d   1      -2.907   0.078   1.401  0.00  0.00     0.009 A 
ATOM     19  C   UNL d   1      -3.504  -0.551   0.301  0.00  0.00    -0.058 A 
ATOM     20  C   UNL d   1      -3.672   0.172  -0.881  0.00  0.00     0.009 A 
ATOM     21  C   UNL d   1      -3.138   1.450  -0.991  0.00  0.00     0.030 A 
BRANCH  19  22
ATOM     22  C   UNL d   1      -3.834  -2.024   0.330  0.00  0.00     0.038 C 
BRANCH  22  23
ATOM     23  C   UNL d   1      -2.924  -2.821  -0.625  0.00  0.00     0.005 C 
BRANCH  23  24
ATOM     24  C   UNL d   1      -1.429  -2.615  -0.344  0.00  0.00    -0.000 C 
BRANCH  24  25
ATOM     25  C   UNL d   1      -0.550  -3.359  -1.347  0.00  0.00    -0.005 C 
ATOM     26  C   UNL d   1       0.925  -3.100  -1.079  0.00  0.00     0.005 C 
ENDBRANCH  24  25
ENDBRANCH  23  24
ENDBRANCH  22  23
ENDBRANCH  19  22
ENDBRANCH   3  16
TORSDOF 6
