REMARK  10 active torsions:
REMARK  status: ('A' for Active; 'I' for Inactive)
REMARK    1  A    between atoms: N_8  and  S_1 
REMARK    2  A    between atoms: C_11  and  S_1 
REMARK    3  A    between atoms: C_7  and  C_2 
REMARK    4  A    between atoms: C_4  and  C_14 
REMARK    5  A    between atoms: C_10  and  C_5 
REMARK    6  A    between atoms: C_9  and  N_8 
REMARK    7  A    between atoms: C_15  and  C_9 
REMARK    8  A    between atoms: O_25  and  C_10 
REMARK    9  A    between atoms: O_26  and  C_15 
REMARK   10  A    between atoms: C_28  and  O_26 
ROOT
ATOM      1  C   UNL d   1       0.635   0.269  -1.584  0.00  0.00     0.074 A 
ATOM      2  C   UNL d   1      -0.333   0.954  -4.157  0.00  0.00    -0.025 A 
ATOM      3  C   UNL d   1       0.068  -0.710  -2.405  0.00  0.00     0.025 A 
ATOM      4  C   UNL d   1       0.686   1.587  -2.026  0.00  0.00     0.025 A 
ATOM      5  C   UNL d   1       0.198   1.922  -3.296  0.00  0.00     0.014 A 
ATOM      6  C   UNL d   1      -0.404  -0.368  -3.683  0.00  0.00     0.014 A 
ENDROOT
BRANCH   2   7
ATOM      7  C   UNL d   1      -0.877   1.294  -5.485  0.00  0.00    -0.002 A 
ATOM      8  C   UNL d   1      -0.340   2.247  -6.352  0.00  0.00     0.100 A 
ATOM      9  S   UNL d   1      -1.255   2.359  -7.809  0.00  0.00    -0.079 SA
ATOM     10  C   UNL d   1      -2.340   1.134  -7.344  0.00  0.00     0.081 A 
ATOM     11  C   UNL d   1      -2.032   0.663  -6.084  0.00  0.00     0.038 A 
BRANCH   8  12
ATOM     12  C   UNL d   1       0.860   3.140  -6.227  0.00  0.00     0.424 C 
ATOM     13  F   UNL d   1       1.179   3.789  -7.379  0.00  0.00    -0.166 F 
ATOM     14  F   UNL d   1       0.675   4.115  -5.297  0.00  0.00    -0.166 F 
ATOM     15  F   UNL d   1       1.972   2.451  -5.860  0.00  0.00    -0.166 F 
ENDBRANCH   8  12
BRANCH  10  16
ATOM     16  C   UNL d   1      -3.402   0.743  -8.256  0.00  0.00     0.299 C 
ATOM     17  O   UNL d   1      -3.621   1.214  -9.363  0.00  0.00    -0.259 OA
BRANCH  16  18
ATOM     18  O   UNL d   1      -4.144  -0.259  -7.692  0.00  0.00    -0.322 OA
ATOM     19  C   UNL d   1      -5.216  -0.719  -8.516  0.00  0.00     0.213 C 
ENDBRANCH  16  18
ENDBRANCH  10  16
ENDBRANCH   2   7
BRANCH   1  20
ATOM     20  S   UNL d   1       1.103  -0.134   0.090  0.00  0.00     0.243 S 
ATOM     21  O   UNL d   1       0.494   0.857   0.953  0.00  0.00    -0.206 OA
ATOM     22  O   UNL d   1       0.831  -1.546   0.268  0.00  0.00    -0.206 OA
BRANCH  20  23
ATOM     23  N   UNL d   1       2.809   0.088   0.140  0.00  0.00    -0.201 NA
ATOM     24  C   UNL d   1       3.493  -0.929   0.983  0.00  0.00     0.130 C 
BRANCH  23  25
ATOM     25  C   UNL d   1       3.224   1.480   0.515  0.00  0.00     0.218 C 
BRANCH  25  26
ATOM     26  C   UNL d   1       4.716   1.725   0.561  0.00  0.00     0.273 C 
ATOM     27  O   UNL d   1       5.327   2.006   1.586  0.00  0.00    -0.264 OA
BRANCH  26  28
ATOM     28  O   UNL d   1       5.279   1.583  -0.670  0.00  0.00    -0.321 OA
BRANCH  28  29
ATOM     29  C   UNL d   1       6.704   1.753  -0.722  0.00  0.00     0.174 C 
ATOM     30  C   UNL d   1       7.065   3.225  -0.797  0.00  0.00     0.034 C 
ENDBRANCH  28  29
ENDBRANCH  26  28
ENDBRANCH  25  26
ENDBRANCH  23  25
ENDBRANCH  20  23
ENDBRANCH   1  20
TORSDOF 10
