REMARK  6 active torsions:
REMARK  status: ('A' for Active; 'I' for Inactive)
REMARK    1  A    between atoms: C_2  and  S_1 
REMARK    2  A    between atoms: C_7  and  S_1 
REMARK    3  A    between atoms: N_5  and  C_3 
REMARK    4  A    between atoms: C_8  and  C_11 
REMARK    5  A    between atoms: O_20  and  C_8 
REMARK    6  A    between atoms: C_24  and  O_20 
ROOT
ATOM      1  C   UNL d   1      -0.508  -0.799   3.635  0.00  0.00     0.159 C 
ATOM      2  C   UNL d   1      -0.272  -0.123   2.497  0.00  0.00     0.121 C 
ATOM      3  C   UNL d   1      -1.505  -0.413   4.560  0.00  0.00     0.113 C 
ATOM      4  N   UNL d   1      -2.343  -0.109   5.305  0.00  0.00    -0.191 NA
ENDROOT
BRANCH   1   5
ATOM      5  S   UNL d   1       0.455  -2.180   4.028  0.00  0.00     0.218 S 
ATOM      6  O   UNL d   1       1.080  -1.971   5.322  0.00  0.00    -0.216 OA
ATOM      7  O   UNL d   1       1.276  -2.568   2.896  0.00  0.00    -0.216 OA
BRANCH   5   8
ATOM      8  C   UNL d   1      -0.733  -3.500   4.251  0.00  0.00     0.065 A 
ATOM      9  C   UNL d   1      -0.987  -4.384   3.196  0.00  0.00     0.025 A 
ATOM     10  C   UNL d   1      -1.838  -5.474   3.402  0.00  0.00     0.025 A 
ATOM     11  C   UNL d   1      -2.422  -5.675   4.654  0.00  0.00     0.034 A 
ATOM     12  C   UNL d   1      -2.163  -4.797   5.706  0.00  0.00     0.025 A 
ATOM     13 CL   UNL d   1      -3.453  -7.029   4.906  0.00  0.00    -0.084 Cl
ATOM     14  C   UNL d   1      -1.307  -3.710   5.511  0.00  0.00     0.025 A 
ENDBRANCH   5   8
ENDBRANCH   1   5
BRANCH   2  15
ATOM     15  N   UNL d   1      -0.875   1.061   2.084  0.00  0.00    -0.388 N 
ATOM     16  C   UNL d   1      -0.625   2.317   2.820  0.00  0.00     0.123 C 
ATOM     17  C   UNL d   1      -1.895   3.160   2.828  0.00  0.00     0.034 C 
ATOM     18  C   UNL d   1      -2.421   3.406   1.407  0.00  0.00     0.088 C 
ATOM     19  C   UNL d   1      -2.570   2.064   0.667  0.00  0.00     0.034 C 
ATOM     20  C   UNL d   1      -1.259   1.274   0.681  0.00  0.00     0.123 C 
BRANCH  18  21
ATOM     21  C   UNL d   1      -1.547   4.344   0.585  0.00  0.00     0.263 C 
ATOM     22  O   UNL d   1      -1.409   4.253  -0.629  0.00  0.00    -0.265 OA
BRANCH  21  23
ATOM     23  O   UNL d   1      -0.985   5.316   1.351  0.00  0.00    -0.322 OA
BRANCH  23  24
ATOM     24  C   UNL d   1      -0.166   6.261   0.645  0.00  0.00     0.174 C 
ATOM     25  C   UNL d   1      -1.026   7.381   0.090  0.00  0.00     0.034 C 
ENDBRANCH  23  24
ENDBRANCH  21  23
ENDBRANCH  18  21
ENDBRANCH   2  15
TORSDOF 6
