REMARK  4 active torsions:
REMARK  status: ('A' for Active; 'I' for Inactive)
REMARK    1  A    between atoms: C_2  and  C_1 
REMARK       I    between atoms: N_3  and  C_2 
REMARK    2  A    between atoms: C_8  and  N_3 
REMARK    3  A    between atoms: O_18  and  C_6 
REMARK    4  A    between atoms: O_19  and  C_13 
ROOT
ATOM      1  C   UNL d   1       2.915  -0.326   0.117  0.00  0.00     0.259 C 
ATOM      2  N   UNL d   1       3.680   0.603  -0.584  0.00  0.00    -0.323 N 
ATOM      3  O   UNL d   1       3.370  -1.105   0.944  0.00  0.00    -0.267 OA
ATOM      4  H   UNL d   1       3.205   1.327  -1.105  0.00  0.00     0.169 HD
ENDROOT
BRANCH   1   5
ATOM      5  C   UNL d   1       1.433  -0.295  -0.091  0.00  0.00     0.068 A 
ATOM      6  C   UNL d   1       0.618  -1.431   0.081  0.00  0.00     0.084 A 
ATOM      7  C   UNL d   1      -0.779  -1.285   0.062  0.00  0.00     0.040 A 
ATOM      8  C   UNL d   1      -1.379  -0.038  -0.113  0.00  0.00     0.039 A 
ATOM      9  C   UNL d   1      -0.579   1.088  -0.257  0.00  0.00     0.069 A 
ATOM     10  C   UNL d   1       0.813   0.956  -0.280  0.00  0.00     0.056 A 
BRANCH   6  11
ATOM     11  O   UNL d   1       0.992  -2.711   0.389  0.00  0.00    -0.355 OA
ATOM     12  C   UNL d   1       2.054  -3.290  -0.358  0.00  0.00     0.210 C 
ENDBRANCH   6  11
BRANCH   9  13
ATOM     13  O   UNL d   1      -1.050   2.368  -0.370  0.00  0.00    -0.356 OA
ATOM     14  C   UNL d   1      -2.244   2.632   0.365  0.00  0.00     0.210 C 
ENDBRANCH   9  13
ENDBRANCH   1   5
BRANCH   2  15
ATOM     15  C   UNL d   1       5.084   0.750  -0.460  0.00  0.00     0.036 A 
ATOM     16  C   UNL d   1       5.924  -0.283  -0.026  0.00  0.00     0.056 A 
ATOM     17  C   UNL d   1       7.296  -0.066   0.122  0.00  0.00     0.074 A 
ATOM     18 CL   UNL d   1       8.308  -1.359   0.642  0.00  0.00    -0.081 Cl
ATOM     19  C   UNL d   1       7.835   1.185  -0.158  0.00  0.00     0.138 A 
ATOM     20  C   UNL d   1       7.019   2.215  -0.616  0.00  0.00     0.046 A 
ATOM     21  F   UNL d   1       9.145   1.422   0.005  0.00  0.00    -0.204 F 
ATOM     22  C   UNL d   1       5.648   1.992  -0.786  0.00  0.00     0.032 A 
ENDBRANCH   2  15
TORSDOF 4
