REMARK  12 active torsions:
REMARK  status: ('A' for Active; 'I' for Inactive)
REMARK    1  A    between atoms: N_5  and  C_1 
REMARK    2  A    between atoms: C_6  and  C_1 
REMARK    3  A    between atoms: C_11  and  C_1 
REMARK    4  A    between atoms: C_2  and  O_12 
REMARK       I    between atoms: C_3  and  N_5 
REMARK    5  A    between atoms: C_7  and  C_3 
REMARK    6  A    between atoms: C_4  and  S_10 
REMARK       I    between atoms: N_9  and  C_4 
REMARK    7  A    between atoms: O_22  and  C_6 
REMARK    8  A    between atoms: C_8  and  C_7 
REMARK    9  A    between atoms: O_23  and  C_8 
REMARK   10  A    between atoms: C_20  and  N_9 
REMARK   11  A    between atoms: S_10  and  C_11 
REMARK   12  A    between atoms: O_12  and  C_21 
ROOT
ATOM      1  S   UNL d   1       3.125   0.276  -1.833  0.00  0.00    -0.067 SA
ENDROOT
BRANCH   1   2
ATOM      2  C   UNL d   1       3.088   2.020  -1.658  0.00  0.00     0.284 C 
ATOM      3  N   UNL d   1       3.596   2.615  -2.788  0.00  0.00    -0.318 N 
ATOM      4  H   UNL d   1       3.893   1.977  -3.507  0.00  0.00     0.169 HD
ATOM      5  O   UNL d   1       2.601   2.550  -0.672  0.00  0.00    -0.260 OA
BRANCH   3   6
ATOM      6  C   UNL d   1       3.437   3.977  -3.120  0.00  0.00     0.035 C 
ATOM      7  C   UNL d   1       3.026   4.942  -2.197  0.00  0.00     0.032 C 
ATOM      8  C   UNL d   1       2.658   6.220  -2.619  0.00  0.00     0.039 C 
ATOM      9  C   UNL d   1       2.673   6.534  -3.973  0.00  0.00     0.078 C 
ATOM     10  C   UNL d   1       3.232   5.629  -4.878  0.00  0.00     0.039 C 
ATOM     11  C   UNL d   1       3.620   4.354  -4.452  0.00  0.00     0.032 C 
BRANCH   9  12
ATOM     12  O   UNL d   1       2.228   7.716  -4.479  0.00  0.00    -0.255 OA
BRANCH  12  13
ATOM     13  C   UNL d   1       0.960   8.179  -4.013  0.00  0.00     0.530 C 
ATOM     14  F   UNL d   1       0.404   7.426  -3.040  0.00  0.00    -0.144 F 
ATOM     15  F   UNL d   1       1.102   9.439  -3.544  0.00  0.00    -0.144 F 
ATOM     16  F   UNL d   1       0.096   8.213  -5.053  0.00  0.00    -0.144 F 
ENDBRANCH  12  13
ENDBRANCH   9  12
ENDBRANCH   3   6
ENDBRANCH   1   2
BRANCH   1  17
ATOM     17  C   UNL d   1       2.407  -0.170  -0.197  0.00  0.00     0.119 C 
BRANCH  17  18
ATOM     18  C   UNL d   1       0.882   0.050  -0.076  0.00  0.00     0.194 C 
BRANCH  18  19
ATOM     19  N   UNL d   1       0.079  -0.766  -1.009  0.00  0.00    -0.346 N 
ATOM     20  C   UNL d   1       0.152  -2.132  -1.038  0.00  0.00     0.227 C 
ATOM     21  O   UNL d   1       0.798  -2.759  -0.198  0.00  0.00    -0.273 OA
ATOM     22  H   UNL d   1      -0.402  -0.284  -1.766  0.00  0.00     0.163 HD
BRANCH  20  23
ATOM     23  C   UNL d   1      -0.627  -2.878  -2.092  0.00  0.00     0.213 C 
BRANCH  23  24
ATOM     24  C   UNL d   1      -1.167  -2.126  -3.270  0.00  0.00     0.267 C 
ATOM     25  O   UNL d   1      -1.179  -0.906  -3.394  0.00  0.00    -0.265 OA
BRANCH  24  26
ATOM     26  O   UNL d   1      -1.667  -3.018  -4.173  0.00  0.00    -0.326 OA
ATOM     27  C   UNL d   1      -2.242  -2.495  -5.376  0.00  0.00     0.213 C 
ENDBRANCH  24  26
ENDBRANCH  23  24
ENDBRANCH  20  23
ENDBRANCH  18  19
BRANCH  18  28
ATOM     28  C   UNL d   1       0.488  -0.053   1.411  0.00  0.00     0.282 C 
ATOM     29  O   UNL d   1       1.156   0.428   2.322  0.00  0.00    -0.263 OA
BRANCH  28  30
ATOM     30  O   UNL d   1      -0.723  -0.654   1.597  0.00  0.00    -0.325 OA
ATOM     31  C   UNL d   1      -1.124  -0.769   2.966  0.00  0.00     0.213 C 
ENDBRANCH  28  30
ENDBRANCH  18  28
ENDBRANCH  17  18
ENDBRANCH   1  17
TORSDOF 12
