REMARK  4 active torsions:
REMARK  status: ('A' for Active; 'I' for Inactive)
REMARK    1  A    between atoms: S_17  and  C_5 
REMARK    2  A    between atoms: C_9  and  C_19 
REMARK    3  A    between atoms: C_19  and  S_17 
REMARK    4  A    between atoms: O_26  and  C_24 
ROOT
ATOM      1  S   UNL d   1      -0.967  -2.569   0.833  0.00  0.00    -0.088 SA
ENDROOT
BRANCH   1   2
ATOM      2  C   UNL d   1      -0.782  -0.876   0.607  0.00  0.00     0.161 A 
ATOM      3  N   UNL d   1       0.319  -0.236   1.078  0.00  0.00    -0.320 N 
ATOM      4  C   UNL d   1       0.260   1.036   0.579  0.00  0.00     0.139 A 
ATOM      5  H   UNL d   1       1.073  -0.642   1.610  0.00  0.00     0.169 HD
ATOM      6  N   UNL d   1      -0.881   1.181  -0.068  0.00  0.00    -0.282 N 
ATOM      7  C   UNL d   1       1.307   2.005   0.687  0.00  0.00     0.050 A 
ATOM      8  N   UNL d   1      -1.543  -0.033  -0.047  0.00  0.00    -0.278 N 
ATOM      9  HN  UNL d   1      -1.216   2.038  -0.508  1.00  0.00     0.188 HD
ATOM     10  HN  UNL d   1      -2.453  -0.235  -0.462  1.00  0.00     0.189 HD
ATOM     11  S   UNL d   1       2.723   1.715   1.615  0.00  0.00    -0.098 SA
ATOM     12  C   UNL d   1       1.363   3.239   0.069  0.00  0.00     0.023 A 
ATOM     13  C   UNL d   1       3.418   3.205   1.152  0.00  0.00     0.050 A 
ATOM     14  C   UNL d   1       2.587   3.926   0.326  0.00  0.00     0.009 A 
ENDBRANCH   1   2
BRANCH   1  15
ATOM     15  C   UNL d   1      -2.647  -2.821   0.186  0.00  0.00     0.122 C 
BRANCH  15  16
ATOM     16  C   UNL d   1      -2.952  -4.292   0.016  0.00  0.00    -0.030 A 
ATOM     17  C   UNL d   1      -3.235  -5.173   1.165  0.00  0.00     0.005 A 
ATOM     18  C   UNL d   1      -3.604  -6.500   0.919  0.00  0.00     0.092 A 
ATOM     19  C   UNL d   1      -3.157  -4.766   2.505  0.00  0.00     0.017 A 
ATOM     20  C   UNL d   1      -3.903  -7.397   1.945  0.00  0.00     0.074 A 
ATOM     21  O   UNL d   1      -3.692  -7.013  -0.390  0.00  0.00    -0.275 OA
ATOM     22  C   UNL d   1      -3.813  -6.966   3.259  0.00  0.00     0.068 A 
ATOM     23  C   UNL d   1      -3.434  -5.660   3.549  0.00  0.00     0.037 A 
ATOM     24  C   UNL d   1      -3.395  -6.225  -1.484  0.00  0.00     0.288 A 
ATOM     25  C   UNL d   1      -3.039  -4.824  -1.214  0.00  0.00     0.091 A 
ATOM     26  O   UNL d   1      -3.437  -6.650  -2.634  0.00  0.00    -0.260 OA
BRANCH  22  27
ATOM     27  O   UNL d   1      -4.103  -7.860   4.245  0.00  0.00    -0.361 OA
ATOM     28  H   UNL d   1      -4.009  -7.422   5.107  0.00  0.00     0.217 HD
ENDBRANCH  22  27
ENDBRANCH  15  16
ENDBRANCH   1  15
TORSDOF 4
