REMARK  6 active torsions:
REMARK  status: ('A' for Active; 'I' for Inactive)
REMARK    1  A    between atoms: C_2  and  C_1 
REMARK    2  A    between atoms: C_11  and  C_5 
REMARK       I    between atoms: C_9  and  N_10 
REMARK    3  A    between atoms: C_24  and  C_9 
REMARK    4  A    between atoms: N_10  and  C_17 
REMARK    5  A    between atoms: O_16  and  C_11 
REMARK    6  A    between atoms: C_19  and  O_16 
ROOT
ATOM      1  C   UNL d   1      -0.337   4.843  -2.516  0.00  0.00     0.234 C 
ENDROOT
BRANCH   1   2
ATOM      2  C   UNL d   1       0.303   3.867  -1.554  0.00  0.00     0.055 A 
ATOM      3  N   UNL d   1       0.282   2.551  -1.916  0.00  0.00    -0.365 N 
ATOM      4  C   UNL d   1       0.880   1.658  -1.095  0.00  0.00     0.104 A 
ATOM      5  HN  UNL d   1      -0.171   2.251  -2.780  1.00  0.00     0.165 HD
ATOM      6  C   UNL d   1       1.511   2.000   0.091  0.00  0.00     0.064 A 
ATOM      7  C   UNL d   1       1.501   3.348   0.462  0.00  0.00     0.043 A 
ATOM      8  C   UNL d   1       0.888   4.294  -0.359  0.00  0.00     0.059 A 
ATOM      9 CL   UNL d   1       0.878   5.936   0.165  0.00  0.00    -0.082 Cl
BRANCH   6  10
ATOM     10  C   UNL d   1       2.166   0.942   0.920  0.00  0.00     0.418 C 
ATOM     11  F   UNL d   1       2.796   1.432   2.024  0.00  0.00    -0.166 F 
ATOM     12  F   UNL d   1       3.112   0.249   0.229  0.00  0.00    -0.166 F 
ATOM     13  F   UNL d   1       1.281   0.015   1.376  0.00  0.00    -0.166 F 
ENDBRANCH   6  10
ENDBRANCH   1   2
BRANCH   1  14
ATOM     14  O   UNL d   1       0.667   5.743  -2.993  0.00  0.00    -0.345 OA
BRANCH  14  15
ATOM     15  C   UNL d   1       0.220   6.937  -3.482  0.00  0.00     0.069 A 
ATOM     16  C   UNL d   1       1.151   7.976  -3.469  0.00  0.00     0.039 A 
ATOM     17  C   UNL d   1       0.810   9.243  -3.954  0.00  0.00     0.032 A 
ATOM     18  C   UNL d   1      -0.467   9.484  -4.473  0.00  0.00     0.034 A 
ATOM     19  C   UNL d   1      -1.391   8.436  -4.487  0.00  0.00     0.032 A 
ATOM     20  C   UNL d   1      -1.050   7.168  -4.001  0.00  0.00     0.039 A 
BRANCH  18  21
ATOM     21  N   UNL d   1      -0.739  10.776  -4.973  0.00  0.00    -0.327 N 
ATOM     22  C   UNL d   1      -1.925  11.216  -5.538  0.00  0.00     0.221 C 
ATOM     23  O   UNL d   1      -2.959  10.570  -5.655  0.00  0.00    -0.273 OA
ATOM     24  H   UNL d   1       0.023  11.443  -4.923  0.00  0.00     0.169 HD
BRANCH  22  25
ATOM     25  C   UNL d   1      -1.822  12.652  -6.028  0.00  0.00     0.098 C 
ATOM     26  C   UNL d   1      -3.110  13.112  -6.691  0.00  0.00     0.014 C 
ENDBRANCH  22  25
ENDBRANCH  18  21
ENDBRANCH  14  15
ENDBRANCH   1  14
TORSDOF 6
