REMARK  3 active torsions:
REMARK  status: ('A' for Active; 'I' for Inactive)
REMARK    1  A    between atoms: N_13  and  C_4 
REMARK       I    between atoms: C_9  and  N_12 
REMARK    2  A    between atoms: C_15  and  C_9 
REMARK    3  A    between atoms: N_12  and  N_13 
ROOT
ATOM      1  N   UNL d   1      -1.010  -2.953  -0.468  0.00  0.00    -0.187 NA
ATOM      2  H   UNL d   1      -0.172  -3.462  -0.209  0.00  0.00     0.154 HD
ENDROOT
BRANCH   1   3
ATOM      3  N   UNL d   1      -2.166  -3.615  -0.012  0.00  0.00    -0.281 N 
ATOM      4  C   UNL d   1      -1.965  -4.854   0.574  0.00  0.00     0.266 C 
ATOM      5  O   UNL d   1      -0.844  -5.352   0.670  0.00  0.00    -0.266 OA
ATOM      6  H   UNL d   1      -3.017  -3.060   0.009  0.00  0.00     0.184 HD
BRANCH   4   7
ATOM      7  C   UNL d   1      -3.153  -5.564   1.129  0.00  0.00     0.033 A 
ATOM      8  C   UNL d   1      -4.470  -5.238   0.778  0.00  0.00     0.018 A 
ATOM      9  C   UNL d   1      -5.541  -5.932   1.356  0.00  0.00     0.025 A 
ATOM     10  C   UNL d   1      -5.301  -6.955   2.273  0.00  0.00     0.034 A 
ATOM     11  C   UNL d   1      -3.997  -7.306   2.609  0.00  0.00     0.025 A 
ATOM     12 CL   UNL d   1      -6.623  -7.784   2.996  0.00  0.00    -0.084 Cl
ATOM     13  C   UNL d   1      -2.926  -6.616   2.033  0.00  0.00     0.018 A 
ENDBRANCH   4   7
ENDBRANCH   1   3
BRANCH   1  14
ATOM     14  C   UNL d   1      -0.977  -1.576  -0.186  0.00  0.00     0.113 A 
ATOM     15  C   UNL d   1       0.223  -0.829  -0.020  0.00  0.00     0.044 A 
ATOM     16  C   UNL d   1       0.043   0.547   0.092  0.00  0.00     0.088 A 
ATOM     17  C   UNL d   1       1.648  -1.151   0.067  0.00  0.00    -0.039 A 
ATOM     18  S   UNL d   1       1.496   1.424   0.203  0.00  0.00    -0.083 SA
ATOM     19  N   UNL d   1      -1.119   1.218   0.105  0.00  0.00    -0.346 N 
ATOM     20  C   UNL d   1       2.418  -0.001   0.157  0.00  0.00     0.059 A 
ATOM     21  C   UNL d   1      -2.172   0.418  -0.005  0.00  0.00     0.182 A 
ATOM     22  HN  UNL d   1      -1.186   2.232   0.189  1.00  0.00     0.167 HD
ATOM     23  N   UNL d   1      -2.169  -0.916  -0.144  0.00  0.00    -0.341 N 
ATOM     24  HN  UNL d   1      -3.047  -1.429  -0.218  1.00  0.00     0.167 HD
ATOM     25  C   UNL d   1       2.305  -2.494   0.085  0.00  0.00     0.050 C 
ENDBRANCH   1  14
TORSDOF 3
