REMARK  5 active torsions:
REMARK  status: ('A' for Active; 'I' for Inactive)
REMARK    1  A    between atoms: N_2  and  S_1 
REMARK    2  A    between atoms: C_3  and  S_1 
REMARK    3  A    between atoms: C_6  and  C_12 
REMARK    4  A    between atoms: O_20  and  C_6 
REMARK    5  A    between atoms: C_23  and  O_20 
ROOT
ATOM      1  S   UNL d   1       0.956   0.028   0.186  0.00  0.00     0.243 S 
ATOM      2  O   UNL d   1       0.753   0.824   1.379  0.00  0.00    -0.206 OA
ATOM      3  O   UNL d   1       2.232  -0.595  -0.087  0.00  0.00    -0.206 OA
ENDROOT
BRANCH   1   4
ATOM      4  N   UNL d   1       0.530   0.991  -1.197  0.00  0.00    -0.206 NA
ATOM      5  C   UNL d   1       1.088   0.465  -2.482  0.00  0.00     0.108 C 
ATOM      6  C   UNL d   1       0.685   1.347  -3.666  0.00  0.00     0.030 C 
ATOM      7  C   UNL d   1       1.068   2.818  -3.449  0.00  0.00     0.088 C 
ATOM      8  C   UNL d   1       0.428   3.295  -2.147  0.00  0.00     0.030 C 
ATOM      9  C   UNL d   1       0.842   2.430  -0.964  0.00  0.00     0.108 C 
BRANCH   7  10
ATOM     10  C   UNL d   1       2.578   2.988  -3.496  0.00  0.00     0.263 C 
ATOM     11  O   UNL d   1       3.316   2.258  -4.150  0.00  0.00    -0.265 OA
BRANCH  10  12
ATOM     12  O   UNL d   1       3.002   4.065  -2.778  0.00  0.00    -0.322 OA
BRANCH  12  13
ATOM     13  C   UNL d   1       4.421   4.283  -2.789  0.00  0.00     0.174 C 
ATOM     14  C   UNL d   1       5.106   3.367  -1.792  0.00  0.00     0.034 C 
ENDBRANCH  12  13
ENDBRANCH  10  12
ENDBRANCH   7  10
ENDBRANCH   1   4
BRANCH   1  15
ATOM     15  C   UNL d   1      -0.291  -1.234   0.225  0.00  0.00     0.077 A 
ATOM     16  C   UNL d   1      -1.625  -0.864   0.434  0.00  0.00     0.064 A 
ATOM     17  C   UNL d   1      -2.604  -1.853   0.504  0.00  0.00     0.103 A 
ATOM     18  O   UNL d   1      -3.895  -1.430   0.691  0.00  0.00    -0.346 OA
ATOM     19  C   UNL d   1      -2.253  -3.201   0.364  0.00  0.00     0.102 A 
ATOM     20  C   UNL d   1      -4.767  -2.514   1.034  0.00  0.00     0.202 C 
ATOM     21  C   UNL d   1      -4.498  -3.728   0.160  0.00  0.00     0.202 C 
ATOM     22  O   UNL d   1      -3.171  -4.221   0.375  0.00  0.00    -0.346 OA
ATOM     23  C   UNL d   1      -0.916  -3.566   0.207  0.00  0.00     0.041 A 
ATOM     24  C   UNL d   1       0.072  -2.582   0.138  0.00  0.00     0.028 A 
ENDBRANCH   1  15
TORSDOF 5
