REMARK  3 active torsions:
REMARK  status: ('A' for Active; 'I' for Inactive)
REMARK    1  A    between atoms: C_7  and  C_6 
REMARK       I    between atoms: N_8  and  C_7 
REMARK    2  A    between atoms: C_11  and  N_8 
REMARK    3  A    between atoms: C_16  and  C_11 
ROOT
ATOM      1  C   UNL d   1      -1.075  -0.603  -0.013  0.00  0.00     0.042 A 
ATOM      2  C   UNL d   1       0.148  -1.449  -0.014  0.00  0.00     0.195 A 
ATOM      3  C   UNL d   1      -0.608   0.738   0.011  0.00  0.00    -0.010 A 
ATOM      4  C   UNL d   1       1.315  -0.558  -0.014  0.00  0.00     0.026 A 
ATOM      5  C   UNL d   1       0.842   0.757   0.011  0.00  0.00    -0.011 A 
ATOM      6  C   UNL d   1      -2.430  -0.917  -0.035  0.00  0.00     0.047 A 
ATOM      7  O   UNL d   1       0.218  -2.660  -0.008  0.00  0.00    -0.287 OA
ATOM      8  C   UNL d   1      -1.498   1.799   0.019  0.00  0.00     0.013 A 
ATOM      9  C   UNL d   1       2.655  -0.892  -0.042  0.00  0.00     0.016 A 
ATOM     10  C   UNL d   1       1.751   1.800   0.018  0.00  0.00     0.013 A 
ATOM     11  C   UNL d   1      -3.317   0.182  -0.035  0.00  0.00     0.018 A 
ATOM     12  C   UNL d   1      -2.862   1.514  -0.006  0.00  0.00     0.002 A 
ATOM     13  C   UNL d   1       3.568   0.159  -0.044  0.00  0.00     0.001 A 
ATOM     14  C   UNL d   1       3.120   1.493  -0.011  0.00  0.00     0.001 A 
ENDROOT
BRANCH   6  15
ATOM     15  C   UNL d   1      -3.056  -2.279  -0.060  0.00  0.00     0.252 C 
ATOM     16  N   UNL d   1      -2.244  -3.382  -0.093  0.00  0.00    -0.353 N 
ATOM     17  H   UNL d   1      -1.234  -3.291  -0.026  0.00  0.00     0.163 HD
ATOM     18  O   UNL d   1      -4.281  -2.369  -0.048  0.00  0.00    -0.268 OA
BRANCH  16  19
ATOM     19  C   UNL d   1      -2.737  -4.740  -0.062  0.00  0.00     0.161 C 
BRANCH  19  20
ATOM     20  C   UNL d   1      -2.162  -5.633  -1.139  0.00  0.00    -0.041 A 
ATOM     21  C   UNL d   1      -1.337  -5.166  -2.175  0.00  0.00     0.009 A 
ATOM     22  C   UNL d   1      -0.840  -6.042  -3.144  0.00  0.00     0.001 A 
ATOM     23  C   UNL d   1      -1.164  -7.396  -3.097  0.00  0.00     0.000 A 
ATOM     24  C   UNL d   1      -1.986  -7.876  -2.080  0.00  0.00     0.001 A 
ATOM     25  C   UNL d   1      -2.480  -7.002  -1.110  0.00  0.00     0.009 A 
ENDBRANCH  19  20
ENDBRANCH  16  19
ENDBRANCH   6  15
TORSDOF 3
