REMARK  5 active torsions:
REMARK  status: ('A' for Active; 'I' for Inactive)
REMARK    1  A    between atoms: N_3  and  C_1 
REMARK    2  A    between atoms: C_2  and  N_3 
REMARK    3  A    between atoms: C_10  and  N_7 
REMARK    4  A    between atoms: C_15  and  C_10 
REMARK    5  A    between atoms: C_11  and  C_15 
ROOT
ATOM      1  C   UNL d   1      -1.489   2.901  -0.033  0.00  0.00     0.172 C 
ATOM      2  S   UNL d   1      -2.721   2.070  -0.801  0.00  0.00    -0.041 SA
ATOM      3  N   UNL d   1      -1.378   4.260   0.040  0.00  0.00    -0.367 N 
ATOM      4  H   UNL d   1      -0.523   4.621   0.438  0.00  0.00     0.161 HD
ENDROOT
BRANCH   1   5
ATOM      5  N   UNL d   1      -0.451   2.170   0.459  0.00  0.00    -0.331 N 
ATOM      6  H   UNL d   1      -0.373   1.256   0.017  0.00  0.00     0.168 HD
BRANCH   5   7
ATOM      7  C   UNL d   1       0.481   2.397   1.505  0.00  0.00     0.078 A 
ATOM      8  C   UNL d   1       0.263   3.188   2.650  0.00  0.00     0.062 A 
ATOM      9 CL   UNL d   1      -1.227   3.984   3.022  0.00  0.00    -0.082 Cl
ATOM     10  C   UNL d   1       1.234   3.257   3.664  0.00  0.00     0.026 A 
ATOM     11  C   UNL d   1       2.426   2.544   3.565  0.00  0.00     0.003 A 
ATOM     12  C   UNL d   1       2.654   1.748   2.450  0.00  0.00     0.026 A 
ATOM     13  C   UNL d   1       1.688   1.665   1.442  0.00  0.00     0.062 A 
ATOM     14 CL   UNL d   1       2.042   0.636   0.090  0.00  0.00    -0.082 Cl
ENDBRANCH   5   7
ENDBRANCH   1   5
BRANCH   3  15
ATOM     15  C   UNL d   1      -2.493   5.192  -0.096  0.00  0.00     0.126 C 
BRANCH  15  16
ATOM     16  C   UNL d   1      -2.075   6.665  -0.060  0.00  0.00     0.058 C 
BRANCH  16  17
ATOM     17  C   UNL d   1      -1.335   7.150  -1.285  0.00  0.00    -0.057 A 
ATOM     18  C   UNL d   1      -1.872   6.983  -2.569  0.00  0.00     0.007 A 
ATOM     19  C   UNL d   1      -1.203   7.472  -3.692  0.00  0.00     0.001 A 
ATOM     20  C   UNL d   1       0.004   8.153  -3.540  0.00  0.00     0.000 A 
ATOM     21  C   UNL d   1       0.539   8.340  -2.274  0.00  0.00     0.001 A 
ATOM     22  C   UNL d   1      -0.125   7.847  -1.147  0.00  0.00     0.007 A 
ENDBRANCH  16  17
ENDBRANCH  15  16
ENDBRANCH   3  15
TORSDOF 5
