REMARK  9 active torsions:
REMARK  status: ('A' for Active; 'I' for Inactive)
REMARK    1  A    between atoms: O_8  and  C_1 
REMARK    2  A    between atoms: C_12  and  N_2 
REMARK    3  A    between atoms: C_7  and  O_14 
REMARK    4  A    between atoms: C_15  and  C_7 
REMARK    5  A    between atoms: C_19  and  O_8 
REMARK    6  A    between atoms: O_14  and  N_9 
REMARK    7  A    between atoms: C_11  and  C_13 
REMARK    8  A    between atoms: N_20  and  C_11 
REMARK    9  A    between atoms: C_13  and  C_12 
ROOT
ATOM      1  C   UNL d   1       7.107   1.906  -0.063  0.00  0.00     0.156 C 
ENDROOT
BRANCH   1   2
ATOM      2  N   UNL d   1       8.300   1.076   0.078  0.00  0.00    -0.293 N 
ATOM      3  C   UNL d   1       9.049   0.477  -0.908  0.00  0.00     0.060 A 
ATOM      4  C   UNL d   1      10.074  -0.163  -0.243  0.00  0.00     0.123 A 
ATOM      5  C   UNL d   1       8.760   0.564  -2.360  0.00  0.00     0.073 C 
ATOM      6  C   UNL d   1       9.808   0.006   1.137  0.00  0.00     0.058 A 
ATOM      7  N   UNL d   1       8.728   0.776   1.324  0.00  0.00    -0.300 N 
ATOM      8  C   UNL d   1      10.515  -0.570   2.307  0.00  0.00     0.072 C 
ATOM      9  HN  UNL d   1       8.319   1.071   2.211  1.00  0.00     0.187 HD
BRANCH   4  10
ATOM     10  O   UNL d   1      11.034  -0.867  -0.884  0.00  0.00    -0.307 OA
BRANCH  10  11
ATOM     11  C   UNL d   1      12.345  -0.853  -0.468  0.00  0.00     0.076 A 
ATOM     12  C   UNL d   1      13.085  -2.022  -0.666  0.00  0.00     0.039 A 
ATOM     13  C   UNL d   1      14.434  -2.069  -0.301  0.00  0.00     0.026 A 
ATOM     14  C   UNL d   1      15.039  -0.943   0.256  0.00  0.00     0.034 A 
ATOM     15  C   UNL d   1      14.312   0.232   0.437  0.00  0.00     0.026 A 
ATOM     16 CL   UNL d   1      16.697  -1.000   0.711  0.00  0.00    -0.084 Cl
ATOM     17  C   UNL d   1      12.967   0.282   0.058  0.00  0.00     0.039 A 
ENDBRANCH  10  11
ENDBRANCH   4  10
ENDBRANCH   1   2
BRANCH   1  18
ATOM     18  C   UNL d   1       5.846   1.059   0.030  0.00  0.00     0.093 C 
BRANCH  18  19
ATOM     19  C   UNL d   1       4.529   1.824  -0.023  0.00  0.00     0.077 C 
ATOM     20  N   UNL d   1       4.535   3.114  -0.165  0.00  0.00    -0.251 N 
ATOM     21  HN  UNL d   1       5.380   3.679  -0.242  1.00  0.00     0.196 HD
BRANCH  20  22
ATOM     22  O   UNL d   1       3.216   3.639  -0.200  0.00  0.00    -0.194 OA
BRANCH  22  23
ATOM     23  C   UNL d   1       3.262   5.005  -0.299  0.00  0.00     0.315 C 
ATOM     24  O   UNL d   1       4.262   5.709  -0.304  0.00  0.00    -0.257 OA
BRANCH  23  25
ATOM     25  C   UNL d   1       1.889   5.589  -0.412  0.00  0.00     0.041 A 
ATOM     26  C   UNL d   1       1.789   6.987  -0.526  0.00  0.00     0.019 A 
ATOM     27  C   UNL d   1       0.541   7.610  -0.653  0.00  0.00     0.025 A 
ATOM     28  C   UNL d   1      -0.616   6.837  -0.664  0.00  0.00     0.034 A 
ATOM     29  C   UNL d   1      -0.535   5.449  -0.545  0.00  0.00     0.025 A 
ATOM     30 CL   UNL d   1      -2.149   7.599  -0.830  0.00  0.00    -0.084 Cl
ATOM     31  C   UNL d   1       0.714   4.823  -0.419  0.00  0.00     0.019 A 
ENDBRANCH  23  25
ENDBRANCH  22  23
ENDBRANCH  20  22
BRANCH  19  32
ATOM     32  N   UNL d   1       3.392   1.063   0.096  0.00  0.00    -0.291 NA
ATOM     33  H   UNL d   1       2.574   1.591   0.375  0.00  0.00     0.125 HD
ATOM     34  H   UNL d   1       3.484   0.173   0.574  0.00  0.00     0.125 HD
ENDBRANCH  19  32
ENDBRANCH  18  19
ENDBRANCH   1  18
TORSDOF 9
