REMARK  3 active torsions:
REMARK  status: ('A' for Active; 'I' for Inactive)
REMARK    1  A    between atoms: C_6  and  C_1 
REMARK       I    between atoms: N_9  and  C_6 
REMARK    2  A    between atoms: O_10  and  C_7 
REMARK    3  A    between atoms: N_12  and  N_9 
ROOT
ATOM      1  C   UNL d   1      -0.430  -1.187  -0.041  0.00  0.00     0.123 A 
ATOM      2  N   UNL d   1       0.866  -0.706   0.003  0.00  0.00    -0.289 N 
ATOM      3  C   UNL d   1      -1.226  -0.046  -0.009  0.00  0.00     0.094 A 
ATOM      4  N   UNL d   1       0.939   0.642   0.049  0.00  0.00    -0.278 N 
ATOM      5  HN  UNL d   1       1.773   1.229   0.084  1.00  0.00     0.189 HD
ATOM      6  C   UNL d   1      -0.328   1.018   0.039  0.00  0.00     0.157 A 
ATOM      7  C   UNL d   1       2.122  -1.422   0.006  0.00  0.00     0.178 C 
ENDROOT
BRANCH   1   8
ATOM      8  C   UNL d   1      -0.812  -2.583  -0.125  0.00  0.00     0.283 C 
ATOM      9  O   UNL d   1      -0.020  -3.513  -0.273  0.00  0.00    -0.265 OA
ATOM     10  N   UNL d   1      -2.182  -2.832  -0.030  0.00  0.00    -0.288 N 
ATOM     11  H   UNL d   1      -2.827  -2.092   0.226  0.00  0.00     0.183 HD
BRANCH  10  12
ATOM     12  N   UNL d   1      -2.662  -4.165  -0.039  0.00  0.00    -0.247 NA
ATOM     13  H   UNL d   1      -1.847  -4.774   0.123  0.00  0.00     0.143 HD
ATOM     14  H   UNL d   1      -2.943  -4.389  -0.998  0.00  0.00     0.143 HD
ENDBRANCH  10  12
ENDBRANCH   1   8
BRANCH   6  15
ATOM     15  O   UNL d   1      -0.566   2.331   0.064  0.00  0.00    -0.345 OA
ATOM     16  H   UNL d   1      -1.520   2.492   0.035  0.00  0.00     0.219 HD
ENDBRANCH   6  15
TORSDOF 3
