REMARK  4 active torsions:
REMARK  status: ('A' for Active; 'I' for Inactive)
REMARK    1  A    between atoms: C_8  and  C_4 
REMARK    2  A    between atoms: C_11  and  C_7 
REMARK    3  A    between atoms: S_10  and  C_8 
REMARK    4  A    between atoms: C_12  and  S_10 
ROOT
ATOM      1  C   UNL d   1       0.062  -0.918  -0.033  0.00  0.00     0.067 A 
ATOM      2  N   UNL d   1      -1.623   0.615   0.073  0.00  0.00    -0.260 N 
ATOM      3  HN  UNL d   1      -2.547   1.046   0.112  1.00  0.00     0.194 HD
ATOM      4  C   UNL d   1      -1.370  -0.659   0.043  0.00  0.00     0.058 A 
ATOM      5  C   UNL d   1       0.686   0.411  -0.007  0.00  0.00     0.317 A 
ATOM      6  O   UNL d   1      -0.361   1.305   0.043  0.00  0.00    -0.195 OA
ATOM      7  C   UNL d   1       0.641  -2.124  -0.100  0.00  0.00     0.031 C 
ATOM      8  O   UNL d   1       1.868   0.694  -0.052  0.00  0.00    -0.257 OA
ENDROOT
BRANCH   4   9
ATOM      9  C   UNL d   1      -2.448  -1.707   0.069  0.00  0.00     0.139 C 
BRANCH   9  10
ATOM     10  S   UNL d   1      -2.291  -2.725   1.574  0.00  0.00    -0.124 SA
BRANCH  10  11
ATOM     11  C   UNL d   1      -3.581  -3.950   1.402  0.00  0.00     0.000 A 
ATOM     12  C   UNL d   1      -4.536  -3.976   0.381  0.00  0.00     0.018 A 
ATOM     13  C   UNL d   1      -5.547  -4.944   0.378  0.00  0.00     0.001 A 
ATOM     14  C   UNL d   1      -5.610  -5.898   1.390  0.00  0.00     0.000 A 
ATOM     15  C   UNL d   1      -4.654  -5.898   2.400  0.00  0.00     0.001 A 
ATOM     16  C   UNL d   1      -3.644  -4.932   2.402  0.00  0.00     0.018 A 
ENDBRANCH  10  11
ENDBRANCH   9  10
ENDBRANCH   4   9
BRANCH   7  17
ATOM     17  C   UNL d   1       2.081  -2.373  -0.070  0.00  0.00    -0.035 A 
ATOM     18  C   UNL d   1       2.731  -2.541   1.159  0.00  0.00     0.011 A 
ATOM     19  C   UNL d   1       4.097  -2.828   1.196  0.00  0.00     0.001 A 
ATOM     20  C   UNL d   1       4.815  -2.950   0.008  0.00  0.00     0.000 A 
ATOM     21  C   UNL d   1       4.171  -2.780  -1.218  0.00  0.00     0.001 A 
ATOM     22  C   UNL d   1       2.805  -2.493  -1.258  0.00  0.00     0.011 A 
ENDBRANCH   7  17
TORSDOF 4
