REMARK  2 active torsions:
REMARK  status: ('A' for Active; 'I' for Inactive)
REMARK    1  A    between atoms: C_7  and  C_1 
REMARK    2  A    between atoms: C_8  and  C_5 
ROOT
ATOM      1  C   UNL d   1       1.088   0.568   0.037  0.00  0.00     0.141 C 
ATOM      2  N   UNL d   1      -0.202   1.158  -0.088  0.00  0.00    -0.351 N 
ATOM      3  N   UNL d   1       1.045  -0.725   0.158  0.00  0.00    -0.303 N 
ATOM      4  HN  UNL d   1       1.836  -1.367   0.213  1.00  0.00     0.182 HD
ATOM      5  C   UNL d   1      -1.163   0.077  -0.173  0.00  0.00     0.210 C 
ATOM      6  N   UNL d   1      -0.294  -1.044   0.197  0.00  0.00    -0.211 NA
ATOM      7  H   UNL d   1      -0.325   2.153  -0.215  0.00  0.00     0.163 HD
ATOM      8  H   UNL d   1      -0.527  -1.908  -0.292  0.00  0.00     0.149 HD
ENDROOT
BRANCH   1   9
ATOM      9  C   UNL d   1       2.270   1.422  -0.078  0.00  0.00     0.092 A 
ATOM     10  N   UNL d   1       2.037   2.759  -0.222  0.00  0.00    -0.360 N 
ATOM     11  C   UNL d   1       3.152   3.509  -0.403  0.00  0.00     0.105 A 
ATOM     12  HN  UNL d   1       1.100   3.162  -0.196  1.00  0.00     0.165 HD
ATOM     13  C   UNL d   1       4.423   2.957  -0.451  0.00  0.00     0.104 A 
ATOM     14  N   UNL d   1       4.641   1.627  -0.314  0.00  0.00    -0.372 N 
ATOM     15  C   UNL d   1       3.538   0.865  -0.124  0.00  0.00     0.121 A 
ATOM     16  HN  UNL d   1       5.578   1.224  -0.352  1.00  0.00     0.164 HD
ENDBRANCH   1   9
BRANCH   5  17
ATOM     17  C   UNL d   1      -1.687   0.012  -1.579  0.00  0.00    -0.005 A 
ATOM     18  C   UNL d   1      -3.047   0.161  -1.825  0.00  0.00     0.098 A 
ATOM     19  N   UNL d   1      -3.602   0.146  -3.058  0.00  0.00    -0.375 N 
ATOM     20  C   UNL d   1      -2.770  -0.025  -4.107  0.00  0.00     0.087 A 
ATOM     21  HN  UNL d   1      -4.606   0.260  -3.190  1.00  0.00     0.164 HD
ATOM     22  C   UNL d   1      -1.403  -0.187  -3.979  0.00  0.00     0.018 A 
ATOM     23  C   UNL d   1      -0.859  -0.169  -2.699  0.00  0.00     0.013 A 
ENDBRANCH   5  17
TORSDOF 2
