REMARK  2 active torsions:
REMARK  status: ('A' for Active; 'I' for Inactive)
REMARK    1  A    between atoms: C_11  and  C_6 
REMARK    2  A    between atoms: C_13  and  C_7 
ROOT
ATOM      1  N   UNL d   1       0.312   0.638   0.042  0.00  0.00    -0.239 N 
ATOM      2  N   UNL d   1       1.623   0.986   0.057  0.00  0.00    -0.291 N 
ATOM      3  HN  UNL d   1       2.009   1.929   0.090  1.00  0.00     0.187 HD
ATOM      4  C   UNL d   1       0.155  -0.750   0.021  0.00  0.00     0.129 A 
ATOM      5  C   UNL d   1       1.423  -1.273   0.002  0.00  0.00     0.082 A 
ATOM      6  C   UNL d   1      -0.815   1.479   0.033  0.00  0.00     0.070 A 
ATOM      7  C   UNL d   1       2.308  -0.168   0.021  0.00  0.00     0.062 A 
ATOM      8  N   UNL d   1      -1.072  -1.354   0.011  0.00  0.00    -0.351 N 
ATOM      9  HN  UNL d   1      -1.178  -2.368   0.007  1.00  0.00     0.166 HD
ATOM     10  C   UNL d   1      -2.045   0.934   0.011  0.00  0.00     0.049 A 
ATOM     11  C   UNL d   1      -2.092  -0.552   0.006  0.00  0.00     0.092 A 
ENDROOT
BRANCH   6  12
ATOM     12  C   UNL d   1      -0.684   2.943   0.028  0.00  0.00    -0.007 A 
ATOM     13  C   UNL d   1      -0.665   3.659   1.232  0.00  0.00     0.015 A 
ATOM     14  C   UNL d   1      -0.547   5.052   1.222  0.00  0.00     0.024 A 
ATOM     15  C   UNL d   1      -0.451   5.731   0.008  0.00  0.00     0.034 A 
ATOM     16  C   UNL d   1      -0.473   5.029  -1.196  0.00  0.00     0.024 A 
ATOM     17 CL   UNL d   1      -0.304   7.445  -0.004  0.00  0.00    -0.084 Cl
ATOM     18  C   UNL d   1      -0.590   3.637  -1.187  0.00  0.00     0.015 A 
ENDBRANCH   6  12
BRANCH   7  19
ATOM     19  C   UNL d   1       3.777  -0.186   0.003  0.00  0.00    -0.008 A 
ATOM     20  C   UNL d   1       4.505   1.014   0.029  0.00  0.00     0.014 A 
ATOM     21  C   UNL d   1       5.902   1.006   0.014  0.00  0.00     0.001 A 
ATOM     22  C   UNL d   1       6.592  -0.204  -0.028  0.00  0.00     0.000 A 
ATOM     23  C   UNL d   1       5.886  -1.404  -0.058  0.00  0.00     0.001 A 
ATOM     24  C   UNL d   1       4.488  -1.395  -0.043  0.00  0.00     0.014 A 
ENDBRANCH   7  19
TORSDOF 2
