REMARK  6 active torsions:
REMARK  status: ('A' for Active; 'I' for Inactive)
REMARK    1  A    between atoms: C_6  and  C_1 
REMARK    2  A    between atoms: C_7  and  C_1 
REMARK    3  A    between atoms: N_9  and  C_4 
REMARK    4  A    between atoms: C_12  and  C_5 
REMARK       I    between atoms: N_15  and  C_6 
REMARK       I    between atoms: N_16  and  C_7 
REMARK    5  A    between atoms: N_21  and  N_15 
REMARK    6  A    between atoms: N_20  and  N_16 
ROOT
ATOM      1  C   UNL d   1      -0.707  -3.318   2.166  0.00  0.00     0.117 C 
ATOM      2  C   UNL d   1       0.596  -2.977   2.134  0.00  0.00     0.113 C 
ENDROOT
BRANCH   2   3
ATOM      3  N   UNL d   1       1.102  -1.742   1.796  0.00  0.00    -0.345 N 
ATOM      4  C   UNL d   1       2.196  -1.385   2.383  0.00  0.00     0.148 A 
ATOM      5  N   UNL d   1       2.986  -2.013   3.319  0.00  0.00    -0.335 N 
ATOM      6  S   UNL d   1       2.906   0.215   2.061  0.00  0.00    -0.064 SA
ATOM      7  C   UNL d   1       4.010  -1.258   3.859  0.00  0.00     0.051 A 
ATOM      8  H   UNL d   1       2.660  -2.808   3.844  0.00  0.00     0.168 HD
ATOM      9  C   UNL d   1       4.121  -0.035   3.308  0.00  0.00     0.083 A 
ATOM     10  HN  UNL d   1       0.637  -1.139   1.117  1.00  0.00     0.167 HD
BRANCH   7  11
ATOM     11  C   UNL d   1       4.822  -1.813   4.951  0.00  0.00    -0.009 A 
ATOM     12  C   UNL d   1       5.223  -1.016   6.032  0.00  0.00     0.015 A 
ATOM     13  C   UNL d   1       5.932  -1.571   7.103  0.00  0.00     0.024 A 
ATOM     14  C   UNL d   1       6.244  -2.928   7.103  0.00  0.00     0.034 A 
ATOM     15  C   UNL d   1       5.863  -3.735   6.035  0.00  0.00     0.024 A 
ATOM     16 CL   UNL d   1       7.093  -3.613   8.432  0.00  0.00    -0.084 Cl
ATOM     17  C   UNL d   1       5.158  -3.179   4.963  0.00  0.00     0.015 A 
ENDBRANCH   7  11
ENDBRANCH   2   3
BRANCH   1  18
ATOM     18  C   UNL d   1      -1.049  -4.675   2.719  0.00  0.00     0.272 C 
ATOM     19  O   UNL d   1      -2.093  -4.904   3.335  0.00  0.00    -0.266 OA
ATOM     20  N   UNL d   1      -0.108  -5.686   2.527  0.00  0.00    -0.289 N 
ATOM     21  H   UNL d   1       0.646  -5.596   1.850  0.00  0.00     0.183 HD
BRANCH  20  22
ATOM     22  N   UNL d   1      -0.379  -6.980   3.034  0.00  0.00    -0.247 NA
ATOM     23  H   UNL d   1      -1.400  -7.026   3.181  0.00  0.00     0.143 HD
ATOM     24  H   UNL d   1      -0.010  -7.035   3.989  0.00  0.00     0.143 HD
ENDBRANCH  20  22
ENDBRANCH   1  18
BRANCH   1  25
ATOM     25  C   UNL d   1      -1.812  -2.359   1.828  0.00  0.00     0.272 C 
ATOM     26  O   UNL d   1      -2.992  -2.575   2.107  0.00  0.00    -0.266 OA
ATOM     27  N   UNL d   1      -1.441  -1.220   1.126  0.00  0.00    -0.289 N 
ATOM     28  H   UNL d   1      -0.445  -0.995   1.036  0.00  0.00     0.183 HD
BRANCH  27  29
ATOM     29  N   UNL d   1      -2.411  -0.237   0.820  0.00  0.00    -0.247 NA
ATOM     30  H   UNL d   1      -3.285  -0.539   1.274  0.00  0.00     0.143 HD
ATOM     31  H   UNL d   1      -2.616  -0.300  -0.180  0.00  0.00     0.143 HD
ENDBRANCH  27  29
ENDBRANCH   1  25
TORSDOF 6
