REMARK  9 active torsions:
REMARK  status: ('A' for Active; 'I' for Inactive)
REMARK    1  A    between atoms: O_7  and  C_2 
REMARK    2  A    between atoms: C_3  and  C_11 
REMARK    3  A    between atoms: C_4  and  C_12 
REMARK    4  A    between atoms: C_11  and  O_7 
REMARK    5  A    between atoms: O_10  and  C_8 
REMARK    6  A    between atoms: S_23  and  C_9 
REMARK    7  A    between atoms: C_12  and  O_10 
REMARK    8  A    between atoms: C_21  and  C_24 
REMARK    9  A    between atoms: C_24  and  S_23 
ROOT
ATOM      1  C   UNL d   1      -0.545  -0.087   0.024  0.00  0.00     0.112 A 
ATOM      2  C   UNL d   1       0.039   1.200   0.036  0.00  0.00     0.109 A 
ATOM      3  C   UNL d   1      -1.960  -0.277   0.170  0.00  0.00     0.105 C 
ATOM      4  N   UNL d   1      -3.107  -0.391   0.296  0.00  0.00    -0.191 NA
ATOM      5  C   UNL d   1       0.269  -1.236  -0.083  0.00  0.00     0.092 A 
ATOM      6  C   UNL d   1       1.448   1.322   0.023  0.00  0.00     0.035 A 
ATOM      7  C   UNL d   1       1.656  -1.105  -0.050  0.00  0.00     0.040 A 
ATOM      8  C   UNL d   1       2.235   0.160  -0.001  0.00  0.00     0.024 A 
ENDROOT
BRANCH   2   9
ATOM      9  O   UNL d   1      -0.656   2.372   0.151  0.00  0.00    -0.339 OA
BRANCH   9  10
ATOM     10  C   UNL d   1      -1.830   2.651  -0.625  0.00  0.00     0.293 C 
BRANCH  10  11
ATOM     11  C   UNL d   1      -1.785   2.406  -2.132  0.00  0.00     0.408 C 
ATOM     12  F   UNL d   1      -0.557   2.068  -2.578  0.00  0.00    -0.169 F 
ATOM     13  F   UNL d   1      -2.631   1.412  -2.484  0.00  0.00    -0.169 F 
ATOM     14  F   UNL d   1      -2.167   3.515  -2.807  0.00  0.00    -0.169 F 
ENDBRANCH  10  11
ENDBRANCH   9  10
ENDBRANCH   2   9
BRANCH   5  15
ATOM     15  O   UNL d   1      -0.367  -2.449  -0.198  0.00  0.00    -0.341 OA
BRANCH  15  16
ATOM     16  C   UNL d   1       0.398  -3.532  -0.755  0.00  0.00     0.293 C 
BRANCH  16  17
ATOM     17  C   UNL d   1      -0.487  -4.657  -1.287  0.00  0.00     0.408 C 
ATOM     18  F   UNL d   1      -1.798  -4.461  -1.046  0.00  0.00    -0.169 F 
ATOM     19  F   UNL d   1      -0.332  -4.791  -2.626  0.00  0.00    -0.169 F 
ATOM     20  F   UNL d   1      -0.140  -5.840  -0.727  0.00  0.00    -0.169 F 
ENDBRANCH  16  17
ENDBRANCH  15  16
ENDBRANCH   5  15
BRANCH   6  21
ATOM     21  S   UNL d   1       2.402   2.846  -0.106  0.00  0.00    -0.123 SA
BRANCH  21  22
ATOM     22  C   UNL d   1       1.506   4.037   0.938  0.00  0.00     0.105 C 
BRANCH  22  23
ATOM     23  C   UNL d   1       2.317   5.298   1.029  0.00  0.00    -0.026 C 
ATOM     24  C   UNL d   1       1.924   6.477   0.524  0.00  0.00     0.007 C 
ENDBRANCH  22  23
ENDBRANCH  21  22
ENDBRANCH   6  21
TORSDOF 9
