REMARK  4 active torsions:
REMARK  status: ('A' for Active; 'I' for Inactive)
REMARK    1  A    between atoms: C_7  and  CA_1 
REMARK    2  A    between atoms: C_5  and  O_8 
REMARK    3  A    between atoms: OXT_16  and  C_7 
REMARK    4  A    between atoms: O_8  and  C_10 
ROOT
ATOM      1  CA  UNL d   1      -2.424  -0.167  -0.180  0.00  0.00     0.107 A 
ATOM      2  N   UNL d   1      -1.610   0.948  -0.135  0.00  0.00    -0.350 N 
ATOM      3  C   UNL d   1      -1.583  -1.265  -0.119  0.00  0.00     0.050 A 
ATOM      4  C   UNL d   1      -0.239  -0.798  -0.067  0.00  0.00    -0.004 A 
ATOM      5  C   UNL d   1      -0.285   0.591  -0.102  0.00  0.00     0.043 A 
ATOM      6  C   UNL d   1       1.014  -1.431   0.019  0.00  0.00     0.051 A 
ATOM      7  C   UNL d   1       2.184  -0.664   0.077  0.00  0.00     0.079 A 
ATOM      8  C   UNL d   1       0.871   1.381  -0.089  0.00  0.00     0.033 A 
ATOM      9  C   UNL d   1       2.109   0.727  -0.011  0.00  0.00     0.039 A 
ATOM     10  H   UNL d   1      -1.961   1.897  -0.132  0.00  0.00     0.166 HD
ENDROOT
BRANCH   7  11
ATOM     11  O   UNL d   1       3.325  -1.403   0.216  0.00  0.00    -0.255 OA
BRANCH  11  12
ATOM     12  C   UNL d   1       4.502  -0.738   0.640  0.00  0.00     0.530 C 
ATOM     13  F   UNL d   1       4.263   0.134   1.645  0.00  0.00    -0.144 F 
ATOM     14  F   UNL d   1       5.377  -1.663   1.095  0.00  0.00    -0.144 F 
ATOM     15  F   UNL d   1       5.075  -0.086  -0.394  0.00  0.00    -0.144 F 
ENDBRANCH  11  12
ENDBRANCH   7  11
BRANCH   1  16
ATOM     16  C   UNL d   1      -3.860  -0.033  -0.241  0.00  0.00     0.193 C 
ATOM     17  O   UNL d   1      -4.465   1.008  -0.040  0.00  0.00    -0.645 OA
BRANCH  16  18
ATOM     18  OXT UNL d   1      -4.481  -1.184  -0.583  0.00  0.00    -0.772 OA
ATOM     19  HXT UNL d   1      -3.866  -1.898  -0.826  0.00  0.00     0.167 HD
ENDBRANCH  16  18
ENDBRANCH   1  16
TORSDOF 4
