REMARK  3 active torsions:
REMARK  status: ('A' for Active; 'I' for Inactive)
REMARK    1  A    between atoms: N_10  and  C_3 
REMARK    2  A    between atoms: C_12  and  C_4 
REMARK    3  A    between atoms: C_5  and  C_6 
REMARK       I    between atoms: C_6  and  N_11 
ROOT
ATOM      1  C   UNL d   1      -0.697  -6.748  -0.119  0.00  0.00     0.255 C 
ATOM      2  N   UNL d   1       0.095  -2.528  -0.187  0.00  0.00    -0.357 N 
ATOM      3  N   UNL d   1      -0.354  -5.388  -0.132  0.00  0.00    -0.345 N 
ATOM      4  O   UNL d   1      -1.524  -7.234  -0.879  0.00  0.00    -0.267 OA
ATOM      5  C   UNL d   1       0.642  -3.333   0.924  0.00  0.00     0.145 C 
ATOM      6  C   UNL d   1      -1.148  -3.091  -0.750  0.00  0.00     0.145 C 
ATOM      7  C   UNL d   1       0.821  -4.804   0.526  0.00  0.00     0.146 C 
ATOM      8  C   UNL d   1      -0.941  -4.552  -1.187  0.00  0.00     0.146 C 
ENDROOT
BRANCH   2   9
ATOM      9  C   UNL d   1       0.197  -1.170  -0.018  0.00  0.00     0.165 A 
ATOM     10  N   UNL d   1       0.883  -0.603   0.951  0.00  0.00    -0.320 N 
ATOM     11  C   UNL d   1       0.812   0.783   0.842  0.00  0.00     0.131 A 
ATOM     12  HN  UNL d   1       1.394  -1.106   1.676  1.00  0.00     0.169 HD
ATOM     13  N   UNL d   1       0.116   1.313  -0.169  0.00  0.00    -0.308 N 
ATOM     14  S   UNL d   1      -0.490   0.040  -1.052  0.00  0.00     0.024 SA
ATOM     15  HN  UNL d   1      -0.018   2.306  -0.361  1.00  0.00     0.176 HD
BRANCH  11  16
ATOM     16  C   UNL d   1       1.498   1.656   1.857  0.00  0.00     0.049 A 
ATOM     17  S   UNL d   1       2.388   1.044   3.183  0.00  0.00    -0.098 SA
ATOM     18  C   UNL d   1       2.760   2.618   3.741  0.00  0.00     0.050 A 
ATOM     19  C   UNL d   1       2.222   3.593   2.932  0.00  0.00     0.009 A 
ATOM     20  C   UNL d   1       1.492   3.036   1.839  0.00  0.00     0.023 A 
ENDBRANCH  11  16
ENDBRANCH   2   9
BRANCH   1  21
ATOM     21  C   UNL d   1      -0.057  -7.646   0.868  0.00  0.00     0.054 A 
ATOM     22  C   UNL d   1      -0.819  -8.333   1.824  0.00  0.00     0.052 A 
ATOM     23  C   UNL d   1      -0.189  -9.174   2.747  0.00  0.00     0.067 A 
ATOM     24 CL   UNL d   1      -2.534  -8.160   1.958  0.00  0.00    -0.083 Cl
ATOM     25  C   UNL d   1       1.194  -9.316   2.712  0.00  0.00     0.118 A 
ATOM     26  C   UNL d   1       1.960  -8.666   1.752  0.00  0.00     0.043 A 
ATOM     27  F   UNL d   1       1.799 -10.094   3.618  0.00  0.00    -0.206 F 
ATOM     28  C   UNL d   1       1.332  -7.853   0.807  0.00  0.00     0.022 A 
ENDBRANCH   1  21
TORSDOF 3
