REMARK  8 active torsions:
REMARK  status: ('A' for Active; 'I' for Inactive)
REMARK    1  A    between atoms: C_7  and  C_1 
REMARK    2  A    between atoms: C_8  and  C_1 
REMARK    3  A    between atoms: N_9  and  C_4 
REMARK    4  A    between atoms: C_12  and  C_5 
REMARK    5  A    between atoms: O_17  and  C_7 
REMARK    6  A    between atoms: O_18  and  C_8 
REMARK    7  A    between atoms: C_24  and  O_17 
REMARK    8  A    between atoms: C_23  and  O_18 
ROOT
ATOM      1  C   UNL d   1       1.827   1.403  -1.226  0.00  0.00     0.148 A 
ATOM      2  N   UNL d   1       2.325   2.536  -0.632  0.00  0.00    -0.335 N 
ATOM      3  C   UNL d   1       3.323   2.346   0.307  0.00  0.00     0.051 A 
ATOM      4  S   UNL d   1       2.568  -0.005  -0.412  0.00  0.00    -0.064 SA
ATOM      5  N   UNL d   1       1.032   1.207  -2.224  0.00  0.00    -0.345 N 
ATOM      6  HN  UNL d   1       0.771   0.265  -2.513  1.00  0.00     0.167 HD
ATOM      7  C   UNL d   1       3.590   1.050   0.549  0.00  0.00     0.083 A 
ATOM      8  H   UNL d   1       2.196   3.450  -1.033  0.00  0.00     0.168 HD
ENDROOT
BRANCH   5   9
ATOM      9  C   UNL d   1       0.548   2.310  -2.883  0.00  0.00     0.114 C 
ATOM     10  C   UNL d   1       0.321   2.374  -4.212  0.00  0.00     0.129 C 
BRANCH  10  11
ATOM     11  C   UNL d   1       0.001   3.695  -4.807  0.00  0.00     0.300 C 
ATOM     12  O   UNL d   1      -0.650   3.855  -5.826  0.00  0.00    -0.259 OA
BRANCH  11  13
ATOM     13  O   UNL d   1       0.651   4.681  -4.122  0.00  0.00    -0.318 OA
BRANCH  13  14
ATOM     14  C   UNL d   1       0.858   5.913  -4.831  0.00  0.00     0.174 C 
ATOM     15  C   UNL d   1       2.237   5.851  -5.463  0.00  0.00     0.034 C 
ENDBRANCH  13  14
ENDBRANCH  11  13
ENDBRANCH  10  11
BRANCH  10  16
ATOM     16  C   UNL d   1       0.511   1.194  -5.088  0.00  0.00     0.300 C 
ATOM     17  O   UNL d   1       0.302   0.035  -4.782  0.00  0.00    -0.259 OA
BRANCH  16  18
ATOM     18  O   UNL d   1       1.052   1.607  -6.268  0.00  0.00    -0.318 OA
BRANCH  18  19
ATOM     19  C   UNL d   1       1.688   0.593  -7.060  0.00  0.00     0.174 C 
ATOM     20  C   UNL d   1       0.806   0.094  -8.188  0.00  0.00     0.034 C 
ENDBRANCH  18  19
ENDBRANCH  16  18
ENDBRANCH  10  16
ENDBRANCH   5   9
BRANCH   3  21
ATOM     21  C   UNL d   1       3.994   3.501   0.919  0.00  0.00    -0.009 A 
ATOM     22  C   UNL d   1       5.372   3.485   1.184  0.00  0.00     0.015 A 
ATOM     23  C   UNL d   1       6.008   4.606   1.729  0.00  0.00     0.024 A 
ATOM     24  C   UNL d   1       5.272   5.754   2.009  0.00  0.00     0.034 A 
ATOM     25  C   UNL d   1       3.905   5.791   1.755  0.00  0.00     0.024 A 
ATOM     26 CL   UNL d   1       6.056   7.135   2.670  0.00  0.00    -0.084 Cl
ATOM     27  C   UNL d   1       3.269   4.668   1.215  0.00  0.00     0.015 A 
ENDBRANCH   3  21
TORSDOF 8
