REMARK  6 active torsions:
REMARK  status: ('A' for Active; 'I' for Inactive)
REMARK    1  A    between atoms: C_8  and  C_1 
REMARK    2  A    between atoms: C_10  and  C_2 
REMARK    3  A    between atoms: C_13  and  C_6 
REMARK    4  A    between atoms: O_20  and  C_6 
REMARK    5  A    between atoms: N_7  and  C_8 
REMARK    6  A    between atoms: O_28  and  C_22 
ROOT
ATOM      1  C   UNL d   1       2.133   1.589  -0.061  0.00  0.00     0.315 C 
ENDROOT
BRANCH   1   2
ATOM      2  N   UNL d   1       3.441   0.934   0.142  0.00  0.00     0.092 N 
ATOM      3  C   UNL d   1       3.450   0.088   1.349  0.00  0.00     0.276 C 
ATOM      4  C   UNL d   1       4.840  -0.516   1.546  0.00  0.00     0.073 C 
ATOM      5  C   UNL d   1       5.248  -1.377   0.341  0.00  0.00     0.088 C 
ATOM      6  C   UNL d   1       5.086  -0.578  -0.961  0.00  0.00     0.073 C 
ATOM      7  C   UNL d   1       3.715   0.091  -1.041  0.00  0.00     0.276 C 
BRANCH   5   8
ATOM      8  C   UNL d   1       6.678  -1.900   0.528  0.00  0.00    -0.024 A 
ATOM      9  C   UNL d   1       7.770  -1.012   0.508  0.00  0.00     0.012 A 
ATOM     10  C   UNL d   1       9.075  -1.465   0.723  0.00  0.00     0.024 A 
ATOM     11  C   UNL d   1       9.307  -2.815   0.962  0.00  0.00     0.034 A 
ATOM     12  C   UNL d   1       8.246  -3.714   0.986  0.00  0.00     0.024 A 
ATOM     13 CL   UNL d   1      10.910  -3.371   1.248  0.00  0.00    -0.084 Cl
ATOM     14  C   UNL d   1       6.942  -3.259   0.777  0.00  0.00     0.012 A 
ENDBRANCH   5   8
BRANCH   5  15
ATOM     15  O   UNL d   1       4.333  -2.484   0.284  0.00  0.00    -0.385 OA
ATOM     16  H   UNL d   1       4.560  -3.003  -0.506  0.00  0.00     0.211 HD
ENDBRANCH   5  15
ENDBRANCH   1   2
BRANCH   1  17
ATOM     17  C   UNL d   1       1.820   2.691   0.905  0.00  0.00     0.016 A 
ATOM     18  C   UNL d   1       0.588   3.441   0.980  0.00  0.00     0.067 A 
ATOM     19  N   UNL d   1       0.624   4.308   2.007  0.00  0.00    -0.300 N 
ATOM     20  N   UNL d   1       1.843   4.162   2.537  0.00  0.00    -0.311 N 
ATOM     21  HN  UNL d   1      -0.116   4.939   2.315  1.00  0.00     0.187 HD
ATOM     22  C   UNL d   1       2.605   3.236   1.903  0.00  0.00     0.118 A 
ATOM     23  H   UNL d   1       2.088   4.731   3.341  0.00  0.00     0.186 HD
BRANCH  18  24
ATOM     24  C   UNL d   1      -0.613   3.353   0.133  0.00  0.00    -0.007 A 
ATOM     25  C   UNL d   1      -1.878   3.638   0.671  0.00  0.00     0.016 A 
ATOM     26  C   UNL d   1      -3.036   3.557  -0.115  0.00  0.00     0.037 A 
ATOM     27  C   UNL d   1      -2.947   3.181  -1.453  0.00  0.00     0.068 A 
ATOM     28  C   UNL d   1      -1.697   2.934  -2.007  0.00  0.00     0.037 A 
ATOM     29  C   UNL d   1      -0.540   3.024  -1.226  0.00  0.00     0.016 A 
BRANCH  27  30
ATOM     30  O   UNL d   1      -3.995   3.077  -2.325  0.00  0.00    -0.356 OA
ATOM     31  C   UNL d   1      -5.259   2.791  -1.740  0.00  0.00     0.210 C 
ENDBRANCH  27  30
ENDBRANCH  18  24
ENDBRANCH   1  17
TORSDOF 6
