REMARK  5 active torsions:
REMARK  status: ('A' for Active; 'I' for Inactive)
REMARK    1  A    between atoms: C_7  and  C_1 
REMARK    2  A    between atoms: C_8  and  C_3 
REMARK    3  A    between atoms: O_17  and  C_7 
REMARK    4  A    between atoms: N_11  and  C_10 
REMARK    5  A    between atoms: C_21  and  O_17 
ROOT
ATOM      1  C   UNL d   1       1.444   1.025   0.057  0.00  0.00     0.066 C 
ATOM      2  C   UNL d   1       1.373  -0.325   0.009  0.00  0.00     0.024 C 
ATOM      3  C   UNL d   1       0.203   1.871  -0.107  0.00  0.00     0.161 C 
ATOM      4  C   UNL d   1      -1.062  -0.269  -0.092  0.00  0.00     0.321 C 
ATOM      5  N   UNL d   1       0.133  -0.915  -0.119  0.00  0.00    -0.312 N 
ATOM      6  N   UNL d   1      -1.003   1.079   0.031  0.00  0.00    -0.330 N 
ATOM      7  O   UNL d   1      -2.128  -0.868  -0.142  0.00  0.00    -0.247 OA
ATOM      8  C   UNL d   1       2.506  -1.317   0.040  0.00  0.00     0.069 C 
ATOM      9  H   UNL d   1       0.055  -1.925  -0.164  0.00  0.00     0.170 HD
ATOM     10  H   UNL d   1      -1.899   1.546   0.046  0.00  0.00     0.165 HD
ENDROOT
BRANCH   3  11
ATOM     11  C   UNL d   1       0.062   3.072   0.815  0.00  0.00    -0.031 A 
ATOM     12  C   UNL d   1      -0.097   4.357   0.284  0.00  0.00     0.012 A 
ATOM     13  C   UNL d   1      -0.346   5.457   1.119  0.00  0.00     0.030 A 
ATOM     14  C   UNL d   1      -0.463   5.329   2.512  0.00  0.00     0.029 A 
ATOM     15  C   UNL d   1      -0.266   4.034   3.023  0.00  0.00     0.030 A 
ATOM     16  C   UNL d   1      -0.003   2.927   2.201  0.00  0.00     0.012 A 
BRANCH  14  17
ATOM     17  N   UNL d   1      -0.832   6.388   3.331  0.00  0.00    -0.390 N 
ATOM     18  C   UNL d   1      -0.374   6.471   4.717  0.00  0.00     0.149 C 
ATOM     19  C   UNL d   1      -1.316   7.652   2.779  0.00  0.00     0.149 C 
ENDBRANCH  14  17
ENDBRANCH   3  11
BRANCH   1  20
ATOM     20  C   UNL d   1       2.751   1.713   0.216  0.00  0.00     0.293 C 
ATOM     21  O   UNL d   1       3.710   1.240   0.806  0.00  0.00    -0.259 OA
BRANCH  20  22
ATOM     22  O   UNL d   1       2.732   2.932  -0.381  0.00  0.00    -0.318 OA
BRANCH  22  23
ATOM     23  C   UNL d   1       3.933   3.709  -0.252  0.00  0.00     0.174 C 
ATOM     24  C   UNL d   1       4.133   4.238   1.160  0.00  0.00     0.034 C 
ENDBRANCH  22  23
ENDBRANCH  20  22
ENDBRANCH   1  20
TORSDOF 5
