REMARK  5 active torsions:
REMARK  status: ('A' for Active; 'I' for Inactive)
REMARK       I    between atoms: N_6  and  C_1 
REMARK    1  A    between atoms: O_16  and  C_1 
REMARK    2  A    between atoms: C_3  and  N_6 
REMARK    3  A    between atoms: C_14  and  C_4 
REMARK    4  A    between atoms: C_5  and  C_23 
REMARK    5  A    between atoms: C_23  and  O_16 
ROOT
ATOM      1  N   UNL d   1      12.701   0.120  -0.819  0.00  0.00    -0.191 NA
ATOM      2  C   UNL d   1      11.572   0.058  -0.563  0.00  0.00     0.099 C 
ATOM      3  C   UNL d   1       7.409  -0.155   0.211  0.00  0.00     0.017 A 
ATOM      4  C   UNL d   1      10.170  -0.016  -0.267  0.00  0.00     0.044 A 
ATOM      5  C   UNL d   1       8.045   1.086   0.117  0.00  0.00     0.022 A 
ATOM      6  C   UNL d   1       8.161  -1.327   0.099  0.00  0.00     0.022 A 
ATOM      7  C   UNL d   1       9.539  -1.259  -0.142  0.00  0.00     0.024 A 
ATOM      8  C   UNL d   1       9.421   1.157  -0.122  0.00  0.00     0.024 A 
ENDROOT
BRANCH   3   9
ATOM      9  C   UNL d   1       5.992  -0.210   0.416  0.00  0.00    -0.065 C 
ATOM     10  C   UNL d   1       4.807  -0.238   0.615  0.00  0.00    -0.074 C 
BRANCH  10  11
ATOM     11  C   UNL d   1       3.380  -0.287   0.966  0.00  0.00     0.274 C 
BRANCH  11  12
ATOM     12  O   UNL d   1       2.559   0.062  -0.160  0.00  0.00    -0.292 OA
BRANCH  12  13
ATOM     13  C   UNL d   1       1.545  -0.791  -0.434  0.00  0.00     0.366 C 
ATOM     14  N   UNL d   1       0.619  -0.360  -1.349  0.00  0.00    -0.303 N 
ATOM     15  H   UNL d   1      -0.092  -1.068  -1.485  0.00  0.00     0.171 HD
ATOM     16  O   UNL d   1       1.389  -1.885   0.101  0.00  0.00    -0.238 OA
BRANCH  14  17
ATOM     17  C   UNL d   1       0.407   0.877  -1.985  0.00  0.00     0.040 A 
ATOM     18  C   UNL d   1       1.245   1.987  -1.871  0.00  0.00     0.053 A 
ATOM     19  C   UNL d   1       0.891   3.200  -2.472  0.00  0.00     0.037 A 
ATOM     20 CL   UNL d   1       1.918   4.570  -2.285  0.00  0.00    -0.084 Cl
ATOM     21  C   UNL d   1      -0.286   3.323  -3.204  0.00  0.00     0.048 A 
ATOM     22  C   UNL d   1      -1.104   2.211  -3.349  0.00  0.00     0.037 A 
ATOM     23  C   UNL d   1      -0.764   0.995  -2.751  0.00  0.00     0.053 A 
ATOM     24 CL   UNL d   1      -2.562   2.337  -4.256  0.00  0.00    -0.084 Cl
ENDBRANCH  14  17
ENDBRANCH  12  13
ENDBRANCH  11  12
ENDBRANCH  10  11
ENDBRANCH   3   9
TORSDOF 5
