REMARK  4 active torsions:
REMARK  status: ('A' for Active; 'I' for Inactive)
REMARK    1  A    between atoms: C_9  and  C_3 
REMARK    2  A    between atoms: C_8  and  C_4 
REMARK    3  A    between atoms: C_10  and  C_5 
REMARK    4  A    between atoms: O_22  and  C_16 
ROOT
ATOM      1  N   UNL d   1      -1.332  -0.073  -0.005  0.00  0.00    -0.355 N 
ATOM      2  HN  UNL d   1      -2.351  -0.115  -0.008  1.00  0.00     0.166 HD
ATOM      3  C   UNL d   1      -0.691   1.123  -0.017  0.00  0.00     0.043 A 
ATOM      4  C   UNL d   1      -0.595  -1.210   0.010  0.00  0.00     0.043 A 
ATOM      5  C   UNL d   1       1.484   0.044   0.014  0.00  0.00    -0.022 A 
ATOM      6  C   UNL d   1       0.702   1.204   0.025  0.00  0.00     0.042 A 
ATOM      7  C   UNL d   1       0.798  -1.176  -0.018  0.00  0.00     0.042 A 
ENDROOT
BRANCH   3   8
ATOM      8  C   UNL d   1      -1.551   2.325  -0.078  0.00  0.00    -0.009 A 
ATOM      9  C   UNL d   1      -2.838   2.326   0.487  0.00  0.00     0.016 A 
ATOM     10  C   UNL d   1      -3.665   3.458   0.437  0.00  0.00     0.037 A 
ATOM     11  C   UNL d   1      -3.225   4.620  -0.192  0.00  0.00     0.068 A 
ATOM     12  C   UNL d   1      -1.956   4.639  -0.765  0.00  0.00     0.037 A 
ATOM     13  C   UNL d   1      -1.133   3.509  -0.713  0.00  0.00     0.016 A 
BRANCH  11  14
ATOM     14  O   UNL d   1      -3.926   5.787  -0.319  0.00  0.00    -0.356 OA
ATOM     15  C   UNL d   1      -5.238   5.809   0.228  0.00  0.00     0.210 C 
ENDBRANCH  11  14
ENDBRANCH   3   8
BRANCH   4  16
ATOM     16  C   UNL d   1      -1.349  -2.484   0.059  0.00  0.00    -0.009 A 
ATOM     17  C   UNL d   1      -2.634  -2.590  -0.503  0.00  0.00     0.015 A 
ATOM     18  C   UNL d   1      -3.344  -3.798  -0.485  0.00  0.00     0.019 A 
ATOM     19  C   UNL d   1      -2.780  -4.925   0.105  0.00  0.00     0.006 A 
ATOM     20  C   UNL d   1      -1.520  -4.849   0.690  0.00  0.00     0.019 A 
ATOM     21  I   UNL d   1      -3.816  -6.725   0.117  0.00  0.00    -0.045 I 
ATOM     22  C   UNL d   1      -0.818  -3.638   0.670  0.00  0.00     0.015 A 
ENDBRANCH   4  16
BRANCH   5  23
ATOM     23  C   UNL d   1       2.964   0.101   0.046  0.00  0.00    -0.026 A 
ATOM     24  C   UNL d   1       3.676   1.132  -0.593  0.00  0.00     0.012 A 
ATOM     25  C   UNL d   1       5.072   1.196  -0.540  0.00  0.00     0.001 A 
ATOM     26  C   UNL d   1       5.791   0.219   0.141  0.00  0.00     0.000 A 
ATOM     27  C   UNL d   1       5.114  -0.819   0.771  0.00  0.00     0.001 A 
ATOM     28  C   UNL d   1       3.718  -0.873   0.729  0.00  0.00     0.012 A 
ENDBRANCH   5  23
TORSDOF 4
