REMARK  4 active torsions:
REMARK  status: ('A' for Active; 'I' for Inactive)
REMARK    1  A    between atoms: C_6  and  N_1 
REMARK    2  A    between atoms: N_9  and  C_6 
REMARK    3  A    between atoms: C_10  and  N_9 
REMARK    4  A    between atoms: C_18  and  C_13 
ROOT
ATOM      1  N   UNL d   1      -1.951   0.088  -0.194  0.00  0.00    -0.263 N 
ATOM      2  C   UNL d   1      -1.229  -1.019  -0.521  0.00  0.00     0.258 C 
ATOM      3  C   UNL d   1      -1.135   1.023   0.352  0.00  0.00     0.258 C 
ATOM      4  C   UNL d   1       0.239   0.555   0.162  0.00  0.00     0.022 C 
ATOM      5  C   UNL d   1       0.180  -0.676  -0.353  0.00  0.00     0.022 C 
ATOM      6  O   UNL d   1      -1.433   2.054   0.931  0.00  0.00    -0.267 OA
ATOM      7  O   UNL d   1      -1.629  -2.129  -0.837  0.00  0.00    -0.267 OA
ATOM      8  C   UNL d   1       1.487   1.289   0.475  0.00  0.00     0.045 C 
ATOM      9  C   UNL d   1       1.355  -1.533  -0.644  0.00  0.00     0.045 C 
ATOM     10  C   UNL d   1       2.635  -0.946  -0.022  0.00  0.00     0.005 C 
ATOM     11  C   UNL d   1       2.707   0.585  -0.146  0.00  0.00     0.005 C 
ENDROOT
BRANCH   1  12
ATOM     12  C   UNL d   1      -3.384   0.051  -0.074  0.00  0.00     0.258 C 
BRANCH  12  13
ATOM     13  N   UNL d   1      -3.932   1.351  -0.396  0.00  0.00    -0.373 N 
ATOM     14  H   UNL d   1      -3.408   2.109   0.048  0.00  0.00     0.161 HD
BRANCH  13  15
ATOM     15  C   UNL d   1      -5.306   1.590  -0.354  0.00  0.00     0.029 A 
ATOM     16  C   UNL d   1      -6.277   0.617  -0.093  0.00  0.00     0.029 A 
ATOM     17  C   UNL d   1      -7.648   0.913  -0.177  0.00  0.00     0.009 A 
ATOM     18  C   UNL d   1      -8.082   2.188  -0.555  0.00  0.00    -0.058 A 
ATOM     19  C   UNL d   1      -7.118   3.166  -0.812  0.00  0.00     0.009 A 
ATOM     20  C   UNL d   1      -5.755   2.868  -0.710  0.00  0.00     0.029 A 
BRANCH  18  21
ATOM     21  C   UNL d   1      -9.547   2.514  -0.708  0.00  0.00     0.034 C 
ATOM     22  C   UNL d   1     -10.079   2.244  -2.110  0.00  0.00     0.010 C 
ENDBRANCH  18  21
ENDBRANCH  13  15
ENDBRANCH  12  13
ENDBRANCH   1  12
TORSDOF 4
