REMARK  2 active torsions:
REMARK  status: ('A' for Active; 'I' for Inactive)
REMARK    1  A    between atoms: C_2  and  C_1 
REMARK    2  A    between atoms: O_17  and  C_14 
ROOT
ATOM      1  C   UNL d   1      -1.505   0.256   0.119  0.00  0.00    -0.012 C 
ATOM      2  C   UNL d   1      -0.702   0.986   1.243  0.00  0.00     0.019 C 
ATOM      3  C   UNL d   1      -0.949   0.728  -1.253  0.00  0.00     0.019 C 
ATOM      4  C   UNL d   1      -1.186  -1.267   0.261  0.00  0.00     0.019 C 
ATOM      5  C   UNL d   1       0.806   0.716   1.132  0.00  0.00    -0.013 C 
ATOM      6  C   UNL d   1       0.563   0.458  -1.361  0.00  0.00    -0.013 C 
ATOM      7  C   UNL d   1       0.325  -1.540   0.153  0.00  0.00    -0.013 C 
ATOM      8  C   UNL d   1       1.299   1.206  -0.239  0.00  0.00     0.009 C 
ATOM      9  C   UNL d   1       1.064  -0.789   1.267  0.00  0.00     0.009 C 
ATOM     10  C   UNL d   1       0.827  -1.049  -1.215  0.00  0.00     0.009 C 
ENDROOT
BRANCH   1  11
ATOM     11  C   UNL d   1      -3.012   0.567   0.176  0.00  0.00    -0.049 A 
ATOM     12  C   UNL d   1      -3.486   1.810   0.635  0.00  0.00     0.011 A 
ATOM     13  C   UNL d   1      -4.853   2.119   0.665  0.00  0.00     0.037 A 
ATOM     14  C   UNL d   1      -5.792   1.195   0.221  0.00  0.00     0.068 A 
ATOM     15  C   UNL d   1      -5.345  -0.034  -0.257  0.00  0.00     0.037 A 
ATOM     16  C   UNL d   1      -3.978  -0.343  -0.284  0.00  0.00     0.011 A 
BRANCH  14  17
ATOM     17  O   UNL d   1      -7.147   1.374   0.196  0.00  0.00    -0.356 OA
ATOM     18  C   UNL d   1      -7.631   2.633   0.647  0.00  0.00     0.210 C 
ENDBRANCH  14  17
ENDBRANCH   1  11
TORSDOF 2
