REMARK  8 active torsions:
REMARK  status: ('A' for Active; 'I' for Inactive)
REMARK    1  A    between atoms: C_7  and  C_1 
REMARK    2  A    between atoms: C_12  and  C_2 
REMARK    3  A    between atoms: S_3  and  N_9 
REMARK    4  A    between atoms: C_13  and  S_3 
REMARK    5  A    between atoms: C_22  and  N_4 
REMARK    6  A    between atoms: N_9  and  N_16 
REMARK    7  A    between atoms: C_10  and  C_14 
REMARK    8  A    between atoms: C_11  and  C_15 
REMARK       I    between atoms: N_16  and  C_12 
ROOT
ATOM      1  C   UNL d   1      -0.595  -2.658   0.032  0.00  0.00     0.274 C 
ATOM      2  N   UNL d   1       0.098  -3.847  -0.007  0.00  0.00    -0.256 N 
ATOM      3  O   UNL d   1      -0.100  -1.622  -0.412  0.00  0.00    -0.266 OA
ATOM      4  H   UNL d   1      -0.295  -4.742   0.282  0.00  0.00     0.191 HD
ENDROOT
BRANCH   2   5
ATOM      5  N   UNL d   1       1.434  -3.903  -0.589  0.00  0.00    -0.220 N 
ATOM      6  H   UNL d   1       1.870  -3.048  -0.948  0.00  0.00     0.200 HD
BRANCH   5   7
ATOM      7  S   UNL d   1       2.222  -5.391  -0.573  0.00  0.00     0.276 S 
ATOM      8  O   UNL d   1       2.511  -5.709   0.808  0.00  0.00    -0.199 OA
ATOM      9  O   UNL d   1       1.441  -6.296  -1.392  0.00  0.00    -0.199 OA
BRANCH   7  10
ATOM     10  C   UNL d   1       3.771  -5.097  -1.394  0.00  0.00     0.082 A 
ATOM     11  C   UNL d   1       4.853  -4.598  -0.657  0.00  0.00     0.041 A 
ATOM     12  C   UNL d   1       6.132  -4.539  -1.234  0.00  0.00     0.050 A 
ATOM     13  C   UNL d   1       6.303  -4.990  -2.556  0.00  0.00     0.032 A 
ATOM     14  C   UNL d   1       5.225  -5.502  -3.300  0.00  0.00     0.050 A 
ATOM     15  C   UNL d   1       3.953  -5.547  -2.708  0.00  0.00     0.041 A 
BRANCH  12  16
ATOM     16  C   UNL d   1       7.330  -4.055  -0.447  0.00  0.00     0.417 C 
ATOM     17  F   UNL d   1       7.020  -3.637   0.810  0.00  0.00    -0.166 F 
ATOM     18  F   UNL d   1       8.275  -5.024  -0.301  0.00  0.00    -0.166 F 
ATOM     19  F   UNL d   1       7.954  -3.008  -1.050  0.00  0.00    -0.166 F 
ENDBRANCH  12  16
BRANCH  14  20
ATOM     20  C   UNL d   1       5.465  -6.046  -4.693  0.00  0.00     0.417 C 
ATOM     21  F   UNL d   1       4.338  -6.503  -5.300  0.00  0.00    -0.166 F 
ATOM     22  F   UNL d   1       5.992  -5.110  -5.528  0.00  0.00    -0.166 F 
ATOM     23  F   UNL d   1       6.342  -7.087  -4.692  0.00  0.00    -0.166 F 
ENDBRANCH  14  20
ENDBRANCH   7  10
ENDBRANCH   5   7
ENDBRANCH   2   5
BRANCH   1  24
ATOM     24  C   UNL d   1      -1.944  -2.673   0.603  0.00  0.00     0.084 C 
ATOM     25  C   UNL d   1      -2.695  -3.647   1.268  0.00  0.00     0.157 C 
ATOM     26  N   UNL d   1      -3.899  -3.054   1.622  0.00  0.00    -0.251 N 
ATOM     27  N   UNL d   1      -4.024  -1.833   1.047  0.00  0.00    -0.303 N 
ATOM     28  C   UNL d   1      -2.831  -1.578   0.524  0.00  0.00     0.127 C 
ATOM     29  HN  UNL d   1      -4.854  -1.240   1.023  1.00  0.00     0.186 HD
BRANCH  25  30
ATOM     30  C   UNL d   1      -2.451  -5.072   1.539  0.00  0.00     0.435 C 
ATOM     31  F   UNL d   1      -1.527  -5.584   0.685  0.00  0.00    -0.165 F 
ATOM     32  F   UNL d   1      -1.956  -5.272   2.782  0.00  0.00    -0.165 F 
ATOM     33  F   UNL d   1      -3.550  -5.846   1.394  0.00  0.00    -0.165 F 
ENDBRANCH  25  30
BRANCH  26  34
ATOM     34  C   UNL d   1      -4.969  -3.535   2.435  0.00  0.00     0.057 A 
ATOM     35  C   UNL d   1      -4.747  -4.369   3.538  0.00  0.00     0.031 A 
ATOM     36  C   UNL d   1      -5.829  -4.855   4.279  0.00  0.00     0.002 A 
ATOM     37  C   UNL d   1      -7.132  -4.509   3.931  0.00  0.00     0.000 A 
ATOM     38  C   UNL d   1      -7.358  -3.646   2.861  0.00  0.00     0.002 A 
ATOM     39  C   UNL d   1      -6.281  -3.145   2.126  0.00  0.00     0.031 A 
ENDBRANCH  26  34
ENDBRANCH   1  24
TORSDOF 8
