REMARK  3 active torsions:
REMARK  status: ('A' for Active; 'I' for Inactive)
REMARK    1  A    between atoms: C_11  and  C_3 
REMARK    2  A    between atoms: C_12  and  C_4 
REMARK    3  A    between atoms: C_5  and  C_7 
ROOT
ATOM      1  N   UNL d   1       1.422  -0.587   0.029  0.00  0.00    -0.348 N 
ATOM      2  HN  UNL d   1       2.311  -1.086   0.076  1.00  0.00     0.166 HD
ATOM      3  C   UNL d   1       0.234  -1.169  -0.004  0.00  0.00     0.101 A 
ATOM      4  C   UNL d   1       1.292   0.793  -0.008  0.00  0.00     0.050 A 
ATOM      5  S   UNL d   1      -1.097  -0.070  -0.038  0.00  0.00    -0.080 SA
ATOM      6  C   UNL d   1      -0.010   1.250  -0.026  0.00  0.00     0.082 A 
ENDROOT
BRANCH   3   7
ATOM      7  C   UNL d   1       0.012  -2.628  -0.019  0.00  0.00     0.066 A 
ATOM      8  N   UNL d   1      -1.273  -3.064  -0.091  0.00  0.00    -0.363 N 
ATOM      9  C   UNL d   1      -1.488  -4.399  -0.130  0.00  0.00     0.104 A 
ATOM     10  HN  UNL d   1      -2.051  -2.405  -0.115  1.00  0.00     0.165 HD
ATOM     11  C   UNL d   1      -0.478  -5.347  -0.101  0.00  0.00     0.063 A 
ATOM     12  C   UNL d   1       0.838  -4.883  -0.017  0.00  0.00     0.020 A 
ATOM     13  C   UNL d   1       1.088  -3.511   0.023  0.00  0.00     0.033 A 
BRANCH  11  14
ATOM     14  C   UNL d   1      -0.797  -6.809  -0.167  0.00  0.00     0.418 C 
ATOM     15  F   UNL d   1      -2.130  -7.072  -0.259  0.00  0.00    -0.166 F 
ATOM     16  F   UNL d   1      -0.223  -7.418  -1.240  0.00  0.00    -0.166 F 
ATOM     17  F   UNL d   1      -0.358  -7.488   0.927  0.00  0.00    -0.166 F 
ENDBRANCH  11  14
ENDBRANCH   3   7
BRANCH   4  18
ATOM     18  C   UNL d   1       2.463   1.664  -0.003  0.00  0.00    -0.009 A 
ATOM     19  C   UNL d   1       2.439   2.934  -0.599  0.00  0.00     0.015 A 
ATOM     20  C   UNL d   1       3.574   3.751  -0.579  0.00  0.00     0.024 A 
ATOM     21  C   UNL d   1       4.741   3.302   0.034  0.00  0.00     0.034 A 
ATOM     22  C   UNL d   1       4.786   2.040   0.621  0.00  0.00     0.024 A 
ATOM     23 CL   UNL d   1       6.134   4.310   0.060  0.00  0.00    -0.084 Cl
ATOM     24  C   UNL d   1       3.651   1.223   0.598  0.00  0.00     0.015 A 
ENDBRANCH   4  18
TORSDOF 3
