REMARK  5 active torsions:
REMARK  status: ('A' for Active; 'I' for Inactive)
REMARK    1  A    between atoms: N_3  and  C_1 
REMARK    2  A    between atoms: C_2  and  N_3 
REMARK    3  A    between atoms: C_13  and  N_9 
REMARK    4  A    between atoms: C_10  and  C_12 
REMARK    5  A    between atoms: C_12  and  C_13 
ROOT
ATOM      1  C   UNL d   1       1.134  -0.227  -0.015  0.00  0.00     0.172 C 
ATOM      2  S   UNL d   1       0.253  -0.315  -1.431  0.00  0.00    -0.041 SA
ATOM      3  N   UNL d   1       2.484  -0.241  -0.097  0.00  0.00    -0.367 N 
ATOM      4  H   UNL d   1       2.810  -0.205  -1.056  0.00  0.00     0.161 HD
ENDROOT
BRANCH   1   5
ATOM      5  N   UNL d   1       0.485  -0.232   1.169  0.00  0.00    -0.332 N 
ATOM      6  H   UNL d   1      -0.436  -0.661   1.128  0.00  0.00     0.168 HD
BRANCH   5   7
ATOM      7  C   UNL d   1       0.864   0.243   2.446  0.00  0.00     0.062 C 
ATOM      8  C   UNL d   1       0.330  -0.428   3.567  0.00  0.00     0.061 C 
ATOM      9 CL   UNL d   1      -0.814  -1.717   3.380  0.00  0.00    -0.082 Cl
ATOM     10  C   UNL d   1       0.744  -0.112   4.862  0.00  0.00     0.026 C 
ATOM     11  C   UNL d   1       1.679   0.897   5.060  0.00  0.00     0.002 C 
ATOM     12  C   UNL d   1       2.147   1.629   3.970  0.00  0.00     0.009 C 
ATOM     13  C   UNL d   1       1.715   1.347   2.660  0.00  0.00    -0.034 C 
ATOM     14  C   UNL d   1       2.161   2.295   1.579  0.00  0.00     0.050 C 
ENDBRANCH   5   7
ENDBRANCH   1   5
BRANCH   3  15
ATOM     15  C   UNL d   1       3.424  -0.881   0.828  0.00  0.00     0.128 C 
BRANCH  15  16
ATOM     16  C   UNL d   1       3.670  -2.343   0.459  0.00  0.00     0.076 C 
BRANCH  16  17
ATOM     17  C   UNL d   1       4.637  -2.983   1.419  0.00  0.00     0.010 A 
ATOM     18  N   UNL d   1       5.958  -2.810   1.164  0.00  0.00    -0.369 N 
ATOM     19  C   UNL d   1       6.835  -3.374   2.025  0.00  0.00     0.088 A 
ATOM     20  HN  UNL d   1       6.277  -2.276   0.356  1.00  0.00     0.165 HD
ATOM     21  C   UNL d   1       6.461  -4.101   3.141  0.00  0.00     0.017 A 
ATOM     22  C   UNL d   1       5.104  -4.258   3.396  0.00  0.00     0.003 A 
ATOM     23  C   UNL d   1       4.176  -3.690   2.525  0.00  0.00     0.025 A 
ENDBRANCH  16  17
ENDBRANCH  15  16
ENDBRANCH   3  15
TORSDOF 5
