REMARK  2 active torsions:
REMARK  status: ('A' for Active; 'I' for Inactive)
REMARK       I    between atoms: N_2  and  C_1 
REMARK    1  A    between atoms: C_4  and  C_1 
REMARK    2  A    between atoms: C_15  and  N_3 
ROOT
ATOM      1  C   UNL d   1       0.746   0.124  -0.183  0.00  0.00     0.253 C 
ATOM      2  N   UNL d   1       0.227   0.932   0.828  0.00  0.00    -0.345 N 
ATOM      3  N   UNL d   1      -0.265   2.488   3.193  0.00  0.00    -0.378 N 
ATOM      4  C   UNL d   1       0.635   2.344   0.888  0.00  0.00     0.146 C 
ATOM      5  C   UNL d   1      -0.838   0.556   1.772  0.00  0.00     0.146 C 
ATOM      6  C   UNL d   1       0.880   2.830   2.328  0.00  0.00     0.143 C 
ATOM      7  C   UNL d   1      -0.584   1.054   3.206  0.00  0.00     0.143 C 
ATOM      8  O   UNL d   1       1.706   0.445  -0.877  0.00  0.00    -0.267 OA
ENDROOT
BRANCH   1   9
ATOM      9  C   UNL d   1       0.131  -1.204  -0.433  0.00  0.00     0.033 A 
ATOM     10  C   UNL d   1      -1.249  -1.339  -0.595  0.00  0.00     0.030 A 
ATOM     11  C   UNL d   1      -1.823  -2.614  -0.715  0.00  0.00    -0.009 A 
ATOM     12  C   UNL d   1      -3.212  -2.783  -0.760  0.00  0.00     0.015 A 
ATOM     13  C   UNL d   1      -1.006  -3.764  -0.764  0.00  0.00     0.042 A 
ATOM     14  C   UNL d   1      -3.746  -4.062  -0.842  0.00  0.00     0.018 A 
ATOM     15  C   UNL d   1      -2.869  -5.128  -0.896  0.00  0.00     0.088 A 
ATOM     16  N   UNL d   1      -1.523  -5.001  -0.863  0.00  0.00    -0.365 N 
ATOM     17  HN  UNL d   1      -0.917  -5.820  -0.911  1.00  0.00     0.165 HD
ATOM     18  C   UNL d   1       0.372  -3.595  -0.693  0.00  0.00     0.031 A 
ATOM     19  C   UNL d   1       0.949  -2.330  -0.521  0.00  0.00     0.019 A 
ENDBRANCH   1   9
BRANCH   3  20
ATOM     20  C   UNL d   1      -0.980   3.411   3.927  0.00  0.00     0.030 A 
ATOM     21  C   UNL d   1      -1.675   3.052   5.096  0.00  0.00     0.029 A 
ATOM     22  C   UNL d   1      -2.427   3.974   5.834  0.00  0.00     0.002 A 
ATOM     23  C   UNL d   1      -2.499   5.297   5.425  0.00  0.00     0.000 A 
ATOM     24  C   UNL d   1      -1.816   5.692   4.282  0.00  0.00     0.002 A 
ATOM     25  C   UNL d   1      -1.071   4.759   3.547  0.00  0.00     0.029 A 
ENDBRANCH   3  20
TORSDOF 2
