REMARK  4 active torsions:
REMARK  status: ('A' for Active; 'I' for Inactive)
REMARK    1  A    between atoms: N_2  and  S_1 
REMARK    2  A    between atoms: C_3  and  S_1 
REMARK    3  A    between atoms: C_4  and  N_2 
REMARK    4  A    between atoms: C_23  and  C_18 
ROOT
ATOM      1  S   UNL d   1       0.952   0.073   0.055  0.00  0.00     0.247 S 
ATOM      2  O   UNL d   1       0.195   1.055   0.809  0.00  0.00    -0.205 OA
ATOM      3  O   UNL d   1       2.386  -0.054   0.178  0.00  0.00    -0.205 OA
ENDROOT
BRANCH   1   4
ATOM      4  N   UNL d   1       0.477   0.267  -1.564  0.00  0.00    -0.166 NA
ATOM      5  H   UNL d   1      -0.136   1.082  -1.587  0.00  0.00     0.147 HD
BRANCH   4   6
ATOM      6  C   UNL d   1       1.549   0.475  -2.462  0.00  0.00     0.094 A 
ATOM      7  N   UNL d   1       1.888   1.764  -2.616  0.00  0.00    -0.356 N 
ATOM      8  C   UNL d   1       2.963   1.999  -3.403  0.00  0.00     0.090 A 
ATOM      9  HN  UNL d   1       1.368   2.518  -2.168  1.00  0.00     0.166 HD
ATOM     10  C   UNL d   1       3.695   1.005  -4.044  0.00  0.00     0.024 A 
ATOM     11  C   UNL d   1       3.301  -0.324  -3.886  0.00  0.00    -0.054 A 
ATOM     12  C   UNL d   1       2.197  -0.587  -3.073  0.00  0.00     0.050 A 
BRANCH  11  13
ATOM     13  C   UNL d   1       4.043  -1.451  -4.556  0.00  0.00     0.034 C 
ATOM     14  C   UNL d   1       5.173  -2.013  -3.706  0.00  0.00     0.010 C 
ENDBRANCH  11  13
ENDBRANCH   4   6
ENDBRANCH   1   4
BRANCH   1  15
ATOM     15  C   UNL d   1       0.274  -1.527   0.444  0.00  0.00     0.077 A 
ATOM     16  C   UNL d   1      -0.619  -1.669   1.506  0.00  0.00     0.064 A 
ATOM     17  C   UNL d   1      -1.167  -2.924   1.785  0.00  0.00     0.103 A 
ATOM     18  O   UNL d   1      -2.004  -2.962   2.873  0.00  0.00    -0.348 OA
ATOM     19  C   UNL d   1      -0.864  -4.022   0.964  0.00  0.00     0.102 A 
ATOM     20  C   UNL d   1      -1.894  -4.171   3.626  0.00  0.00     0.178 C 
ATOM     21  C   UNL d   1      -2.797  -5.254   3.061  0.00  0.00     0.053 C 
ATOM     22  C   UNL d   1      -2.743  -5.302   1.544  0.00  0.00     0.178 C 
ATOM     23  O   UNL d   1      -1.395  -5.282   1.078  0.00  0.00    -0.348 OA
ATOM     24  C   UNL d   1       0.072  -3.879  -0.062  0.00  0.00     0.041 A 
ATOM     25  C   UNL d   1       0.652  -2.637  -0.315  0.00  0.00     0.028 A 
ENDBRANCH   1  15
TORSDOF 4
