REMARK  5 active torsions:
REMARK  status: ('A' for Active; 'I' for Inactive)
REMARK    1  A    between atoms: N_4  and  C_3 
REMARK       I    between atoms: C_5  and  N_4 
REMARK    2  A    between atoms: O_11  and  C_5 
REMARK    3  A    between atoms: C_15  and  C_6 
REMARK    4  A    between atoms: C_10  and  C_15 
REMARK    5  A    between atoms: C_17  and  O_11 
ROOT
ATOM      1  N   UNL d   1       1.201  -0.993   0.786  0.00  0.00    -0.339 N 
ATOM      2  HN  UNL d   1       2.100  -1.409   1.030  1.00  0.00     0.168 HD
ATOM      3  C   UNL d   1       1.007   0.330   0.429  0.00  0.00     0.116 A 
ATOM      4  C   UNL d   1       0.042  -1.637   0.763  0.00  0.00     0.056 A 
ATOM      5  S   UNL d   1      -1.339  -0.633   0.431  0.00  0.00    -0.085 SA
ATOM      6  C   UNL d   1      -0.302   0.688   0.186  0.00  0.00     0.100 A 
ENDROOT
BRANCH   3   7
ATOM      7  N   UNL d   1       1.999   1.257   0.225  0.00  0.00    -0.288 N 
ATOM      8  C   UNL d   1       3.301   1.308   0.620  0.00  0.00     0.371 C 
ATOM      9  O   UNL d   1       3.986   2.246   0.202  0.00  0.00    -0.238 OA
ATOM     10  H   UNL d   1       1.736   2.107  -0.254  0.00  0.00     0.172 HD
BRANCH   8  11
ATOM     11  O   UNL d   1       3.703   0.374   1.559  0.00  0.00    -0.261 OA
BRANCH  11  12
ATOM     12  C   UNL d   1       4.753   0.921   2.304  0.00  0.00     0.081 A 
ATOM     13  C   UNL d   1       4.438   1.771   3.369  0.00  0.00     0.037 A 
ATOM     14  C   UNL d   1       5.464   2.405   4.069  0.00  0.00     0.003 A 
ATOM     15  C   UNL d   1       6.795   2.169   3.719  0.00  0.00     0.000 A 
ATOM     16  C   UNL d   1       7.102   1.289   2.678  0.00  0.00     0.003 A 
ATOM     17  C   UNL d   1       6.079   0.654   1.967  0.00  0.00     0.037 A 
ENDBRANCH  11  12
ENDBRANCH   8  11
ENDBRANCH   3   7
BRANCH   4  18
ATOM     18  C   UNL d   1      -0.263  -3.116   0.839  0.00  0.00     0.103 C 
BRANCH  18  19
ATOM     19  C   UNL d   1       0.666  -4.083   1.518  0.00  0.00    -0.045 A 
ATOM     20  C   UNL d   1       0.389  -5.443   1.544  0.00  0.00     0.057 A 
ATOM     21  S   UNL d   1       1.554  -6.360   2.387  0.00  0.00    -0.113 SA
ATOM     22  C   UNL d   1       2.463  -4.957   2.736  0.00  0.00     0.050 A 
ATOM     23  C   UNL d   1       1.886  -3.820   2.217  0.00  0.00     0.015 A 
ENDBRANCH  18  19
ENDBRANCH   4  18
TORSDOF 5
