REMARK  5 active torsions:
REMARK  status: ('A' for Active; 'I' for Inactive)
REMARK    1  A    between atoms: O_5  and  C_1 
REMARK    2  A    between atoms: C_2  and  C_3 
REMARK    3  A    between atoms: O_10  and  C_2 
REMARK    4  A    between atoms: C_11  and  O_5 
REMARK    5  A    between atoms: O_12  and  C_6 
ROOT
ATOM      1  C   UNL d   1       1.356  -0.320   0.128  0.00  0.00     0.103 A 
ATOM      2  C   UNL d   1      -0.977  -1.029   0.006  0.00  0.00     0.040 A 
ATOM      3  C   UNL d   1       0.392  -1.335   0.085  0.00  0.00     0.057 A 
ATOM      4  C   UNL d   1       0.936   1.018   0.034  0.00  0.00     0.101 A 
ATOM      5  C   UNL d   1      -1.390   0.304  -0.014  0.00  0.00     0.021 A 
ATOM      6  C   UNL d   1      -0.433   1.318  -0.009  0.00  0.00     0.040 A 
ENDROOT
BRANCH   1   7
ATOM      7  O   UNL d   1       2.696  -0.579   0.253  0.00  0.00    -0.343 OA
BRANCH   7   8
ATOM      8  C   UNL d   1       3.095  -1.758   0.952  0.00  0.00     0.129 C 
ATOM      9  C   UNL d   1       2.764  -1.716   2.444  0.00  0.00     0.032 C 
ATOM     10  C   UNL d   1       3.831  -2.563   3.133  0.00  0.00     0.002 C 
ATOM     11  C   UNL d   1       4.945  -2.771   2.111  0.00  0.00     0.002 C 
ATOM     12  C   UNL d   1       4.621  -1.837   0.956  0.00  0.00     0.032 C 
ENDBRANCH   7   8
ENDBRANCH   1   7
BRANCH   4  13
ATOM     13  O   UNL d   1       1.728   2.137   0.064  0.00  0.00    -0.353 OA
ATOM     14  C   UNL d   1       2.989   2.035  -0.588  0.00  0.00     0.210 C 
ENDBRANCH   4  13
BRANCH   2  15
ATOM     15  C   UNL d   1      -1.942  -2.162   0.011  0.00  0.00     0.176 C 
ATOM     16  O   UNL d   1      -1.686  -3.233   0.534  0.00  0.00    -0.646 OA
BRANCH  15  17
ATOM     17  O   UNL d   1      -3.093  -1.914  -0.641  0.00  0.00    -0.773 OA
ATOM     18  H   UNL d   1      -3.112  -1.093  -1.164  0.00  0.00     0.167 HD
ENDBRANCH  15  17
ENDBRANCH   2  15
TORSDOF 5
