REMARK  3 active torsions:
REMARK  status: ('A' for Active; 'I' for Inactive)
REMARK    1  A    between atoms: C_2  and  C_1 
REMARK    2  A    between atoms: N_11  and  C_8 
REMARK       I    between atoms: C_13  and  N_11 
REMARK    3  A    between atoms: C_16  and  C_13 
ROOT
ATOM      1  C   UNL d   1       3.953   0.022  -0.003  0.00  0.00     0.069 A 
ATOM      2  C   UNL d   1       4.716   0.755   0.942  0.00  0.00     0.082 A 
ATOM      3  N   UNL d   1       4.755  -0.643  -0.843  0.00  0.00    -0.298 N 
ATOM      4  HN  UNL d   1       4.485  -1.245  -1.621  1.00  0.00     0.187 HD
ATOM      5  C   UNL d   1       6.032   0.483   0.665  0.00  0.00     0.124 A 
ATOM      6  N   UNL d   1       5.996  -0.338  -0.431  0.00  0.00    -0.285 N 
ATOM      7  H   UNL d   1       6.772  -0.740  -0.943  0.00  0.00     0.188 HD
ENDROOT
BRANCH   1   8
ATOM      8  C   UNL d   1       2.443  -0.009  -0.042  0.00  0.00     0.040 A 
ATOM      9  S   UNL d   1       1.537   0.979   1.026  0.00  0.00    -0.087 SA
ATOM     10  C   UNL d   1       0.037   0.431   0.430  0.00  0.00     0.016 A 
ATOM     11  C   UNL d   1      -1.237   0.841   0.870  0.00  0.00     0.021 A 
ATOM     12  C   UNL d   1       0.210  -0.512  -0.583  0.00  0.00    -0.010 A 
ATOM     13  C   UNL d   1      -2.368   0.283   0.276  0.00  0.00     0.025 A 
ATOM     14  C   UNL d   1      -2.229  -0.659  -0.731  0.00  0.00     0.035 A 
ATOM     15  C   UNL d   1      -0.962  -1.061  -1.167  0.00  0.00     0.037 A 
ATOM     16 CL   UNL d   1      -3.632  -1.345  -1.454  0.00  0.00    -0.084 Cl
ATOM     17  C   UNL d   1       1.620  -0.772  -0.860  0.00  0.00    -0.031 A 
ATOM     18  C   UNL d   1       2.031  -1.768  -1.904  0.00  0.00     0.050 C 
ENDBRANCH   1   8
BRANCH   5  19
ATOM     19  N   UNL d   1       7.173   0.911   1.336  0.00  0.00    -0.308 N 
ATOM     20  C   UNL d   1       7.123   1.740   2.514  0.00  0.00     0.257 C 
ATOM     21  O   UNL d   1       6.066   2.131   2.981  0.00  0.00    -0.267 OA
ATOM     22  H   UNL d   1       8.066   0.564   1.017  0.00  0.00     0.170 HD
BRANCH  20  23
ATOM     23  C   UNL d   1       8.412   2.050   3.174  0.00  0.00     0.032 A 
ATOM     24  C   UNL d   1       9.611   2.140   2.458  0.00  0.00     0.017 A 
ATOM     25  C   UNL d   1      10.798   2.424   3.138  0.00  0.00     0.001 A 
ATOM     26  C   UNL d   1      10.787   2.622   4.519  0.00  0.00     0.000 A 
ATOM     27  C   UNL d   1       9.590   2.552   5.229  0.00  0.00     0.001 A 
ATOM     28  C   UNL d   1       8.401   2.271   4.559  0.00  0.00     0.017 A 
ENDBRANCH  20  23
ENDBRANCH   5  19
TORSDOF 3
