REMARK  3 active torsions:
REMARK  status: ('A' for Active; 'I' for Inactive)
REMARK    1  A    between atoms: C_6  and  C_1 
REMARK    2  A    between atoms: C_8  and  C_3 
REMARK    3  A    between atoms: C_4  and  N_10 
REMARK       I    between atoms: N_11  and  C_6 
ROOT
ATOM      1  C   UNL d   1      -3.879  -0.084  -0.650  0.00  0.00     0.270 C 
ATOM      2  N   UNL d   1      -5.994  -3.601  -1.593  0.00  0.00    -0.266 NA
ATOM      3  N   UNL d   1      -4.336  -1.342  -1.039  0.00  0.00    -0.344 N 
ATOM      4  C   UNL d   1      -5.480  -2.787  -2.714  0.00  0.00     0.117 C 
ATOM      5  C   UNL d   1      -4.986  -3.718  -0.520  0.00  0.00     0.117 C 
ATOM      6  C   UNL d   1      -5.246  -1.358  -2.191  0.00  0.00     0.141 C 
ATOM      7  C   UNL d   1      -4.682  -2.307   0.022  0.00  0.00     0.141 C 
ATOM      8  O   UNL d   1      -4.411   0.960  -1.029  0.00  0.00    -0.266 OA
ENDROOT
BRANCH   1   9
ATOM      9  C   UNL d   1      -2.682  -0.063   0.159  0.00  0.00     0.102 A 
ATOM     10  N   UNL d   1      -2.313   1.028   0.908  0.00  0.00    -0.351 N 
ATOM     11  C   UNL d   1      -1.059   0.851   1.444  0.00  0.00     0.044 A 
ATOM     12  H   UNL d   1      -2.866   1.871   0.984  0.00  0.00     0.166 HD
ATOM     13  C   UNL d   1      -0.280   1.730   2.204  0.00  0.00     0.037 A 
ATOM     14  C   UNL d   1      -0.618  -0.412   1.057  0.00  0.00    -0.001 A 
ATOM     15  C   UNL d   1       1.010   1.316   2.558  0.00  0.00    -0.059 A 
ATOM     16  C   UNL d   1       1.929   2.246   3.296  0.00  0.00     0.048 C 
ATOM     17  C   UNL d   1       1.470   0.049   2.178  0.00  0.00     0.014 A 
ATOM     18  C   UNL d   1       0.672  -0.846   1.435  0.00  0.00    -0.049 A 
ATOM     19  C   UNL d   1       1.256  -2.170   1.027  0.00  0.00     0.049 C 
ATOM     20  C   UNL d   1      -1.657  -0.983   0.272  0.00  0.00     0.049 A 
ENDBRANCH   1   9
BRANCH   2  21
ATOM     21  C   UNL d   1      -6.662  -4.768  -1.933  0.00  0.00     0.097 A 
ATOM     22  C   UNL d   1      -7.935  -4.743  -2.509  0.00  0.00     0.086 A 
ATOM     23  C   UNL d   1      -8.574  -5.971  -2.776  0.00  0.00     0.021 A 
ATOM     24  C   UNL d   1      -7.966  -7.168  -2.444  0.00  0.00     0.018 A 
ATOM     25  C   UNL d   1      -6.720  -7.103  -1.861  0.00  0.00     0.089 A 
ATOM     26  N   UNL d   1      -6.072  -5.945  -1.607  0.00  0.00    -0.356 N 
ATOM     27  HN  UNL d   1      -5.148  -5.956  -1.175  1.00  0.00     0.166 HD
BRANCH  22  28
ATOM     28  C   UNL d   1      -8.688  -3.486  -2.838  0.00  0.00     0.420 C 
ATOM     29  F   UNL d   1      -8.206  -2.318  -2.335  0.00  0.00    -0.166 F 
ATOM     30  F   UNL d   1      -8.769  -3.292  -4.189  0.00  0.00    -0.166 F 
ATOM     31  F   UNL d   1      -9.987  -3.541  -2.411  0.00  0.00    -0.166 F 
ENDBRANCH  22  28
ENDBRANCH   2  21
TORSDOF 3
