REMARK  4 active torsions:
REMARK  status: ('A' for Active; 'I' for Inactive)
REMARK    1  A    between atoms: C_3  and  C_1 
REMARK       I    between atoms: N_4  and  C_1 
REMARK    2  A    between atoms: C_2  and  N_5 
REMARK    3  A    between atoms: N_14  and  C_2 
REMARK    4  A    between atoms: N_5  and  N_4 
ROOT
ATOM      1  C   UNL d   1       0.356   0.994   0.729  0.00  0.00     0.034 A 
ATOM      2  C   UNL d   1      -0.638   0.611   1.633  0.00  0.00     0.030 A 
ATOM      3  C   UNL d   1      -1.224   1.568   2.490  0.00  0.00    -0.009 A 
ATOM      4  N   UNL d   1      -1.318   3.862   3.247  0.00  0.00    -0.365 N 
ATOM      5  HN  UNL d   1      -0.990   4.827   3.199  1.00  0.00     0.165 HD
ATOM      6  C   UNL d   1      -0.799   2.914   2.451  0.00  0.00     0.042 A 
ATOM      7  C   UNL d   1       0.783   2.324   0.702  0.00  0.00     0.019 A 
ATOM      8  C   UNL d   1       0.201   3.263   1.556  0.00  0.00     0.031 A 
ATOM      9  C   UNL d   1      -2.287   3.499   4.115  0.00  0.00     0.088 A 
ATOM     10  C   UNL d   1      -2.235   1.232   3.402  0.00  0.00     0.015 A 
ATOM     11  C   UNL d   1      -2.776   2.212   4.228  0.00  0.00     0.018 A 
ENDROOT
BRANCH   1  12
ATOM     12  C   UNL d   1       0.976  -0.025  -0.163  0.00  0.00     0.270 C 
ATOM     13  N   UNL d   1       1.408   0.456  -1.382  0.00  0.00    -0.264 N 
ATOM     14  H   UNL d   1       1.099   1.351  -1.755  0.00  0.00     0.190 HD
ATOM     15  O   UNL d   1       1.066  -1.200   0.176  0.00  0.00    -0.266 OA
BRANCH  13  16
ATOM     16  N   UNL d   1       1.988  -0.421  -2.309  0.00  0.00    -0.274 N 
ATOM     17  H   UNL d   1       2.170  -1.361  -1.962  0.00  0.00     0.189 HD
BRANCH  16  18
ATOM     18  C   UNL d   1       1.912  -0.155  -3.671  0.00  0.00     0.186 C 
ATOM     19  S   UNL d   1       1.144   1.196  -4.302  0.00  0.00    -0.040 SA
BRANCH  18  20
ATOM     20  N   UNL d   1       2.577  -1.112  -4.407  0.00  0.00    -0.370 N 
ATOM     21  C   UNL d   1       2.761  -1.138  -5.848  0.00  0.00     0.148 C 
ATOM     22  H   UNL d   1       3.141  -1.767  -3.884  0.00  0.00     0.161 HD
ENDBRANCH  18  20
ENDBRANCH  16  18
ENDBRANCH  13  16
ENDBRANCH   1  12
TORSDOF 4
