REMARK  2 active torsions:
REMARK  status: ('A' for Active; 'I' for Inactive)
REMARK    1  A    between atoms: C_8  and  C_2 
REMARK    2  A    between atoms: S_15  and  C_7 
ROOT
ATOM      1  C   UNL d   1       0.447  -0.398  -0.027  0.00  0.00     0.140 A 
ATOM      2  C   UNL d   1      -0.396  -1.447  -0.002  0.00  0.00     0.077 A 
ATOM      3  N   UNL d   1      -1.542   0.953  -0.052  0.00  0.00    -0.302 N 
ATOM      4  C   UNL d   1      -0.180   0.938  -0.049  0.00  0.00     0.270 A 
ATOM      5  N   UNL d   1      -1.774  -1.369   0.007  0.00  0.00    -0.334 N 
ATOM      6  HN  UNL d   1      -2.359  -2.204   0.036  1.00  0.00     0.168 HD
ATOM      7  C   UNL d   1      -2.279  -0.185  -0.022  0.00  0.00     0.147 A 
ATOM      8  C   UNL d   1       1.863  -0.495  -0.017  0.00  0.00     0.107 C 
ATOM      9  N   UNL d   1       3.018  -0.601   0.000  0.00  0.00    -0.191 NA
ATOM     10  O   UNL d   1       0.469   1.978  -0.054  0.00  0.00    -0.266 OA
ATOM     11  H   UNL d   1      -2.010   1.847  -0.061  0.00  0.00     0.171 HD
ENDROOT
BRANCH   2  12
ATOM     12  C   UNL d   1       0.117  -2.779   0.054  0.00  0.00     0.033 A 
ATOM     13  S   UNL d   1       0.461  -3.648  -1.392  0.00  0.00    -0.100 SA
ATOM     14  C   UNL d   1       1.082  -4.985  -0.526  0.00  0.00     0.050 A 
ATOM     15  C   UNL d   1       1.000  -4.803   0.835  0.00  0.00     0.008 A 
ATOM     16  C   UNL d   1       0.430  -3.540   1.169  0.00  0.00     0.021 A 
ENDBRANCH   2  12
BRANCH   7  17
ATOM     17  S   UNL d   1      -3.978   0.159  -0.022  0.00  0.00    -0.098 SA
ATOM     18  C   UNL d   1      -4.674  -1.504  -0.040  0.00  0.00     0.099 C 
ENDBRANCH   7  17
TORSDOF 2
