REMARK  5 active torsions:
REMARK  status: ('A' for Active; 'I' for Inactive)
REMARK    1  A    between atoms: C_2  and  C_1 
REMARK       I    between atoms: N_4  and  C_1 
REMARK       I    between atoms: C_3  and  N_5 
REMARK    2  A    between atoms: C_6  and  C_3 
REMARK    3  A    between atoms: C_12  and  N_4 
REMARK    4  A    between atoms: N_5  and  C_13 
REMARK    5  A    between atoms: O_18  and  C_7 
ROOT
ATOM      1  C   UNL d   1      -1.196   0.644  -0.890  0.00  0.00     0.035 A 
ATOM      2  C   UNL d   1      -4.022   0.887  -0.897  0.00  0.00     0.035 A 
ATOM      3  C   UNL d   1      -3.308   0.825  -2.094  0.00  0.00     0.032 A 
ATOM      4  C   UNL d   1      -1.912   0.730   0.305  0.00  0.00     0.032 A 
ATOM      5  C   UNL d   1      -1.909   0.703  -2.091  0.00  0.00     0.032 A 
ATOM      6  C   UNL d   1      -3.309   0.840   0.302  0.00  0.00     0.032 A 
ENDROOT
BRANCH   1   7
ATOM      7  N   UNL d   1       0.205   0.454  -0.962  0.00  0.00    -0.323 N 
ATOM      8  C   UNL d   1       1.071   0.329   0.112  0.00  0.00     0.259 C 
ATOM      9  O   UNL d   1       0.780   0.474   1.298  0.00  0.00    -0.267 OA
ATOM     10  H   UNL d   1       0.573   0.295  -1.890  0.00  0.00     0.169 HD
BRANCH   8  11
ATOM     11  C   UNL d   1       2.471  -0.093  -0.183  0.00  0.00     0.065 A 
ATOM     12  C   UNL d   1       3.174  -0.820   0.794  0.00  0.00     0.081 A 
ATOM     13  C   UNL d   1       4.468  -1.275   0.558  0.00  0.00     0.037 A 
ATOM     14  C   UNL d   1       5.092  -0.986  -0.653  0.00  0.00     0.003 A 
ATOM     15  C   UNL d   1       4.421  -0.238  -1.622  0.00  0.00     0.001 A 
ATOM     16  C   UNL d   1       3.114   0.211  -1.392  0.00  0.00     0.020 A 
BRANCH  12  17
ATOM     17  O   UNL d   1       2.648  -1.129   2.023  0.00  0.00    -0.360 OA
ATOM     18  H   UNL d   1       1.827  -0.596   2.135  0.00  0.00     0.217 HD
ENDBRANCH  12  17
ENDBRANCH   8  11
ENDBRANCH   1   7
BRANCH   2  19
ATOM     19  N   UNL d   1      -5.432   0.965  -0.813  0.00  0.00    -0.323 N 
ATOM     20  C   UNL d   1      -6.311   1.139  -1.867  0.00  0.00     0.256 C 
ATOM     21  O   UNL d   1      -6.008   1.370  -3.031  0.00  0.00    -0.267 OA
ATOM     22  H   UNL d   1      -5.818   0.952   0.121  0.00  0.00     0.169 HD
BRANCH  20  23
ATOM     23  C   UNL d   1      -7.764   1.065  -1.531  0.00  0.00     0.032 A 
ATOM     24  C   UNL d   1      -8.659   1.796  -2.328  0.00  0.00     0.018 A 
ATOM     25  C   UNL d   1     -10.037   1.692  -2.128  0.00  0.00     0.025 A 
ATOM     26  C   UNL d   1     -10.527   0.852  -1.131  0.00  0.00     0.034 A 
ATOM     27  C   UNL d   1      -9.648   0.128  -0.324  0.00  0.00     0.025 A 
ATOM     28 CL   UNL d   1     -12.225   0.684  -0.914  0.00  0.00    -0.084 Cl
ATOM     29  C   UNL d   1      -8.265   0.231  -0.522  0.00  0.00     0.018 A 
ENDBRANCH  20  23
ENDBRANCH   2  19
TORSDOF 5
