REMARK  3 active torsions:
REMARK  status: ('A' for Active; 'I' for Inactive)
REMARK    1  A    between atoms: C_3  and  C_5 
REMARK    2  A    between atoms: C_4  and  C_6 
REMARK       I    between atoms: N_8  and  C_4 
REMARK    3  A    between atoms: N_12  and  N_8 
ROOT
ATOM      1  N   UNL d   1      -1.366  -0.124   0.056  0.00  0.00    -0.348 N 
ATOM      2  HN  UNL d   1      -2.383  -0.192   0.079  1.00  0.00     0.166 HD
ATOM      3  C   UNL d   1      -0.736   1.086   0.017  0.00  0.00     0.117 A 
ATOM      4  C   UNL d   1      -0.582  -1.239   0.063  0.00  0.00     0.102 A 
ATOM      5  C   UNL d   1       0.659   1.192  -0.011  0.00  0.00     0.034 A 
ATOM      6  C   UNL d   1       0.805  -1.206   0.038  0.00  0.00     0.035 A 
ATOM      7  C   UNL d   1       1.433   0.034   0.003  0.00  0.00     0.005 A 
ENDROOT
BRANCH   4   8
ATOM      8  C   UNL d   1      -1.292  -2.558   0.078  0.00  0.00     0.282 C 
ATOM      9  O   UNL d   1      -0.683  -3.623   0.041  0.00  0.00    -0.265 OA
ATOM     10  N   UNL d   1      -2.677  -2.463   0.130  0.00  0.00    -0.288 N 
ATOM     11  H   UNL d   1      -3.098  -1.540   0.243  0.00  0.00     0.183 HD
BRANCH  10  12
ATOM     12  N   UNL d   1      -3.463  -3.631   0.204  0.00  0.00    -0.247 NA
ATOM     13  H   UNL d   1      -2.813  -4.419   0.337  0.00  0.00     0.143 HD
ATOM     14  H   UNL d   1      -3.867  -3.795  -0.721  0.00  0.00     0.143 HD
ENDBRANCH  10  12
ENDBRANCH   4   8
BRANCH   3  15
ATOM     15  C   UNL d   1      -1.564   2.366  -0.008  0.00  0.00     0.432 C 
ATOM     16  F   UNL d   1      -2.910   2.156   0.017  0.00  0.00    -0.165 F 
ATOM     17  F   UNL d   1      -1.293   3.183   1.049  0.00  0.00    -0.165 F 
ATOM     18  F   UNL d   1      -1.326   3.118  -1.123  0.00  0.00    -0.165 F 
ENDBRANCH   3  15
TORSDOF 3
