REMARK  2 active torsions:
REMARK  status: ('A' for Active; 'I' for Inactive)
REMARK    1  A    between atoms: C_7  and  N_1 
REMARK    2  A    between atoms: O_14  and  C_10 
ROOT
ATOM      1  N   UNL d   1       2.297  -0.052   0.107  0.00  0.00    -0.241 N 
ATOM      2  C   UNL d   1       1.607  -1.245  -0.120  0.00  0.00     0.266 C 
ATOM      3  C   UNL d   1       1.675   1.208   0.176  0.00  0.00     0.266 C 
ATOM      4  C   UNL d   1       0.132  -1.201  -0.021  0.00  0.00     0.045 A 
ATOM      5  C   UNL d   1       0.200   1.232   0.049  0.00  0.00     0.045 A 
ATOM      6  C   UNL d   1      -0.517   0.034   0.014  0.00  0.00     0.006 A 
ATOM      7  O   UNL d   1       2.137  -2.317  -0.413  0.00  0.00    -0.267 OA
ATOM      8  O   UNL d   1       2.258   2.280   0.313  0.00  0.00    -0.267 OA
ATOM      9  C   UNL d   1      -1.932   0.071   0.005  0.00  0.00    -0.024 A 
ATOM     10  C   UNL d   1      -0.599  -2.396   0.003  0.00  0.00     0.018 A 
ATOM     11  C   UNL d   1      -0.467   2.464   0.007  0.00  0.00     0.018 A 
ATOM     12  C   UNL d   1      -1.858   2.502  -0.040  0.00  0.00     0.002 A 
ATOM     13  C   UNL d   1      -1.990  -2.361   0.039  0.00  0.00     0.002 A 
ATOM     14  C   UNL d   1      -2.653  -1.133   0.027  0.00  0.00     0.012 A 
ATOM     15  C   UNL d   1      -2.587   1.312  -0.025  0.00  0.00     0.012 A 
ENDROOT
BRANCH   1  16
ATOM     16  C   UNL d   1       3.726  -0.095   0.237  0.00  0.00     0.079 A 
ATOM     17  C   UNL d   1       4.563  -0.692  -0.719  0.00  0.00     0.093 A 
ATOM     18  C   UNL d   1       5.949  -0.695  -0.559  0.00  0.00     0.039 A 
ATOM     19  C   UNL d   1       6.520  -0.143   0.586  0.00  0.00     0.003 A 
ATOM     20  C   UNL d   1       5.707   0.440   1.554  0.00  0.00     0.002 A 
ATOM     21  C   UNL d   1       4.321   0.480   1.373  0.00  0.00     0.033 A 
BRANCH  17  22
ATOM     22  O   UNL d   1       4.089  -1.254  -1.873  0.00  0.00    -0.358 OA
ATOM     23  H   UNL d   1       3.314  -1.793  -1.613  0.00  0.00     0.217 HD
ENDBRANCH  17  22
ENDBRANCH   1  16
TORSDOF 2
