REMARK  4 active torsions:
REMARK  status: ('A' for Active; 'I' for Inactive)
REMARK    1  A    between atoms: C_7  and  C_3 
REMARK    2  A    between atoms: C_9  and  N_4 
REMARK    3  A    between atoms: S_8  and  C_7 
REMARK    4  A    between atoms: C_11  and  S_8 
ROOT
ATOM      1  N   UNL d   1       0.892  -0.426   0.184  0.00  0.00    -0.293 N 
ATOM      2  HN  UNL d   1       1.790  -0.905   0.244  1.00  0.00     0.187 HD
ATOM      3  C   UNL d   1      -0.324  -0.995   0.127  0.00  0.00     0.107 A 
ATOM      4  N   UNL d   1       0.686   0.915   0.145  0.00  0.00    -0.287 N 
ATOM      5  C   UNL d   1      -1.318   0.012   0.070  0.00  0.00     0.062 A 
ATOM      6  C   UNL d   1      -0.657   1.224   0.066  0.00  0.00     0.028 A 
ATOM      7  C   UNL d   1      -1.273   2.572  -0.022  0.00  0.00     0.070 C 
ENDROOT
BRANCH   3   8
ATOM      8  C   UNL d   1      -0.582  -2.447   0.121  0.00  0.00     0.241 C 
ATOM      9  O   UNL d   1      -1.720  -2.910   0.164  0.00  0.00    -0.278 OA
BRANCH   8  10
ATOM     10  S   UNL d   1       0.852  -3.459  -0.036  0.00  0.00    -0.046 SA
BRANCH  10  11
ATOM     11  C   UNL d   1       0.419  -5.103   0.502  0.00  0.00     0.008 A 
ATOM     12  C   UNL d   1      -0.624  -5.420   1.379  0.00  0.00     0.019 A 
ATOM     13  C   UNL d   1      -0.822  -6.739   1.809  0.00  0.00     0.001 A 
ATOM     14  C   UNL d   1       0.029  -7.755   1.384  0.00  0.00     0.000 A 
ATOM     15  C   UNL d   1       1.071  -7.457   0.515  0.00  0.00     0.001 A 
ATOM     16  C   UNL d   1       1.262  -6.143   0.077  0.00  0.00     0.019 A 
ENDBRANCH  10  11
ENDBRANCH   8  10
ENDBRANCH   3   8
BRANCH   4  17
ATOM     17  C   UNL d   1       1.867   1.811   0.144  0.00  0.00     0.043 C 
ATOM     18  C   UNL d   1       3.195   1.015   0.263  0.00  0.00     0.039 C 
ATOM     19  C   UNL d   1       1.943   2.591  -1.184  0.00  0.00     0.039 C 
ATOM     20  C   UNL d   1       1.838   2.772   1.350  0.00  0.00     0.039 C 
ENDBRANCH   4  17
TORSDOF 4
