REMARK  5 active torsions:
REMARK  status: ('A' for Active; 'I' for Inactive)
REMARK    1  A    between atoms: C_2  and  C_1 
REMARK    2  A    between atoms: O_3  and  C_2 
REMARK    3  A    between atoms: C_9  and  O_3 
REMARK    4  A    between atoms: C_4  and  C_9 
REMARK    5  A    between atoms: C_7  and  C_4 
ROOT
ATOM      1  O   UNL d   1       1.063   3.252  -0.108  0.00  0.00    -0.310 OA
ENDROOT
BRANCH   1   2
ATOM      2  C   UNL d   1       0.325   3.293   1.026  0.00  0.00     0.297 C 
ATOM      3  O   UNL d   1       0.670   2.914   2.134  0.00  0.00    -0.259 OA
BRANCH   2   4
ATOM      4  C   UNL d   1      -1.022   3.808   0.730  0.00  0.00     0.082 A 
ATOM      5  C   UNL d   1      -1.531   4.896   1.452  0.00  0.00     0.052 A 
ATOM      6 CL   UNL d   1      -0.590   5.780   2.601  0.00  0.00    -0.083 Cl
ATOM      7  C   UNL d   1      -2.850   5.321   1.249  0.00  0.00     0.025 A 
ATOM      8  C   UNL d   1      -3.665   4.671   0.323  0.00  0.00     0.003 A 
ATOM      9  C   UNL d   1      -3.163   3.594  -0.403  0.00  0.00     0.025 A 
ATOM     10  C   UNL d   1      -1.850   3.153  -0.197  0.00  0.00     0.052 A 
ATOM     11 CL   UNL d   1      -1.357   1.748  -1.081  0.00  0.00    -0.083 Cl
ENDBRANCH   2   4
ENDBRANCH   1   2
BRANCH   1  12
ATOM     12  C   UNL d   1       2.317   2.575   0.012  0.00  0.00     0.263 C 
BRANCH  12  13
ATOM     13  C   UNL d   1       3.502   3.535   0.046  0.00  0.00     0.183 C 
ATOM     14  O   UNL d   1       3.386   4.742  -0.164  0.00  0.00    -0.290 OA
BRANCH  13  15
ATOM     15  C   UNL d   1       4.865   2.965   0.261  0.00  0.00     0.012 A 
ATOM     16  C   UNL d   1       5.966   3.662  -0.257  0.00  0.00     0.017 A 
ATOM     17  C   UNL d   1       7.263   3.164  -0.094  0.00  0.00     0.025 A 
ATOM     18  C   UNL d   1       7.463   1.971   0.598  0.00  0.00     0.034 A 
ATOM     19  C   UNL d   1       6.378   1.274   1.127  0.00  0.00     0.025 A 
ATOM     20 CL   UNL d   1       9.055   1.357   0.805  0.00  0.00    -0.084 Cl
ATOM     21  C   UNL d   1       5.078   1.768   0.960  0.00  0.00     0.017 A 
ENDBRANCH  13  15
ENDBRANCH  12  13
ENDBRANCH   1  12
TORSDOF 5
