REMARK  5 active torsions:
REMARK  status: ('A' for Active; 'I' for Inactive)
REMARK    1  A    between atoms: N_2  and  C_5 
REMARK    2  A    between atoms: C_6  and  C_3 
REMARK       I    between atoms: N_9  and  C_6 
REMARK    3  A    between atoms: C_15  and  N_9 
REMARK    4  A    between atoms: C_18  and  C_15 
REMARK    5  A    between atoms: O_17  and  C_18 
ROOT
ATOM      1  N   UNL d   1      -1.626   1.009  -0.607  0.00  0.00    -0.349 N 
ATOM      2  C   UNL d   1      -2.368  -0.141  -0.422  0.00  0.00     0.102 A 
ATOM      3  C   UNL d   1      -0.275   0.768  -0.458  0.00  0.00     0.076 A 
ATOM      4  C   UNL d   1       0.843   1.628  -0.529  0.00  0.00     0.130 A 
ATOM      5  C   UNL d   1      -1.451  -1.158  -0.207  0.00  0.00     0.049 A 
ATOM      6  C   UNL d   1      -0.144  -0.594  -0.186  0.00  0.00    -0.005 A 
ATOM      7  C   UNL d   1       2.112   1.071  -0.279  0.00  0.00     0.038 A 
ATOM      8  C   UNL d   1       1.139  -1.124   0.049  0.00  0.00     0.014 A 
ATOM      9  C   UNL d   1       2.256  -0.283   0.012  0.00  0.00     0.003 A 
ATOM     10  H   UNL d   1      -2.035   1.920  -0.793  0.00  0.00     0.166 HD
ENDROOT
BRANCH   2  11
ATOM     11  C   UNL d   1      -3.818  -0.121  -0.453  0.00  0.00     0.268 C 
ATOM     12  N   UNL d   1      -4.434  -1.350  -0.336  0.00  0.00    -0.349 N 
ATOM     13  H   UNL d   1      -3.860  -2.155  -0.142  0.00  0.00     0.163 HD
ATOM     14  O   UNL d   1      -4.446   0.926  -0.560  0.00  0.00    -0.266 OA
BRANCH  12  15
ATOM     15  C   UNL d   1      -5.883  -1.477  -0.155  0.00  0.00     0.104 C 
ATOM     16  C   UNL d   1      -6.256  -1.270   1.316  0.00  0.00     0.034 C 
BRANCH  15  17
ATOM     17  C   UNL d   1      -6.392  -2.839  -0.668  0.00  0.00     0.191 C 
BRANCH  17  18
ATOM     18  O   UNL d   1      -7.791  -2.974  -0.415  0.00  0.00    -0.394 OA
ATOM     19  C   UNL d   1      -8.318  -4.188  -0.933  0.00  0.00     0.201 C 
ENDBRANCH  17  18
ENDBRANCH  15  17
ENDBRANCH  12  15
ENDBRANCH   2  11
BRANCH   4  20
ATOM     20  N   UNL d   1       0.746   3.060  -0.840  0.00  0.00    -0.113 N 
ATOM     21  O   UNL d   1      -0.387   3.514  -1.067  0.00  0.00    -0.532 OA
ATOM     22  O   UNL d   1       1.792   3.722  -0.871  0.00  0.00    -0.532 OA
ENDBRANCH   4  20
TORSDOF 5
