REMARK  5 active torsions:
REMARK  status: ('A' for Active; 'I' for Inactive)
REMARK    1  A    between atoms: C_3  and  C_1 
REMARK       I    between atoms: N_6  and  C_1 
REMARK    2  A    between atoms: C_2  and  N_9 
REMARK    3  A    between atoms: N_4  and  C_2 
REMARK    4  A    between atoms: C_5  and  N_4 
REMARK    5  A    between atoms: N_9  and  N_6 
ROOT
ATOM      1  C   UNL d   1      -1.772  -2.669  -0.274  0.00  0.00     0.186 C 
ATOM      2  S   UNL d   1      -3.379  -2.908  -0.693  0.00  0.00    -0.040 SA
ENDROOT
BRANCH   1   3
ATOM      3  N   UNL d   1      -1.299  -1.569   0.381  0.00  0.00    -0.273 N 
ATOM      4  H   UNL d   1      -0.334  -1.478   0.686  0.00  0.00     0.189 HD
BRANCH   3   5
ATOM      5  N   UNL d   1      -2.207  -0.644   0.941  0.00  0.00    -0.262 N 
ATOM      6  C   UNL d   1      -1.857   0.032   2.099  0.00  0.00     0.293 C 
ATOM      7  O   UNL d   1      -0.690   0.112   2.480  0.00  0.00    -0.264 OA
ATOM      8  H   UNL d   1      -3.195  -0.809   0.754  0.00  0.00     0.190 HD
BRANCH   6   9
ATOM      9  C   UNL d   1      -2.988   0.589   2.813  0.00  0.00     0.144 A 
ATOM     10  O   UNL d   1      -4.258   0.371   2.338  0.00  0.00    -0.317 OA
ATOM     11  C   UNL d   1      -5.121   0.951   3.213  0.00  0.00     0.143 A 
ATOM     12  C   UNL d   1      -4.434   1.546   4.243  0.00  0.00     0.027 A 
ATOM     13  C   UNL d   1      -3.060   1.319   3.984  0.00  0.00     0.045 A 
ENDBRANCH   6   9
ENDBRANCH   3   5
ENDBRANCH   1   3
BRANCH   1  14
ATOM     14  N   UNL d   1      -0.895  -3.633  -0.632  0.00  0.00    -0.361 N 
ATOM     15  H   UNL d   1      -1.361  -4.442  -1.031  0.00  0.00     0.162 HD
BRANCH  14  16
ATOM     16  C   UNL d   1       0.510  -3.838  -0.286  0.00  0.00     0.092 C 
ATOM     17  C   UNL d   1       0.730  -4.532   1.092  0.00  0.00     0.031 C 
ATOM     18  C   UNL d   1      -0.086  -5.809   1.137  0.00  0.00    -0.024 C 
ATOM     19  C   UNL d   1       2.115  -5.163   0.887  0.00  0.00     0.019 C 
ATOM     20  C   UNL d   1       0.470  -6.663   0.264  0.00  0.00    -0.026 C 
ATOM     21  C   UNL d   1       1.674  -5.974  -0.335  0.00  0.00     0.010 C 
ATOM     22  C   UNL d   1       1.187  -4.847  -1.270  0.00  0.00     0.034 C 
ENDBRANCH  14  16
ENDBRANCH   1  14
TORSDOF 5
