REMARK  3 active torsions:
REMARK  status: ('A' for Active; 'I' for Inactive)
REMARK       I    between atoms: N_4  and  C_1 
REMARK       I    between atoms: N_5  and  C_1 
REMARK    1  A    between atoms: C_2  and  N_4 
REMARK    2  A    between atoms: C_3  and  C_7 
REMARK    3  A    between atoms: C_11  and  N_6 
ROOT
ATOM      1  C   UNL d   1       1.023   0.021   0.145  0.00  0.00     0.323 C 
ATOM      2  N   UNL d   1       0.408  -1.210   0.021  0.00  0.00    -0.307 N 
ATOM      3  N   UNL d   1       0.208   1.008   0.674  0.00  0.00    -0.331 N 
ATOM      4  N   UNL d   1      -0.463   2.893   2.707  0.00  0.00    -0.364 N 
ATOM      5  O   UNL d   1       2.164   0.260  -0.242  0.00  0.00    -0.247 OA
ATOM      6  C   UNL d   1       0.589   2.420   0.519  0.00  0.00     0.147 C 
ATOM      7  C   UNL d   1      -0.975   0.785   1.514  0.00  0.00     0.147 C 
ATOM      8  C   UNL d   1      -0.848   1.490   2.882  0.00  0.00     0.144 C 
ATOM      9  C   UNL d   1       0.713   3.145   1.867  0.00  0.00     0.144 C 
ATOM     10  H   UNL d   1      -0.568  -1.142  -0.222  0.00  0.00     0.170 HD
ENDROOT
BRANCH   2  11
ATOM     11  C   UNL d   1       1.079  -2.302  -0.536  0.00  0.00     0.054 A 
ATOM     12  C   UNL d   1       0.516  -3.151  -1.559  0.00  0.00     0.008 A 
ATOM     13  C   UNL d   1       1.418  -4.148  -1.945  0.00  0.00     0.017 A 
ATOM     14  C   UNL d   1      -0.724  -3.081  -2.248  0.00  0.00     0.015 A 
ATOM     15  C   UNL d   1       1.113  -5.066  -2.970  0.00  0.00     0.020 A 
ATOM     16  S   UNL d   1       2.877  -4.066  -1.034  0.00  0.00    -0.099 SA
ATOM     17  C   UNL d   1      -0.110  -4.960  -3.634  0.00  0.00     0.001 A 
ATOM     18  C   UNL d   1      -1.021  -3.976  -3.279  0.00  0.00     0.001 A 
ATOM     19  C   UNL d   1       2.355  -2.685  -0.186  0.00  0.00     0.081 A 
ENDBRANCH   2  11
BRANCH   4  20
ATOM     20  C   UNL d   1      -1.189   3.942   3.223  0.00  0.00     0.103 A 
ATOM     21  N   UNL d   1      -1.249   5.099   2.531  0.00  0.00    -0.352 N 
ATOM     22  C   UNL d   1      -1.990   6.124   3.027  0.00  0.00     0.106 A 
ATOM     23  HN  UNL d   1      -0.746   5.202   1.649  1.00  0.00     0.166 HD
ATOM     24  C   UNL d   1      -2.680   6.075   4.224  0.00  0.00     0.063 A 
ATOM     25  C   UNL d   1      -2.593   4.892   4.950  0.00  0.00     0.021 A 
ATOM     26  C   UNL d   1      -1.852   3.823   4.440  0.00  0.00     0.049 A 
BRANCH  24  27
ATOM     27  C   UNL d   1      -3.474   7.240   4.727  0.00  0.00     0.418 C 
ATOM     28  F   UNL d   1      -3.477   8.308   3.884  0.00  0.00    -0.166 F 
ATOM     29  F   UNL d   1      -4.784   6.923   4.931  0.00  0.00    -0.166 F 
ATOM     30  F   UNL d   1      -3.016   7.706   5.920  0.00  0.00    -0.166 F 
ENDBRANCH  24  27
ENDBRANCH   4  20
TORSDOF 3
