REMARK  5 active torsions:
REMARK  status: ('A' for Active; 'I' for Inactive)
REMARK    1  A    between atoms: C_3  and  C_1 
REMARK    2  A    between atoms: C_4  and  C_2 
REMARK    3  A    between atoms: C_5  and  C_3 
REMARK    4  A    between atoms: C_11  and  N_18 
REMARK    5  A    between atoms: N_18  and  C_13 
ROOT
ATOM      1  C   UNL d   1      -0.929  -3.695   0.007  0.00  0.00     0.111 C 
ATOM      2  C   UNL d   1      -0.574  -4.993  -0.079  0.00  0.00     0.116 C 
ATOM      3  C   UNL d   1       0.057  -2.659   0.062  0.00  0.00     0.105 C 
ATOM      4  N   UNL d   1       0.871  -1.833   0.099  0.00  0.00    -0.191 NA
ENDROOT
BRANCH   1   5
ATOM      5  C   UNL d   1      -2.354  -3.223   0.027  0.00  0.00     0.207 C 
ATOM      6  O   UNL d   1      -2.631  -2.065  -0.262  0.00  0.00    -0.286 OA
BRANCH   5   7
ATOM      7  C   UNL d   1      -3.395  -4.176   0.395  0.00  0.00     0.057 A 
ATOM      8  C   UNL d   1      -4.688  -4.181  -0.125  0.00  0.00     0.173 A 
ATOM      9  O   UNL d   1      -5.402  -5.211   0.427  0.00  0.00    -0.310 OA
ATOM     10  C   UNL d   1      -4.603  -5.841   1.323  0.00  0.00     0.051 A 
ATOM     11  C   UNL d   1      -3.376  -5.224   1.370  0.00  0.00     0.050 A 
ATOM     12  C   UNL d   1      -5.198  -6.993   2.029  0.00  0.00     0.076 C 
BRANCH   8  13
ATOM     13  C   UNL d   1      -5.431  -3.364  -1.127  0.00  0.00     0.440 C 
ATOM     14  F   UNL d   1      -4.669  -2.444  -1.764  0.00  0.00    -0.164 F 
ATOM     15  F   UNL d   1      -5.958  -4.151  -2.105  0.00  0.00    -0.164 F 
ATOM     16  F   UNL d   1      -6.472  -2.698  -0.563  0.00  0.00    -0.164 F 
ENDBRANCH   8  13
ENDBRANCH   5   7
ENDBRANCH   1   5
BRANCH   2  17
ATOM     17  N   UNL d   1       0.659  -5.616  -0.137  0.00  0.00    -0.349 N 
ATOM     18  H   UNL d   1       0.720  -6.497   0.371  0.00  0.00     0.167 HD
BRANCH  17  19
ATOM     19  C   UNL d   1       1.722  -5.377  -0.944  0.00  0.00     0.128 A 
ATOM     20  N   UNL d   1       2.892  -6.014  -0.829  0.00  0.00    -0.245 N 
ATOM     21  O   UNL d   1       3.700  -5.518  -1.836  0.00  0.00    -0.241 OA
ATOM     22  HN  UNL d   1       3.139  -6.722  -0.138  1.00  0.00     0.196 HD
ATOM     23  C   UNL d   1       2.998  -4.620  -2.573  0.00  0.00     0.076 A 
ATOM     24  C   UNL d   1       1.730  -4.513  -2.061  0.00  0.00     0.084 A 
ATOM     25  C   UNL d   1       3.697  -3.993  -3.706  0.00  0.00     0.079 C 
ENDBRANCH  17  19
ENDBRANCH   2  17
TORSDOF 5
