REMARK  4 active torsions:
REMARK  status: ('A' for Active; 'I' for Inactive)
REMARK    1  A    between atoms: C_2  and  C_1 
REMARK       I    between atoms: N_3  and  C_2 
REMARK    2  A    between atoms: C_19  and  C_6 
REMARK    3  A    between atoms: O_20  and  C_14 
REMARK    4  A    between atoms: O_21  and  C_16 
ROOT
ATOM      1  C   UNL d   1       0.037  -2.587   0.226  0.00  0.00     0.259 C 
ATOM      2  N   UNL d   1      -0.624  -3.731  -0.251  0.00  0.00    -0.339 N 
ATOM      3  C   UNL d   1      -1.165  -6.195   0.026  0.00  0.00    -0.026 A 
ATOM      4  C   UNL d   1      -0.841  -4.855   0.697  0.00  0.00     0.117 C 
ATOM      5  C   UNL d   1      -1.304  -6.309  -1.365  0.00  0.00    -0.045 A 
ATOM      6  C   UNL d   1      -1.349  -7.356   0.802  0.00  0.00     0.049 A 
ATOM      7  C   UNL d   1      -1.288  -3.830  -1.545  0.00  0.00     0.131 C 
ATOM      8  C   UNL d   1      -1.731  -8.575   0.218  0.00  0.00     0.102 A 
ATOM      9  C   UNL d   1      -1.657  -7.534  -1.954  0.00  0.00     0.047 A 
ATOM     10  C   UNL d   1      -1.886  -8.666  -1.174  0.00  0.00     0.102 A 
ATOM     11  O   UNL d   1       0.586  -2.591   1.325  0.00  0.00    -0.267 OA
ATOM     12  C   UNL d   1      -1.007  -5.140  -2.253  0.00  0.00     0.059 C 
ATOM     13  C   UNL d   1      -1.961  -4.487   1.688  0.00  0.00     0.037 C 
ENDROOT
BRANCH   1  14
ATOM     14  C   UNL d   1       0.092  -1.388  -0.603  0.00  0.00     0.092 A 
ATOM     15  C   UNL d   1       1.226  -0.547  -0.886  0.00  0.00     0.083 A 
ATOM     16  N   UNL d   1       0.850   0.480  -1.668  0.00  0.00    -0.259 N 
ATOM     17  O   UNL d   1      -0.500   0.376  -1.847  0.00  0.00    -0.241 OA
ATOM     18  HN  UNL d   1       1.459   1.201  -2.055  1.00  0.00     0.195 HD
ATOM     19  C   UNL d   1      -0.968  -0.706  -1.184  0.00  0.00     0.090 A 
ATOM     20  C   UNL d   1      -2.437  -0.854  -1.250  0.00  0.00     0.080 C 
BRANCH  15  21
ATOM     21  C   UNL d   1       2.640  -0.646  -0.502  0.00  0.00    -0.006 A 
ATOM     22  C   UNL d   1       3.400   0.534  -0.379  0.00  0.00     0.014 A 
ATOM     23  C   UNL d   1       4.768   0.492  -0.099  0.00  0.00     0.001 A 
ATOM     24  C   UNL d   1       5.399  -0.734   0.068  0.00  0.00     0.000 A 
ATOM     25  C   UNL d   1       4.661  -1.913  -0.030  0.00  0.00     0.001 A 
ATOM     26  C   UNL d   1       3.288  -1.872  -0.314  0.00  0.00     0.014 A 
ENDBRANCH  15  21
ENDBRANCH   1  14
BRANCH   8  27
ATOM     27  O   UNL d   1      -1.931  -9.727   0.938  0.00  0.00    -0.353 OA
ATOM     28  C   UNL d   1      -2.402  -9.555   2.269  0.00  0.00     0.210 C 
ENDBRANCH   8  27
BRANCH  10  29
ATOM     29  O   UNL d   1      -2.262  -9.887  -1.677  0.00  0.00    -0.353 OA
ATOM     30  C   UNL d   1      -2.513  -9.967  -3.075  0.00  0.00     0.210 C 
ENDBRANCH  10  29
TORSDOF 4
