REMARK  1 active torsions:
REMARK  status: ('A' for Active; 'I' for Inactive)
REMARK    1  A    between atoms: C_5  and  C_7 
ROOT
ATOM      1  N   UNL d   1      -1.661   4.332  -1.305  0.00  0.00    -0.307 N 
ATOM      2  C   UNL d   1      -2.933   4.614  -1.696  0.00  0.00     0.146 A 
ATOM      3  C   UNL d   1      -2.689   2.350  -0.618  0.00  0.00     0.078 A 
ATOM      4  C   UNL d   1      -1.424   3.129  -0.702  0.00  0.00     0.264 A 
ATOM      5  S   UNL d   1      -3.977   3.270  -1.312  0.00  0.00    -0.055 SA
ATOM      6  C   UNL d   1      -2.714   1.142  -0.042  0.00  0.00     0.061 C 
ATOM      7  S   UNL d   1      -3.378   6.034  -2.421  0.00  0.00    -0.052 SA
ATOM      8  O   UNL d   1      -0.333   2.758  -0.300  0.00  0.00    -0.267 OA
ATOM      9  H   UNL d   1      -0.907   4.986  -1.447  0.00  0.00     0.170 HD
ENDROOT
BRANCH   6  10
ATOM     10  C   UNL d   1      -3.873   0.323   0.045  0.00  0.00     0.077 A 
ATOM     11  O   UNL d   1      -4.884   0.321  -0.885  0.00  0.00    -0.315 OA
ATOM     12  C   UNL d   1      -5.821  -0.586  -0.517  0.00  0.00     0.056 A 
ATOM     13  C   UNL d   1      -6.987  -0.715  -1.415  0.00  0.00     0.077 C 
ATOM     14  C   UNL d   1      -5.452  -1.206   0.658  0.00  0.00    -0.030 A 
ATOM     15  C   UNL d   1      -4.197  -0.630   1.004  0.00  0.00     0.046 A 
ATOM     16  C   UNL d   1      -6.203  -2.250   1.394  0.00  0.00     0.050 C 
ENDBRANCH   6  10
TORSDOF 1
