REMARK  10 active torsions:
REMARK  status: ('A' for Active; 'I' for Inactive)
REMARK    1  A    between atoms: C_24  and  N_1 
REMARK    2  A    between atoms: C_20  and  C_4 
REMARK    3  A    between atoms: C_19  and  N_7 
REMARK    4  A    between atoms: C_8  and  C_18 
REMARK    5  A    between atoms: S_15  and  C_9 
REMARK    6  A    between atoms: C_21  and  C_10 
REMARK    7  A    between atoms: C_14  and  C_25 
REMARK       I    between atoms: N_22  and  C_14 
REMARK    8  A    between atoms: C_25  and  S_15 
REMARK    9  A    between atoms: N_16  and  N_22 
REMARK   10  A    between atoms: C_26  and  C_24 
ROOT
ATOM      1  C   UNL d   1      -5.100  -1.862  -0.071  0.00  0.00     0.245 C 
ATOM      2  N   UNL d   1      -5.929  -0.765  -0.294  0.00  0.00    -0.270 N 
ATOM      3  O   UNL d   1      -3.872  -1.806  -0.018  0.00  0.00    -0.271 OA
ATOM      4  H   UNL d   1      -6.922  -0.889  -0.460  0.00  0.00     0.190 HD
ENDROOT
BRANCH   2   5
ATOM      5  N   UNL d   1      -5.393   0.497  -0.300  0.00  0.00    -0.308 N 
ATOM      6  C   UNL d   1      -6.083   1.406  -0.907  0.00  0.00     0.122 C 
ATOM      7  HN  UNL d   1      -4.501   0.706   0.148  1.00  0.00     0.186 HD
BRANCH   6   8
ATOM      8  C   UNL d   1      -5.594   2.765  -0.934  0.00  0.00     0.027 A 
ATOM      9  C   UNL d   1      -5.724   3.742  -1.962  0.00  0.00     0.072 A 
ATOM     10  N   UNL d   1      -5.223   4.923  -1.568  0.00  0.00    -0.292 N 
ATOM     11  N   UNL d   1      -4.681   4.700  -0.342  0.00  0.00    -0.266 N 
ATOM     12  HN  UNL d   1      -5.244   5.804  -2.081  1.00  0.00     0.187 HD
ATOM     13  C   UNL d   1      -4.896   3.404   0.065  0.00  0.00     0.132 A 
BRANCH   9  14
ATOM     14  C   UNL d   1      -6.301   3.569  -3.299  0.00  0.00    -0.007 A 
ATOM     15  C   UNL d   1      -6.114   2.371  -4.007  0.00  0.00     0.014 A 
ATOM     16  C   UNL d   1      -6.707   2.180  -5.257  0.00  0.00     0.001 A 
ATOM     17  C   UNL d   1      -7.474   3.194  -5.824  0.00  0.00     0.000 A 
ATOM     18  C   UNL d   1      -7.633   4.405  -5.152  0.00  0.00     0.001 A 
ATOM     19  C   UNL d   1      -7.046   4.594  -3.896  0.00  0.00     0.014 A 
ENDBRANCH   9  14
BRANCH  11  20
ATOM     20  C   UNL d   1      -4.008   5.739   0.370  0.00  0.00     0.056 A 
ATOM     21  C   UNL d   1      -3.414   5.492   1.619  0.00  0.00     0.031 A 
ATOM     22  C   UNL d   1      -2.753   6.521   2.296  0.00  0.00     0.002 A 
ATOM     23  C   UNL d   1      -2.680   7.796   1.742  0.00  0.00     0.000 A 
ATOM     24  C   UNL d   1      -3.269   8.049   0.504  0.00  0.00     0.002 A 
ATOM     25  C   UNL d   1      -3.930   7.026  -0.183  0.00  0.00     0.031 A 
ENDBRANCH  11  20
ENDBRANCH   6   8
ENDBRANCH   2   5
BRANCH   1  26
ATOM     26  C   UNL d   1      -5.844  -3.176   0.098  0.00  0.00     0.186 C 
BRANCH  26  27
ATOM     27  S   UNL d   1      -6.167  -3.931  -1.525  0.00  0.00    -0.083 SA
BRANCH  27  28
ATOM     28  C   UNL d   1      -6.818  -5.468  -1.049  0.00  0.00     0.163 A 
ATOM     29  N   UNL d   1      -7.116  -6.501  -1.908  0.00  0.00    -0.307 N 
ATOM     30  C   UNL d   1      -7.635  -7.515  -1.111  0.00  0.00     0.135 A 
ATOM     31  N   UNL d   1      -7.632  -7.079   0.141  0.00  0.00    -0.283 N 
ATOM     32  N   UNL d   1      -7.119  -5.810   0.179  0.00  0.00    -0.278 N 
ATOM     33  HN  UNL d   1      -7.961  -7.606   0.950  1.00  0.00     0.188 HD
ATOM     34  HN  UNL d   1      -6.994  -5.235   1.012  1.00  0.00     0.189 HD
BRANCH  29  35
ATOM     35  C   UNL d   1      -6.905  -6.514  -3.347  0.00  0.00     0.159 C 
BRANCH  35  36
ATOM     36  C   UNL d   1      -8.180  -6.554  -4.142  0.00  0.00    -0.017 C 
ATOM     37  C   UNL d   1      -8.536  -5.639  -5.053  0.00  0.00     0.008 C 
ENDBRANCH  35  36
ENDBRANCH  29  35
BRANCH  30  38
ATOM     38  C   UNL d   1      -8.210  -8.812  -1.515  0.00  0.00     0.009 A 
ATOM     39  C   UNL d   1      -7.723  -9.599  -2.567  0.00  0.00     0.015 A 
ATOM     40  C   UNL d   1      -8.356 -10.795  -2.930  0.00  0.00     0.001 A 
ATOM     41  C   UNL d   1      -9.463 -11.249  -2.219  0.00  0.00     0.000 A 
ATOM     42  C   UNL d   1      -9.931 -10.512  -1.136  0.00  0.00     0.001 A 
ATOM     43  C   UNL d   1      -9.310  -9.307  -0.790  0.00  0.00     0.015 A 
ENDBRANCH  30  38
ENDBRANCH  27  28
ENDBRANCH  26  27
ENDBRANCH   1  26
TORSDOF 10
