REMARK  6 active torsions:
REMARK  status: ('A' for Active; 'I' for Inactive)
REMARK    1  A    between atoms: N_3  and  C_1 
REMARK    2  A    between atoms: C_2  and  N_3 
REMARK    3  A    between atoms: C_11  and  N_6 
REMARK    4  A    between atoms: C_10  and  C_11 
REMARK    5  A    between atoms: O_15  and  C_10 
REMARK    6  A    between atoms: O_16  and  C_10 
ROOT
ATOM      1  C   UNL d   1       0.922   0.133   0.009  0.00  0.00     0.172 C 
ATOM      2  S   UNL d   1       0.179  -0.794   1.185  0.00  0.00    -0.041 SA
ATOM      3  N   UNL d   1       2.235   0.430   0.207  0.00  0.00    -0.362 N 
ATOM      4  H   UNL d   1       2.615   0.085   1.086  0.00  0.00     0.162 HD
ENDROOT
BRANCH   1   5
ATOM      5  N   UNL d   1       0.349   0.688  -1.111  0.00  0.00    -0.332 N 
ATOM      6  H   UNL d   1       0.642   1.646  -1.269  0.00  0.00     0.168 HD
BRANCH   5   7
ATOM      7  C   UNL d   1      -0.929   0.381  -1.652  0.00  0.00     0.057 A 
ATOM      8  C   UNL d   1      -1.367  -0.943  -1.774  0.00  0.00     0.055 A 
ATOM      9  C   UNL d   1      -2.640  -1.217  -2.274  0.00  0.00     0.036 A 
ATOM     10 CL   UNL d   1      -3.172  -2.848  -2.408  0.00  0.00    -0.084 Cl
ATOM     11  C   UNL d   1      -3.485  -0.182  -2.672  0.00  0.00     0.026 A 
ATOM     12  C   UNL d   1      -3.038   1.139  -2.605  0.00  0.00     0.028 A 
ATOM     13  C   UNL d   1      -1.757   1.417  -2.118  0.00  0.00     0.060 A 
ATOM     14 CL   UNL d   1      -1.238   3.065  -2.059  0.00  0.00    -0.082 Cl
ENDBRANCH   5   7
ENDBRANCH   1   5
BRANCH   3  15
ATOM     15  C   UNL d   1       3.221   0.998  -0.709  0.00  0.00     0.182 C 
BRANCH  15  16
ATOM     16  C   UNL d   1       3.697   2.409  -0.293  0.00  0.00     0.275 C 
BRANCH  16  17
ATOM     17  O   UNL d   1       4.163   2.322   1.063  0.00  0.00    -0.364 OA
ATOM     18  C   UNL d   1       4.356   3.605   1.643  0.00  0.00     0.204 C 
ENDBRANCH  16  17
BRANCH  16  19
ATOM     19  O   UNL d   1       4.772   2.869  -1.113  0.00  0.00    -0.364 OA
ATOM     20  C   UNL d   1       4.425   3.071  -2.473  0.00  0.00     0.204 C 
ENDBRANCH  16  19
ENDBRANCH  15  16
ENDBRANCH   3  15
TORSDOF 6
