REMARK  6 active torsions:
REMARK  status: ('A' for Active; 'I' for Inactive)
REMARK       I    between atoms: C_9  and  N_10 
REMARK    1  A    between atoms: C_20  and  C_9 
REMARK    2  A    between atoms: N_10  and  C_11 
REMARK    3  A    between atoms: C_12  and  C_21 
REMARK    4  A    between atoms: O_18  and  C_12 
REMARK    5  A    between atoms: S_16  and  C_20 
REMARK    6  A    between atoms: C_21  and  S_16 
ROOT
ATOM      1  C   UNL d   1       0.301   0.770   0.010  0.00  0.00     0.092 A 
ATOM      2  C   UNL d   1      -0.502  -1.551  -0.004  0.00  0.00    -0.043 A 
ATOM      3  O   UNL d   1      -1.029   1.237   0.011  0.00  0.00    -0.275 OA
ATOM      4  C   UNL d   1      -2.092   0.357   0.003  0.00  0.00     0.288 A 
ATOM      5  C   UNL d   1       0.610  -0.589   0.003  0.00  0.00     0.004 A 
ATOM      6  C   UNL d   1      -1.757  -1.073  -0.003  0.00  0.00     0.090 A 
ATOM      7  C   UNL d   1       1.276   1.771   0.009  0.00  0.00     0.067 A 
ATOM      8  C   UNL d   1       1.970  -0.923   0.002  0.00  0.00     0.017 A 
ATOM      9  C   UNL d   1       2.626   1.435  -0.001  0.00  0.00     0.037 A 
ATOM     10  O   UNL d   1      -3.257   0.733  -0.001  0.00  0.00    -0.260 OA
ATOM     11  C   UNL d   1       2.966   0.078  -0.002  0.00  0.00     0.030 A 
ATOM     12  C   UNL d   1      -0.300  -3.039  -0.014  0.00  0.00     0.049 C 
ENDROOT
BRANCH   9  13
ATOM     13  N   UNL d   1       3.666   2.394  -0.027  0.00  0.00    -0.326 N 
ATOM     14  C   UNL d   1       3.513   3.769  -0.071  0.00  0.00     0.231 C 
ATOM     15  O   UNL d   1       2.446   4.387  -0.104  0.00  0.00    -0.272 OA
ATOM     16  H   UNL d   1       4.612   2.029  -0.066  0.00  0.00     0.169 HD
BRANCH  14  17
ATOM     17  C   UNL d   1       4.811   4.550  -0.167  0.00  0.00     0.177 C 
BRANCH  17  18
ATOM     18  S   UNL d   1       5.238   4.866  -1.911  0.00  0.00    -0.149 SA
BRANCH  18  19
ATOM     19  C   UNL d   1       3.710   5.659  -2.532  0.00  0.00     0.184 C 
BRANCH  19  20
ATOM     20  C   UNL d   1       3.388   6.961  -1.832  0.00  0.00     0.149 C 
ATOM     21  O   UNL d   1       3.878   8.039  -2.141  0.00  0.00    -0.649 OA
BRANCH  20  22
ATOM     22  O   UNL d   1       2.508   6.849  -0.811  0.00  0.00    -0.776 OA
ATOM     23  H   UNL d   1       2.212   5.927  -0.610  0.00  0.00     0.167 HD
ENDBRANCH  20  22
ENDBRANCH  19  20
ENDBRANCH  18  19
ENDBRANCH  17  18
ENDBRANCH  14  17
ENDBRANCH   9  13
TORSDOF 6
