REMARK  3 active torsions:
REMARK  status: ('A' for Active; 'I' for Inactive)
REMARK       I    between atoms: N_3  and  C_1 
REMARK    1  A    between atoms: C_4  and  C_1 
REMARK       I    between atoms: C_2  and  N_5 
REMARK    2  A    between atoms: C_7  and  C_2 
REMARK    3  A    between atoms: N_5  and  N_3 
ROOT
ATOM      1  C   UNL d   1       1.053   0.028   0.025  0.00  0.00     0.270 C 
ATOM      2  N   UNL d   1       0.338  -1.099   0.378  0.00  0.00    -0.263 N 
ATOM      3  O   UNL d   1       2.264  -0.001  -0.187  0.00  0.00    -0.266 OA
ATOM      4  H   UNL d   1      -0.679  -1.159   0.371  0.00  0.00     0.190 HD
ENDROOT
BRANCH   1   5
ATOM      5  C   UNL d   1       0.287   1.293  -0.120  0.00  0.00     0.034 A 
ATOM      6  C   UNL d   1      -0.889   1.543   0.594  0.00  0.00     0.030 A 
ATOM      7  C   UNL d   1      -1.560   2.773   0.445  0.00  0.00    -0.009 A 
ATOM      8  C   UNL d   1      -2.733   3.063   1.154  0.00  0.00     0.015 A 
ATOM      9  C   UNL d   1      -1.057   3.763  -0.428  0.00  0.00     0.042 A 
ATOM     10  C   UNL d   1      -3.360   4.292   0.982  0.00  0.00     0.018 A 
ATOM     11  C   UNL d   1      -2.792   5.192   0.102  0.00  0.00     0.088 A 
ATOM     12  N   UNL d   1      -1.662   4.949  -0.599  0.00  0.00    -0.365 N 
ATOM     13  HN  UNL d   1      -1.281   5.646  -1.239  1.00  0.00     0.165 HD
ATOM     14  C   UNL d   1       0.115   3.492  -1.122  0.00  0.00     0.031 A 
ATOM     15  C   UNL d   1       0.792   2.278  -0.973  0.00  0.00     0.019 A 
ENDBRANCH   1   5
BRANCH   2  16
ATOM     16  N   UNL d   1       1.026  -2.314   0.407  0.00  0.00    -0.263 N 
ATOM     17  C   UNL d   1       0.325  -3.466   0.689  0.00  0.00     0.270 C 
ATOM     18  O   UNL d   1      -0.882  -3.476   0.915  0.00  0.00    -0.266 OA
ATOM     19  H   UNL d   1       2.042  -2.252   0.358  0.00  0.00     0.190 HD
BRANCH  17  20
ATOM     20  C   UNL d   1       1.119  -4.725   0.724  0.00  0.00     0.033 A 
ATOM     21  C   UNL d   1       0.676  -5.773   1.543  0.00  0.00     0.019 A 
ATOM     22  C   UNL d   1       1.377  -6.982   1.579  0.00  0.00     0.025 A 
ATOM     23  C   UNL d   1       2.512  -7.147   0.789  0.00  0.00     0.034 A 
ATOM     24  C   UNL d   1       2.957  -6.113  -0.035  0.00  0.00     0.025 A 
ATOM     25 CL   UNL d   1       3.362  -8.643   0.815  0.00  0.00    -0.084 Cl
ATOM     26  C   UNL d   1       2.261  -4.901  -0.069  0.00  0.00     0.019 A 
ENDBRANCH  17  20
ENDBRANCH   2  16
TORSDOF 3
