REMARK  2 active torsions:
REMARK  status: ('A' for Active; 'I' for Inactive)
REMARK    1  A    between atoms: C_4  and  C_1 
REMARK    2  A    between atoms: N_12  and  C_8 
ROOT
ATOM      1  C   UNL d   1      -2.291   0.008  -0.041  0.00  0.00     0.118 A 
ATOM      2  N   UNL d   1      -1.548   1.103  -0.044  0.00  0.00    -0.340 N 
ATOM      3  HN  UNL d   1      -1.878   2.068  -0.050  1.00  0.00     0.167 HD
ATOM      4  N   UNL d   1      -1.484  -1.108  -0.016  0.00  0.00    -0.340 N 
ATOM      5  C   UNL d   1      -0.241   0.677  -0.040  0.00  0.00     0.060 A 
ATOM      6  C   UNL d   1      -0.173  -0.709  -0.023  0.00  0.00     0.060 A 
ATOM      7  C   UNL d   1       0.950   1.418  -0.044  0.00  0.00     0.032 A 
ATOM      8  C   UNL d   1       1.026  -1.424  -0.006  0.00  0.00     0.032 A 
ATOM      9  C   UNL d   1       2.204  -0.668  -0.008  0.00  0.00     0.002 A 
ATOM     10  C   UNL d   1       2.170   0.729  -0.027  0.00  0.00     0.002 A 
ATOM     11  H   UNL d   1      -1.806  -2.062   0.030  0.00  0.00     0.167 HD
ENDROOT
BRANCH   1  12
ATOM     12  C   UNL d   1      -3.761  -0.054  -0.023  0.00  0.00     0.031 A 
ATOM     13  C   UNL d   1      -4.528   0.976   0.572  0.00  0.00     0.020 A 
ATOM     14  C   UNL d   1      -5.923   0.843   0.636  0.00  0.00     0.026 A 
ATOM     15  C   UNL d   1      -6.568  -0.243   0.044  0.00  0.00     0.026 A 
ATOM     16  C   UNL d   1      -5.816  -1.223  -0.592  0.00  0.00     0.035 A 
ATOM     17  C   UNL d   1      -4.425  -1.136  -0.628  0.00  0.00     0.041 A 
ATOM     18 CL   UNL d   1      -6.603  -2.567  -1.323  0.00  0.00    -0.084 Cl
BRANCH  13  19
ATOM     19  N   UNL d   1      -3.923   2.013   1.312  0.00  0.00    -0.302 NA
ATOM     20  H   UNL d   1      -2.963   2.178   0.986  0.00  0.00     0.124 HD
ATOM     21  H   UNL d   1      -4.463   2.869   1.344  0.00  0.00     0.124 HD
ENDBRANCH  13  19
ENDBRANCH   1  12
TORSDOF 2
