REMARK  2 active torsions:
REMARK  status: ('A' for Active; 'I' for Inactive)
REMARK    1  A    between atoms: N_4  and  C_1 
REMARK       I    between atoms: C_2  and  N_3 
REMARK    2  A    between atoms: C_9  and  C_2 
ROOT
ATOM      1  C   UNL d   1       1.467   6.684   0.247  0.00  0.00     0.253 C 
ATOM      2  N   UNL d   1       0.984   5.416  -0.070  0.00  0.00    -0.346 N 
ATOM      3  N   UNL d   1       0.144   2.670  -0.147  0.00  0.00    -0.251 NA
ATOM      4  C   UNL d   1       1.567   4.479  -1.041  0.00  0.00     0.141 C 
ATOM      5  C   UNL d   1      -0.339   5.021   0.439  0.00  0.00     0.141 C 
ATOM      6  C   UNL d   1       1.501   3.015  -0.585  0.00  0.00     0.118 C 
ATOM      7  C   UNL d   1      -0.389   3.550   0.904  0.00  0.00     0.118 C 
ATOM      8  O   UNL d   1       0.917   7.423   1.061  0.00  0.00    -0.267 OA
ENDROOT
BRANCH   1   9
ATOM      9  C   UNL d   1       2.729   7.177  -0.362  0.00  0.00     0.032 A 
ATOM     10  C   UNL d   1       2.954   7.157  -1.744  0.00  0.00     0.018 A 
ATOM     11  C   UNL d   1       4.180   7.588  -2.259  0.00  0.00     0.025 A 
ATOM     12  C   UNL d   1       5.157   8.089  -1.398  0.00  0.00     0.034 A 
ATOM     13  C   UNL d   1       4.914   8.177  -0.028  0.00  0.00     0.025 A 
ATOM     14 CL   UNL d   1       6.670   8.606  -2.032  0.00  0.00    -0.084 Cl
ATOM     15  C   UNL d   1       3.699   7.723   0.490  0.00  0.00     0.018 A 
ENDBRANCH   1   9
BRANCH   3  16
ATOM     16  C   UNL d   1      -0.037   1.303   0.059  0.00  0.00     0.159 A 
ATOM     17  N   UNL d   1      -0.925   0.883   0.975  0.00  0.00    -0.343 N 
ATOM     18  C   UNL d   1      -1.108  -0.446   1.106  0.00  0.00     0.092 A 
ATOM     19  HN  UNL d   1      -1.443   1.546   1.552  1.00  0.00     0.167 HD
ATOM     20  C   UNL d   1      -0.448  -1.382   0.354  0.00  0.00     0.034 A 
ATOM     21  C   UNL d   1       0.436  -0.872  -0.555  0.00  0.00     0.092 A 
ATOM     22  N   UNL d   1       0.657   0.448  -0.714  0.00  0.00    -0.343 N 
ATOM     23  HN  UNL d   1       1.331   0.788  -1.399  1.00  0.00     0.167 HD
ENDBRANCH   3  16
TORSDOF 2
