REMARK  5 active torsions:
REMARK  status: ('A' for Active; 'I' for Inactive)
REMARK    1  A    between atoms: N_2  and  S_1 
REMARK    2  A    between atoms: C_3  and  S_1 
REMARK    3  A    between atoms: C_18  and  C_7 
REMARK    4  A    between atoms: O_22  and  C_15 
REMARK    5  A    between atoms: O_23  and  C_17 
ROOT
ATOM      1  N   UNL d   1       0.610  -0.012   1.536  0.00  0.00    -0.297 N 
ATOM      2  C   UNL d   1       0.422  -1.262   3.707  0.00  0.00    -0.026 A 
ATOM      3  C   UNL d   1       0.828  -1.313   2.235  0.00  0.00     0.125 C 
ATOM      4  C   UNL d   1       0.239  -0.049   4.386  0.00  0.00    -0.045 A 
ATOM      5  C   UNL d   1       0.270  -2.464   4.417  0.00  0.00     0.049 A 
ATOM      6  C   UNL d   1       1.083   1.153   2.335  0.00  0.00     0.141 C 
ATOM      7  C   UNL d   1      -0.025  -2.474   5.784  0.00  0.00     0.102 A 
ATOM      8  C   UNL d   1      -0.061  -0.054   5.759  0.00  0.00     0.047 A 
ATOM      9  C   UNL d   1      -0.173  -1.256   6.469  0.00  0.00     0.102 A 
ATOM     10  C   UNL d   1       0.292   1.257   3.636  0.00  0.00     0.060 C 
ATOM     11  C   UNL d   1       2.268  -1.829   2.130  0.00  0.00     0.038 C 
ENDROOT
BRANCH   1  12
ATOM     12  S   UNL d   1       1.003   0.108  -0.113  0.00  0.00     0.268 S 
ATOM     13  O   UNL d   1       2.442  -0.025  -0.238  0.00  0.00    -0.200 OA
ATOM     14  O   UNL d   1       0.335   1.273  -0.644  0.00  0.00    -0.200 OA
BRANCH  12  15
ATOM     15  C   UNL d   1       0.344  -1.273  -1.020  0.00  0.00     0.121 A 
ATOM     16  S   UNL d   1      -1.356  -1.442  -1.040  0.00  0.00    -0.074 SA
ATOM     17  C   UNL d   1      -1.296  -2.760  -2.143  0.00  0.00     0.033 A 
ATOM     18  C   UNL d   1       0.016  -3.116  -2.405  0.00  0.00     0.023 A 
ATOM     19  C   UNL d   1       0.957  -2.254  -1.775  0.00  0.00     0.034 A 
BRANCH  17  20
ATOM     20  C   UNL d   1      -2.517  -3.368  -2.691  0.00  0.00     0.049 A 
ATOM     21  N   UNL d   1      -2.402  -4.690  -2.977  0.00  0.00    -0.365 N 
ATOM     22  C   UNL d   1      -3.463  -5.295  -3.556  0.00  0.00     0.088 A 
ATOM     23  HN  UNL d   1      -1.548  -5.206  -2.764  1.00  0.00     0.165 HD
ATOM     24  C   UNL d   1      -4.640  -4.644  -3.882  0.00  0.00     0.017 A 
ATOM     25  C   UNL d   1      -4.741  -3.290  -3.587  0.00  0.00     0.004 A 
ATOM     26  C   UNL d   1      -3.669  -2.640  -2.980  0.00  0.00     0.031 A 
ENDBRANCH  17  20
ENDBRANCH  12  15
ENDBRANCH   1  12
BRANCH   7  27
ATOM     27  O   UNL d   1      -0.132  -3.632   6.517  0.00  0.00    -0.353 OA
ATOM     28  C   UNL d   1      -0.486  -4.805   5.794  0.00  0.00     0.210 C 
ENDBRANCH   7  27
BRANCH   9  29
ATOM     29  O   UNL d   1      -0.438  -1.338   7.815  0.00  0.00    -0.353 OA
ATOM     30  C   UNL d   1      -0.590  -0.119   8.529  0.00  0.00     0.210 C 
ENDBRANCH   9  29
TORSDOF 5
