REMARK  3 active torsions:
REMARK  status: ('A' for Active; 'I' for Inactive)
REMARK    1  A    between atoms: N_2  and  C_1 
REMARK    2  A    between atoms: C_13  and  N_6 
REMARK    3  A    between atoms: C_16  and  C_13 
ROOT
ATOM      1  C   UNL d   1       0.195  -1.169  -0.028  0.00  0.00     0.141 A 
ATOM      2  C   UNL d   1      -0.433   0.007  -0.482  0.00  0.00     0.158 A 
ATOM      3  C   UNL d   1      -1.800   0.056  -0.917  0.00  0.00     0.121 C 
ATOM      4  N   UNL d   1      -2.908   0.079  -1.267  0.00  0.00    -0.190 NA
ATOM      5  N   UNL d   1       1.467  -1.053   0.449  0.00  0.00    -0.349 N 
ATOM      6  HN  UNL d   1       1.961  -1.871   0.806  1.00  0.00     0.167 HD
ATOM      7  N   UNL d   1       0.167   1.241  -0.486  0.00  0.00    -0.353 N 
ATOM      8  HN  UNL d   1      -0.315   2.075  -0.822  1.00  0.00     0.166 HD
ATOM      9  C   UNL d   1       2.065   0.159   0.443  0.00  0.00     0.106 A 
ATOM     10  C   UNL d   1       1.428   1.285  -0.021  0.00  0.00     0.106 A 
ENDROOT
BRANCH   1  11
ATOM     11  N   UNL d   1      -0.307  -2.456  -0.042  0.00  0.00    -0.361 N 
ATOM     12  C   UNL d   1       0.127  -3.346   1.053  0.00  0.00     0.154 C 
ATOM     13  C   UNL d   1       0.213  -4.806   0.567  0.00  0.00     0.292 C 
ATOM     14  N   UNL d   1      -1.026  -5.332  -0.049  0.00  0.00     0.095 N 
ATOM     15  C   UNL d   1      -1.389  -4.418  -1.159  0.00  0.00     0.292 C 
ATOM     16  C   UNL d   1      -1.483  -2.907  -0.800  0.00  0.00     0.154 C 
BRANCH  14  17
ATOM     17  C   UNL d   1      -2.149  -5.449   0.901  0.00  0.00     0.311 C 
BRANCH  17  18
ATOM     18  C   UNL d   1      -1.930  -6.376   2.082  0.00  0.00    -0.030 A 
ATOM     19  C   UNL d   1      -2.526  -6.066   3.316  0.00  0.00     0.009 A 
ATOM     20  C   UNL d   1      -2.402  -6.928   4.407  0.00  0.00     0.001 A 
ATOM     21  C   UNL d   1      -1.683  -8.114   4.279  0.00  0.00     0.000 A 
ATOM     22  C   UNL d   1      -1.093  -8.440   3.059  0.00  0.00     0.001 A 
ATOM     23  C   UNL d   1      -1.225  -7.582   1.964  0.00  0.00     0.009 A 
ENDBRANCH  17  18
ENDBRANCH  14  17
ENDBRANCH   1  11
TORSDOF 3
