REMARK  3 active torsions:
REMARK  status: ('A' for Active; 'I' for Inactive)
REMARK       I    between atoms: N_2  and  C_1 
REMARK       I    between atoms: N_5  and  C_1 
REMARK    1  A    between atoms: C_3  and  C_10 
REMARK    2  A    between atoms: C_12  and  C_4 
REMARK    3  A    between atoms: C_9  and  N_5 
ROOT
ATOM      1  N   UNL d   1      -3.171   0.182   2.356  0.00  0.00    -0.372 N 
ATOM      2  HN  UNL d   1      -3.616   0.588   3.179  1.00  0.00     0.164 HD
ATOM      3  C   UNL d   1      -1.154  -0.358   1.095  0.00  0.00     0.053 A 
ATOM      4  C   UNL d   1      -3.321  -0.972   0.236  0.00  0.00     0.035 A 
ATOM      5  C   UNL d   1      -1.931  -0.967   0.113  0.00  0.00     0.053 A 
ATOM      6  C   UNL d   1      -1.827   0.190   2.189  0.00  0.00     0.117 A 
ATOM      7  C   UNL d   1      -3.888  -0.395   1.365  0.00  0.00     0.108 A 
ENDROOT
BRANCH   3   8
ATOM      8  N   UNL d   1       0.251  -0.225   1.031  0.00  0.00    -0.307 N 
ATOM      9  C   UNL d   1       1.103  -0.870   0.166  0.00  0.00     0.323 C 
ATOM     10  N   UNL d   1       2.437  -0.509   0.266  0.00  0.00    -0.330 N 
ATOM     11  O   UNL d   1       0.743  -1.738  -0.625  0.00  0.00    -0.247 OA
ATOM     12  C   UNL d   1       3.037   0.584   1.042  0.00  0.00     0.153 C 
ATOM     13  C   UNL d   1       3.424  -1.252  -0.527  0.00  0.00     0.153 C 
ATOM     14  C   UNL d   1       4.190   0.043   1.896  0.00  0.00     0.187 C 
ATOM     15  O   UNL d   1       5.166  -0.621   1.078  0.00  0.00    -0.388 OA
ATOM     16  C   UNL d   1       4.574  -1.722   0.369  0.00  0.00     0.187 C 
ATOM     17  H   UNL d   1       0.667   0.294   1.783  0.00  0.00     0.170 HD
ENDBRANCH   3   8
BRANCH   4  18
ATOM     18  C   UNL d   1      -4.136  -1.509  -0.799  0.00  0.00    -0.060 C 
ATOM     19  C   UNL d   1      -4.838  -1.918  -1.687  0.00  0.00    -0.061 C 
BRANCH  19  20
ATOM     20  C   UNL d   1      -5.703  -2.371  -2.728  0.00  0.00     0.018 A 
ATOM     21  C   UNL d   1      -6.809  -1.597  -3.091  0.00  0.00     0.020 A 
ATOM     22  C   UNL d   1      -7.688  -2.053  -4.074  0.00  0.00     0.001 A 
ATOM     23  C   UNL d   1      -7.459  -3.279  -4.698  0.00  0.00     0.000 A 
ATOM     24  C   UNL d   1      -6.345  -4.044  -4.350  0.00  0.00     0.001 A 
ATOM     25  C   UNL d   1      -5.465  -3.590  -3.366  0.00  0.00     0.020 A 
ENDBRANCH  19  20
ENDBRANCH   4  18
TORSDOF 3
