REMARK  9 active torsions:
REMARK  status: ('A' for Active; 'I' for Inactive)
REMARK    1  A    between atoms: C_4  and  N_1 
REMARK    2  A    between atoms: C_6  and  N_2 
REMARK    3  A    between atoms: C_8  and  C_3 
REMARK    4  A    between atoms: N_5  and  C_8 
REMARK    5  A    between atoms: C_7  and  C_9 
REMARK    6  A    between atoms: O_20  and  C_7 
REMARK    7  A    between atoms: O_21  and  C_15 
REMARK    8  A    between atoms: C_26  and  O_20 
REMARK    9  A    between atoms: C_27  and  O_21 
ROOT
ATOM      1  C   UNL d   1       4.813  -0.929   0.432  0.00  0.00    -0.004 A 
ATOM      2  C   UNL d   1       5.719   0.097   0.822  0.00  0.00     0.038 A 
ATOM      3  C   UNL d   1       3.881  -1.451   1.373  0.00  0.00     0.011 A 
ATOM      4  C   UNL d   1       5.561   0.575   2.147  0.00  0.00     0.030 A 
ATOM      5  C   UNL d   1       3.755  -0.933   2.654  0.00  0.00     0.001 A 
ATOM      6  C   UNL d   1       4.590   0.096   3.037  0.00  0.00     0.002 A 
ENDROOT
BRANCH   1   7
ATOM      7  C   UNL d   1       4.638  -1.469  -0.985  0.00  0.00     0.313 C 
BRANCH   7   8
ATOM      8  N   UNL d   1       3.281  -1.290  -1.524  0.00  0.00     0.095 N 
ATOM      9  C   UNL d   1       2.826   0.109  -1.533  0.00  0.00     0.292 C 
ATOM     10  C   UNL d   1       3.093   0.999  -2.770  0.00  0.00     0.153 C 
ATOM     11  N   UNL d   1       2.891   0.301  -4.053  0.00  0.00    -0.375 N 
ATOM     12  C   UNL d   1       3.549  -1.022  -4.073  0.00  0.00     0.153 C 
ATOM     13  C   UNL d   1       3.118  -1.885  -2.860  0.00  0.00     0.292 C 
BRANCH  11  14
ATOM     14  C   UNL d   1       2.654   1.022  -5.240  0.00  0.00     0.064 A 
ATOM     15  C   UNL d   1       2.089   2.329  -5.306  0.00  0.00     0.095 A 
ATOM     16  C   UNL d   1       1.726   2.929  -6.529  0.00  0.00     0.039 A 
ATOM     17  C   UNL d   1       1.931   2.273  -7.734  0.00  0.00     0.003 A 
ATOM     18  C   UNL d   1       2.539   1.031  -7.722  0.00  0.00     0.002 A 
ATOM     19  C   UNL d   1       2.886   0.426  -6.503  0.00  0.00     0.032 A 
BRANCH  15  20
ATOM     20  O   UNL d   1       2.021   3.129  -4.188  0.00  0.00    -0.349 OA
BRANCH  20  21
ATOM     21  C   UNL d   1       0.709   3.606  -3.875  0.00  0.00     0.171 C 
ATOM     22  C   UNL d   1       0.743   4.110  -2.440  0.00  0.00     0.034 C 
ENDBRANCH  20  21
ENDBRANCH  15  20
ENDBRANCH  11  14
ENDBRANCH   7   8
ENDBRANCH   1   7
BRANCH   2  23
ATOM     23  N   UNL d   1       6.673   0.678  -0.006  0.00  0.00    -0.380 N 
ATOM     24  C   UNL d   1       7.262   1.999   0.248  0.00  0.00     0.124 C 
ATOM     25  C   UNL d   1       7.205   2.831  -1.037  0.00  0.00     0.034 C 
ATOM     26  C   UNL d   1       7.681   2.091  -2.294  0.00  0.00     0.088 C 
ATOM     27  C   UNL d   1       7.229   0.623  -2.343  0.00  0.00     0.034 C 
ATOM     28  C   UNL d   1       7.445  -0.075  -0.995  0.00  0.00     0.124 C 
BRANCH  26  29
ATOM     29  C   UNL d   1       9.181   2.184  -2.478  0.00  0.00     0.263 C 
ATOM     30  O   UNL d   1       9.964   1.251  -2.321  0.00  0.00    -0.265 OA
BRANCH  29  31
ATOM     31  O   UNL d   1       9.529   3.424  -2.911  0.00  0.00    -0.322 OA
BRANCH  31  32
ATOM     32  C   UNL d   1      10.885   3.559  -3.363  0.00  0.00     0.174 C 
ATOM     33  C   UNL d   1      11.834   3.776  -2.201  0.00  0.00     0.034 C 
ENDBRANCH  31  32
ENDBRANCH  29  31
ENDBRANCH  26  29
ENDBRANCH   2  23
TORSDOF 9
