REMARK  4 active torsions:
REMARK  status: ('A' for Active; 'I' for Inactive)
REMARK    1  A    between atoms: C_4  and  C_1 
REMARK    2  A    between atoms: O_7  and  C_1 
REMARK    3  A    between atoms: S_2  and  C_4 
REMARK    4  A    between atoms: C_5  and  S_2 
ROOT
ATOM      1  C   UNL d   1      -2.412  -1.495   1.965  0.00  0.00     0.001 A 
ATOM      2  C   UNL d   1      -3.597  -2.992   3.993  0.00  0.00     0.116 A 
ATOM      3  F   UNL d   1      -4.170  -3.713   4.965  0.00  0.00    -0.206 F 
ATOM      4  C   UNL d   1      -2.202  -2.877   2.034  0.00  0.00     0.021 A 
ATOM      5  C   UNL d   1      -3.205  -0.867   2.933  0.00  0.00     0.021 A 
ATOM      6  C   UNL d   1      -3.803  -1.619   3.947  0.00  0.00     0.043 A 
ATOM      7  C   UNL d   1      -2.799  -3.628   3.049  0.00  0.00     0.043 A 
ENDROOT
BRANCH   1   8
ATOM      8  S   UNL d   1      -1.652  -0.509   0.691  0.00  0.00    -0.119 SA
BRANCH   8   9
ATOM      9  C   UNL d   1      -2.469  -1.228  -0.781  0.00  0.00     0.189 C 
BRANCH   9  10
ATOM     10  C   UNL d   1      -2.055  -0.539  -2.066  0.00  0.00     0.149 C 
ATOM     11  O   UNL d   1      -2.484  -0.876  -3.161  0.00  0.00    -0.649 OA
BRANCH  10  12
ATOM     12  O   UNL d   1      -1.174   0.478  -1.933  0.00  0.00    -0.776 OA
ATOM     13  H   UNL d   1      -0.932   0.615  -0.992  0.00  0.00     0.167 HD
ENDBRANCH  10  12
ENDBRANCH   9  10
ENDBRANCH   8   9
ENDBRANCH   1   8
TORSDOF 4
