REMARK  6 active torsions:
REMARK  status: ('A' for Active; 'I' for Inactive)
REMARK    1  A    between atoms: C_2  and  C_1 
REMARK    2  A    between atoms: O_12  and  C_1 
REMARK       I    between atoms: N_5  and  C_2 
REMARK    3  A    between atoms: C_3  and  N_8 
REMARK    4  A    between atoms: N_9  and  C_3 
REMARK    5  A    between atoms: N_8  and  N_5 
REMARK    6  A    between atoms: C_17  and  N_9 
ROOT
ATOM      1  C   UNL d   1       1.317   1.929  -1.682  0.00  0.00     0.273 C 
ATOM      2  N   UNL d   1       2.670   2.232  -1.666  0.00  0.00    -0.265 N 
ATOM      3  O   UNL d   1       0.653   2.019  -2.712  0.00  0.00    -0.268 OA
ATOM      4  H   UNL d   1       3.148   2.401  -0.778  0.00  0.00     0.190 HD
ENDROOT
BRANCH   2   5
ATOM      5  N   UNL d   1       3.228   2.822  -2.833  0.00  0.00    -0.273 N 
ATOM      6  H   UNL d   1       2.538   3.062  -3.547  0.00  0.00     0.189 HD
BRANCH   5   7
ATOM      7  C   UNL d   1       4.378   3.565  -2.762  0.00  0.00     0.191 C 
ATOM      8  S   UNL d   1       5.409   3.600  -1.440  0.00  0.00    -0.039 SA
BRANCH   7   9
ATOM      9  N   UNL d   1       4.649   4.405  -3.807  0.00  0.00    -0.332 N 
ATOM     10  H   UNL d   1       5.294   5.146  -3.570  0.00  0.00     0.168 HD
BRANCH   9  11
ATOM     11  C   UNL d   1       4.325   4.312  -5.175  0.00  0.00     0.034 A 
ATOM     12  C   UNL d   1       4.400   5.490  -5.931  0.00  0.00     0.031 A 
ATOM     13  C   UNL d   1       4.222   5.466  -7.314  0.00  0.00     0.026 A 
ATOM     14  C   UNL d   1       4.004   4.248  -7.956  0.00  0.00     0.034 A 
ATOM     15  C   UNL d   1       3.926   3.070  -7.215  0.00  0.00     0.026 A 
ATOM     16 CL   UNL d   1       3.866   4.201  -9.669  0.00  0.00    -0.084 Cl
ATOM     17  C   UNL d   1       4.069   3.100  -5.824  0.00  0.00     0.031 A 
ENDBRANCH   9  11
ENDBRANCH   7   9
ENDBRANCH   5   7
ENDBRANCH   2   5
BRANCH   1  18
ATOM     18  C   UNL d   1       0.758   1.418  -0.325  0.00  0.00     0.170 C 
ATOM     19  C   UNL d   1      -0.801   1.384  -0.323  0.00  0.00     0.320 C 
ATOM     20  N   UNL d   1      -1.343   0.036   0.005  0.00  0.00     0.091 N 
ATOM     21  C   UNL d   1      -0.832  -0.377   1.329  0.00  0.00     0.273 C 
ATOM     22  C   UNL d   1      -0.861  -0.917  -1.020  0.00  0.00     0.273 C 
ATOM     23  C   UNL d   1       0.702  -0.460   1.351  0.00  0.00     0.038 C 
ATOM     24  C   UNL d   1       1.263  -0.017  -0.019  0.00  0.00     0.035 C 
ATOM     25  C   UNL d   1       0.676  -0.992  -1.056  0.00  0.00     0.038 C 
BRANCH  18  26
ATOM     26  O   UNL d   1       1.247   2.282   0.716  0.00  0.00    -0.378 OA
ATOM     27  H   UNL d   1       0.711   3.096   0.705  0.00  0.00     0.211 HD
ENDBRANCH  18  26
ENDBRANCH   1  18
TORSDOF 6
