REMARK  8 active torsions:
REMARK  status: ('A' for Active; 'I' for Inactive)
REMARK    1  A    between atoms: C_6  and  C_1 
REMARK    2  A    between atoms: C_2  and  C_5 
REMARK    3  A    between atoms: O_12  and  C_6 
REMARK    4  A    between atoms: C_18  and  C_8 
REMARK    5  A    between atoms: N_19  and  C_8 
REMARK    6  A    between atoms: N_10  and  O_12 
REMARK    7  A    between atoms: O_21  and  C_18 
REMARK    8  A    between atoms: C_22  and  O_21 
ROOT
ATOM      1  C   UNL d   1      -2.464   4.874   0.111  0.00  0.00     0.120 C 
ATOM      2  N   UNL d   1      -1.997   3.674  -0.069  0.00  0.00    -0.243 N 
ATOM      3  HN  UNL d   1      -1.049   3.462  -0.381  1.00  0.00     0.196 HD
ENDROOT
BRANCH   2   4
ATOM      4  O   UNL d   1      -2.977   2.704   0.227  0.00  0.00    -0.192 OA
BRANCH   4   5
ATOM      5  C   UNL d   1      -3.656   2.330  -0.896  0.00  0.00     0.333 C 
ATOM      6  O   UNL d   1      -3.490   2.696  -2.051  0.00  0.00    -0.256 OA
BRANCH   5   7
ATOM      7  C   UNL d   1      -4.841   1.606  -0.406  0.00  0.00     0.132 A 
ATOM      8  N   UNL d   1      -6.019   2.281  -0.573  0.00  0.00    -0.359 N 
ATOM      9  C   UNL d   1      -7.143   1.668  -0.143  0.00  0.00     0.105 A 
ATOM     10  HN  UNL d   1      -6.047   3.205  -1.004  1.00  0.00     0.165 HD
ATOM     11  C   UNL d   1      -7.155   0.421   0.465  0.00  0.00     0.065 A 
ATOM     12  C   UNL d   1      -5.927  -0.230   0.653  0.00  0.00     0.044 A 
ATOM     13  C   UNL d   1      -4.744   0.365   0.210  0.00  0.00     0.067 A 
ATOM     14 CL   UNL d   1      -3.260  -0.477   0.431  0.00  0.00    -0.082 Cl
BRANCH  11  15
ATOM     15  C   UNL d   1      -8.465  -0.184   0.872  0.00  0.00     0.418 C 
ATOM     16  F   UNL d   1      -8.339  -1.417   1.431  0.00  0.00    -0.166 F 
ATOM     17  F   UNL d   1      -9.127   0.578   1.782  0.00  0.00    -0.166 F 
ATOM     18  F   UNL d   1      -9.311  -0.334  -0.182  0.00  0.00    -0.166 F 
ENDBRANCH  11  15
ENDBRANCH   5   7
ENDBRANCH   4   5
ENDBRANCH   2   4
BRANCH   1  19
ATOM     19  C   UNL d   1      -1.488   6.038  -0.067  0.00  0.00     0.253 C 
BRANCH  19  20
ATOM     20  O   UNL d   1      -1.372   6.615   1.231  0.00  0.00    -0.344 OA
BRANCH  20  21
ATOM     21  C   UNL d   1      -0.692   7.792   1.328  0.00  0.00     0.069 A 
ATOM     22  C   UNL d   1      -0.920   8.496   2.513  0.00  0.00     0.038 A 
ATOM     23  C   UNL d   1      -0.294   9.721   2.743  0.00  0.00     0.026 A 
ATOM     24  C   UNL d   1       0.577  10.236   1.786  0.00  0.00     0.034 A 
ATOM     25  C   UNL d   1       0.825   9.530   0.609  0.00  0.00     0.026 A 
ATOM     26 CL   UNL d   1       1.349  11.747   2.059  0.00  0.00    -0.084 Cl
ATOM     27  C   UNL d   1       0.192   8.305   0.379  0.00  0.00     0.038 A 
ENDBRANCH  20  21
ENDBRANCH  19  20
ENDBRANCH   1  19
BRANCH   1  28
ATOM     28  N   UNL d   1      -3.767   5.186   0.449  0.00  0.00    -0.386 N 
ATOM     29  H   UNL d   1      -4.466   4.495   0.211  0.00  0.00     0.157 HD
ATOM     30  H   UNL d   1      -4.067   6.138   0.267  0.00  0.00     0.157 HD
ENDBRANCH   1  28
TORSDOF 8
