REMARK  4 active torsions:
REMARK  status: ('A' for Active; 'I' for Inactive)
REMARK    1  A    between atoms: N_2  and  C_1 
REMARK    2  A    between atoms: N_3  and  C_7 
REMARK    3  A    between atoms: C_4  and  S_12 
REMARK    4  A    between atoms: S_12  and  C_6 
ROOT
ATOM      1  C   UNL d   1       1.166   0.028   0.848  0.00  0.00     0.122 A 
ATOM      2  C   UNL d   1       0.402  -1.155   0.784  0.00  0.00     0.073 A 
ATOM      3  C   UNL d   1       1.024   1.057  -0.097  0.00  0.00     0.041 A 
ATOM      4  C   UNL d   1      -0.550  -1.290  -0.230  0.00  0.00     0.105 A 
ATOM      5  C   UNL d   1       0.041   0.896  -1.090  0.00  0.00     0.024 A 
ATOM      6  C   UNL d   1      -0.744  -0.262  -1.161  0.00  0.00     0.037 A 
ENDROOT
BRANCH   3   7
ATOM      7  S   UNL d   1       1.929   2.596  -0.142  0.00  0.00    -0.052 SA
BRANCH   7   8
ATOM      8  C   UNL d   1       3.621   2.111  -0.403  0.00  0.00     0.149 A 
ATOM      9  N   UNL d   1       3.930   0.805  -0.495  0.00  0.00    -0.341 N 
ATOM     10  C   UNL d   1       5.240   0.500  -0.615  0.00  0.00     0.009 A 
ATOM     11  HN  UNL d   1       3.211   0.082  -0.475  1.00  0.00     0.167 HD
ATOM     12  C   UNL d   1       5.620  -0.950  -0.669  0.00  0.00     0.068 C 
ATOM     13  C   UNL d   1       6.227   1.467  -0.660  0.00  0.00     0.049 A 
ATOM     14  C   UNL d   1       5.811   2.779  -0.577  0.00  0.00     0.009 A 
ATOM     15  N   UNL d   1       4.513   3.114  -0.452  0.00  0.00    -0.341 N 
ATOM     16  C   UNL d   1       6.811   3.896  -0.592  0.00  0.00     0.068 C 
ATOM     17  HN  UNL d   1       4.219   4.089  -0.398  1.00  0.00     0.167 HD
ENDBRANCH   7   8
ENDBRANCH   3   7
BRANCH   1  18
ATOM     18  N   UNL d   1       2.067   0.157   1.982  0.00  0.00    -0.114 N 
ATOM     19  O   UNL d   1       2.853  -0.780   2.184  0.00  0.00    -0.532 OA
ATOM     20  O   UNL d   1       1.923   1.143   2.713  0.00  0.00    -0.532 OA
ENDBRANCH   1  18
BRANCH   4  21
ATOM     21  N   UNL d   1      -1.366  -2.508  -0.311  0.00  0.00    -0.116 N 
ATOM     22  O   UNL d   1      -1.149  -3.399   0.521  0.00  0.00    -0.532 OA
ATOM     23  O   UNL d   1      -2.221  -2.570  -1.205  0.00  0.00    -0.532 OA
ENDBRANCH   4  21
TORSDOF 4
