REMARK  9 active torsions:
REMARK  status: ('A' for Active; 'I' for Inactive)
REMARK    1  A    between atoms: N_6  and  C_1 
REMARK    2  A    between atoms: N_8  and  C_1 
REMARK    3  A    between atoms: N_4  and  N_8 
REMARK    4  A    between atoms: C_14  and  N_6 
REMARK    5  A    between atoms: N_10  and  C_9 
REMARK    6  A    between atoms: C_25  and  N_10 
REMARK    7  A    between atoms: C_16  and  C_13 
REMARK    8  A    between atoms: C_15  and  C_25 
REMARK    9  A    between atoms: O_24  and  C_17 
ROOT
ATOM      1  N   UNL d   1       9.495  -4.850   7.171  0.00  0.00    -0.197 NA
ATOM      2  C   UNL d   1       8.735  -4.844   6.296  0.00  0.00     0.060 C 
ATOM      3  C   UNL d   1       7.760  -4.840   5.195  0.00  0.00     0.143 C 
ENDROOT
BRANCH   3   4
ATOM      4  C   UNL d   1       8.447  -5.020   3.840  0.00  0.00     0.136 C 
BRANCH   4   5
ATOM      5  N   UNL d   1       7.460  -5.183   2.755  0.00  0.00    -0.384 N 
ATOM      6  C   UNL d   1       7.457  -6.487   2.087  0.00  0.00     0.149 C 
BRANCH   5   7
ATOM      7  C   UNL d   1       6.673  -4.150   2.270  0.00  0.00     0.029 A 
ATOM      8  C   UNL d   1       7.041  -2.795   2.378  0.00  0.00     0.030 A 
ATOM      9  C   UNL d   1       6.250  -1.761   1.842  0.00  0.00     0.015 A 
ATOM     10  C   UNL d   1       5.049  -2.065   1.201  0.00  0.00    -0.019 A 
ATOM     11  C   UNL d   1       4.642  -3.389   1.107  0.00  0.00     0.015 A 
ATOM     12  C   UNL d   1       5.443  -4.405   1.637  0.00  0.00     0.030 A 
BRANCH  10  13
ATOM     13  C   UNL d   1       4.205  -0.992   0.634  0.00  0.00     0.118 C 
ATOM     14  N   UNL d   1       2.989  -1.221   0.238  0.00  0.00    -0.309 N 
ATOM     15  HN  UNL d   1       2.558  -2.144   0.287  1.00  0.00     0.186 HD
BRANCH  14  16
ATOM     16  N   UNL d   1       2.337  -0.126  -0.247  0.00  0.00    -0.276 N 
ATOM     17  H   UNL d   1       2.827   0.757  -0.355  0.00  0.00     0.189 HD
BRANCH  16  18
ATOM     18  C   UNL d   1       0.973  -0.099  -0.446  0.00  0.00     0.191 C 
ATOM     19  S   UNL d   1       0.304   1.355  -0.942  0.00  0.00    -0.039 SA
BRANCH  18  20
ATOM     20  N   UNL d   1       0.336  -1.305  -0.237  0.00  0.00    -0.332 N 
ATOM     21  H   UNL d   1       0.950  -2.098  -0.386  0.00  0.00     0.168 HD
BRANCH  20  22
ATOM     22  C   UNL d   1      -1.041  -1.545  -0.051  0.00  0.00     0.034 A 
ATOM     23  C   UNL d   1      -1.610  -2.725  -0.537  0.00  0.00     0.032 A 
ATOM     24  C   UNL d   1      -2.988  -2.967  -0.391  0.00  0.00     0.039 A 
ATOM     25  C   UNL d   1      -3.795  -2.051   0.283  0.00  0.00     0.068 A 
ATOM     26  C   UNL d   1      -3.210  -0.911   0.832  0.00  0.00     0.039 A 
ATOM     27  C   UNL d   1      -1.847  -0.659   0.665  0.00  0.00     0.032 A 
BRANCH  25  28
ATOM     28  O   UNL d   1      -5.143  -2.143   0.490  0.00  0.00    -0.356 OA
ATOM     29  C   UNL d   1      -5.832  -3.201  -0.159  0.00  0.00     0.210 C 
ENDBRANCH  25  28
ENDBRANCH  20  22
ENDBRANCH  18  20
ENDBRANCH  16  18
ENDBRANCH  14  16
ENDBRANCH  10  13
ENDBRANCH   5   7
ENDBRANCH   4   5
ENDBRANCH   3   4
TORSDOF 9
