REMARK  7 active torsions:
REMARK  status: ('A' for Active; 'I' for Inactive)
REMARK    1  A    between atoms: N_4  and  S_1 
REMARK    2  A    between atoms: C_7  and  S_1 
REMARK    3  A    between atoms: C_5  and  C_2 
REMARK    4  A    between atoms: N_6  and  C_3 
REMARK    5  A    between atoms: C_12  and  N_4 
REMARK    6  A    between atoms: O_17  and  C_5 
REMARK    7  A    between atoms: C_24  and  O_17 
ROOT
ATOM      1  C   UNL d   1       2.481  -3.250  -2.751  0.00  0.00     0.068 A 
ATOM      2  C   UNL d   1       1.657  -4.325  -3.178  0.00  0.00     0.046 A 
ATOM      3  C   UNL d   1       2.056  -2.349  -1.751  0.00  0.00     0.050 A 
ATOM      4  C   UNL d   1       0.387  -4.404  -2.567  0.00  0.00     0.033 A 
ATOM      5  C   UNL d   1       0.807  -2.488  -1.161  0.00  0.00     0.043 A 
ATOM      6  C   UNL d   1      -0.037  -3.505  -1.579  0.00  0.00     0.032 A 
ENDROOT
BRANCH   5   7
ATOM      7  N   UNL d   1       0.393  -1.616  -0.123  0.00  0.00    -0.281 N 
ATOM      8  H   UNL d   1      -0.142  -1.999   0.653  0.00  0.00     0.179 HD
BRANCH   7   9
ATOM      9  S   UNL d   1       0.051   0.001  -0.435  0.00  0.00     0.263 S 
ATOM     10  O   UNL d   1       1.146   0.596  -1.173  0.00  0.00    -0.200 OA
ATOM     11  O   UNL d   1      -0.404   0.564   0.817  0.00  0.00    -0.200 OA
BRANCH   9  12
ATOM     12  C   UNL d   1      -1.364  -0.080  -1.514  0.00  0.00     0.080 A 
ATOM     13  C   UNL d   1      -2.643  -0.196  -0.952  0.00  0.00     0.028 A 
ATOM     14  C   UNL d   1      -3.765  -0.179  -1.783  0.00  0.00     0.044 A 
ATOM     15  C   UNL d   1      -3.599  -0.034  -3.157  0.00  0.00     0.116 A 
ATOM     16  C   UNL d   1      -2.332   0.091  -3.719  0.00  0.00     0.044 A 
ATOM     17  F   UNL d   1      -4.678  -0.002  -3.949  0.00  0.00    -0.206 F 
ATOM     18  C   UNL d   1      -1.203   0.072  -2.896  0.00  0.00     0.028 A 
ENDBRANCH   9  12
ENDBRANCH   7   9
ENDBRANCH   5   7
BRANCH   1  19
ATOM     19  C   UNL d   1       3.789  -2.944  -3.390  0.00  0.00     0.295 C 
ATOM     20  O   UNL d   1       4.009  -2.955  -4.587  0.00  0.00    -0.259 OA
BRANCH  19  21
ATOM     21  O   UNL d   1       4.704  -2.698  -2.413  0.00  0.00    -0.318 OA
BRANCH  21  22
ATOM     22  C   UNL d   1       6.054  -2.497  -2.860  0.00  0.00     0.174 C 
ATOM     23  C   UNL d   1       6.246  -1.127  -3.485  0.00  0.00     0.034 C 
ENDBRANCH  21  22
ENDBRANCH  19  21
ENDBRANCH   1  19
BRANCH   2  24
ATOM     24  N   UNL d   1       2.026  -5.248  -4.157  0.00  0.00    -0.380 N 
ATOM     25  C   UNL d   1       3.313  -5.954  -4.035  0.00  0.00     0.123 C 
ATOM     26  C   UNL d   1       3.887  -6.183  -5.436  0.00  0.00     0.020 C 
ATOM     27  C   UNL d   1       2.901  -6.947  -6.318  0.00  0.00     0.003 C 
ATOM     28  C   UNL d   1       1.528  -6.279  -6.319  0.00  0.00     0.020 C 
ATOM     29  C   UNL d   1       1.015  -6.008  -4.904  0.00  0.00     0.123 C 
ENDBRANCH   2  24
TORSDOF 7
