REMARK  5 active torsions:
REMARK  status: ('A' for Active; 'I' for Inactive)
REMARK    1  A    between atoms: C_7  and  C_1 
REMARK    2  A    between atoms: O_8  and  C_2 
REMARK    3  A    between atoms: N_10  and  N_5 
REMARK    4  A    between atoms: C_11  and  O_8 
REMARK    5  A    between atoms: C_12  and  N_10 
ROOT
ATOM      1  C   UNL d   1      -0.018   1.509  -0.287  0.00  0.00     0.055 A 
ATOM      2  C   UNL d   1       1.159   0.805  -0.137  0.00  0.00     0.095 A 
ATOM      3  S   UNL d   1      -1.363   0.442  -0.461  0.00  0.00    -0.098 SA
ATOM      4  C   UNL d   1       0.951  -0.612  -0.248  0.00  0.00     0.046 A 
ATOM      5  C   UNL d   1      -0.379  -0.942  -0.353  0.00  0.00     0.053 A 
ENDROOT
BRANCH   1   6
ATOM      6  C   UNL d   1      -0.334   2.914  -0.271  0.00  0.00     0.128 C 
ATOM      7  N   UNL d   1       0.454   3.842   0.174  0.00  0.00    -0.310 N 
ATOM      8  HN  UNL d   1       1.413   3.672   0.477  1.00  0.00     0.186 HD
BRANCH   7   9
ATOM      9  N   UNL d   1      -0.142   5.085   0.194  0.00  0.00    -0.301 N 
ATOM     10  H   UNL d   1      -1.134   5.115   0.412  0.00  0.00     0.187 HD
BRANCH   9  11
ATOM     11  C   UNL d   1       0.549   6.130   0.855  0.00  0.00     0.048 A 
ATOM     12  C   UNL d   1       1.944   6.176   0.915  0.00  0.00     0.031 A 
ATOM     13  C   UNL d   1       2.599   7.243   1.538  0.00  0.00     0.002 A 
ATOM     14  C   UNL d   1       1.861   8.284   2.099  0.00  0.00     0.000 A 
ATOM     15  C   UNL d   1       0.471   8.269   2.021  0.00  0.00     0.002 A 
ATOM     16  C   UNL d   1      -0.180   7.206   1.388  0.00  0.00     0.031 A 
ENDBRANCH   9  11
ENDBRANCH   7   9
ENDBRANCH   1   6
BRANCH   2  17
ATOM     17  O   UNL d   1       2.364   1.416   0.053  0.00  0.00    -0.309 OA
BRANCH  17  18
ATOM     18  C   UNL d   1       3.383   0.732   0.683  0.00  0.00     0.076 A 
ATOM     19  C   UNL d   1       4.655   0.752   0.110  0.00  0.00     0.037 A 
ATOM     20  C   UNL d   1       5.694   0.033   0.707  0.00  0.00     0.003 A 
ATOM     21  C   UNL d   1       5.464  -0.697   1.875  0.00  0.00     0.000 A 
ATOM     22  C   UNL d   1       4.201  -0.691   2.464  0.00  0.00     0.003 A 
ATOM     23  C   UNL d   1       3.167   0.042   1.881  0.00  0.00     0.037 A 
ENDBRANCH  17  18
ENDBRANCH   2  17
TORSDOF 5
