REMARK  6 active torsions:
REMARK  status: ('A' for Active; 'I' for Inactive)
REMARK    1  A    between atoms: C_11  and  C_1 
REMARK    2  A    between atoms: C_3  and  C_7 
REMARK    3  A    between atoms: C_6  and  C_4 
REMARK    4  A    between atoms: C_7  and  O_17 
REMARK    5  A    between atoms: C_18  and  C_9 
REMARK    6  A    between atoms: O_17  and  C_18 
ROOT
ATOM      1  C   UNL d   1       2.161   1.675   0.098  0.00  0.00    -0.057 C 
ATOM      2  C   UNL d   1       3.119   2.399   0.108  0.00  0.00    -0.074 C 
ENDROOT
BRANCH   2   3
ATOM      3  C   UNL d   1       4.334   3.221   0.091  0.00  0.00     0.273 C 
BRANCH   3   4
ATOM      4  O   UNL d   1       4.335   4.100   1.223  0.00  0.00    -0.305 OA
BRANCH   4   5
ATOM      5  C   UNL d   1       5.410   3.988   2.054  0.00  0.00     0.301 C 
ATOM      6  O   UNL d   1       6.342   3.216   1.872  0.00  0.00    -0.259 OA
BRANCH   5   7
ATOM      7  C   UNL d   1       5.286   4.919   3.165  0.00  0.00     0.080 A 
ATOM      8  S   UNL d   1       6.524   4.951   4.357  0.00  0.00    -0.096 SA
ATOM      9  C   UNL d   1       5.739   6.178   5.249  0.00  0.00     0.050 A 
ATOM     10  C   UNL d   1       4.559   6.568   4.659  0.00  0.00     0.009 A 
ATOM     11  C   UNL d   1       4.295   5.841   3.458  0.00  0.00     0.025 A 
ENDBRANCH   5   7
ENDBRANCH   4   5
ENDBRANCH   3   4
ENDBRANCH   2   3
BRANCH   1  12
ATOM     12  C   UNL d   1       1.070   0.758   0.068  0.00  0.00     0.059 A 
ATOM     13  S   UNL d   1       1.290  -0.931   0.052  0.00  0.00    -0.078 SA
ATOM     14  C   UNL d   1      -0.402  -1.240   0.020  0.00  0.00     0.051 A 
ATOM     15  C   UNL d   1      -1.113  -0.052   0.014  0.00  0.00     0.025 A 
ATOM     16  C   UNL d   1      -0.263   1.099   0.041  0.00  0.00     0.029 A 
BRANCH  14  17
ATOM     17  C   UNL d   1      -0.851  -2.630   0.005  0.00  0.00     0.162 C 
ATOM     18  O   UNL d   1      -0.082  -3.595   0.001  0.00  0.00    -0.292 OA
ATOM     19  C   UNL d   1      -2.335  -2.914  -0.002  0.00  0.00     0.097 C 
ENDBRANCH  14  17
ENDBRANCH   1  12
TORSDOF 6
