REMARK  5 active torsions:
REMARK  status: ('A' for Active; 'I' for Inactive)
REMARK    1  A    between atoms: C_5  and  N_1 
REMARK    2  A    between atoms: S_2  and  C_7 
REMARK    3  A    between atoms: N_11  and  S_2 
REMARK    4  A    between atoms: C_21  and  N_11 
REMARK    5  A    between atoms: C_20  and  C_21 
ROOT
ATOM      1  C   UNL d   1       2.837  -1.626   0.121  0.00  0.00     0.067 A 
ATOM      2  C   UNL d   1       5.056  -3.328   0.338  0.00  0.00     0.076 A 
ATOM      3  C   UNL d   1       3.083  -2.602  -0.858  0.00  0.00     0.062 A 
ATOM      4  C   UNL d   1       4.204  -3.429  -0.763  0.00  0.00     0.051 A 
ATOM      5  C   UNL d   1       3.729  -1.501   1.200  0.00  0.00     0.033 A 
ATOM      6  C   UNL d   1       4.822  -2.363   1.321  0.00  0.00     0.027 A 
ATOM      7 CL   UNL d   1       2.116  -2.741  -2.286  0.00  0.00    -0.082 Cl
ENDROOT
BRANCH   2   8
ATOM      8  S   UNL d   1       6.494  -4.372   0.451  0.00  0.00     0.241 S 
ATOM      9  O   UNL d   1       7.241  -4.204  -0.774  0.00  0.00    -0.206 OA
ATOM     10  O   UNL d   1       7.077  -4.144   1.752  0.00  0.00    -0.206 OA
BRANCH   8  11
ATOM     11  N   UNL d   1       5.847  -5.930   0.488  0.00  0.00    -0.211 NA
ATOM     12  H   UNL d   1       5.029  -6.000   1.094  0.00  0.00     0.140 HD
BRANCH  11  13
ATOM     13  C   UNL d   1       5.704  -6.619  -0.804  0.00  0.00     0.144 C 
BRANCH  13  14
ATOM     14  C   UNL d   1       5.101  -7.984  -0.645  0.00  0.00    -0.029 A 
ATOM     15  C   UNL d   1       3.901  -8.316  -1.270  0.00  0.00     0.096 A 
ATOM     16  N   UNL d   1       3.301  -9.521  -1.166  0.00  0.00    -0.375 N 
ATOM     17  C   UNL d   1       3.929 -10.448  -0.411  0.00  0.00     0.087 A 
ATOM     18  HN  UNL d   1       2.418  -9.721  -1.635  1.00  0.00     0.164 HD
ATOM     19  C   UNL d   1       5.130 -10.225   0.240  0.00  0.00     0.018 A 
ATOM     20  C   UNL d   1       5.724  -8.973   0.119  0.00  0.00     0.011 A 
ENDBRANCH  13  14
ENDBRANCH  11  13
ENDBRANCH   8  11
ENDBRANCH   2   8
BRANCH   1  21
ATOM     21  N   UNL d   1       1.732  -0.758   0.041  0.00  0.00    -0.250 N 
ATOM     22  C   UNL d   1       1.845   0.606  -0.000  0.00  0.00     0.232 C 
ATOM     23  C   UNL d   1       0.473   1.202  -0.133  0.00  0.00     0.123 C 
ATOM     24  O   UNL d   1       2.873   1.271   0.014  0.00  0.00    -0.273 OA
ATOM     25  C   UNL d   1      -0.477   0.018   0.051  0.00  0.00     0.050 C 
ATOM     26  C   UNL d   1       0.432  -1.192   0.092  0.00  0.00     0.240 C 
ATOM     27  C   UNL d   1      -1.534  -0.107  -1.044  0.00  0.00     0.020 C 
ATOM     28  C   UNL d   1      -1.315   0.128   1.329  0.00  0.00     0.020 C 
ATOM     29  O   UNL d   1       0.045  -2.343   0.246  0.00  0.00    -0.272 OA
ATOM     30  C   UNL d   1      -2.692   0.772  -0.588  0.00  0.00     0.001 C 
ATOM     31  C   UNL d   1      -2.561   0.910   0.926  0.00  0.00     0.001 C 
ENDBRANCH   1  21
TORSDOF 5
