REMARK  4 active torsions:
REMARK  status: ('A' for Active; 'I' for Inactive)
REMARK    1  A    between atoms: C_5  and  C_1 
REMARK    2  A    between atoms: C_11  and  N_2 
REMARK    3  A    between atoms: S_12  and  C_6 
REMARK    4  A    between atoms: C_9  and  C_10 
ROOT
ATOM      1  C   UNL d   1      -0.105  -1.313   0.123  0.00  0.00     0.141 A 
ATOM      2  N   UNL d   1       1.134  -0.667   0.015  0.00  0.00    -0.275 N 
ATOM      3  N   UNL d   1      -1.050  -0.403   0.271  0.00  0.00    -0.282 N 
ATOM      4  HN  UNL d   1      -2.046  -0.594   0.378  1.00  0.00     0.188 HD
ATOM      5  C   UNL d   1       0.814   0.680   0.082  0.00  0.00     0.165 A 
ATOM      6  N   UNL d   1      -0.476   0.836   0.256  0.00  0.00    -0.278 N 
ATOM      7  HN  UNL d   1      -0.964   1.725   0.362  1.00  0.00     0.189 HD
ENDROOT
BRANCH   1   8
ATOM      8  C   UNL d   1      -0.370  -2.752   0.198  0.00  0.00     0.040 A 
ATOM      9  C   UNL d   1      -1.374  -3.384  -0.557  0.00  0.00     0.064 A 
ATOM     10  C   UNL d   1      -1.579  -4.766  -0.382  0.00  0.00     0.034 A 
ATOM     11  C   UNL d   1      -0.787  -5.463   0.512  0.00  0.00     0.088 A 
ATOM     12  N   UNL d   1       0.174  -4.882   1.252  0.00  0.00    -0.374 N 
ATOM     13  C   UNL d   1       0.343  -3.548   1.096  0.00  0.00     0.103 A 
ATOM     14  HN  UNL d   1       0.748  -5.421   1.900  1.00  0.00     0.164 HD
BRANCH   9  15
ATOM     15  C   UNL d   1      -2.278  -2.654  -1.523  0.00  0.00     0.418 C 
ATOM     16  F   UNL d   1      -1.710  -1.578  -2.128  0.00  0.00    -0.166 F 
ATOM     17  F   UNL d   1      -2.666  -3.464  -2.555  0.00  0.00    -0.166 F 
ATOM     18  F   UNL d   1      -3.433  -2.231  -0.945  0.00  0.00    -0.166 F 
ENDBRANCH   9  15
ENDBRANCH   1   8
BRANCH   2  19
ATOM     19  C   UNL d   1       2.422  -1.267  -0.102  0.00  0.00     0.043 A 
ATOM     20  C   UNL d   1       2.611  -2.393  -0.917  0.00  0.00     0.032 A 
ATOM     21  C   UNL d   1       3.864  -3.013  -0.979  0.00  0.00     0.026 A 
ATOM     22  C   UNL d   1       4.930  -2.507  -0.236  0.00  0.00     0.034 A 
ATOM     23  C   UNL d   1       4.756  -1.385   0.567  0.00  0.00     0.026 A 
ATOM     24 CL   UNL d   1       6.463  -3.281  -0.302  0.00  0.00    -0.084 Cl
ATOM     25  C   UNL d   1       3.504  -0.764   0.641  0.00  0.00     0.032 A 
ENDBRANCH   2  19
BRANCH   5  26
ATOM     26  S   UNL d   1       1.888   2.012  -0.213  0.00  0.00    -0.105 SA
ATOM     27  H   UNL d   1       2.855   1.374  -0.887  0.00  0.00     0.110 HD
ENDBRANCH   5  26
TORSDOF 4
