REMARK  2 active torsions:
REMARK  status: ('A' for Active; 'I' for Inactive)
REMARK    1  A    between atoms: C_2  and  C_1 
REMARK       I    between atoms: N_3  and  C_1 
REMARK    2  A    between atoms: C_12  and  N_3 
ROOT
ATOM      1  C   UNL d   1       0.345  -1.197  -0.562  0.00  0.00     0.033 A 
ATOM      2  C   UNL d   1      -0.734  -1.060  -1.446  0.00  0.00     0.030 A 
ATOM      3  C   UNL d   1      -1.478  -2.180  -1.852  0.00  0.00    -0.009 A 
ATOM      4  N   UNL d   1      -1.833  -4.562  -1.727  0.00  0.00    -0.365 N 
ATOM      5  HN  UNL d   1      -1.557  -5.486  -1.393  1.00  0.00     0.165 HD
ATOM      6  C   UNL d   1      -1.131  -3.467  -1.391  0.00  0.00     0.042 A 
ATOM      7  C   UNL d   1       0.696  -2.471  -0.112  0.00  0.00     0.019 A 
ATOM      8  C   UNL d   1      -0.038  -3.586  -0.540  0.00  0.00     0.031 A 
ATOM      9  C   UNL d   1      -2.916  -4.403  -2.521  0.00  0.00     0.088 A 
ATOM     10  C   UNL d   1      -2.593  -2.057  -2.690  0.00  0.00     0.015 A 
ATOM     11  C   UNL d   1      -3.331  -3.185  -3.025  0.00  0.00     0.018 A 
ENDROOT
BRANCH   1  12
ATOM     12  C   UNL d   1       1.003   0.046  -0.066  0.00  0.00     0.256 C 
ATOM     13  N   UNL d   1       2.326  -0.069   0.321  0.00  0.00    -0.323 N 
ATOM     14  H   UNL d   1       2.798  -0.942   0.124  0.00  0.00     0.169 HD
ATOM     15  O   UNL d   1       0.328   1.071  -0.055  0.00  0.00    -0.267 OA
BRANCH  13  16
ATOM     16  C   UNL d   1       3.134   0.952   0.872  0.00  0.00     0.035 A 
ATOM     17  C   UNL d   1       2.661   2.224   1.202  0.00  0.00     0.029 A 
ATOM     18  C   UNL d   1       3.525   3.197   1.717  0.00  0.00     0.002 A 
ATOM     19  C   UNL d   1       4.870   2.901   1.918  0.00  0.00     0.000 A 
ATOM     20  C   UNL d   1       5.348   1.629   1.617  0.00  0.00     0.002 A 
ATOM     21  C   UNL d   1       4.484   0.658   1.100  0.00  0.00     0.029 A 
ENDBRANCH  13  16
ENDBRANCH   1  12
TORSDOF 2
