REMARK  5 active torsions:
REMARK  status: ('A' for Active; 'I' for Inactive)
REMARK    1  A    between atoms: C_4  and  S_1 
REMARK    2  A    between atoms: C_20  and  S_1 
REMARK       I    between atoms: C_2  and  N_5 
REMARK       I    between atoms: N_7  and  C_2 
REMARK    3  A    between atoms: N_5  and  C_3 
REMARK    4  A    between atoms: C_13  and  N_7 
REMARK    5  A    between atoms: O_22  and  C_12 
ROOT
ATOM      1  C   UNL d   1      -2.814  -2.483  -3.297  0.00  0.00     0.325 C 
ATOM      2  N   UNL d   1      -1.589  -3.096  -3.153  0.00  0.00    -0.306 N 
ATOM      3  N   UNL d   1      -3.665  -3.205  -4.115  0.00  0.00    -0.309 N 
ATOM      4  O   UNL d   1      -3.119  -1.429  -2.751  0.00  0.00    -0.247 OA
ATOM      5  H   UNL d   1      -1.433  -3.981  -3.619  0.00  0.00     0.171 HD
ATOM      6  H   UNL d   1      -3.443  -4.182  -4.246  0.00  0.00     0.170 HD
ENDROOT
BRANCH   2   7
ATOM      7  C   UNL d   1      -0.549  -2.719  -2.272  0.00  0.00     0.071 C 
ATOM      8  C   UNL d   1      -0.493  -1.497  -1.590  0.00  0.00     0.055 C 
ATOM      9  C   UNL d   1       0.517  -1.289  -0.645  0.00  0.00     0.061 C 
ATOM     10  C   UNL d   1       1.431  -2.304  -0.339  0.00  0.00     0.026 C 
ATOM     11  C   UNL d   1       1.431  -3.483  -1.079  0.00  0.00     0.040 C 
ATOM     12  C   UNL d   1       0.470  -3.659  -2.072  0.00  0.00     0.092 C 
BRANCH   9  13
ATOM     13  S   UNL d   1       0.795   0.317   0.071  0.00  0.00     0.175 S 
ATOM     14  O   UNL d   1       1.340   1.129  -1.005  0.00  0.00    -0.223 OA
ATOM     15  O   UNL d   1       1.558   0.099   1.286  0.00  0.00    -0.223 OA
BRANCH  13  16
ATOM     16  C   UNL d   1      -0.766   1.004   0.557  0.00  0.00     0.141 C 
ATOM     17  C   UNL d   1      -0.565   2.399   1.140  0.00  0.00     0.021 C 
ENDBRANCH  13  16
ENDBRANCH   9  13
BRANCH  12  18
ATOM     18  O   UNL d   1       0.511  -4.772  -2.875  0.00  0.00    -0.358 OA
ATOM     19  H   UNL d   1       1.422  -5.117  -2.849  0.00  0.00     0.217 HD
ENDBRANCH  12  18
ENDBRANCH   2   7
BRANCH   3  20
ATOM     20  C   UNL d   1      -4.847  -2.728  -4.714  0.00  0.00     0.038 A 
ATOM     21  C   UNL d   1      -5.197  -1.377  -4.737  0.00  0.00     0.054 A 
ATOM     22  C   UNL d   1      -6.262  -0.926  -5.524  0.00  0.00     0.042 A 
ATOM     23 CL   UNL d   1      -6.581   0.772  -5.550  0.00  0.00    -0.084 Cl
ATOM     24  C   UNL d   1      -7.005  -1.823  -6.299  0.00  0.00    -0.040 A 
ATOM     25  C   UNL d   1      -6.729  -3.194  -6.185  0.00  0.00     0.011 A 
ATOM     26  C   UNL d   1      -8.029  -1.344  -7.288  0.00  0.00     0.050 C 
ATOM     27  C   UNL d   1      -5.657  -3.642  -5.405  0.00  0.00     0.030 A 
ENDBRANCH   3  20
TORSDOF 5
