REMARK  3 active torsions:
REMARK  status: ('A' for Active; 'I' for Inactive)
REMARK    1  A    between atoms: C_8  and  N_2 
REMARK    2  A    between atoms: N_6  and  C_8 
REMARK       I    between atoms: C_9  and  N_6 
REMARK    3  A    between atoms: C_11  and  C_9 
ROOT
ATOM      1  C   UNL d   1       2.175  -2.420   0.022  0.00  0.00     0.271 C 
ENDROOT
BRANCH   1   2
ATOM      2  N   UNL d   1       3.617  -2.477   0.107  0.00  0.00    -0.339 N 
ATOM      3  C   UNL d   1       4.274  -3.682   0.119  0.00  0.00     0.252 C 
ATOM      4  O   UNL d   1       3.691  -4.756   0.062  0.00  0.00    -0.268 OA
ATOM      5  H   UNL d   1       4.116  -1.611  -0.062  0.00  0.00     0.164 HD
BRANCH   3   6
ATOM      6  C   UNL d   1       5.760  -3.611   0.154  0.00  0.00     0.032 A 
ATOM      7  C   UNL d   1       6.426  -2.544   0.772  0.00  0.00     0.017 A 
ATOM      8  C   UNL d   1       7.820  -2.479   0.738  0.00  0.00     0.001 A 
ATOM      9  C   UNL d   1       8.550  -3.482   0.101  0.00  0.00     0.000 A 
ATOM     10  C   UNL d   1       7.892  -4.565  -0.483  0.00  0.00     0.001 A 
ATOM     11  C   UNL d   1       6.498  -4.635  -0.451  0.00  0.00     0.017 A 
ENDBRANCH   3   6
ENDBRANCH   1   2
BRANCH   1  12
ATOM     12  N   UNL d   1       1.601  -1.083   0.018  0.00  0.00    -0.256 N 
ATOM     13  N   UNL d   1       2.397   0.008   0.092  0.00  0.00    -0.018 NA
ATOM     14  N   UNL d   1       1.611   1.076   0.067  0.00  0.00    -0.282 N 
ATOM     15  C   UNL d   1       0.313   0.649  -0.034  0.00  0.00     0.074 A 
ATOM     16  HN  UNL d   1       1.919   2.048   0.113  1.00  0.00     0.184 HD
ATOM     17  C   UNL d   1      -0.886   1.374  -0.099  0.00  0.00     0.033 A 
ATOM     18  C   UNL d   1       0.278  -0.740  -0.072  0.00  0.00     0.078 A 
ATOM     19  C   UNL d   1      -2.090   0.666  -0.204  0.00  0.00     0.002 A 
ATOM     20  C   UNL d   1      -2.099  -0.731  -0.245  0.00  0.00     0.002 A 
ATOM     21  C   UNL d   1      -0.911  -1.470  -0.180  0.00  0.00     0.033 A 
ENDBRANCH   1  12
TORSDOF 3
