REMARK  7 active torsions:
REMARK  status: ('A' for Active; 'I' for Inactive)
REMARK    1  A    between atoms: C_6  and  S_1 
REMARK    2  A    between atoms: N_10  and  S_1 
REMARK    3  A    between atoms: C_2  and  C_9 
REMARK       I    between atoms: C_9  and  N_12 
REMARK    4  A    between atoms: N_12  and  N_10 
REMARK       I    between atoms: C_14  and  N_19 
REMARK    5  A    between atoms: C_25  and  C_14 
REMARK    6  A    between atoms: C_27  and  C_15 
REMARK    7  A    between atoms: N_19  and  C_27 
ROOT
ATOM      1  S   UNL d   1       1.176  -0.068   0.110  0.00  0.00     0.282 S 
ATOM      2  O   UNL d   1       0.576   1.180  -0.316  0.00  0.00    -0.198 OA
ATOM      3  O   UNL d   1       2.615  -0.230   0.134  0.00  0.00    -0.198 OA
ENDROOT
BRANCH   1   4
ATOM      4  C   UNL d   1       0.582  -1.317  -0.999  0.00  0.00     0.122 A 
ATOM      5  S   UNL d   1      -1.117  -1.488  -1.115  0.00  0.00    -0.080 SA
ATOM      6  C   UNL d   1      -0.987  -2.686  -2.334  0.00  0.00     0.002 A 
ATOM      7  C   UNL d   1       0.334  -3.005  -2.586  0.00  0.00     0.018 A 
ATOM      8  C   UNL d   1       1.237  -2.210  -1.824  0.00  0.00     0.034 A 
BRANCH   6   9
ATOM      9  C   UNL d   1      -2.204  -3.236  -3.010  0.00  0.00     0.169 C 
BRANCH   9  10
ATOM     10  N   UNL d   1      -2.671  -4.398  -2.294  0.00  0.00    -0.352 N 
ATOM     11  C   UNL d   1      -2.248  -5.670  -2.617  0.00  0.00     0.251 C 
ATOM     12  O   UNL d   1      -1.467  -5.917  -3.529  0.00  0.00    -0.268 OA
ATOM     13  H   UNL d   1      -3.143  -4.244  -1.415  0.00  0.00     0.163 HD
BRANCH  11  14
ATOM     14  C   UNL d   1      -2.763  -6.758  -1.745  0.00  0.00     0.032 A 
ATOM     15  C   UNL d   1      -4.024  -6.679  -1.140  0.00  0.00     0.017 A 
ATOM     16  C   UNL d   1      -4.443  -7.689  -0.271  0.00  0.00     0.001 A 
ATOM     17  C   UNL d   1      -3.615  -8.782  -0.021  0.00  0.00     0.000 A 
ATOM     18  C   UNL d   1      -2.376  -8.883  -0.655  0.00  0.00     0.001 A 
ATOM     19  C   UNL d   1      -1.951  -7.876  -1.522  0.00  0.00     0.017 A 
ENDBRANCH  11  14
ENDBRANCH   9  10
ENDBRANCH   6   9
ENDBRANCH   1   4
BRANCH   1  20
ATOM     20  N   UNL d   1       0.604  -0.408   1.656  0.00  0.00    -0.220 N 
ATOM     21  H   UNL d   1       0.104  -1.282   1.845  0.00  0.00     0.200 HD
BRANCH  20  22
ATOM     22  N   UNL d   1       0.909   0.500   2.745  0.00  0.00    -0.255 N 
ATOM     23  C   UNL d   1       0.513   0.190   4.034  0.00  0.00     0.289 C 
ATOM     24  O   UNL d   1      -0.135  -0.835   4.256  0.00  0.00    -0.264 OA
ATOM     25  H   UNL d   1       1.491   1.302   2.527  0.00  0.00     0.191 HD
BRANCH  23  26
ATOM     26  C   UNL d   1       0.950   1.112   5.058  0.00  0.00     0.132 A 
ATOM     27  N   UNL d   1       1.175   0.763   6.387  0.00  0.00    -0.302 N 
ATOM     28  C   UNL d   1       1.643   1.906   7.033  0.00  0.00     0.112 A 
ATOM     29  C   UNL d   1       1.010  -0.455   7.055  0.00  0.00     0.099 A 
ATOM     30  C   UNL d   1       1.982   1.797   8.412  0.00  0.00     0.049 A 
ATOM     31  N   UNL d   1       1.672   2.939   6.225  0.00  0.00    -0.344 N 
ATOM     32  C   UNL d   1       1.813   0.623   9.055  0.00  0.00     0.005 A 
ATOM     33  C   UNL d   1       1.303  -0.548   8.362  0.00  0.00     0.018 A 
ATOM     34  C   UNL d   1       1.203   2.480   5.017  0.00  0.00     0.040 A 
ATOM     35  HN  UNL d   1       1.979   3.886   6.447  1.00  0.00     0.167 HD
ATOM     36  C   UNL d   1       0.987   3.468   3.929  0.00  0.00     0.071 C 
ENDBRANCH  23  26
ENDBRANCH  20  22
ENDBRANCH   1  20
TORSDOF 7
