REMARK  4 active torsions:
REMARK  status: ('A' for Active; 'I' for Inactive)
REMARK       I    between atoms: N_4  and  C_1 
REMARK    1  A    between atoms: O_7  and  C_1 
REMARK    2  A    between atoms: C_2  and  C_3 
REMARK    3  A    between atoms: N_12  and  C_3 
REMARK    4  A    between atoms: N_5  and  O_7 
ROOT
ATOM      1  C   UNL d   1      -1.657  -2.210   0.746  0.00  0.00     0.112 C 
ATOM      2  N   UNL d   1      -0.949  -1.252   0.231  0.00  0.00    -0.244 N 
ATOM      3  HN  UNL d   1       0.070  -1.221   0.271  1.00  0.00     0.196 HD
ENDROOT
BRANCH   1   4
ATOM      4  C   UNL d   1      -0.935  -3.278   1.527  0.00  0.00     0.047 A 
ATOM      5  C   UNL d   1       0.127  -2.948   2.398  0.00  0.00     0.049 A 
ATOM      6 CL   UNL d   1       0.660  -1.331   2.716  0.00  0.00    -0.083 Cl
ATOM      7  C   UNL d   1       0.792  -3.945   3.132  0.00  0.00     0.025 A 
ATOM      8  C   UNL d   1       0.404  -5.277   3.034  0.00  0.00     0.003 A 
ATOM      9  C   UNL d   1      -0.642  -5.620   2.185  0.00  0.00     0.025 A 
ATOM     10  C   UNL d   1      -1.299  -4.636   1.428  0.00  0.00     0.049 A 
ATOM     11 CL   UNL d   1      -2.534  -5.221   0.359  0.00  0.00    -0.083 Cl
ENDBRANCH   1   4
BRANCH   1  12
ATOM     12  N   UNL d   1      -3.027  -2.274   0.600  0.00  0.00    -0.286 NA
ATOM     13  H   UNL d   1      -3.414  -3.210   0.523  0.00  0.00     0.125 HD
ATOM     14  H   UNL d   1      -3.351  -1.674  -0.149  0.00  0.00     0.125 HD
ENDBRANCH   1  12
BRANCH   2  15
ATOM     15  O   UNL d   1      -1.737  -0.255  -0.392  0.00  0.00    -0.180 OA
BRANCH  15  16
ATOM     16  C   UNL d   1      -0.945   0.841  -0.682  0.00  0.00     0.385 C 
ATOM     17  N   UNL d   1      -1.637   1.899  -1.252  0.00  0.00    -0.322 N 
ATOM     18  C   UNL d   1      -0.905   3.081  -1.698  0.00  0.00     0.154 C 
ATOM     19  C   UNL d   1      -3.056   1.896  -1.597  0.00  0.00     0.154 C 
ATOM     20  C   UNL d   1      -1.636   4.358  -1.278  0.00  0.00     0.187 C 
ATOM     21  O   UNL d   1      -2.996   4.347  -1.744  0.00  0.00    -0.388 OA
ATOM     22  C   UNL d   1      -3.710   3.226  -1.198  0.00  0.00     0.187 C 
ATOM     23  O   UNL d   1       0.265   0.905  -0.461  0.00  0.00    -0.236 OA
ENDBRANCH  15  16
ENDBRANCH   2  15
TORSDOF 4
