REMARK  2 active torsions:
REMARK  status: ('A' for Active; 'I' for Inactive)
REMARK    1  A    between atoms: C_9  and  N_1 
REMARK    2  A    between atoms: C_8  and  C_5 
ROOT
ATOM      1  N   UNL d   1       2.341  -0.647  -0.004  0.00  0.00    -0.220 N 
ATOM      2  N   UNL d   1       2.315   0.729   0.088  0.00  0.00    -0.289 N 
ATOM      3  HN  UNL d   1       3.190   1.248   0.162  1.00  0.00     0.188 HD
ATOM      4  C   UNL d   1       1.190  -1.437   0.066  0.00  0.00     0.278 C 
ATOM      5  C   UNL d   1       1.184   1.370   0.082  0.00  0.00     0.070 C 
ATOM      6  C   UNL d   1      -0.098  -0.720   0.041  0.00  0.00     0.046 A 
ATOM      7  C   UNL d   1      -0.124   0.665  -0.038  0.00  0.00     0.009 A 
ATOM      8  O   UNL d   1       1.145  -2.667   0.142  0.00  0.00    -0.265 OA
ATOM      9  C   UNL d   1      -1.294  -1.459   0.027  0.00  0.00     0.018 A 
ATOM     10  C   UNL d   1      -1.357   1.303  -0.242  0.00  0.00     0.015 A 
ATOM     11  C   UNL d   1      -2.519  -0.810  -0.092  0.00  0.00     0.001 A 
ATOM     12  C   UNL d   1      -2.549   0.571  -0.244  0.00  0.00     0.001 A 
ENDROOT
BRANCH   5  13
ATOM     13  C   UNL d   1       1.266   2.867   0.177  0.00  0.00    -0.004 A 
ATOM     14  C   UNL d   1       2.328   3.516  -0.474  0.00  0.00     0.037 A 
ATOM     15  C   UNL d   1       2.402   4.909  -0.473  0.00  0.00     0.036 A 
ATOM     16 CL   UNL d   1       3.703   5.696  -1.278  0.00  0.00    -0.084 Cl
ATOM     17  C   UNL d   1       1.424   5.672   0.159  0.00  0.00     0.047 A 
ATOM     18  C   UNL d   1       0.402   5.026   0.846  0.00  0.00     0.036 A 
ATOM     19  C   UNL d   1       0.342   3.632   0.895  0.00  0.00     0.037 A 
ATOM     20 CL   UNL d   1      -0.826   5.954   1.617  0.00  0.00    -0.084 Cl
ENDBRANCH   5  13
BRANCH   1  21
ATOM     21  C   UNL d   1       3.655  -1.206  -0.163  0.00  0.00     0.060 A 
ATOM     22  C   UNL d   1       3.857  -2.471  -0.738  0.00  0.00     0.031 A 
ATOM     23  C   UNL d   1       5.141  -3.003  -0.900  0.00  0.00     0.002 A 
ATOM     24  C   UNL d   1       6.251  -2.281  -0.478  0.00  0.00     0.000 A 
ATOM     25  C   UNL d   1       6.079  -1.022   0.088  0.00  0.00     0.002 A 
ATOM     26  C   UNL d   1       4.793  -0.483   0.230  0.00  0.00     0.031 A 
ENDBRANCH   1  21
TORSDOF 2
