REMARK  3 active torsions:
REMARK  status: ('A' for Active; 'I' for Inactive)
REMARK    1  A    between atoms: N_7  and  C_1 
REMARK    2  A    between atoms: C_9  and  C_4 
REMARK       I    between atoms: C_8  and  N_7 
REMARK       I    between atoms: N_12  and  C_8 
REMARK    3  A    between atoms: C_18  and  N_12 
ROOT
ATOM      1  C   UNL d   1      -1.217   0.346  -0.432  0.00  0.00     0.153 C 
ATOM      2  N   UNL d   1      -1.075  -0.934  -0.663  0.00  0.00    -0.335 N 
ATOM      3  HN  UNL d   1      -1.815  -1.571  -0.959  1.00  0.00     0.168 HD
ATOM      4  C   UNL d   1       0.263  -1.282  -0.434  0.00  0.00     0.057 C 
ATOM      5  S   UNL d   1       0.194   1.232  -0.087  0.00  0.00    -0.057 SA
ATOM      6  C   UNL d   1       1.119  -0.208  -0.210  0.00  0.00     0.010 C 
ATOM      7  C   UNL d   1       2.597  -0.131  -0.029  0.00  0.00     0.059 C 
ENDROOT
BRANCH   1   8
ATOM      8  N   UNL d   1      -2.335   1.117  -0.389  0.00  0.00    -0.288 N 
ATOM      9  C   UNL d   1      -3.618   0.794  -0.685  0.00  0.00     0.326 C 
ATOM     10  N   UNL d   1      -3.858  -0.398  -1.310  0.00  0.00    -0.309 N 
ATOM     11  O   UNL d   1      -4.459   1.655  -0.417  0.00  0.00    -0.247 OA
ATOM     12  H   UNL d   1      -3.046  -0.987  -1.455  0.00  0.00     0.170 HD
ATOM     13  H   UNL d   1      -2.223   2.057  -0.042  0.00  0.00     0.172 HD
BRANCH  10  14
ATOM     14  C   UNL d   1      -5.099  -0.846  -1.823  0.00  0.00     0.036 A 
ATOM     15  C   UNL d   1      -6.309  -0.166  -1.644  0.00  0.00     0.029 A 
ATOM     16  C   UNL d   1      -7.500  -0.656  -2.191  0.00  0.00     0.002 A 
ATOM     17  C   UNL d   1      -7.497  -1.831  -2.931  0.00  0.00     0.000 A 
ATOM     18  C   UNL d   1      -6.300  -2.519  -3.122  0.00  0.00     0.002 A 
ATOM     19  C   UNL d   1      -5.109  -2.032  -2.568  0.00  0.00     0.029 A 
ENDBRANCH  10  14
ENDBRANCH   1   8
BRANCH   4  20
ATOM     20  C   UNL d   1       0.664  -2.688  -0.401  0.00  0.00    -0.007 A 
ATOM     21  C   UNL d   1       0.068  -3.610  -1.268  0.00  0.00     0.038 A 
ATOM     22  C   UNL d   1       0.364  -4.976  -1.168  0.00  0.00     0.040 A 
ATOM     23 CL   UNL d   1      -0.439  -6.056  -2.253  0.00  0.00    -0.084 Cl
ATOM     24  C   UNL d   1       1.265  -5.451  -0.202  0.00  0.00    -0.040 A 
ATOM     25  C   UNL d   1       1.875  -4.524   0.651  0.00  0.00     0.009 A 
ATOM     26  C   UNL d   1       1.550  -6.916  -0.018  0.00  0.00     0.050 C 
ATOM     27  C   UNL d   1       1.570  -3.163   0.558  0.00  0.00     0.014 A 
ENDBRANCH   4  20
TORSDOF 3
