REMARK  8 active torsions:
REMARK  status: ('A' for Active; 'I' for Inactive)
REMARK    1  A    between atoms: N_6  and  C_2 
REMARK    2  A    between atoms: C_16  and  C_3 
REMARK    3  A    between atoms: C_20  and  N_12 
REMARK    4  A    between atoms: C_26  and  C_20 
REMARK    5  A    between atoms: C_21  and  O_25 
REMARK    6  A    between atoms: O_25  and  C_29 
REMARK    7  A    between atoms: C_29  and  C_26 
REMARK    8  A    between atoms: O_31  and  C_26 
ROOT
ATOM      1  N   UNL d   1       2.045   2.730   0.438  0.00  0.00    -0.265 NA
ATOM      2  N   UNL d   1       2.946   5.550   0.036  0.00  0.00     0.093 N 
ATOM      3  C   UNL d   1       2.930   3.092  -0.695  0.00  0.00     0.127 C 
ATOM      4  C   UNL d   1       1.134   3.844   0.777  0.00  0.00     0.127 C 
ATOM      5  C   UNL d   1       3.756   4.350  -0.331  0.00  0.00     0.287 C 
ATOM      6  C   UNL d   1       1.972   5.128   1.077  0.00  0.00     0.287 C 
ENDROOT
BRANCH   1   7
ATOM      7  C   UNL d   1       1.391   1.503   0.217  0.00  0.00     0.097 A 
ATOM      8  C   UNL d   1       1.121   0.529   1.230  0.00  0.00     0.048 A 
ATOM      9  C   UNL d   1       1.177   0.474   2.694  0.00  0.00    -0.003 A 
ATOM     10  C   UNL d   1       0.691  -0.706   0.743  0.00  0.00     0.089 A 
ATOM     11  C   UNL d   1       0.898  -0.803   3.167  0.00  0.00     0.065 A 
ATOM     12  S   UNL d   1       0.475  -1.893   1.939  0.00  0.00    -0.082 SA
ATOM     13  N   UNL d   1       0.455  -1.052  -0.532  0.00  0.00    -0.346 N 
ATOM     14  C   UNL d   1       0.689  -0.060  -1.379  0.00  0.00     0.182 A 
ATOM     15  HN  UNL d   1       0.131  -1.976  -0.818  1.00  0.00     0.167 HD
ATOM     16  N   UNL d   1       1.140   1.160  -1.079  0.00  0.00    -0.342 N 
ATOM     17  HN  UNL d   1       1.297   1.840  -1.823  1.00  0.00     0.167 HD
BRANCH   9  18
ATOM     18  C   UNL d   1       1.386   1.544   3.685  0.00  0.00    -0.024 A 
ATOM     19  C   UNL d   1       0.555   1.629   4.820  0.00  0.00     0.012 A 
ATOM     20  C   UNL d   1       0.645   2.707   5.705  0.00  0.00     0.001 A 
ATOM     21  C   UNL d   1       1.558   3.725   5.460  0.00  0.00     0.000 A 
ATOM     22  C   UNL d   1       2.430   3.622   4.383  0.00  0.00     0.001 A 
ATOM     23  C   UNL d   1       2.366   2.521   3.518  0.00  0.00     0.012 A 
ENDBRANCH   9  18
ENDBRANCH   1   7
BRANCH   2  24
ATOM     24  C   UNL d   1       2.301   6.115  -1.161  0.00  0.00     0.306 C 
BRANCH  24  25
ATOM     25  C   UNL d   1       1.482   7.416  -0.998  0.00  0.00     0.170 C 
BRANCH  25  26
ATOM     26  C   UNL d   1       2.287   8.616  -0.462  0.00  0.00     0.209 C 
BRANCH  26  27
ATOM     27  O   UNL d   1       1.392   9.743  -0.378  0.00  0.00    -0.349 OA
BRANCH  27  28
ATOM     28  C   UNL d   1       1.903  10.921   0.086  0.00  0.00     0.070 A 
ATOM     29  C   UNL d   1       1.290  12.082  -0.405  0.00  0.00     0.062 A 
ATOM     30  C   UNL d   1       1.696  13.342   0.037  0.00  0.00     0.058 A 
ATOM     31 CL   UNL d   1       0.898  14.728  -0.627  0.00  0.00    -0.082 Cl
ATOM     32  C   UNL d   1       2.711  13.456   0.987  0.00  0.00     0.056 A 
ATOM     33  C   UNL d   1       3.314  12.294   1.492  0.00  0.00     0.028 A 
ATOM     34 CL   UNL d   1       3.265  14.974   1.592  0.00  0.00    -0.083 Cl
ATOM     35  C   UNL d   1       2.908  11.034   1.044  0.00  0.00     0.038 A 
ENDBRANCH  27  28
ENDBRANCH  26  27
ENDBRANCH  25  26
BRANCH  25  36
ATOM     36  O   UNL d   1       0.924   7.727  -2.290  0.00  0.00    -0.392 OA
ATOM     37  H   UNL d   1       1.652   8.001  -2.872  0.00  0.00     0.210 HD
ENDBRANCH  25  36
ENDBRANCH  24  25
ENDBRANCH   2  24
TORSDOF 8
