REMARK  2 active torsions:
REMARK  status: ('A' for Active; 'I' for Inactive)
REMARK    1  A    between atoms: C_6  and  C_1 
REMARK    2  A    between atoms: O_10  and  C_6 
ROOT
ATOM      1  C   UNL d   1       2.427  -0.998   0.016  0.00  0.00     0.080 A 
ATOM      2  S   UNL d   1       2.159   0.689   0.016  0.00  0.00    -0.083 SA
ATOM      3  C   UNL d   1       1.230  -1.689   0.005  0.00  0.00     0.038 A 
ATOM      4  C   UNL d   1       0.076  -0.833   0.002  0.00  0.00    -0.017 A 
ATOM      5  C   UNL d   1       0.451   0.511   0.008  0.00  0.00     0.016 A 
ATOM      6  C   UNL d   1      -1.307  -1.141  -0.006  0.00  0.00     0.019 A 
ATOM      7  C   UNL d   1      -0.501   1.544   0.008  0.00  0.00     0.020 A 
ATOM      8  C   UNL d   1      -2.271  -0.119  -0.004  0.00  0.00    -0.061 A 
ATOM      9  C   UNL d   1      -1.857   1.212   0.004  0.00  0.00     0.008 A 
ATOM     10  C   UNL d   1      -3.737  -0.439  -0.006  0.00  0.00     0.048 C 
ENDROOT
BRANCH   1  11
ATOM     11  C   UNL d   1       3.765  -1.561   0.028  0.00  0.00     0.183 C 
ATOM     12  O   UNL d   1       4.028  -2.756   0.033  0.00  0.00    -0.646 OA
BRANCH  11  13
ATOM     13  O   UNL d   1       4.744  -0.618   0.035  0.00  0.00    -0.772 OA
ATOM     14  H   UNL d   1       4.371   0.285   0.031  0.00  0.00     0.167 HD
ENDBRANCH  11  13
ENDBRANCH   1  11
TORSDOF 2
