REMARK  7 active torsions:
REMARK  status: ('A' for Active; 'I' for Inactive)
REMARK    1  A    between atoms: O_5  and  C_1 
REMARK       I    between atoms: C_3  and  N_4 
REMARK    2  A    between atoms: C_24  and  C_3 
REMARK    3  A    between atoms: N_4  and  C_14 
REMARK    4  A    between atoms: C_15  and  O_5 
REMARK    5  A    between atoms: S_13  and  C_24 
REMARK    6  A    between atoms: C_25  and  S_13 
REMARK    7  A    between atoms: C_17  and  C_25 
ROOT
ATOM      1  C   UNL d   1       3.333   0.121   6.814  0.00  0.00     0.231 C 
ATOM      2  N   UNL d   1       2.123   0.612   6.340  0.00  0.00    -0.327 N 
ATOM      3  O   UNL d   1       4.240  -0.366   6.143  0.00  0.00    -0.272 OA
ATOM      4  H   UNL d   1       1.482   0.980   7.038  0.00  0.00     0.169 HD
ENDROOT
BRANCH   1   5
ATOM      5  C   UNL d   1       3.497   0.210   8.315  0.00  0.00     0.177 C 
BRANCH   5   6
ATOM      6  S   UNL d   1       2.196  -0.711   9.184  0.00  0.00    -0.155 SA
BRANCH   6   7
ATOM      7  C   UNL d   1       2.457  -2.372   8.448  0.00  0.00     0.112 C 
BRANCH   7   8
ATOM      8  C   UNL d   1       1.457  -3.331   9.046  0.00  0.00    -0.047 A 
ATOM      9  C   UNL d   1       0.188  -3.482   8.464  0.00  0.00     0.033 A 
ATOM     10  C   UNL d   1      -0.791  -4.267   9.083  0.00  0.00     0.056 A 
ATOM     11 CL   UNL d   1      -2.338  -4.367   8.320  0.00  0.00    -0.083 Cl
ATOM     12  C   UNL d   1      -0.504  -4.914  10.289  0.00  0.00     0.055 A 
ATOM     13  C   UNL d   1       0.765  -4.788  10.861  0.00  0.00     0.026 A 
ATOM     14 CL   UNL d   1      -1.674  -5.865  11.132  0.00  0.00    -0.083 Cl
ATOM     15  C   UNL d   1       1.741  -4.002  10.243  0.00  0.00     0.010 A 
ENDBRANCH   7   8
ENDBRANCH   6   7
ENDBRANCH   5   6
ENDBRANCH   1   5
BRANCH   2  16
ATOM     16  C   UNL d   1       1.671   0.593   5.005  0.00  0.00     0.034 A 
ATOM     17  C   UNL d   1       2.399   0.035   3.953  0.00  0.00     0.032 A 
ATOM     18  C   UNL d   1       1.906   0.039   2.648  0.00  0.00     0.039 A 
ATOM     19  C   UNL d   1       0.691   0.652   2.356  0.00  0.00     0.078 A 
ATOM     20  C   UNL d   1      -0.067   1.170   3.409  0.00  0.00     0.039 A 
ATOM     21  C   UNL d   1       0.412   1.145   4.724  0.00  0.00     0.032 A 
BRANCH  19  22
ATOM     22  O   UNL d   1       0.138   0.786   1.121  0.00  0.00    -0.255 OA
BRANCH  22  23
ATOM     23  C   UNL d   1       0.979   0.763  -0.027  0.00  0.00     0.530 C 
ATOM     24  F   UNL d   1       2.277   1.025   0.238  0.00  0.00    -0.144 F 
ATOM     25  F   UNL d   1       0.543   1.704  -0.892  0.00  0.00    -0.144 F 
ATOM     26  F   UNL d   1       0.888  -0.441  -0.632  0.00  0.00    -0.144 F 
ENDBRANCH  22  23
ENDBRANCH  19  22
ENDBRANCH   2  16
TORSDOF 7
