REMARK  13 active torsions:
REMARK  status: ('A' for Active; 'I' for Inactive)
REMARK       I    between atoms: N_7  and  C_1 
REMARK       I    between atoms: N_13  and  C_1 
REMARK       I    between atoms: C_2  and  N_14 
REMARK       I    between atoms: N_8  and  C_2 
REMARK    1  A    between atoms: C_9  and  N_7 
REMARK    2  A    between atoms: C_10  and  N_8 
REMARK    3  A    between atoms: C_17  and  C_9 
REMARK    4  A    between atoms: C_18  and  C_9 
REMARK    5  A    between atoms: C_15  and  C_10 
REMARK    6  A    between atoms: C_16  and  C_10 
REMARK    7  A    between atoms: C_20  and  N_13 
REMARK    8  A    between atoms: N_14  and  C_19 
REMARK    9  A    between atoms: C_19  and  C_22 
REMARK   10  A    between atoms: C_21  and  C_20 
REMARK   11  A    between atoms: C_24  and  C_21 
REMARK   12  A    between atoms: C_22  and  C_23 
REMARK   13  A    between atoms: C_23  and  C_24 
ROOT
ATOM      1  C   UNL d   1       4.169   4.493  -1.799  0.00  0.00    -0.086 C 
ATOM      2  C   UNL d   1       4.992   4.715  -2.650  0.00  0.00     0.015 C 
ATOM      3  C   UNL d   1       3.244   4.147  -0.683  0.00  0.00     0.096 C 
ENDROOT
BRANCH   3   4
ATOM      4  N   UNL d   1       3.312   2.686  -0.550  0.00  0.00    -0.323 N 
ATOM      5  C   UNL d   1       2.674   1.965   0.408  0.00  0.00     0.317 C 
ATOM      6  O   UNL d   1       1.877   2.440   1.210  0.00  0.00    -0.247 OA
ATOM      7  N   UNL d   1       2.962   0.641   0.472  0.00  0.00    -0.343 N 
ATOM      8  H   UNL d   1       2.393   0.206   1.191  0.00  0.00     0.164 HD
ATOM      9  H   UNL d   1       4.105   2.239  -0.968  0.00  0.00     0.166 HD
BRANCH   7  10
ATOM     10  C   UNL d   1       3.519  -0.267  -0.527  0.00  0.00     0.124 C 
BRANCH  10  11
ATOM     11  C   UNL d   1       5.050  -0.336  -0.556  0.00  0.00     0.020 C 
BRANCH  11  12
ATOM     12  C   UNL d   1       5.535  -1.439  -1.521  0.00  0.00     0.002 C 
BRANCH  12  13
ATOM     13  C   UNL d   1       7.065  -1.538  -1.569  0.00  0.00     0.002 C 
BRANCH  13  14
ATOM     14  C   UNL d   1       7.592  -2.638  -2.516  0.00  0.00     0.020 C 
BRANCH  14  15
ATOM     15  C   UNL d   1       9.120  -2.736  -2.396  0.00  0.00     0.124 C 
BRANCH  15  16
ATOM     16  N   UNL d   1       9.784  -3.603  -3.358  0.00  0.00    -0.343 N 
ATOM     17  C   UNL d   1       9.975  -4.947  -3.375  0.00  0.00     0.317 C 
ATOM     18  N   UNL d   1       9.173  -5.689  -2.580  0.00  0.00    -0.323 N 
ATOM     19  O   UNL d   1      10.828  -5.415  -4.121  0.00  0.00    -0.247 OA
ATOM     20  H   UNL d   1       8.602  -5.194  -1.916  0.00  0.00     0.166 HD
ATOM     21  H   UNL d   1      10.467  -3.156  -3.961  0.00  0.00     0.164 HD
BRANCH  18  22
ATOM     22  C   UNL d   1       9.149  -7.154  -2.514  0.00  0.00     0.096 C 
ATOM     23  C   UNL d   1       8.023  -7.496  -1.605  0.00  0.00    -0.086 C 
ATOM     24  C   UNL d   1       7.148  -7.689  -0.804  0.00  0.00     0.015 C 
BRANCH  22  25
ATOM     25  C   UNL d   1       8.950  -7.827  -3.907  0.00  0.00     0.040 C 
ATOM     26  C   UNL d   1       7.741  -7.387  -4.721  0.00  0.00     0.009 C 
ENDBRANCH  22  25
BRANCH  22  27
ATOM     27  C   UNL d   1      10.461  -7.759  -1.931  0.00  0.00     0.040 C 
ATOM     28  C   UNL d   1      10.914  -7.218  -0.581  0.00  0.00     0.009 C 
ENDBRANCH  22  27
ENDBRANCH  18  22
ENDBRANCH  15  16
ENDBRANCH  14  15
ENDBRANCH  13  14
ENDBRANCH  12  13
ENDBRANCH  11  12
ENDBRANCH  10  11
ENDBRANCH   7  10
ENDBRANCH   3   4
BRANCH   3  29
ATOM     29  C   UNL d   1       1.808   4.671  -0.975  0.00  0.00     0.040 C 
ATOM     30  C   UNL d   1       1.095   4.096  -2.190  0.00  0.00     0.009 C 
ENDBRANCH   3  29
BRANCH   3  31
ATOM     31  C   UNL d   1       3.718   4.899   0.601  0.00  0.00     0.040 C 
ATOM     32  C   UNL d   1       5.084   4.512   1.151  0.00  0.00     0.009 C 
ENDBRANCH   3  31
TORSDOF 13
