REMARK  5 active torsions:
REMARK  status: ('A' for Active; 'I' for Inactive)
REMARK       I    between atoms: N_5  and  C_1 
REMARK    1  A    between atoms: O_9  and  C_1 
REMARK    2  A    between atoms: N_2  and  N_5 
REMARK    3  A    between atoms: C_4  and  C_8 
REMARK    4  A    between atoms: O_10  and  C_7 
REMARK    5  A    between atoms: C_13  and  O_9 
ROOT
ATOM      1  N   UNL d   1       0.947   1.302  -2.174  0.00  0.00    -0.307 N 
ATOM      2  HN  UNL d   1       1.914   1.045  -2.372  1.00  0.00     0.186 HD
ATOM      3  C   UNL d   1       0.338   2.236  -2.833  0.00  0.00     0.121 C 
ENDROOT
BRANCH   1   4
ATOM      4  N   UNL d   1       0.223   0.685  -1.202  0.00  0.00    -0.246 N 
ATOM      5  C   UNL d   1       0.774  -0.267  -0.371  0.00  0.00     0.379 C 
ATOM      6  O   UNL d   1       0.144  -0.747   0.567  0.00  0.00    -0.237 OA
ATOM      7  H   UNL d   1      -0.718   0.985  -0.980  0.00  0.00     0.192 HD
BRANCH   5   8
ATOM      8  O   UNL d   1       2.054  -0.594  -0.702  0.00  0.00    -0.303 OA
BRANCH   8   9
ATOM      9  C   UNL d   1       2.705  -1.536   0.159  0.00  0.00     0.176 C 
ATOM     10  C   UNL d   1       2.346  -2.959  -0.227  0.00  0.00     0.034 C 
ENDBRANCH   8   9
ENDBRANCH   5   8
ENDBRANCH   1   4
BRANCH   3  11
ATOM     11  C   UNL d   1       1.058   3.008  -3.867  0.00  0.00     0.014 A 
ATOM     12  C   UNL d   1       2.399   2.745  -4.180  0.00  0.00     0.077 A 
ATOM     13  C   UNL d   1       3.067   3.526  -5.119  0.00  0.00     0.037 A 
ATOM     14  C   UNL d   1       2.400   4.575  -5.752  0.00  0.00     0.003 A 
ATOM     15  C   UNL d   1       1.061   4.833  -5.455  0.00  0.00     0.001 A 
ATOM     16  C   UNL d   1       0.386   4.050  -4.513  0.00  0.00     0.015 A 
BRANCH  12  17
ATOM     17  O   UNL d   1       3.125   1.740  -3.600  0.00  0.00    -0.360 OA
ATOM     18  H   UNL d   1       2.548   1.290  -2.942  0.00  0.00     0.217 HD
ENDBRANCH  12  17
ENDBRANCH   3  11
TORSDOF 5
