REMARK  4 active torsions:
REMARK  status: ('A' for Active; 'I' for Inactive)
REMARK    1  A    between atoms: C_3  and  S_1 
REMARK    2  A    between atoms: N_5  and  S_1 
REMARK    3  A    between atoms: N_2  and  C_6 
REMARK    4  A    between atoms: C_13  and  N_5 
ROOT
ATOM      1  S   UNL d   1       1.101  -0.159  -0.084  0.00  0.00     0.263 S 
ATOM      2  O   UNL d   1       0.535   0.832   0.808  0.00  0.00    -0.200 OA
ATOM      3  O   UNL d   1       2.535  -0.287  -0.210  0.00  0.00    -0.200 OA
ENDROOT
BRANCH   1   4
ATOM      4  C   UNL d   1       0.372   0.119  -1.701  0.00  0.00     0.088 A 
ATOM      5  C   UNL d   1      -0.890   0.743  -1.722  0.00  0.00     0.061 A 
ATOM      6  C   UNL d   1      -1.478   1.085  -2.945  0.00  0.00     0.104 A 
ATOM      7  C   UNL d   1      -0.821   0.820  -4.147  0.00  0.00     0.037 A 
ATOM      8  C   UNL d   1       0.426   0.191  -4.123  0.00  0.00     0.011 A 
ATOM      9  C   UNL d   1       1.036  -0.183  -2.910  0.00  0.00    -0.039 A 
ATOM     10  C   UNL d   1       2.386  -0.840  -2.997  0.00  0.00     0.050 C 
BRANCH   6  11
ATOM     11  N   UNL d   1      -2.795   1.737  -2.969  0.00  0.00    -0.116 N 
ATOM     12  O   UNL d   1      -3.392   1.865  -1.891  0.00  0.00    -0.532 OA
ATOM     13  O   UNL d   1      -3.233   2.111  -4.065  0.00  0.00    -0.532 OA
ENDBRANCH   6  11
ENDBRANCH   1   4
BRANCH   1  14
ATOM     14  N   UNL d   1       0.435  -1.625   0.384  0.00  0.00    -0.281 N 
ATOM     15  H   UNL d   1       0.013  -1.648   1.310  0.00  0.00     0.179 HD
BRANCH  14  16
ATOM     16  C   UNL d   1       0.840  -2.822  -0.249  0.00  0.00     0.045 A 
ATOM     17  C   UNL d   1       0.002  -3.364  -1.221  0.00  0.00     0.069 A 
ATOM     18  C   UNL d   1       0.452  -4.477  -1.893  0.00  0.00     0.107 A 
ATOM     19  O   UNL d   1      -0.198  -5.103  -2.910  0.00  0.00    -0.323 OA
ATOM     20  C   UNL d   1       1.663  -5.063  -1.603  0.00  0.00     0.105 A 
ATOM     21  C   UNL d   1       0.779  -6.096  -3.283  0.00  0.00     0.352 A 
ATOM     22  O   UNL d   1       1.925  -6.129  -2.404  0.00  0.00    -0.323 OA
ATOM     23  C   UNL d   1       2.486  -4.574  -0.610  0.00  0.00     0.042 A 
ATOM     24  C   UNL d   1       2.064  -3.432   0.079  0.00  0.00     0.033 A 
ENDBRANCH  14  16
ENDBRANCH   1  14
TORSDOF 4
