REMARK  3 active torsions:
REMARK  status: ('A' for Active; 'I' for Inactive)
REMARK    1  A    between atoms: C_6  and  C_2 
REMARK    2  A    between atoms: O_19  and  C_3 
REMARK    3  A    between atoms: C_9  and  C_7 
ROOT
ATOM      1  C   UNL d   1      -0.672   1.279   0.030  0.00  0.00     0.110 A 
ATOM      2  C   UNL d   1      -1.422   0.094   0.011  0.00  0.00     0.075 A 
ATOM      3  C   UNL d   1       0.717   1.162   0.046  0.00  0.00     0.162 A 
ATOM      4  N   UNL d   1       1.376  -0.014   0.033  0.00  0.00    -0.335 N 
ATOM      5  HN  UNL d   1       2.395  -0.043   0.057  1.00  0.00     0.168 HD
ATOM      6  C   UNL d   1       0.651  -1.154  -0.013  0.00  0.00     0.052 A 
ATOM      7  C   UNL d   1      -0.736  -1.135  -0.004  0.00  0.00     0.048 A 
ATOM      8  C   UNL d   1      -1.275   2.574   0.025  0.00  0.00     0.104 C 
ATOM      9  N   UNL d   1      -1.686   3.658   0.022  0.00  0.00    -0.191 NA
ENDROOT
BRANCH   2  10
ATOM     10  C   UNL d   1      -2.927   0.044  -0.010  0.00  0.00     0.419 C 
ATOM     11  F   UNL d   1      -3.543   1.250   0.006  0.00  0.00    -0.166 F 
ATOM     12  F   UNL d   1      -3.392  -0.599  -1.115  0.00  0.00    -0.166 F 
ATOM     13  F   UNL d   1      -3.422  -0.642   1.056  0.00  0.00    -0.166 F 
ENDBRANCH   2  10
BRANCH   3  14
ATOM     14  O   UNL d   1       1.563   2.236   0.072  0.00  0.00    -0.345 OA
ATOM     15  H   UNL d   1       1.077   3.077   0.050  0.00  0.00     0.219 HD
ENDBRANCH   3  14
BRANCH   6  16
ATOM     16  C   UNL d   1       1.448  -2.387  -0.087  0.00  0.00     0.031 A 
ATOM     17  S   UNL d   1       0.817  -3.801  -0.842  0.00  0.00    -0.100 SA
ATOM     18  C   UNL d   1       2.249  -4.686  -0.566  0.00  0.00     0.050 A 
ATOM     19  C   UNL d   1       3.200  -3.935   0.084  0.00  0.00     0.008 A 
ATOM     20  C   UNL d   1       2.741  -2.611   0.350  0.00  0.00     0.021 A 
ENDBRANCH   6  16
TORSDOF 3
