REMARK  6 active torsions:
REMARK  status: ('A' for Active; 'I' for Inactive)
REMARK    1  A    between atoms: N_15  and  C_3 
REMARK    2  A    between atoms: S_4  and  C_8 
REMARK    3  A    between atoms: C_14  and  S_4 
REMARK    4  A    between atoms: C_16  and  C_12 
REMARK    5  A    between atoms: C_24  and  C_13 
REMARK    6  A    between atoms: C_17  and  N_19 
ROOT
ATOM      1  C   UNL d   1      -0.244   5.982   1.018  0.00  0.00     0.159 C 
ATOM      2  C   UNL d   1       0.280   7.217   0.929  0.00  0.00     0.121 C 
ATOM      3  C   UNL d   1       0.362   4.819   0.504  0.00  0.00     0.113 C 
ATOM      4  N   UNL d   1       0.877   3.861   0.094  0.00  0.00    -0.191 NA
ENDROOT
BRANCH   1   5
ATOM      5  S   UNL d   1      -1.725   5.728   1.882  0.00  0.00     0.224 S 
ATOM      6  O   UNL d   1      -2.158   6.923   2.584  0.00  0.00    -0.216 OA
ATOM      7  O   UNL d   1      -2.658   4.991   1.048  0.00  0.00    -0.216 OA
BRANCH   5   8
ATOM      8  C   UNL d   1      -1.299   4.570   3.179  0.00  0.00     0.105 A 
ATOM      9  S   UNL d   1      -0.153   5.113   4.332  0.00  0.00    -0.090 SA
ATOM     10  C   UNL d   1      -0.202   3.626   5.175  0.00  0.00     0.051 A 
ATOM     11  C   UNL d   1      -1.078   2.733   4.600  0.00  0.00     0.009 A 
ATOM     12  C   UNL d   1      -1.711   3.277   3.443  0.00  0.00     0.032 A 
ENDBRANCH   5   8
ENDBRANCH   1   5
BRANCH   2  13
ATOM     13  N   UNL d   1       1.433   7.698   0.310  0.00  0.00    -0.385 N 
ATOM     14  C   UNL d   1       2.108   7.107  -0.873  0.00  0.00     0.142 C 
ATOM     15  C   UNL d   1       2.315   8.150  -2.009  0.00  0.00     0.144 C 
ATOM     16  N   UNL d   1       2.947   9.407  -1.517  0.00  0.00    -0.363 N 
ATOM     17  C   UNL d   1       2.189   9.965  -0.361  0.00  0.00     0.144 C 
ATOM     18  C   UNL d   1       2.116   8.930   0.772  0.00  0.00     0.142 C 
BRANCH  16  19
ATOM     19  C   UNL d   1       3.623  10.274  -2.412  0.00  0.00     0.129 A 
ATOM     20  N   UNL d   1       3.178  11.616  -2.620  0.00  0.00    -0.224 N 
ATOM     21  C   UNL d   1       3.893  12.485  -3.451  0.00  0.00     0.131 A 
ATOM     22  N   UNL d   1       2.080  12.239  -2.104  0.00  0.00    -0.294 N 
ATOM     23  N   UNL d   1       5.046  12.127  -4.082  0.00  0.00    -0.337 N 
ATOM     24  C   UNL d   1       3.211  13.679  -3.441  0.00  0.00     0.077 A 
ATOM     25  C   UNL d   1       5.467  10.903  -3.894  0.00  0.00     0.121 A 
ATOM     26  HN  UNL d   1       5.557  12.782  -4.673  1.00  0.00     0.167 HD
ATOM     27  C   UNL d   1       4.741   9.886  -3.057  0.00  0.00     0.084 A 
ATOM     28  C   UNL d   1       2.095  13.480  -2.602  0.00  0.00     0.037 A 
ATOM     29  HN  UNL d   1       1.389  11.841  -1.469  1.00  0.00     0.187 HD
BRANCH  25  30
ATOM     30  C   UNL d   1       6.786  10.462  -4.531  0.00  0.00     0.432 C 
ATOM     31  F   UNL d   1       7.122   9.178  -4.219  0.00  0.00    -0.165 F 
ATOM     32  F   UNL d   1       6.751  10.525  -5.890  0.00  0.00    -0.165 F 
ATOM     33  F   UNL d   1       7.834  11.233  -4.131  0.00  0.00    -0.165 F 
ENDBRANCH  25  30
BRANCH  28  34
ATOM     34  C   UNL d   1       1.014  14.476  -2.213  0.00  0.00    -0.007 C 
ATOM     35  C   UNL d   1       1.453  15.253  -0.956  0.00  0.00     0.021 C 
ATOM     36  C   UNL d   1       0.757  15.482  -3.354  0.00  0.00     0.021 C 
ATOM     37  C   UNL d   1      -0.321  13.763  -1.906  0.00  0.00     0.021 C 
ENDBRANCH  28  34
ENDBRANCH  16  19
ENDBRANCH   2  13
TORSDOF 6
