REMARK  5 active torsions:
REMARK  status: ('A' for Active; 'I' for Inactive)
REMARK    1  A    between atoms: C_3  and  N_1 
REMARK    2  A    between atoms: C_5  and  N_1 
REMARK    3  A    between atoms: C_4  and  C_5 
REMARK    4  A    between atoms: C_12  and  C_6 
REMARK    5  A    between atoms: C_16  and  C_12 
ROOT
ATOM      1  N   UNL d   1       1.045   0.090  -0.239  0.00  0.00    -0.288 NA
ATOM      2  H   UNL d   1       0.400  -0.657  -0.471  0.00  0.00     0.128 HD
ENDROOT
BRANCH   1   3
ATOM      3  C   UNL d   1       0.436   1.121   0.492  0.00  0.00     0.014 A 
ATOM      4  C   UNL d   1      -0.968   1.304   0.468  0.00  0.00    -0.037 A 
ATOM      5  C   UNL d   1      -1.546   2.371   1.192  0.00  0.00     0.009 A 
ATOM      6  C   UNL d   1      -0.761   3.269   1.907  0.00  0.00     0.001 A 
ATOM      7  C   UNL d   1       0.618   3.142   1.873  0.00  0.00     0.002 A 
ATOM      8  C   UNL d   1       1.204   2.096   1.154  0.00  0.00     0.024 A 
BRANCH   4   9
ATOM      9  C   UNL d   1      -1.920   0.407  -0.298  0.00  0.00     0.040 C 
BRANCH   9  10
ATOM     10  C   UNL d   1      -2.386  -0.839   0.462  0.00  0.00     0.000 C 
ATOM     11  C   UNL d   1      -3.130  -0.544   1.759  0.00  0.00     0.005 C 
ENDBRANCH   9  10
ENDBRANCH   4   9
ENDBRANCH   1   3
BRANCH   1  12
ATOM     12  C   UNL d   1       2.341  -0.454   0.187  0.00  0.00     0.132 C 
BRANCH  12  13
ATOM     13  C   UNL d   1       3.451  -0.291  -0.844  0.00  0.00    -0.034 A 
ATOM     14  C   UNL d   1       4.768  -0.779  -0.568  0.00  0.00    -0.018 A 
ATOM     15  C   UNL d   1       5.784  -0.612  -1.546  0.00  0.00    -0.025 A 
ATOM     16  C   UNL d   1       5.134  -1.428   0.637  0.00  0.00     0.013 A 
ATOM     17  C   UNL d   1       7.089  -1.075  -1.300  0.00  0.00     0.012 A 
ATOM     18  C   UNL d   1       5.490   0.015  -2.763  0.00  0.00     0.012 A 
ATOM     19  C   UNL d   1       7.415  -1.705  -0.100  0.00  0.00     0.001 A 
ATOM     20  C   UNL d   1       6.435  -1.883   0.866  0.00  0.00     0.001 A 
ATOM     21  C   UNL d   1       4.207   0.480  -3.030  0.00  0.00     0.002 A 
ATOM     22  C   UNL d   1       3.200   0.330  -2.080  0.00  0.00     0.009 A 
ENDBRANCH  12  13
ENDBRANCH   1  12
TORSDOF 5
