REMARK  8 active torsions:
REMARK  status: ('A' for Active; 'I' for Inactive)
REMARK    1  A    between atoms: C_3  and  C_1 
REMARK    2  A    between atoms: C_13  and  C_2 
REMARK    3  A    between atoms: N_18  and  C_3 
REMARK    4  A    between atoms: C_6  and  O_14 
REMARK    5  A    between atoms: O_11  and  N_7 
REMARK    6  A    between atoms: C_10  and  O_11 
REMARK    7  A    between atoms: C_12  and  C_10 
REMARK    8  A    between atoms: O_14  and  C_22 
ROOT
ATOM      1  C   UNL d   1      -2.818  -1.222   0.084  0.00  0.00     0.112 C 
ATOM      2  N   UNL d   1      -3.978  -0.707   0.321  0.00  0.00    -0.245 N 
ATOM      3  HN  UNL d   1      -4.798  -1.252   0.590  1.00  0.00     0.196 HD
ENDROOT
BRANCH   1   4
ATOM      4  C   UNL d   1      -2.717  -2.671   0.036  0.00  0.00     0.041 A 
ATOM      5  C   UNL d   1      -3.686  -3.529  -0.476  0.00  0.00     0.099 A 
ATOM      6  O   UNL d   1      -3.279  -4.827  -0.343  0.00  0.00    -0.314 OA
ATOM      7  C   UNL d   1      -2.043  -4.817   0.217  0.00  0.00     0.051 A 
ATOM      8  C   UNL d   1      -1.650  -3.522   0.469  0.00  0.00     0.050 A 
ATOM      9  C   UNL d   1      -1.420  -6.140   0.417  0.00  0.00     0.077 C 
BRANCH   5  10
ATOM     10  C   UNL d   1      -4.966  -3.365  -1.162  0.00  0.00    -0.001 A 
ATOM     11  C   UNL d   1      -5.157  -2.330  -2.089  0.00  0.00     0.014 A 
ATOM     12  C   UNL d   1      -6.376  -2.176  -2.752  0.00  0.00     0.001 A 
ATOM     13  C   UNL d   1      -7.418  -3.066  -2.506  0.00  0.00     0.000 A 
ATOM     14  C   UNL d   1      -7.242  -4.108  -1.598  0.00  0.00     0.001 A 
ATOM     15  C   UNL d   1      -6.023  -4.257  -0.931  0.00  0.00     0.014 A 
ENDBRANCH   5  10
ENDBRANCH   1   4
BRANCH   1  16
ATOM     16  N   UNL d   1      -1.642  -0.566  -0.142  0.00  0.00    -0.286 NA
ATOM     17  H   UNL d   1      -0.788  -1.062   0.076  0.00  0.00     0.125 HD
ATOM     18  H   UNL d   1      -1.649   0.386   0.197  0.00  0.00     0.125 HD
ENDBRANCH   1  16
BRANCH   2  19
ATOM     19  O   UNL d   1      -3.983   0.696   0.167  0.00  0.00    -0.193 OA
BRANCH  19  20
ATOM     20  C   UNL d   1      -4.966   1.210   0.963  0.00  0.00     0.315 C 
ATOM     21  O   UNL d   1      -5.189   0.893   2.126  0.00  0.00    -0.257 OA
BRANCH  20  22
ATOM     22  C   UNL d   1      -5.754   2.247   0.243  0.00  0.00     0.041 A 
ATOM     23  C   UNL d   1      -6.776   2.908   0.943  0.00  0.00     0.020 A 
ATOM     24  C   UNL d   1      -7.582   3.865   0.309  0.00  0.00     0.038 A 
ATOM     25  C   UNL d   1      -7.361   4.191  -1.025  0.00  0.00     0.078 A 
ATOM     26  C   UNL d   1      -6.360   3.510  -1.733  0.00  0.00     0.038 A 
ATOM     27  C   UNL d   1      -5.561   2.547  -1.110  0.00  0.00     0.020 A 
BRANCH  25  28
ATOM     28  O   UNL d   1      -8.022   5.125  -1.764  0.00  0.00    -0.255 OA
BRANCH  28  29
ATOM     29  C   UNL d   1      -8.845   6.077  -1.111  0.00  0.00     0.530 C 
ATOM     30  F   UNL d   1      -8.349   6.467   0.083  0.00  0.00    -0.144 F 
ATOM     31  F   UNL d   1      -8.929   7.175  -1.897  0.00  0.00    -0.144 F 
ATOM     32  F   UNL d   1     -10.089   5.584  -0.941  0.00  0.00    -0.144 F 
ENDBRANCH  28  29
ENDBRANCH  25  28
ENDBRANCH  20  22
ENDBRANCH  19  20
ENDBRANCH   2  19
TORSDOF 8
