REMARK  3 active torsions:
REMARK  status: ('A' for Active; 'I' for Inactive)
REMARK    1  A    between atoms: C_12  and  C_2 
REMARK    2  A    between atoms: C_13  and  C_9 
REMARK    3  A    between atoms: C_14  and  C_11 
ROOT
ATOM      1  N   UNL d   1       0.311   0.631   0.058  0.00  0.00    -0.235 N 
ATOM      2  C   UNL d   1      -0.814   1.448   0.062  0.00  0.00     0.144 A 
ATOM      3  C   UNL d   1       0.168  -0.762   0.003  0.00  0.00     0.130 A 
ATOM      4  N   UNL d   1       1.617   0.979   0.101  0.00  0.00    -0.291 N 
ATOM      5  HN  UNL d   1       2.001   1.918   0.198  1.00  0.00     0.187 HD
ATOM      6  N   UNL d   1      -1.048  -1.379   0.020  0.00  0.00    -0.340 N 
ATOM      7  HN  UNL d   1      -1.130  -2.395   0.016  1.00  0.00     0.167 HD
ATOM      8  C   UNL d   1       1.440  -1.277  -0.083  0.00  0.00     0.082 A 
ATOM      9  C   UNL d   1       2.297  -0.166  -0.011  0.00  0.00     0.069 A 
ATOM     10  C   UNL d   1      -2.040   0.887   0.049  0.00  0.00     0.067 A 
ATOM     11  C   UNL d   1      -2.100  -0.610   0.042  0.00  0.00     0.046 A 
ENDROOT
BRANCH  11  12
ATOM     12  C   UNL d   1      -3.453  -1.236   0.103  0.00  0.00    -0.006 A 
ATOM     13  C   UNL d   1      -3.590  -2.453   0.790  0.00  0.00     0.053 A 
ATOM     14  C   UNL d   1      -4.848  -3.012   0.868  0.00  0.00     0.105 A 
ATOM     15  O   UNL d   1      -5.168  -4.168   1.508  0.00  0.00    -0.323 OA
ATOM     16  C   UNL d   1      -5.942  -2.418   0.284  0.00  0.00     0.105 A 
ATOM     17  C   UNL d   1      -6.591  -4.224   1.279  0.00  0.00     0.352 A 
ATOM     18  O   UNL d   1      -7.086  -3.126   0.483  0.00  0.00    -0.323 OA
ATOM     19  C   UNL d   1      -5.840  -1.237  -0.418  0.00  0.00     0.040 A 
ATOM     20  C   UNL d   1      -4.577  -0.641  -0.512  0.00  0.00     0.016 A 
ENDBRANCH  11  12
BRANCH   2  21
ATOM     21  C   UNL d   1      -0.639   2.920   0.066  0.00  0.00     0.434 C 
ATOM     22  F   UNL d   1       0.628   3.389   0.030  0.00  0.00    -0.165 F 
ATOM     23  F   UNL d   1      -1.278   3.474  -1.003  0.00  0.00    -0.165 F 
ATOM     24  F   UNL d   1      -1.224   3.471   1.166  0.00  0.00    -0.165 F 
ENDBRANCH   2  21
BRANCH   9  25
ATOM     25  C   UNL d   1       3.795  -0.187  -0.057  0.00  0.00     0.033 A 
ATOM     26  S   UNL d   1       4.736  -1.589  -0.321  0.00  0.00    -0.100 SA
ATOM     27  C   UNL d   1       6.196  -0.700  -0.259  0.00  0.00     0.050 A 
ATOM     28  C   UNL d   1       5.976   0.636  -0.012  0.00  0.00     0.008 A 
ATOM     29  C   UNL d   1       4.586   0.934   0.103  0.00  0.00     0.021 A 
ENDBRANCH   9  25
TORSDOF 3
