REMARK  3 active torsions:
REMARK  status: ('A' for Active; 'I' for Inactive)
REMARK    1  A    between atoms: C_6  and  C_4 
REMARK    2  A    between atoms: N_9  and  C_4 
REMARK    3  A    between atoms: O_13  and  C_10 
ROOT
ATOM      1  C   UNL d   1      -0.574   1.718  -0.214  0.00  0.00     0.183 C 
ATOM      2  N   UNL d   1      -1.552   0.808  -0.233  0.00  0.00    -0.279 N 
ATOM      3  HN  UNL d   1      -2.509   1.082  -0.456  1.00  0.00     0.179 HD
ATOM      4  C   UNL d   1      -1.267  -0.428   0.035  0.00  0.00     0.118 C 
ATOM      5  N   UNL d   1       0.303   2.475  -0.207  0.00  0.00    -0.172 NA
ENDROOT
BRANCH   4   6
ATOM      6  C   UNL d   1      -2.407  -1.405   0.016  0.00  0.00     0.008 A 
ATOM      7  C   UNL d   1      -3.514  -1.173  -0.809  0.00  0.00     0.018 A 
ATOM      8  C   UNL d   1      -4.571  -2.089  -0.847  0.00  0.00     0.037 A 
ATOM      9  C   UNL d   1      -4.535  -3.236  -0.053  0.00  0.00     0.068 A 
ATOM     10  C   UNL d   1      -3.435  -3.458   0.779  0.00  0.00     0.037 A 
ATOM     11  C   UNL d   1      -2.374  -2.550   0.817  0.00  0.00     0.018 A 
BRANCH   9  12
ATOM     12  O   UNL d   1      -5.501  -4.202   0.007  0.00  0.00    -0.356 OA
ATOM     13  C   UNL d   1      -6.634  -4.030  -0.835  0.00  0.00     0.210 C 
ENDBRANCH   9  12
ENDBRANCH   4   6
BRANCH   4  14
ATOM     14  N   UNL d   1      -0.014  -0.927   0.328  0.00  0.00    -0.384 N 
ATOM     15  H   UNL d   1       0.784  -0.340   0.099  0.00  0.00     0.157 HD
ATOM     16  H   UNL d   1       0.154  -1.901   0.096  0.00  0.00     0.157 HD
ENDBRANCH   4  14
TORSDOF 3
