REMARK  2 active torsions:
REMARK  status: ('A' for Active; 'I' for Inactive)
REMARK    1  A    between atoms: C_11  and  C_1 
REMARK    2  A    between atoms: C_13  and  C_9 
ROOT
ATOM      1  C   UNL d   1       0.743  -1.278   0.415  0.00  0.00     0.144 C 
ATOM      2  N   UNL d   1      -0.455  -0.568   0.408  0.00  0.00    -0.235 N 
ATOM      3  C   UNL d   1      -0.466   0.779   0.022  0.00  0.00     0.129 A 
ATOM      4  N   UNL d   1       0.639   1.421  -0.447  0.00  0.00    -0.340 N 
ATOM      5  HN  UNL d   1       0.615   2.405  -0.715  1.00  0.00     0.167 HD
ATOM      6  C   UNL d   1       1.873  -0.681  -0.015  0.00  0.00     0.067 C 
ATOM      7  N   UNL d   1      -1.709  -0.989   0.709  0.00  0.00    -0.297 N 
ATOM      8  HN  UNL d   1      -1.990  -1.919   1.018  1.00  0.00     0.187 HD
ATOM      9  C   UNL d   1       1.730   0.714  -0.536  0.00  0.00     0.046 C 
ATOM     10  C   UNL d   1      -1.768   1.210   0.131  0.00  0.00     0.076 A 
ATOM     11  C   UNL d   1      -2.498   0.074   0.515  0.00  0.00     0.026 A 
ATOM     12  C   UNL d   1      -3.968  -0.036   0.674  0.00  0.00     0.070 C 
ENDROOT
BRANCH   9  13
ATOM     13  C   UNL d   1       2.882   1.295  -1.279  0.00  0.00    -0.009 A 
ATOM     14  C   UNL d   1       3.047   2.687  -1.284  0.00  0.00     0.026 A 
ATOM     15  C   UNL d   1       3.938   3.299  -2.179  0.00  0.00    -0.025 A 
ATOM     16  C   UNL d   1       4.066   4.695  -2.241  0.00  0.00     0.012 A 
ATOM     17  C   UNL d   1       4.686   2.495  -3.071  0.00  0.00    -0.026 A 
ATOM     18  C   UNL d   1       4.896   5.293  -3.190  0.00  0.00     0.001 A 
ATOM     19  C   UNL d   1       5.614   4.502  -4.083  0.00  0.00     0.001 A 
ATOM     20  C   UNL d   1       5.518   3.112  -4.018  0.00  0.00     0.012 A 
ATOM     21  C   UNL d   1       4.553   1.099  -3.018  0.00  0.00     0.013 A 
ATOM     22  C   UNL d   1       3.651   0.501  -2.135  0.00  0.00     0.014 A 
ENDBRANCH   9  13
BRANCH   1  23
ATOM     23  C   UNL d   1       0.736  -2.684   0.884  0.00  0.00     0.434 C 
ATOM     24  F   UNL d   1      -0.338  -3.079   1.607  0.00  0.00    -0.165 F 
ATOM     25  F   UNL d   1       0.844  -3.543  -0.168  0.00  0.00    -0.165 F 
ATOM     26  F   UNL d   1       1.823  -2.932   1.669  0.00  0.00    -0.165 F 
ENDBRANCH   1  23
TORSDOF 2
