REMARK  5 active torsions:
REMARK  status: ('A' for Active; 'I' for Inactive)
REMARK    1  A    between atoms: N_2  and  C_7 
REMARK    2  A    between atoms: N_5  and  C_4 
REMARK       I    between atoms: C_6  and  N_5 
REMARK    3  A    between atoms: C_14  and  C_6 
REMARK    4  A    between atoms: O_18  and  C_14 
REMARK    5  A    between atoms: C_19  and  O_18 
ROOT
ATOM      1  N   UNL d   1      -3.108  -1.181   0.910  0.00  0.00    -0.349 N 
ATOM      2  C   UNL d   1      -4.148  -0.345   1.323  0.00  0.00     0.244 C 
ATOM      3  O   UNL d   1      -4.182   0.846   1.000  0.00  0.00    -0.271 OA
ATOM      4  C   UNL d   1      -3.075  -2.596   1.257  0.00  0.00     0.153 C 
ENDROOT
BRANCH   2   5
ATOM      5  C   UNL d   1      -5.300  -0.933   2.156  0.00  0.00     0.278 C 
BRANCH   5   6
ATOM      6  O   UNL d   1      -4.852  -1.478   3.390  0.00  0.00    -0.342 OA
BRANCH   6   7
ATOM      7  C   UNL d   1      -5.810  -2.026   4.201  0.00  0.00     0.069 A 
ATOM      8  C   UNL d   1      -5.339  -2.993   5.097  0.00  0.00     0.039 A 
ATOM      9  C   UNL d   1      -6.211  -3.631   5.985  0.00  0.00     0.039 A 
ATOM     10  C   UNL d   1      -7.566  -3.284   5.988  0.00  0.00     0.103 A 
ATOM     11  C   UNL d   1      -8.043  -2.298   5.114  0.00  0.00     0.039 A 
ATOM     12  C   UNL d   1      -7.161  -1.671   4.223  0.00  0.00     0.039 A 
BRANCH  10  13
ATOM     13  N   UNL d   1      -8.492  -3.951   6.912  0.00  0.00    -0.116 N 
ATOM     14  O   UNL d   1      -8.027  -4.828   7.659  0.00  0.00    -0.532 OA
ATOM     15  O   UNL d   1      -9.680  -3.607   6.887  0.00  0.00    -0.532 OA
ENDBRANCH  10  13
ENDBRANCH   6   7
ENDBRANCH   5   6
ENDBRANCH   2   5
BRANCH   1  16
ATOM     16  C   UNL d   1      -1.954  -0.633   0.170  0.00  0.00     0.101 C 
ATOM     17  C   UNL d   1      -1.202   0.494   0.881  0.00  0.00     0.165 C 
ATOM     18  S   UNL d   1      -0.112   1.125  -0.380  0.00  0.00     0.146 S 
ATOM     19  O   UNL d   1       1.125   0.371  -0.323  0.00  0.00    -0.228 OA
ATOM     20  O   UNL d   1      -0.132   2.571  -0.354  0.00  0.00    -0.228 OA
ATOM     21  C   UNL d   1      -1.046   0.546  -1.790  0.00  0.00     0.142 C 
ATOM     22  C   UNL d   1      -2.310  -0.097  -1.228  0.00  0.00     0.041 C 
ENDBRANCH   1  16
TORSDOF 5
