REMARK  5 active torsions:
REMARK  status: ('A' for Active; 'I' for Inactive)
REMARK    1  A    between atoms: N_10  and  C_3 
REMARK    2  A    between atoms: C_6  and  C_4 
REMARK    3  A    between atoms: C_9  and  O_12 
REMARK    4  A    between atoms: C_16  and  N_10 
REMARK    5  A    between atoms: O_12  and  C_20 
ROOT
ATOM      1  N   UNL d   1       0.489   1.509  -0.058  0.00  0.00    -0.350 N 
ATOM      2  HN  UNL d   1      -0.238   2.223  -0.113  1.00  0.00     0.166 HD
ATOM      3  C   UNL d   1       2.489  -0.428   0.076  0.00  0.00     0.047 A 
ATOM      4  C   UNL d   1       1.795   1.874  -0.043  0.00  0.00     0.119 A 
ATOM      5  C   UNL d   1       0.146   0.201   0.000  0.00  0.00     0.067 A 
ATOM      6  C   UNL d   1       1.123  -0.816   0.090  0.00  0.00     0.019 A 
ATOM      7  C   UNL d   1       2.807   0.931  -0.001  0.00  0.00     0.064 A 
ATOM      8  C   UNL d   1      -1.202  -0.182  -0.023  0.00  0.00     0.061 A 
ATOM      9 CL   UNL d   1      -2.459   1.008  -0.167  0.00  0.00    -0.082 Cl
ATOM     10  C   UNL d   1       0.706  -2.166   0.205  0.00  0.00     0.016 A 
ATOM     11  C   UNL d   1      -0.644  -2.513   0.195  0.00  0.00     0.003 A 
ATOM     12  C   UNL d   1      -1.602  -1.518   0.066  0.00  0.00     0.026 A 
ENDROOT
BRANCH   3  13
ATOM     13  N   UNL d   1       3.528  -1.409   0.095  0.00  0.00    -0.355 N 
ATOM     14  H   UNL d   1       3.454  -2.010  -0.724  0.00  0.00     0.166 HD
BRANCH  13  15
ATOM     15  C   UNL d   1       4.871  -1.183   0.481  0.00  0.00     0.032 A 
ATOM     16  C   UNL d   1       5.165  -0.489   1.662  0.00  0.00     0.032 A 
ATOM     17  C   UNL d   1       6.481  -0.152   1.997  0.00  0.00     0.039 A 
ATOM     18  C   UNL d   1       7.523  -0.486   1.138  0.00  0.00     0.078 A 
ATOM     19  C   UNL d   1       7.250  -1.259   0.008  0.00  0.00     0.039 A 
ATOM     20  C   UNL d   1       5.932  -1.606  -0.322  0.00  0.00     0.032 A 
BRANCH  18  21
ATOM     21  O   UNL d   1       8.833  -0.179   1.341  0.00  0.00    -0.255 OA
BRANCH  21  22
ATOM     22  C   UNL d   1       9.162   1.095   1.889  0.00  0.00     0.530 C 
ATOM     23  F   UNL d   1       8.101   1.890   2.140  0.00  0.00    -0.144 F 
ATOM     24  F   UNL d   1       9.845   0.915   3.040  0.00  0.00    -0.144 F 
ATOM     25  F   UNL d   1       9.968   1.745   1.020  0.00  0.00    -0.144 F 
ENDBRANCH  21  22
ENDBRANCH  18  21
ENDBRANCH  13  15
ENDBRANCH   3  13
BRANCH   4  26
ATOM     26  C   UNL d   1       2.167   3.349  -0.062  0.00  0.00     0.432 C 
ATOM     27  F   UNL d   1       1.105   4.201  -0.103  0.00  0.00    -0.165 F 
ATOM     28  F   UNL d   1       2.892   3.713   1.037  0.00  0.00    -0.165 F 
ATOM     29  F   UNL d   1       2.947   3.674  -1.135  0.00  0.00    -0.165 F 
ENDBRANCH   4  26
TORSDOF 5
