REMARK  7 active torsions:
REMARK  status: ('A' for Active; 'I' for Inactive)
REMARK    1  A    between atoms: C_17  and  N_1 
REMARK    2  A    between atoms: S_12  and  C_2 
REMARK    3  A    between atoms: N_11  and  C_3 
REMARK    4  A    between atoms: C_10  and  S_12 
REMARK    5  A    between atoms: O_26  and  C_27 
REMARK    6  A    between atoms: C_28  and  O_26 
REMARK    7  A    between atoms: C_31  and  C_28 
ROOT
ATOM      1  N   UNL d   1      -0.267  -1.332  -0.092  0.00  0.00    -0.273 N 
ATOM      2  C   UNL d   1       0.808  -0.615   0.417  0.00  0.00     0.174 A 
ATOM      3  C   UNL d   1      -1.023  -0.354  -0.744  0.00  0.00     0.163 A 
ATOM      4  N   UNL d   1      -0.422   0.816  -0.652  0.00  0.00    -0.281 N 
ATOM      5  HN  UNL d   1      -0.746   1.689  -1.068  1.00  0.00     0.188 HD
ATOM      6  N   UNL d   1       0.709   0.657   0.098  0.00  0.00    -0.277 N 
ATOM      7  HN  UNL d   1       1.361   1.394   0.363  1.00  0.00     0.189 HD
ATOM      8  C   UNL d   1      -2.293  -0.512  -1.392  0.00  0.00     0.120 A 
ATOM      9  O   UNL d   1      -3.265  -1.388  -0.973  0.00  0.00    -0.319 OA
ATOM     10  C   UNL d   1      -2.757   0.141  -2.522  0.00  0.00     0.043 A 
ATOM     11  C   UNL d   1      -4.290  -1.330  -1.860  0.00  0.00     0.142 A 
ATOM     12  C   UNL d   1      -4.021  -0.410  -2.842  0.00  0.00     0.027 A 
ENDROOT
BRANCH   1  13
ATOM     13  C   UNL d   1      -0.537  -2.733  -0.026  0.00  0.00     0.043 A 
ATOM     14  C   UNL d   1      -0.238  -3.493   1.111  0.00  0.00     0.033 A 
ATOM     15  C   UNL d   1      -0.560  -4.857   1.149  0.00  0.00     0.039 A 
ATOM     16  C   UNL d   1      -1.207  -5.466   0.074  0.00  0.00     0.069 A 
ATOM     17  C   UNL d   1      -1.469  -4.720  -1.072  0.00  0.00     0.039 A 
ATOM     18  C   UNL d   1      -1.127  -3.369  -1.125  0.00  0.00     0.033 A 
BRANCH  16  19
ATOM     19  O   UNL d   1      -1.543  -6.783   0.243  0.00  0.00    -0.347 OA
BRANCH  19  20
ATOM     20  C   UNL d   1      -2.562  -7.260  -0.643  0.00  0.00     0.214 C 
BRANCH  20  21
ATOM     21  C   UNL d   1      -3.086  -8.603  -0.201  0.00  0.00    -0.034 A 
ATOM     22  C   UNL d   1      -4.456  -8.885  -0.327  0.00  0.00     0.009 A 
ATOM     23  C   UNL d   1      -4.956 -10.139   0.019  0.00  0.00     0.001 A 
ATOM     24  C   UNL d   1      -4.093 -11.127   0.486  0.00  0.00     0.000 A 
ATOM     25  C   UNL d   1      -2.729 -10.862   0.605  0.00  0.00     0.001 A 
ATOM     26  C   UNL d   1      -2.226  -9.607   0.259  0.00  0.00     0.009 A 
ENDBRANCH  20  21
ENDBRANCH  19  20
ENDBRANCH  16  19
ENDBRANCH   1  13
BRANCH   2  27
ATOM     27  S   UNL d   1       2.154  -1.236   1.311  0.00  0.00    -0.027 SA
BRANCH  27  28
ATOM     28  C   UNL d   1       3.037  -2.050   0.034  0.00  0.00     0.121 A 
ATOM     29  S   UNL d   1       4.566  -2.773   0.368  0.00  0.00    -0.039 SA
ATOM     30  C   UNL d   1       4.647  -3.300  -1.242  0.00  0.00     0.161 A 
ATOM     31  C   UNL d   1       3.535  -2.905  -1.944  0.00  0.00     0.133 A 
ATOM     32  N   UNL d   1       2.603  -2.190  -1.204  0.00  0.00    -0.352 N 
ATOM     33  HN  UNL d   1       1.718  -1.828  -1.562  1.00  0.00     0.166 HD
BRANCH  30  34
ATOM     34  N   UNL d   1       5.756  -4.061  -1.728  0.00  0.00    -0.107 N 
ATOM     35  O   UNL d   1       5.686  -4.434  -2.907  0.00  0.00    -0.531 OA
ATOM     36  O   UNL d   1       6.689  -4.295  -0.955  0.00  0.00    -0.531 OA
ENDBRANCH  30  34
ENDBRANCH  27  28
ENDBRANCH   2  27
TORSDOF 7
