REMARK  7 active torsions:
REMARK  status: ('A' for Active; 'I' for Inactive)
REMARK    1  A    between atoms: C_2  and  C_1 
REMARK    2  A    between atoms: O_9  and  C_2 
REMARK    3  A    between atoms: C_3  and  C_5 
REMARK    4  A    between atoms: O_11  and  C_3 
REMARK    5  A    between atoms: S_8  and  C_4 
REMARK    6  A    between atoms: C_5  and  C_10 
REMARK    7  A    between atoms: C_10  and  S_8 
ROOT
ATOM      1  C   UNL d   1       1.417  -0.206   0.096  0.00  0.00     0.054 A 
ATOM      2  C   UNL d   1       0.622  -1.365   0.033  0.00  0.00     0.017 A 
ATOM      3  C   UNL d   1       0.796   1.062   0.082  0.00  0.00     0.020 A 
ATOM      4  C   UNL d   1      -0.776  -1.216  -0.052  0.00  0.00     0.019 A 
ATOM      5  C   UNL d   1      -0.588   1.187  -0.004  0.00  0.00     0.001 A 
ATOM      6  C   UNL d   1      -1.377   0.046  -0.066  0.00  0.00     0.001 A 
ENDROOT
BRANCH   2   7
ATOM      7  S   UNL d   1       1.195  -3.060  -0.102  0.00  0.00    -0.128 SA
BRANCH   7   8
ATOM      8  C   UNL d   1       2.140  -3.345   1.443  0.00  0.00     0.090 C 
BRANCH   8   9
ATOM      9  C   UNL d   1       1.331  -3.166   2.719  0.00  0.00     0.120 C 
BRANCH   9  10
ATOM     10  C   UNL d   1       2.188  -3.556   3.900  0.00  0.00     0.140 C 
ATOM     11  O   UNL d   1       3.037  -4.435   3.874  0.00  0.00    -0.650 OA
BRANCH  10  12
ATOM     12  O   UNL d   1       1.906  -2.866   5.022  0.00  0.00    -0.776 OA
ATOM     13  H   UNL d   1       1.213  -2.187   4.928  0.00  0.00     0.167 HD
ENDBRANCH  10  12
ENDBRANCH   9  10
ENDBRANCH   8   9
ENDBRANCH   7   8
ENDBRANCH   2   7
BRANCH   1  14
ATOM     14  C   UNL d   1       2.902  -0.171   0.179  0.00  0.00     0.177 C 
ATOM     15  O   UNL d   1       3.490   0.720   0.768  0.00  0.00    -0.646 OA
BRANCH  14  16
ATOM     16  O   UNL d   1       3.534  -1.164  -0.472  0.00  0.00    -0.773 OA
ATOM     17  H   UNL d   1       2.946  -1.838  -0.872  0.00  0.00     0.167 HD
ENDBRANCH  14  16
ENDBRANCH   1  14
TORSDOF 7
