REMARK  5 active torsions:
REMARK  status: ('A' for Active; 'I' for Inactive)
REMARK       I    between atoms: N_3  and  C_1 
REMARK       I    between atoms: N_7  and  C_1 
REMARK    1  A    between atoms: C_2  and  O_8 
REMARK    2  A    between atoms: C_5  and  N_3 
REMARK    3  A    between atoms: N_4  and  C_6 
REMARK    4  A    between atoms: C_14  and  N_7 
REMARK    5  A    between atoms: O_8  and  C_15 
ROOT
ATOM      1  C   UNL d   1       0.658   0.774   0.835  0.00  0.00     0.303 C 
ATOM      2  N   UNL d   1       0.127   1.235  -0.370  0.00  0.00    -0.208 NA
ATOM      3  N   UNL d   1      -0.229  -0.130   1.404  0.00  0.00    -0.313 N 
ATOM      4  O   UNL d   1       1.712   1.151   1.335  0.00  0.00    -0.253 OA
ATOM      5  H   UNL d   1      -0.834   1.503  -0.211  0.00  0.00     0.138 HD
ATOM      6  H   UNL d   1      -0.790  -0.634   0.732  0.00  0.00     0.170 HD
ENDROOT
BRANCH   2   7
ATOM      7  C   UNL d   1       0.862   2.180  -1.133  0.00  0.00     0.043 A 
ATOM      8  C   UNL d   1       1.996   1.811  -1.906  0.00  0.00     0.052 A 
ATOM      9  C   UNL d   1       2.667   2.859  -2.565  0.00  0.00     0.031 A 
ATOM     10  C   UNL d   1       2.248   4.191  -2.467  0.00  0.00     0.002 A 
ATOM     11  C   UNL d   1       1.128   4.518  -1.713  0.00  0.00     0.002 A 
ATOM     12  C   UNL d   1       0.424   3.511  -1.063  0.00  0.00     0.026 A 
BRANCH   8  13
ATOM     13  N   UNL d   1       2.437   0.490  -2.002  0.00  0.00    -0.375 N 
ATOM     14  C   UNL d   1       3.830   0.199  -2.393  0.00  0.00     0.149 C 
ATOM     15  C   UNL d   1       4.196  -1.215  -1.910  0.00  0.00     0.187 C 
ATOM     16  O   UNL d   1       3.288  -2.206  -2.428  0.00  0.00    -0.388 OA
ATOM     17  C   UNL d   1       1.940  -1.901  -2.025  0.00  0.00     0.187 C 
ATOM     18  C   UNL d   1       1.502  -0.517  -2.536  0.00  0.00     0.149 C 
ENDBRANCH   8  13
ENDBRANCH   2   7
BRANCH   3  19
ATOM     19  C   UNL d   1      -0.170  -0.648   2.711  0.00  0.00     0.036 A 
ATOM     20  C   UNL d   1       0.510  -0.019   3.754  0.00  0.00     0.032 A 
ATOM     21  C   UNL d   1       0.543  -0.591   5.033  0.00  0.00     0.039 A 
ATOM     22  C   UNL d   1      -0.075  -1.818   5.267  0.00  0.00     0.078 A 
ATOM     23  C   UNL d   1      -0.814  -2.413   4.245  0.00  0.00     0.039 A 
ATOM     24  C   UNL d   1      -0.868  -1.832   2.974  0.00  0.00     0.032 A 
BRANCH  22  25
ATOM     25  O   UNL d   1      -0.100  -2.464   6.464  0.00  0.00    -0.255 OA
BRANCH  25  26
ATOM     26  C   UNL d   1       1.095  -2.507   7.236  0.00  0.00     0.530 C 
ATOM     27  F   UNL d   1       2.140  -1.846   6.695  0.00  0.00    -0.144 F 
ATOM     28  F   UNL d   1       0.845  -1.988   8.458  0.00  0.00    -0.144 F 
ATOM     29  F   UNL d   1       1.460  -3.800   7.397  0.00  0.00    -0.144 F 
ENDBRANCH  25  26
ENDBRANCH  22  25
ENDBRANCH   3  19
TORSDOF 5
