REMARK  2 active torsions:
REMARK  status: ('A' for Active; 'I' for Inactive)
REMARK    1  A    between atoms: C_6  and  C_1 
REMARK       I    between atoms: N_8  and  C_6 
REMARK    2  A    between atoms: C_12  and  N_8 
ROOT
ATOM      1  C   UNL d   1      -2.412  -0.106  -0.332  0.00  0.00     0.102 A 
ATOM      2  N   UNL d   1      -1.593   0.993  -0.194  0.00  0.00    -0.351 N 
ATOM      3  C   UNL d   1      -1.591  -1.215  -0.234  0.00  0.00     0.049 A 
ATOM      4  C   UNL d   1      -0.273   0.624  -0.130  0.00  0.00     0.044 A 
ATOM      5  C   UNL d   1      -0.237  -0.768  -0.126  0.00  0.00    -0.001 A 
ATOM      6  C   UNL d   1       1.014  -1.424  -0.058  0.00  0.00    -0.049 A 
ATOM      7  C   UNL d   1       0.874   1.422  -0.097  0.00  0.00     0.037 A 
ATOM      8  C   UNL d   1       2.176  -0.621  -0.054  0.00  0.00     0.014 A 
ATOM      9  C   UNL d   1       2.116   0.778  -0.084  0.00  0.00    -0.059 A 
ATOM     10  C   UNL d   1       1.173  -2.918  -0.044  0.00  0.00     0.049 C 
ATOM     11  C   UNL d   1       3.388   1.574  -0.143  0.00  0.00     0.048 C 
ATOM     12  H   UNL d   1      -1.935   1.945  -0.218  0.00  0.00     0.166 HD
ENDROOT
BRANCH   1  13
ATOM     13  C   UNL d   1      -3.830   0.065  -0.567  0.00  0.00     0.272 C 
ATOM     14  N   UNL d   1      -4.569  -1.104  -0.600  0.00  0.00    -0.322 N 
ATOM     15  H   UNL d   1      -4.111  -1.941  -0.267  0.00  0.00     0.169 HD
ATOM     16  O   UNL d   1      -4.294   1.196  -0.701  0.00  0.00    -0.266 OA
BRANCH  14  17
ATOM     17  C   UNL d   1      -5.949  -1.199  -0.880  0.00  0.00     0.037 A 
ATOM     18  C   UNL d   1      -6.672  -0.177  -1.495  0.00  0.00     0.072 A 
ATOM     19  C   UNL d   1      -8.048  -0.295  -1.658  0.00  0.00     0.124 A 
ATOM     20  F   UNL d   1      -8.721   0.715  -2.229  0.00  0.00    -0.205 F 
ATOM     21  C   UNL d   1      -8.739  -1.427  -1.225  0.00  0.00    -0.023 A 
ATOM     22  C   UNL d   1      -8.007  -2.482  -0.671  0.00  0.00     0.012 A 
ATOM     23  C   UNL d   1     -10.233  -1.459  -1.308  0.00  0.00     0.051 C 
ATOM     24  C   UNL d   1      -6.618  -2.374  -0.514  0.00  0.00     0.030 A 
ENDBRANCH  14  17
ENDBRANCH   1  13
TORSDOF 2
