REMARK  7 active torsions:
REMARK  status: ('A' for Active; 'I' for Inactive)
REMARK    1  A    between atoms: C_8  and  C_1 
REMARK    2  A    between atoms: C_4  and  C_2 
REMARK    3  A    between atoms: S_7  and  C_3 
REMARK    4  A    between atoms: C_12  and  S_7 
REMARK    5  A    between atoms: O_14  and  C_8 
REMARK    6  A    between atoms: C_13  and  C_23 
REMARK    7  A    between atoms: C_23  and  O_14 
ROOT
ATOM      1  C   UNL d   1      -0.024  -1.520  -0.119  0.00  0.00     0.086 A 
ATOM      2  C   UNL d   1       1.219  -0.924  -0.113  0.00  0.00     0.136 A 
ATOM      3  C   UNL d   1       0.230   1.190  -0.113  0.00  0.00     0.150 A 
ATOM      4  N   UNL d   1       1.345   0.441  -0.084  0.00  0.00    -0.332 N 
ATOM      5  HN  UNL d   1       2.265   0.879  -0.043  1.00  0.00     0.168 HD
ATOM      6  N   UNL d   1      -1.011   0.685  -0.162  0.00  0.00    -0.345 N 
ATOM      7  HN  UNL d   1      -1.836   1.285  -0.193  1.00  0.00     0.167 HD
ATOM      8  C   UNL d   1      -1.108  -0.662  -0.168  0.00  0.00     0.110 A 
ENDROOT
BRANCH   3   9
ATOM      9  S   UNL d   1       0.392   2.942   0.050  0.00  0.00    -0.036 SA
BRANCH   9  10
ATOM     10  C   UNL d   1       0.415   3.424  -1.657  0.00  0.00     0.077 A 
ATOM     11  N   UNL d   1       1.537   4.053  -2.080  0.00  0.00    -0.360 N 
ATOM     12  C   UNL d   1       1.567   4.484  -3.360  0.00  0.00     0.089 A 
ATOM     13  HN  UNL d   1       2.330   4.197  -1.455  1.00  0.00     0.166 HD
ATOM     14  C   UNL d   1       0.521   4.324  -4.251  0.00  0.00     0.017 A 
ATOM     15  C   UNL d   1      -0.628   3.685  -3.802  0.00  0.00     0.004 A 
ATOM     16  C   UNL d   1      -0.688   3.232  -2.485  0.00  0.00     0.037 A 
ENDBRANCH   9  10
ENDBRANCH   3   9
BRANCH   2  17
ATOM     17  C   UNL d   1       2.501  -1.732  -0.145  0.00  0.00     0.433 C 
ATOM     18  F   UNL d   1       2.360  -2.990  -0.651  0.00  0.00    -0.165 F 
ATOM     19  F   UNL d   1       3.462  -1.155  -0.925  0.00  0.00    -0.165 F 
ATOM     20  F   UNL d   1       3.062  -1.879   1.087  0.00  0.00    -0.165 F 
ENDBRANCH   2  17
BRANCH   1  21
ATOM     21  C   UNL d   1      -0.329  -2.954  -0.082  0.00  0.00     0.297 C 
ATOM     22  O   UNL d   1      -1.224  -3.432  -0.752  0.00  0.00    -0.259 OA
BRANCH  21  23
ATOM     23  O   UNL d   1       0.358  -3.549   0.918  0.00  0.00    -0.317 OA
BRANCH  23  24
ATOM     24  C   UNL d   1      -0.165  -4.831   1.326  0.00  0.00     0.183 C 
BRANCH  24  25
ATOM     25  C   UNL d   1       0.613  -5.957   0.724  0.00  0.00     0.010 A 
ATOM     26  C   UNL d   1       0.475  -6.363  -0.723  0.00  0.00     0.007 A 
ATOM     27  C   UNL d   1      -0.119  -7.227   0.353  0.00  0.00     0.007 A 
ENDBRANCH  24  25
ENDBRANCH  23  24
ENDBRANCH  21  23
ENDBRANCH   1  21
TORSDOF 7
