REMARK  5 active torsions:
REMARK  status: ('A' for Active; 'I' for Inactive)
REMARK    1  A    between atoms: C_3  and  C_1 
REMARK    2  A    between atoms: N_4  and  C_2 
REMARK       I    between atoms: C_6  and  N_4 
REMARK    3  A    between atoms: C_15  and  C_6 
REMARK    4  A    between atoms: S_9  and  C_15 
REMARK    5  A    between atoms: C_16  and  S_9 
ROOT
ATOM      1  N   UNL d   1      -0.748  -1.260   6.131  0.00  0.00    -0.325 N 
ATOM      2  C   UNL d   1      -1.127  -2.394   5.433  0.00  0.00     0.231 C 
ATOM      3  O   UNL d   1      -1.292  -2.445   4.214  0.00  0.00    -0.272 OA
ATOM      4  H   UNL d   1      -0.482  -1.392   7.106  0.00  0.00     0.169 HD
ENDROOT
BRANCH   1   5
ATOM      5  C   UNL d   1      -0.667   0.064   5.641  0.00  0.00     0.057 A 
ATOM      6  C   UNL d   1      -1.192   0.435   4.397  0.00  0.00     0.047 A 
ATOM      7  C   UNL d   1      -1.108   1.758   3.929  0.00  0.00     0.050 A 
ATOM      8  C   UNL d   1      -0.490   2.726   4.734  0.00  0.00     0.018 A 
ATOM      9  C   UNL d   1       0.025   2.378   5.984  0.00  0.00     0.027 A 
ATOM     10  C   UNL d   1      -0.068   1.058   6.434  0.00  0.00     0.060 A 
ATOM     11 CL   UNL d   1       0.601   0.679   7.987  0.00  0.00    -0.082 Cl
BRANCH   7  12
ATOM     12  C   UNL d   1      -1.671   2.135   2.579  0.00  0.00     0.417 C 
ATOM     13  F   UNL d   1      -2.235   1.096   1.906  0.00  0.00    -0.166 F 
ATOM     14  F   UNL d   1      -0.721   2.648   1.749  0.00  0.00    -0.166 F 
ATOM     15  F   UNL d   1      -2.639   3.088   2.671  0.00  0.00    -0.166 F 
ENDBRANCH   7  12
ENDBRANCH   1   5
BRANCH   2  16
ATOM     16  C   UNL d   1      -1.232  -3.672   6.256  0.00  0.00     0.182 C 
BRANCH  16  17
ATOM     17  S   UNL d   1      -1.923  -3.368   7.914  0.00  0.00    -0.121 SA
BRANCH  17  18
ATOM     18  C   UNL d   1      -1.851  -4.990   8.660  0.00  0.00     0.001 A 
ATOM     19  C   UNL d   1      -1.620  -5.048  10.039  0.00  0.00     0.019 A 
ATOM     20  C   UNL d   1      -1.599  -6.272  10.712  0.00  0.00     0.008 A 
ATOM     21  C   UNL d   1      -1.819  -7.466  10.018  0.00  0.00    -0.062 A 
ATOM     22  C   UNL d   1      -2.055  -7.413   8.641  0.00  0.00     0.008 A 
ATOM     23  C   UNL d   1      -1.819  -8.769  10.761  0.00  0.00     0.048 C 
ATOM     24  C   UNL d   1      -2.075  -6.183   7.968  0.00  0.00     0.019 A 
ENDBRANCH  17  18
ENDBRANCH  16  17
ENDBRANCH   2  16
TORSDOF 5
