REMARK  4 active torsions:
REMARK  status: ('A' for Active; 'I' for Inactive)
REMARK    1  A    between atoms: S_12  and  C_3 
REMARK    2  A    between atoms: C_4  and  C_10 
REMARK    3  A    between atoms: N_15  and  C_5 
REMARK    4  A    between atoms: C_10  and  S_12 
ROOT
ATOM      1  N   UNL d   1      -0.311  -1.321  -0.180  0.00  0.00    -0.313 N 
ATOM      2  HN  UNL d   1      -0.726  -2.236  -0.007  1.00  0.00     0.170 HD
ATOM      3  C   UNL d   1       0.991  -1.153  -0.410  0.00  0.00     0.147 A 
ATOM      4  C   UNL d   1      -1.024  -0.202  -0.193  0.00  0.00     0.157 A 
ATOM      5  N   UNL d   1       1.579   0.015  -0.666  0.00  0.00    -0.333 N 
ATOM      6  HN  UNL d   1       2.580   0.101  -0.842  1.00  0.00     0.168 HD
ATOM      7  N   UNL d   1      -0.549   1.009  -0.449  0.00  0.00    -0.329 N 
ATOM      8  HN  UNL d   1      -1.140   1.840  -0.472  1.00  0.00     0.169 HD
ATOM      9  C   UNL d   1       0.759   1.052  -0.672  0.00  0.00     0.184 A 
ENDROOT
BRANCH   3  10
ATOM     10  S   UNL d   1       2.094  -2.548  -0.393  0.00  0.00    -0.089 SA
BRANCH  10  11
ATOM     11  C   UNL d   1       0.948  -3.930  -0.092  0.00  0.00     0.126 C 
BRANCH  11  12
ATOM     12  C   UNL d   1       1.706  -5.234   0.011  0.00  0.00     0.012 A 
ATOM     13  C   UNL d   1       2.192  -5.640   1.261  0.00  0.00     0.125 A 
ATOM     14  F   UNL d   1       1.944  -4.893   2.346  0.00  0.00    -0.205 F 
ATOM     15  C   UNL d   1       2.939  -6.807   1.423  0.00  0.00     0.043 A 
ATOM     16  C   UNL d   1       3.220  -7.604   0.320  0.00  0.00     0.005 A 
ATOM     17  C   UNL d   1       2.753  -7.223  -0.938  0.00  0.00     0.024 A 
ATOM     18  C   UNL d   1       2.006  -6.046  -1.094  0.00  0.00     0.044 A 
ATOM     19 CL   UNL d   1       1.484  -5.646  -2.691  0.00  0.00    -0.084 Cl
ENDBRANCH  11  12
ENDBRANCH  10  11
ENDBRANCH   3  10
BRANCH   4  20
ATOM     20  N   UNL d   1      -2.381  -0.288   0.043  0.00  0.00    -0.274 NA
ATOM     21  H   UNL d   1      -2.739  -1.200  -0.197  0.00  0.00     0.127 HD
ATOM     22  H   UNL d   1      -2.856   0.515  -0.344  0.00  0.00     0.127 HD
ENDBRANCH   4  20
TORSDOF 4
