REMARK  3 active torsions:
REMARK  status: ('A' for Active; 'I' for Inactive)
REMARK    1  A    between atoms: C_2  and  S_1 
REMARK    2  A    between atoms: N_3  and  S_1 
REMARK    3  A    between atoms: C_13  and  N_3 
ROOT
ATOM      1  N   UNL d   1       1.399   2.989  -7.282  0.00  0.00    -0.191 NA
ATOM      2  C   UNL d   1       1.226   2.431  -6.281  0.00  0.00     0.099 C 
ATOM      3  C   UNL d   1       0.567   0.397  -2.625  0.00  0.00     0.042 A 
ATOM      4  C   UNL d   1       1.005   1.741  -5.040  0.00  0.00     0.044 A 
ATOM      5  C   UNL d   1       1.586  -0.024  -3.478  0.00  0.00     0.031 A 
ATOM      6  C   UNL d   1      -0.243   1.476  -2.979  0.00  0.00     0.031 A 
ATOM      7  C   UNL d   1       1.806   0.648  -4.686  0.00  0.00     0.025 A 
ATOM      8  C   UNL d   1      -0.020   2.153  -4.181  0.00  0.00     0.025 A 
ENDROOT
BRANCH   3   9
ATOM      9  N   UNL d   1       0.287  -0.309  -1.435  0.00  0.00    -0.281 N 
ATOM     10  H   UNL d   1      -0.344  -1.107  -1.437  0.00  0.00     0.179 HD
BRANCH   9  11
ATOM     11  S   UNL d   1       1.096   0.016  -0.007  0.00  0.00     0.263 S 
ATOM     12  O   UNL d   1       0.550  -0.895   0.978  0.00  0.00    -0.200 OA
ATOM     13  O   UNL d   1       2.517   0.070  -0.269  0.00  0.00    -0.200 OA
BRANCH  11  14
ATOM     14  C   UNL d   1       0.538   1.652   0.409  0.00  0.00     0.080 A 
ATOM     15  C   UNL d   1      -0.645   1.826   1.137  0.00  0.00     0.037 A 
ATOM     16  C   UNL d   1      -1.079   3.120   1.478  0.00  0.00    -0.025 A 
ATOM     17  C   UNL d   1      -2.264   3.335   2.202  0.00  0.00     0.012 A 
ATOM     18  C   UNL d   1      -0.302   4.237   1.084  0.00  0.00    -0.026 A 
ATOM     19  C   UNL d   1      -2.681   4.628   2.525  0.00  0.00     0.001 A 
ATOM     20  C   UNL d   1      -1.920   5.725   2.130  0.00  0.00     0.001 A 
ATOM     21  C   UNL d   1      -0.737   5.530   1.417  0.00  0.00     0.012 A 
ATOM     22  C   UNL d   1       0.892   4.037   0.375  0.00  0.00     0.014 A 
ATOM     23  C   UNL d   1       1.317   2.750   0.043  0.00  0.00     0.026 A 
ENDBRANCH  11  14
ENDBRANCH   9  11
ENDBRANCH   3   9
TORSDOF 3
