REMARK  8 active torsions:
REMARK  status: ('A' for Active; 'I' for Inactive)
REMARK    1  A    between atoms: C_2  and  C_1 
REMARK       I    between atoms: N_12  and  C_2 
REMARK    2  A    between atoms: C_3  and  C_4 
REMARK    3  A    between atoms: C_5  and  C_14 
REMARK    4  A    between atoms: O_22  and  C_6 
REMARK       I    between atoms: C_10  and  N_13 
REMARK    5  A    between atoms: C_18  and  C_10 
REMARK    6  A    between atoms: C_11  and  C_24 
REMARK    7  A    between atoms: N_13  and  N_12 
REMARK    8  A    between atoms: C_24  and  O_22 
ROOT
ATOM      1  C   UNL d   1       0.048   1.307  -0.059  0.00  0.00     0.107 A 
ATOM      2  C   UNL d   1       1.318   0.749  -0.050  0.00  0.00     0.092 A 
ATOM      3  S   UNL d   1      -1.159   0.075  -0.019  0.00  0.00    -0.094 SA
ATOM      4  C   UNL d   1       1.283  -0.678   0.060  0.00  0.00     0.045 A 
ATOM      5  C   UNL d   1       0.001  -1.171   0.061  0.00  0.00     0.053 A 
ENDROOT
BRANCH   1   6
ATOM      6  C   UNL d   1      -0.341   2.715  -0.085  0.00  0.00     0.279 C 
ATOM      7  N   UNL d   1      -1.646   2.975  -0.487  0.00  0.00    -0.262 N 
ATOM      8  H   UNL d   1      -2.299   2.244  -0.757  0.00  0.00     0.190 HD
ATOM      9  O   UNL d   1       0.402   3.649   0.227  0.00  0.00    -0.265 OA
BRANCH   7  10
ATOM     10  N   UNL d   1      -2.127   4.290  -0.458  0.00  0.00    -0.263 N 
ATOM     11  C   UNL d   1      -3.363   4.563  -1.017  0.00  0.00     0.270 C 
ATOM     12  O   UNL d   1      -4.064   3.712  -1.553  0.00  0.00    -0.266 OA
ATOM     13  H   UNL d   1      -1.455   5.007  -0.192  0.00  0.00     0.190 HD
BRANCH  11  14
ATOM     14  C   UNL d   1      -3.812   5.982  -0.940  0.00  0.00     0.034 A 
ATOM     15  C   UNL d   1      -4.610   6.508  -1.967  0.00  0.00     0.033 A 
ATOM     16  C   UNL d   1      -5.057   7.841  -1.913  0.00  0.00     0.048 A 
ATOM     17  C   UNL d   1      -4.713   8.627  -0.800  0.00  0.00     0.016 A 
ATOM     18  C   UNL d   1      -3.940   8.098   0.233  0.00  0.00     0.002 A 
ATOM     19  C   UNL d   1      -3.486   6.780   0.164  0.00  0.00     0.017 A 
BRANCH  16  20
ATOM     20  C   UNL d   1      -5.886   8.449  -3.020  0.00  0.00     0.417 C 
ATOM     21  F   UNL d   1      -6.154   7.590  -4.041  0.00  0.00    -0.166 F 
ATOM     22  F   UNL d   1      -7.093   8.900  -2.580  0.00  0.00    -0.166 F 
ATOM     23  F   UNL d   1      -5.273   9.525  -3.589  0.00  0.00    -0.166 F 
ENDBRANCH  16  20
ENDBRANCH  11  14
ENDBRANCH   7  10
ENDBRANCH   1   6
BRANCH   2  24
ATOM     24  O   UNL d   1       2.429   1.529  -0.138  0.00  0.00    -0.344 OA
BRANCH  24  25
ATOM     25  C   UNL d   1       3.581   0.842  -0.641  0.00  0.00     0.234 C 
BRANCH  25  26
ATOM     26  C   UNL d   1       4.614   1.787  -1.214  0.00  0.00     0.055 A 
ATOM     27  N   UNL d   1       5.887   1.636  -0.741  0.00  0.00    -0.365 N 
ATOM     28  C   UNL d   1       6.866   2.392  -1.292  0.00  0.00     0.104 A 
ATOM     29  HN  UNL d   1       6.094   0.973   0.006  1.00  0.00     0.165 HD
ATOM     30  C   UNL d   1       6.653   3.306  -2.311  0.00  0.00     0.064 A 
ATOM     31  C   UNL d   1       5.346   3.446  -2.789  0.00  0.00     0.043 A 
ATOM     32  C   UNL d   1       4.315   2.677  -2.248  0.00  0.00     0.059 A 
ATOM     33 CL   UNL d   1       2.746   2.828  -2.945  0.00  0.00    -0.082 Cl
BRANCH  30  34
ATOM     34  C   UNL d   1       7.804   4.082  -2.869  0.00  0.00     0.418 C 
ATOM     35  F   UNL d   1       7.448   4.940  -3.864  0.00  0.00    -0.166 F 
ATOM     36  F   UNL d   1       8.431   4.838  -1.928  0.00  0.00    -0.166 F 
ATOM     37  F   UNL d   1       8.764   3.275  -3.401  0.00  0.00    -0.166 F 
ENDBRANCH  30  34
ENDBRANCH  25  26
ENDBRANCH  24  25
ENDBRANCH   2  24
TORSDOF 8
