REMARK  4 active torsions:
REMARK  status: ('A' for Active; 'I' for Inactive)
REMARK    1  A    between atoms: C_3  and  N_1 
REMARK    2  A    between atoms: S_6  and  C_2 
REMARK    3  A    between atoms: C_13  and  S_6 
REMARK    4  A    between atoms: C_16  and  C_13 
ROOT
ATOM      1  N   UNL d   1      -0.348  -1.129   0.013  0.00  0.00    -0.300 N 
ATOM      2  C   UNL d   1       0.977  -0.684   0.079  0.00  0.00     0.151 A 
ATOM      3  N   UNL d   1       1.060   0.626   0.179  0.00  0.00    -0.345 N 
ATOM      4  HN  UNL d   1       1.909   1.186   0.256  1.00  0.00     0.167 HD
ATOM      5  C   UNL d   1      -1.105   0.027   0.084  0.00  0.00     0.116 A 
ATOM      6  C   UNL d   1      -0.224   1.077   0.157  0.00  0.00     0.108 A 
ENDROOT
BRANCH   2   7
ATOM      7  S   UNL d   1       2.394  -1.681  -0.141  0.00  0.00    -0.089 SA
BRANCH   7   8
ATOM      8  C   UNL d   1       3.613  -0.726   0.812  0.00  0.00     0.121 C 
BRANCH   8   9
ATOM      9  C   UNL d   1       4.978  -1.378   0.836  0.00  0.00    -0.048 A 
ATOM     10  C   UNL d   1       5.945  -1.038  -0.126  0.00  0.00     0.009 A 
ATOM     11  C   UNL d   1       7.224  -1.595  -0.077  0.00  0.00     0.024 A 
ATOM     12  C   UNL d   1       7.548  -2.506   0.924  0.00  0.00     0.034 A 
ATOM     13  C   UNL d   1       6.594  -2.875   1.871  0.00  0.00     0.024 A 
ATOM     14 CL   UNL d   1       9.133  -3.170   1.001  0.00  0.00    -0.084 Cl
ATOM     15  C   UNL d   1       5.312  -2.317   1.824  0.00  0.00     0.009 A 
ENDBRANCH   8   9
ENDBRANCH   7   8
ENDBRANCH   2   7
BRANCH   1  16
ATOM     16  C   UNL d   1      -0.867  -2.462  -0.028  0.00  0.00     0.064 A 
ATOM     17  C   UNL d   1      -0.189  -3.473   0.681  0.00  0.00     0.055 A 
ATOM     18  C   UNL d   1      -0.642  -4.793   0.659  0.00  0.00     0.036 A 
ATOM     19 CL   UNL d   1       0.237  -6.010   1.499  0.00  0.00    -0.084 Cl
ATOM     20  C   UNL d   1      -1.798  -5.130  -0.033  0.00  0.00     0.026 A 
ATOM     21  C   UNL d   1      -2.503  -4.136  -0.709  0.00  0.00     0.028 A 
ATOM     22  C   UNL d   1      -2.045  -2.808  -0.720  0.00  0.00     0.061 A 
ATOM     23 CL   UNL d   1      -2.951  -1.736  -1.734  0.00  0.00    -0.082 Cl
ENDBRANCH   1  16
TORSDOF 4
