REMARK  2 active torsions:
REMARK  status: ('A' for Active; 'I' for Inactive)
REMARK    1  A    between atoms: C_6  and  C_1 
REMARK    2  A    between atoms: O_15  and  C_11 
ROOT
ATOM      1  C   UNL d   1      -2.327  -0.294   0.016  0.00  0.00     0.048 A 
ATOM      2  C   UNL d   1      -1.373   0.846   0.013  0.00  0.00     0.197 A 
ATOM      3  C   UNL d   1      -1.818  -1.536   0.017  0.00  0.00     0.159 A 
ATOM      4  C   UNL d   1       0.060   0.496   0.008  0.00  0.00     0.049 A 
ATOM      5  O   UNL d   1      -0.485  -1.872   0.019  0.00  0.00    -0.321 OA
ATOM      6  C   UNL d   1       0.429  -0.849   0.012  0.00  0.00     0.089 A 
ATOM      7  O   UNL d   1      -1.739   2.014   0.013  0.00  0.00    -0.286 OA
ATOM      8  C   UNL d   1       1.041   1.493  -0.001  0.00  0.00     0.018 A 
ATOM      9  C   UNL d   1       1.779  -1.202   0.006  0.00  0.00     0.038 A 
ATOM     10  C   UNL d   1       2.391   1.139  -0.007  0.00  0.00     0.001 A 
ATOM     11  C   UNL d   1       2.760  -0.209  -0.003  0.00  0.00     0.003 A 
ENDROOT
BRANCH   1  12
ATOM     12  C   UNL d   1      -3.781  -0.089   0.010  0.00  0.00    -0.020 A 
ATOM     13  C   UNL d   1      -4.496  -0.031   1.212  0.00  0.00     0.015 A 
ATOM     14  C   UNL d   1      -5.879   0.187   1.207  0.00  0.00     0.037 A 
ATOM     15  C   UNL d   1      -6.563   0.338   0.000  0.00  0.00     0.068 A 
ATOM     16  C   UNL d   1      -5.852   0.264  -1.200  0.00  0.00     0.037 A 
ATOM     17  C   UNL d   1      -4.470   0.048  -1.199  0.00  0.00     0.015 A 
BRANCH  15  18
ATOM     18  O   UNL d   1      -7.907   0.554  -0.139  0.00  0.00    -0.356 OA
ATOM     19  C   UNL d   1      -8.668   0.644   1.059  0.00  0.00     0.210 C 
ENDBRANCH  15  18
ENDBRANCH   1  12
TORSDOF 2
