REMARK  5 active torsions:
REMARK  status: ('A' for Active; 'I' for Inactive)
REMARK    1  A    between atoms: C_11  and  C_3 
REMARK    2  A    between atoms: C_14  and  C_10 
REMARK    3  A    between atoms: O_19  and  C_11 
REMARK    4  A    between atoms: C_13  and  C_20 
REMARK    5  A    between atoms: N_16  and  O_19 
ROOT
ATOM      1  C   UNL d   1       0.334   0.529  -0.015  0.00  0.00     0.172 A 
ATOM      2  N   UNL d   1      -0.143  -0.747  -0.053  0.00  0.00    -0.235 N 
ATOM      3  C   UNL d   1      -2.107   0.358  -0.023  0.00  0.00     0.109 A 
ATOM      4  N   UNL d   1       1.635   0.568   0.006  0.00  0.00    -0.319 N 
ATOM      5  HN  UNL d   1       2.256   1.376   0.042  1.00  0.00     0.169 HD
ATOM      6  N   UNL d   1       0.884  -1.609  -0.063  0.00  0.00    -0.276 N 
ATOM      7  HN  UNL d   1       0.865  -2.628  -0.086  1.00  0.00     0.189 HD
ATOM      8  C   UNL d   1      -1.523  -0.861  -0.057  0.00  0.00     0.056 A 
ATOM      9  S   UNL d   1      -0.943   1.696   0.004  0.00  0.00    -0.044 SA
ATOM     10  C   UNL d   1       1.951  -0.782  -0.035  0.00  0.00     0.132 A 
ATOM     11  C   UNL d   1      -2.170  -2.203  -0.050  0.00  0.00     0.072 C 
ENDROOT
BRANCH   3  12
ATOM     12  C   UNL d   1      -3.569   0.584   0.093  0.00  0.00     0.324 C 
ATOM     13  O   UNL d   1      -4.385  -0.330   0.087  0.00  0.00    -0.257 OA
BRANCH  12  14
ATOM     14  O   UNL d   1      -3.856   1.909   0.285  0.00  0.00    -0.195 OA
BRANCH  14  15
ATOM     15  N   UNL d   1      -4.855   2.002   1.271  0.00  0.00    -0.268 N 
ATOM     16  C   UNL d   1      -5.303   3.211   1.356  0.00  0.00     0.127 C 
ATOM     17  HN  UNL d   1      -5.181   1.221   1.840  1.00  0.00     0.194 HD
BRANCH  16  18
ATOM     18  C   UNL d   1      -6.222   3.585   2.456  0.00  0.00     0.003 A 
ATOM     19  C   UNL d   1      -6.749   4.876   2.585  0.00  0.00     0.047 A 
ATOM     20  C   UNL d   1      -7.528   5.203   3.702  0.00  0.00     0.048 A 
ATOM     21 CL   UNL d   1      -6.473   6.120   1.419  0.00  0.00    -0.083 Cl
ATOM     22  C   UNL d   1      -7.780   4.244   4.682  0.00  0.00     0.035 A 
ATOM     23  C   UNL d   1      -7.276   2.954   4.554  0.00  0.00     0.025 A 
ATOM     24 CL   UNL d   1      -8.710   4.659   6.068  0.00  0.00    -0.084 Cl
ATOM     25  C   UNL d   1      -6.502   2.624   3.442  0.00  0.00     0.016 A 
ENDBRANCH  16  18
ENDBRANCH  14  15
ENDBRANCH  12  14
ENDBRANCH   3  12
BRANCH  10  26
ATOM     26  C   UNL d   1       3.329  -1.266  -0.075  0.00  0.00     0.009 A 
ATOM     27  C   UNL d   1       4.408  -0.373   0.010  0.00  0.00     0.017 A 
ATOM     28  C   UNL d   1       5.725  -0.841  -0.066  0.00  0.00     0.025 A 
ATOM     29  C   UNL d   1       5.971  -2.204  -0.228  0.00  0.00     0.034 A 
ATOM     30  C   UNL d   1       4.913  -3.105  -0.301  0.00  0.00     0.025 A 
ATOM     31 CL   UNL d   1       7.590  -2.775  -0.345  0.00  0.00    -0.084 Cl
ATOM     32  C   UNL d   1       3.599  -2.639  -0.223  0.00  0.00     0.017 A 
ENDBRANCH  10  26
TORSDOF 5
