REMARK  4 active torsions:
REMARK  status: ('A' for Active; 'I' for Inactive)
REMARK    1  A    between atoms: N_2  and  C_1 
REMARK    2  A    between atoms: N_3  and  C_1 
REMARK       I    between atoms: C_4  and  N_2 
REMARK    3  A    between atoms: O_8  and  C_4 
REMARK    4  A    between atoms: C_13  and  O_8 
ROOT
ATOM      1  C   UNL d   1       1.042   0.126   0.022  0.00  0.00     0.178 C 
ATOM      2  S   UNL d   1       2.528   0.098  -0.768  0.00  0.00    -0.041 SA
ENDROOT
BRANCH   1   3
ATOM      3  N   UNL d   1       0.630  -0.888   0.884  0.00  0.00    -0.279 N 
ATOM      4  C   UNL d   1       1.411  -1.855   1.463  0.00  0.00     0.366 C 
ATOM      5  O   UNL d   1       2.551  -1.712   1.880  0.00  0.00    -0.238 OA
ATOM      6  H   UNL d   1      -0.310  -1.213   0.720  0.00  0.00     0.173 HD
BRANCH   4   7
ATOM      7  O   UNL d   1       0.683  -2.991   1.610  0.00  0.00    -0.304 OA
BRANCH   7   8
ATOM      8  C   UNL d   1       1.436  -4.127   2.065  0.00  0.00     0.176 C 
ATOM      9  C   UNL d   1       2.016  -4.835   0.856  0.00  0.00     0.034 C 
ENDBRANCH   7   8
ENDBRANCH   4   7
ENDBRANCH   1   3
BRANCH   1  10
ATOM     10  N   UNL d   1       0.058   1.135  -0.141  0.00  0.00    -0.356 N 
ATOM     11  C   UNL d   1       0.318   2.296  -1.026  0.00  0.00     0.135 C 
ATOM     12  C   UNL d   1      -0.932   2.879  -1.688  0.00  0.00     0.093 C 
ATOM     13  S   UNL d   1      -2.175   3.425  -0.482  0.00  0.00    -0.166 SA
ATOM     14  C   UNL d   1      -2.276   1.879   0.463  0.00  0.00     0.093 C 
ATOM     15  C   UNL d   1      -0.904   1.417   0.949  0.00  0.00     0.135 C 
ENDBRANCH   1  10
TORSDOF 4
