REMARK  4 active torsions:
REMARK  status: ('A' for Active; 'I' for Inactive)
REMARK    1  A    between atoms: C_7  and  C_1 
REMARK    2  A    between atoms: C_6  and  C_8 
REMARK    3  A    between atoms: C_8  and  O_11 
REMARK    4  A    between atoms: O_11  and  N_9 
ROOT
ATOM      1  C   UNL d   1       3.842  -0.130  -0.027  0.00  0.00     0.046 C 
ATOM      2  N   UNL d   1       4.566  -1.213  -0.021  0.00  0.00    -0.261 N 
ATOM      3  HN  UNL d   1       5.586  -1.212  -0.045  1.00  0.00     0.194 HD
ATOM      4  C   UNL d   1       2.325  -0.187  -0.008  0.00  0.00     0.071 C 
ENDROOT
BRANCH   1   5
ATOM      5  C   UNL d   1       4.529   1.167  -0.050  0.00  0.00     0.036 A 
ATOM      6  S   UNL d   1       3.805   2.516   0.721  0.00  0.00    -0.087 SA
ATOM      7  C   UNL d   1       5.101   3.569   0.346  0.00  0.00     0.016 A 
ATOM      8  C   UNL d   1       5.204   4.937   0.674  0.00  0.00     0.021 A 
ATOM      9  C   UNL d   1       6.107   2.901  -0.350  0.00  0.00    -0.010 A 
ATOM     10  C   UNL d   1       6.350   5.643   0.299  0.00  0.00     0.025 A 
ATOM     11  C   UNL d   1       7.368   4.999  -0.386  0.00  0.00     0.035 A 
ATOM     12  C   UNL d   1       7.263   3.646  -0.714  0.00  0.00     0.037 A 
ATOM     13 CL   UNL d   1       8.781   5.875  -0.835  0.00  0.00    -0.084 Cl
ATOM     14  C   UNL d   1       5.767   1.506  -0.589  0.00  0.00    -0.031 A 
ATOM     15  C   UNL d   1       6.685   0.588  -1.342  0.00  0.00     0.050 C 
ENDBRANCH   1   5
BRANCH   2  16
ATOM     16  O   UNL d   1       3.784  -2.390   0.024  0.00  0.00    -0.195 OA
BRANCH  16  17
ATOM     17  C   UNL d   1       4.597  -3.485   0.108  0.00  0.00     0.316 C 
ATOM     18  O   UNL d   1       5.821  -3.501   0.048  0.00  0.00    -0.257 OA
BRANCH  17  19
ATOM     19  C   UNL d   1       3.817  -4.750   0.183  0.00  0.00     0.063 A 
ATOM     20  C   UNL d   1       2.591  -4.912   0.842  0.00  0.00     0.050 A 
ATOM     21 CL   UNL d   1       1.789  -3.652   1.709  0.00  0.00    -0.083 Cl
ATOM     22  C   UNL d   1       1.973  -6.172   0.872  0.00  0.00     0.025 A 
ATOM     23  C   UNL d   1       2.571  -7.277   0.265  0.00  0.00     0.002 A 
ATOM     24  C   UNL d   1       3.796  -7.131  -0.376  0.00  0.00     0.001 A 
ATOM     25  C   UNL d   1       4.414  -5.878  -0.416  0.00  0.00     0.019 A 
ENDBRANCH  17  19
ENDBRANCH  16  17
ENDBRANCH   2  16
TORSDOF 4
