REMARK  4 active torsions:
REMARK  status: ('A' for Active; 'I' for Inactive)
REMARK    1  A    between atoms: C_6  and  C_1 
REMARK    2  A    between atoms: C_7  and  C_2 
REMARK    3  A    between atoms: O_19  and  C_6 
REMARK    4  A    between atoms: O_18  and  C_7 
ROOT
ATOM      1  C   UNL d   1      -2.158  -1.363  -0.522  0.00  0.00     0.075 C 
ATOM      2  C   UNL d   1      -0.557   0.516   0.538  0.00  0.00     0.075 C 
ATOM      3  C   UNL d   1      -2.808  -0.164  -1.423  0.00  0.00     0.073 C 
ATOM      4  C   UNL d   1       0.689  -0.343   0.046  0.00  0.00     0.073 C 
ATOM      5  C   UNL d   1      -1.784  -0.407   0.738  0.00  0.00     0.044 C 
ATOM      6  C   UNL d   1      -1.058  -2.377   0.060  0.00  0.00     0.025 C 
ATOM      7  C   UNL d   1      -1.095   1.624  -0.409  0.00  0.00     0.025 C 
ATOM      8  S   UNL d   1      -3.029  -0.096  -3.347  0.00  0.00    -0.146 SA
ATOM      9  S   UNL d   1      -4.632  -0.410  -0.836  0.00  0.00    -0.146 SA
ATOM     10  S   UNL d   1       1.142  -0.032  -1.734  0.00  0.00    -0.146 SA
ATOM     11  S   UNL d   1       2.290  -0.070   1.005  0.00  0.00    -0.146 SA
ATOM     12  C   UNL d   1       0.404  -1.873   0.230  0.00  0.00     0.034 C 
ATOM     13  C   UNL d   1      -2.430   1.327  -1.105  0.00  0.00     0.034 C 
ATOM     14  C   UNL d   1      -4.835  -0.118  -3.470  0.00  0.00     0.086 C 
ATOM     15  C   UNL d   1      -5.450   0.420  -2.205  0.00  0.00     0.086 C 
ATOM     16  C   UNL d   1       2.748   0.728  -1.546  0.00  0.00     0.086 C 
ATOM     17  C   UNL d   1       3.447   0.109  -0.368  0.00  0.00     0.086 C 
ENDROOT
BRANCH   1  18
ATOM     18  C   UNL d   1      -1.724  -2.073  -1.869  0.00  0.00     0.269 C 
ATOM     19  O   UNL d   1      -0.698  -1.921  -2.501  0.00  0.00    -0.264 OA
BRANCH  18  20
ATOM     20  O   UNL d   1      -2.650  -3.035  -2.218  0.00  0.00    -0.326 OA
ATOM     21  C   UNL d   1      -2.286  -3.799  -3.383  0.00  0.00     0.213 C 
ENDBRANCH  18  20
ENDBRANCH   1  18
BRANCH   2  22
ATOM     22  C   UNL d   1      -0.168   1.278   1.836  0.00  0.00     0.269 C 
ATOM     23  O   UNL d   1       0.304   2.415   1.831  0.00  0.00    -0.264 OA
BRANCH  22  24
ATOM     24  O   UNL d   1      -0.333   0.550   2.973  0.00  0.00    -0.326 OA
ATOM     25  C   UNL d   1       0.185   1.206   4.143  0.00  0.00     0.213 C 
ENDBRANCH  22  24
ENDBRANCH   2  22
TORSDOF 4
