REMARK  5 active torsions:
REMARK  status: ('A' for Active; 'I' for Inactive)
REMARK    1  A    between atoms: C_4  and  C_1 
REMARK    2  A    between atoms: C_2  and  C_3 
REMARK       I    between atoms: C_3  and  N_6 
REMARK       I    between atoms: N_5  and  C_4 
REMARK    3  A    between atoms: N_6  and  N_5 
REMARK    4  A    between atoms: N_11  and  C_7 
REMARK    5  A    between atoms: N_12  and  C_8 
ROOT
ATOM      1  C   UNL d   1       0.691   2.465   0.068  0.00  0.00     0.271 C 
ATOM      2  N   UNL d   1       0.160   3.739   0.166  0.00  0.00    -0.263 N 
ATOM      3  O   UNL d   1       0.017   1.530  -0.363  0.00  0.00    -0.266 OA
ATOM      4  H   UNL d   1       0.658   4.572   0.461  0.00  0.00     0.190 HD
ENDROOT
BRANCH   2   5
ATOM      5  N   UNL d   1      -1.167   3.942  -0.232  0.00  0.00    -0.263 N 
ATOM      6  C   UNL d   1      -1.706   5.203  -0.098  0.00  0.00     0.271 C 
ATOM      7  O   UNL d   1      -1.083   6.135   0.409  0.00  0.00    -0.266 OA
ATOM      8  H   UNL d   1      -1.712   3.124  -0.513  0.00  0.00     0.190 HD
BRANCH   6   9
ATOM      9  C   UNL d   1      -3.095   5.397  -0.600  0.00  0.00     0.054 A 
ATOM     10  C   UNL d   1      -3.597   4.750  -1.747  0.00  0.00     0.021 A 
ATOM     11  C   UNL d   1      -4.929   5.000  -2.117  0.00  0.00     0.024 A 
ATOM     12  C   UNL d   1      -5.709   5.939  -1.437  0.00  0.00     0.002 A 
ATOM     13  C   UNL d   1      -5.186   6.611  -0.338  0.00  0.00     0.001 A 
ATOM     14  C   UNL d   1      -3.885   6.338   0.083  0.00  0.00     0.019 A 
BRANCH  10  15
ATOM     15  N   UNL d   1      -2.904   3.727  -2.424  0.00  0.00    -0.302 NA
ATOM     16  H   UNL d   1      -1.892   3.849  -2.427  0.00  0.00     0.124 HD
ATOM     17  H   UNL d   1      -3.247   3.559  -3.367  0.00  0.00     0.124 HD
ENDBRANCH  10  15
ENDBRANCH   6   9
ENDBRANCH   2   5
BRANCH   1  18
ATOM     18  C   UNL d   1       2.109   2.252   0.528  0.00  0.00     0.054 A 
ATOM     19  C   UNL d   1       2.741   1.006   0.286  0.00  0.00     0.021 A 
ATOM     20  C   UNL d   1       4.049   0.800   0.754  0.00  0.00     0.024 A 
ATOM     21  C   UNL d   1       4.709   1.774   1.502  0.00  0.00     0.002 A 
ATOM     22  C   UNL d   1       4.084   2.990   1.755  0.00  0.00     0.001 A 
ATOM     23  C   UNL d   1       2.793   3.231   1.272  0.00  0.00     0.019 A 
BRANCH  19  24
ATOM     24  N   UNL d   1       2.209   0.042  -0.596  0.00  0.00    -0.302 NA
ATOM     25  H   UNL d   1       1.193   0.151  -0.702  0.00  0.00     0.124 HD
ATOM     26  H   UNL d   1       2.468  -0.912  -0.372  0.00  0.00     0.124 HD
ENDBRANCH  19  24
ENDBRANCH   1  18
TORSDOF 5
