REMARK  4 active torsions:
REMARK  status: ('A' for Active; 'I' for Inactive)
REMARK    1  A    between atoms: N_2  and  C_5 
REMARK    2  A    between atoms: N_7  and  N_2 
REMARK    3  A    between atoms: C_4  and  N_7 
REMARK    4  A    between atoms: N_14  and  C_4 
ROOT
ATOM      1  C   UNL d   1       3.401  -1.352   0.584  0.00  0.00     0.100 C 
ATOM      2  C   UNL d   1       5.477  -1.186   0.649  0.00  0.00     0.111 C 
ATOM      3  C   UNL d   1       1.547  -1.055   0.357  0.00  0.00    -0.035 C 
ATOM      4  C   UNL d   1       3.080  -0.054   0.291  0.00  0.00     0.057 C 
ATOM      5  O   UNL d   1       3.646  -0.365  -1.161  0.00  0.00    -0.355 OA
ATOM      6  C   UNL d   1       0.713   0.438   0.210  0.00  0.00    -0.029 C 
ATOM      7  C   UNL d   1       2.768   1.329  -0.024  0.00  0.00     0.034 C 
ATOM      8  C   UNL d   1       1.459   1.558   0.117  0.00  0.00     0.014 C 
ATOM      9  C   UNL d   1       5.308  -2.033  -0.503  0.00  0.00     0.054 C 
ATOM     10  C   UNL d   1       4.977  -0.270  -0.681  0.00  0.00     0.177 C 
ATOM     11  C   UNL d   1      -0.148  -1.528   0.186  0.00  0.00     0.009 C 
ATOM     12  C   UNL d   1      -0.809   1.063   0.053  0.00  0.00     0.012 C 
ATOM     13  C   UNL d   1      -1.728  -0.869  -0.086  0.00  0.00     0.001 C 
ATOM     14  C   UNL d   1      -2.010   0.458  -0.231  0.00  0.00     0.001 C 
ENDROOT
BRANCH   2  15
ATOM     15  N   UNL d   1       7.000  -1.028  -0.034  0.00  0.00    -0.344 N 
ATOM     16  HN  UNL d   1       6.900  -1.453  -0.956  1.00  0.00     0.175 HD
BRANCH  15  17
ATOM     17  N   UNL d   1       8.743  -0.492   0.015  0.00  0.00    -0.185 NA
ATOM     18  H   UNL d   1       9.326  -1.020  -0.665  0.00  0.00     0.155 HD
BRANCH  17  19
ATOM     19  C   UNL d   1       9.832  -0.333   1.292  0.00  0.00     0.161 C 
ATOM     20  S   UNL d   1      11.506  -0.487   1.341  0.00  0.00    -0.046 SA
BRANCH  19  21
ATOM     21  N   UNL d   1       9.278  -0.332   2.723  0.00  0.00    -0.380 N 
ATOM     22  H   UNL d   1       8.389  -0.173   3.203  0.00  0.00     0.158 HD
ATOM     23  H   UNL d   1       9.959  -0.408   3.532  0.00  0.00     0.158 HD
ENDBRANCH  19  21
ENDBRANCH  17  19
ENDBRANCH  15  17
ENDBRANCH   2  15
TORSDOF 4
