REMARK  2 active torsions:
REMARK  status: ('A' for Active; 'I' for Inactive)
REMARK    1  A    between atoms: C_2  and  C_1 
REMARK       I    between atoms: N_5  and  C_2 
REMARK    2  A    between atoms: C_10  and  N_9 
ROOT
ATOM      1  C   UNL d   1       4.325  -5.712  -0.763  0.00  0.00     0.103 A 
ATOM      2  N   UNL d   1       4.799  -5.958  -2.004  0.00  0.00    -0.351 N 
ATOM      3  HN  UNL d   1       4.388  -5.502  -2.818  1.00  0.00     0.166 HD
ATOM      4  N   UNL d   1       8.332  -9.196  -1.500  0.00  0.00    -0.191 NA
ATOM      5  C   UNL d   1       7.479  -8.426  -1.315  0.00  0.00     0.101 C 
ATOM      6  C   UNL d   1       6.429  -7.489  -1.087  0.00  0.00     0.060 A 
ATOM      7  C   UNL d   1       4.896  -6.332   0.350  0.00  0.00     0.050 A 
ATOM      8  C   UNL d   1       5.832  -6.825  -2.143  0.00  0.00     0.112 A 
ATOM      9  C   UNL d   1       5.950  -7.232   0.189  0.00  0.00     0.028 A 
ENDROOT
BRANCH   1  10
ATOM     10  N   UNL d   1       3.177  -4.953  -0.611  0.00  0.00    -0.364 N 
ATOM     11  C   UNL d   1       2.406  -4.661  -1.822  0.00  0.00     0.144 C 
ATOM     12  C   UNL d   1       0.938  -4.444  -1.415  0.00  0.00     0.146 C 
ATOM     13  N   UNL d   1       0.748  -3.488  -0.306  0.00  0.00    -0.344 N 
ATOM     14  C   UNL d   1      -0.451  -2.807  -0.036  0.00  0.00     0.263 C 
ATOM     15  C   UNL d   1       1.723  -3.587   0.799  0.00  0.00     0.146 C 
ATOM     16  O   UNL d   1      -0.547  -2.120   0.983  0.00  0.00    -0.267 OA
ATOM     17  C   UNL d   1       3.174  -3.831   0.335  0.00  0.00     0.144 C 
BRANCH  14  18
ATOM     18  C   UNL d   1      -1.542  -2.853  -0.984  0.00  0.00     0.110 C 
ATOM     19  C   UNL d   1      -2.333  -1.818  -1.470  0.00  0.00     0.043 C 
ATOM     20  N   UNL d   1      -3.311  -2.215  -2.377  0.00  0.00    -0.296 N 
ATOM     21  C   UNL d   1      -2.259  -0.374  -1.136  0.00  0.00     0.071 C 
ATOM     22  N   UNL d   1      -3.356  -3.528  -2.512  0.00  0.00    -0.061 NA
ATOM     23  HN  UNL d   1      -3.921  -1.569  -2.879  1.00  0.00     0.183 HD
ATOM     24  S   UNL d   1      -2.275  -4.311  -1.512  0.00  0.00     0.007 SA
ENDBRANCH  14  18
ENDBRANCH   1  10
TORSDOF 2
