REMARK  5 active torsions:
REMARK  status: ('A' for Active; 'I' for Inactive)
REMARK    1  A    between atoms: S_10  and  C_1 
REMARK    2  A    between atoms: C_9  and  C_3 
REMARK    3  A    between atoms: O_13  and  C_9 
REMARK    4  A    between atoms: C_12  and  S_10 
REMARK    5  A    between atoms: C_16  and  O_13 
ROOT
ATOM      1  C   UNL d   1      -0.805   1.122  -0.025  0.00  0.00     0.084 A 
ATOM      2  C   UNL d   1      -1.505  -0.069  -0.155  0.00  0.00     0.005 A 
ATOM      3  C   UNL d   1      -0.703  -1.197  -0.076  0.00  0.00     0.118 A 
ATOM      4  N   UNL d   1       0.543   1.188   0.060  0.00  0.00    -0.340 N 
ATOM      5  HN  UNL d   1       1.024   2.085   0.131  1.00  0.00     0.167 HD
ATOM      6  N   UNL d   1       0.651  -1.160   0.010  0.00  0.00    -0.341 N 
ATOM      7  HN  UNL d   1       1.206  -2.015   0.043  1.00  0.00     0.167 HD
ATOM      8  C   UNL d   1       1.224   0.040   0.049  0.00  0.00     0.078 A 
ATOM      9  C   UNL d   1      -2.990  -0.146  -0.330  0.00  0.00     0.054 C 
ATOM     10  C   UNL d   1       2.717   0.102   0.082  0.00  0.00     0.089 C 
ENDROOT
BRANCH   1  11
ATOM     11  S   UNL d   1      -1.591   2.724   0.016  0.00  0.00    -0.072 SA
BRANCH  11  12
ATOM     12  C   UNL d   1      -1.957   2.975   1.748  0.00  0.00     0.007 A 
ATOM     13  C   UNL d   1      -1.196   2.438   2.793  0.00  0.00     0.019 A 
ATOM     14  C   UNL d   1      -1.542   2.685   4.126  0.00  0.00     0.001 A 
ATOM     15  C   UNL d   1      -2.640   3.486   4.429  0.00  0.00     0.000 A 
ATOM     16  C   UNL d   1      -3.390   4.049   3.399  0.00  0.00     0.001 A 
ATOM     17  C   UNL d   1      -3.048   3.796   2.068  0.00  0.00     0.019 A 
ENDBRANCH  11  12
ENDBRANCH   1  11
BRANCH   3  18
ATOM     18  C   UNL d   1      -1.280  -2.580   0.023  0.00  0.00     0.310 C 
ATOM     19  O   UNL d   1      -2.374  -2.852   0.485  0.00  0.00    -0.258 OA
BRANCH  18  20
ATOM     20  O   UNL d   1      -0.344  -3.469  -0.399  0.00  0.00    -0.317 OA
BRANCH  20  21
ATOM     21  C   UNL d   1      -0.500  -4.824   0.035  0.00  0.00     0.175 C 
ATOM     22  C   UNL d   1       0.224  -4.982   1.360  0.00  0.00     0.034 C 
ENDBRANCH  20  21
ENDBRANCH  18  20
ENDBRANCH   3  18
TORSDOF 5
