REMARK  4 active torsions:
REMARK  status: ('A' for Active; 'I' for Inactive)
REMARK    1  A    between atoms: C_2  and  C_1 
REMARK    2  A    between atoms: C_4  and  C_2 
REMARK    3  A    between atoms: N_6  and  C_3 
REMARK    4  A    between atoms: C_9  and  N_6 
ROOT
ATOM      1  C   UNL d   1       0.971  -0.096   0.107  0.00  0.00     0.072 C 
ATOM      2  C   UNL d   1       2.298   0.062   0.019  0.00  0.00     0.092 C 
ENDROOT
BRANCH   1   3
ATOM      3  C   UNL d   1       0.274  -0.979  -0.868  0.00  0.00     0.183 C 
ATOM      4  O   UNL d   1       0.772  -1.279  -1.946  0.00  0.00    -0.288 OA
BRANCH   3   5
ATOM      5  C   UNL d   1      -1.077  -1.489  -0.500  0.00  0.00     0.014 A 
ATOM      6  C   UNL d   1      -1.965  -1.824  -1.532  0.00  0.00     0.017 A 
ATOM      7  C   UNL d   1      -3.224  -2.357  -1.236  0.00  0.00     0.025 A 
ATOM      8  C   UNL d   1      -3.591  -2.567   0.092  0.00  0.00     0.034 A 
ATOM      9  C   UNL d   1      -2.714  -2.241   1.126  0.00  0.00     0.025 A 
ATOM     10 CL   UNL d   1      -5.126  -3.250   0.459  0.00  0.00    -0.084 Cl
ATOM     11  C   UNL d   1      -1.456  -1.704   0.832  0.00  0.00     0.017 A 
ENDBRANCH   3   5
ENDBRANCH   1   3
BRANCH   2  12
ATOM     12  N   UNL d   1       3.102   0.790   0.862  0.00  0.00    -0.366 N 
ATOM     13  H   UNL d   1       2.657   1.211   1.670  0.00  0.00     0.165 HD
BRANCH  12  14
ATOM     14  C   UNL d   1       4.465   1.093   0.698  0.00  0.00     0.032 A 
ATOM     15  C   UNL d   1       5.125   0.985  -0.534  0.00  0.00     0.031 A 
ATOM     16  C   UNL d   1       6.496   1.240  -0.647  0.00  0.00     0.026 A 
ATOM     17  C   UNL d   1       7.230   1.586   0.482  0.00  0.00     0.034 A 
ATOM     18  C   UNL d   1       6.604   1.680   1.721  0.00  0.00     0.026 A 
ATOM     19 CL   UNL d   1       8.917   1.895   0.346  0.00  0.00    -0.084 Cl
ATOM     20  C   UNL d   1       5.230   1.433   1.826  0.00  0.00     0.031 A 
ENDBRANCH  12  14
ENDBRANCH   2  12
TORSDOF 4
