REMARK  8 active torsions:
REMARK  status: ('A' for Active; 'I' for Inactive)
REMARK    1  A    between atoms: C_12  and  S_1 
REMARK    2  A    between atoms: N_18  and  S_1 
REMARK    3  A    between atoms: S_2  and  C_13 
REMARK    4  A    between atoms: N_19  and  S_2 
REMARK    5  A    between atoms: N_9  and  C_5 
REMARK    6  A    between atoms: N_10  and  C_6 
REMARK    7  A    between atoms: C_29  and  N_18 
REMARK    8  A    between atoms: C_30  and  N_19 
ROOT
ATOM      1  C   UNL d   1       0.077   3.475  -3.124  0.00  0.00     0.025 A 
ATOM      2  C   UNL d   1      -0.177   4.260  -4.342  0.00  0.00     0.025 A 
ATOM      3  C   UNL d   1       0.184   3.739  -1.762  0.00  0.00     0.116 A 
ATOM      4  C   UNL d   1      -0.106   5.604  -4.702  0.00  0.00     0.116 A 
ATOM      5  C   UNL d   1      -0.418   3.356  -5.400  0.00  0.00     0.030 A 
ATOM      6  C   UNL d   1       0.175   2.115  -3.492  0.00  0.00     0.030 A 
ATOM      7  C   UNL d   1      -0.187   1.992  -4.909  0.00  0.00     0.194 C 
ATOM      8  C   UNL d   1       0.677   1.397  -1.302  0.00  0.00     0.077 A 
ATOM      9  C   UNL d   1      -0.626   5.059  -7.019  0.00  0.00     0.082 A 
ATOM     10  C   UNL d   1      -0.341   6.016  -6.031  0.00  0.00     0.062 A 
ATOM     11  C   UNL d   1       0.491   2.713  -0.845  0.00  0.00     0.061 A 
ATOM     12  C   UNL d   1       0.498   1.073  -2.642  0.00  0.00     0.041 A 
ATOM     13  C   UNL d   1      -0.670   3.704  -6.715  0.00  0.00     0.041 A 
ATOM     14  O   UNL d   1      -0.270   0.968  -5.550  0.00  0.00    -0.287 OA
ENDROOT
BRANCH   8  15
ATOM     15  S   UNL d   1       1.064   0.122  -0.132  0.00  0.00     0.241 S 
ATOM     16  O   UNL d   1       1.415  -1.080  -0.852  0.00  0.00    -0.206 OA
ATOM     17  O   UNL d   1       0.015   0.158   0.859  0.00  0.00    -0.206 OA
BRANCH  15  18
ATOM     18  N   UNL d   1       2.441   0.740   0.612  0.00  0.00    -0.211 NA
ATOM     19  H   UNL d   1       2.283   0.786   1.621  0.00  0.00     0.140 HD
BRANCH  18  20
ATOM     20  C   UNL d   1       3.780   0.249   0.207  0.00  0.00     0.071 C 
ATOM     21  C   UNL d   1       4.806   0.771   1.227  0.00  0.00     0.020 C 
ATOM     22  C   UNL d   1       5.055   2.274   1.099  0.00  0.00     0.002 C 
ATOM     23  C   UNL d   1       5.463   2.648  -0.322  0.00  0.00     0.000 C 
ATOM     24  C   UNL d   1       4.422   2.184  -1.334  0.00  0.00     0.002 C 
ATOM     25  C   UNL d   1       4.157   0.684  -1.214  0.00  0.00     0.020 C 
ENDBRANCH  18  20
ENDBRANCH  15  18
ENDBRANCH   8  15
BRANCH   3  26
ATOM     26  N   UNL d   1      -0.188   5.019  -1.198  0.00  0.00    -0.115 N 
ATOM     27  O   UNL d   1      -1.291   5.468  -1.535  0.00  0.00    -0.532 OA
ATOM     28  O   UNL d   1       0.603   5.543  -0.405  0.00  0.00    -0.532 OA
ENDBRANCH   3  26
BRANCH   4  29
ATOM     29  N   UNL d   1       0.447   6.608  -3.818  0.00  0.00    -0.115 N 
ATOM     30  O   UNL d   1       1.548   6.348  -3.316  0.00  0.00    -0.532 OA
ATOM     31  O   UNL d   1      -0.196   7.652  -3.671  0.00  0.00    -0.532 OA
ENDBRANCH   4  29
BRANCH   9  32
ATOM     32  S   UNL d   1      -0.696   5.569  -8.712  0.00  0.00     0.259 S 
ATOM     33  O   UNL d   1       0.508   6.328  -8.946  0.00  0.00    -0.201 OA
ATOM     34  O   UNL d   1      -1.035   4.415  -9.515  0.00  0.00    -0.201 OA
BRANCH  32  35
ATOM     35  N   UNL d   1      -1.945   6.667  -8.718  0.00  0.00    -0.311 N 
ATOM     36  H   UNL d   1      -1.643   7.565  -9.095  0.00  0.00     0.172 HD
BRANCH  35  37
ATOM     37  C   UNL d   1      -3.365   6.298  -8.858  0.00  0.00     0.093 C 
ATOM     38  C   UNL d   1      -3.688   5.701 -10.231  0.00  0.00     0.026 C 
ATOM     39  C   UNL d   1      -3.373   6.677 -11.361  0.00  0.00     0.002 C 
ATOM     40  C   UNL d   1      -4.153   7.978 -11.193  0.00  0.00     0.000 C 
ATOM     41  C   UNL d   1      -3.994   8.594  -9.803  0.00  0.00     0.002 C 
ATOM     42  C   UNL d   1      -4.204   7.577  -8.672  0.00  0.00     0.026 C 
ENDBRANCH  35  37
ENDBRANCH  32  35
ENDBRANCH   9  32
TORSDOF 8
