REMARK  8 active torsions:
REMARK  status: ('A' for Active; 'I' for Inactive)
REMARK    1  A    between atoms: C_4  and  N_1 
REMARK    2  A    between atoms: N_2  and  C_3 
REMARK    3  A    between atoms: O_21  and  C_13 
REMARK    4  A    between atoms: C_14  and  O_20 
REMARK    5  A    between atoms: C_19  and  C_22 
REMARK    6  A    between atoms: C_23  and  C_19 
REMARK    7  A    between atoms: O_20  and  C_23 
REMARK    8  A    between atoms: C_22  and  O_21 
ROOT
ATOM      1  C   UNL d   1      -2.907   5.891   3.590  0.00  0.00     0.053 C 
ENDROOT
BRANCH   1   2
ATOM      2  C   UNL d   1      -1.894   5.108   2.757  0.00  0.00     0.178 C 
BRANCH   2   3
ATOM      3  O   UNL d   1      -2.321   3.745   2.691  0.00  0.00    -0.351 OA
BRANCH   3   4
ATOM      4  C   UNL d   1      -1.485   2.899   2.013  0.00  0.00     0.068 A 
ATOM      5  C   UNL d   1      -1.513   1.567   2.435  0.00  0.00     0.039 A 
ATOM      6  C   UNL d   1      -0.724   0.602   1.802  0.00  0.00     0.039 A 
ATOM      7  C   UNL d   1       0.086   0.979   0.725  0.00  0.00     0.103 A 
ATOM      8  C   UNL d   1       0.111   2.308   0.286  0.00  0.00     0.039 A 
ATOM      9  C   UNL d   1      -0.677   3.265   0.933  0.00  0.00     0.039 A 
BRANCH   7  10
ATOM     10  N   UNL d   1       0.908  -0.028   0.041  0.00  0.00    -0.116 N 
ATOM     11  O   UNL d   1       1.584   0.343  -0.929  0.00  0.00    -0.532 OA
ATOM     12  O   UNL d   1       0.877  -1.189   0.474  0.00  0.00    -0.532 OA
ENDBRANCH   7  10
ENDBRANCH   3   4
ENDBRANCH   2   3
ENDBRANCH   1   2
BRANCH   1  13
ATOM     13  C   UNL d   1      -2.527   7.364   3.677  0.00  0.00     0.178 C 
BRANCH  13  14
ATOM     14  O   UNL d   1      -1.272   7.471   4.351  0.00  0.00    -0.351 OA
BRANCH  14  15
ATOM     15  C   UNL d   1      -0.805   8.737   4.566  0.00  0.00     0.068 A 
ATOM     16  C   UNL d   1       0.058   8.874   5.658  0.00  0.00     0.039 A 
ATOM     17  C   UNL d   1       0.608  10.117   5.979  0.00  0.00     0.039 A 
ATOM     18  C   UNL d   1       0.301  11.228   5.185  0.00  0.00     0.103 A 
ATOM     19  C   UNL d   1      -0.540  11.095   4.074  0.00  0.00     0.039 A 
ATOM     20  C   UNL d   1      -1.091   9.846   3.767  0.00  0.00     0.039 A 
BRANCH  18  21
ATOM     21  N   UNL d   1       0.867  12.541   5.516  0.00  0.00    -0.116 N 
ATOM     22  O   UNL d   1       1.597  12.621   6.516  0.00  0.00    -0.532 OA
ATOM     23  O   UNL d   1       0.580  13.495   4.778  0.00  0.00    -0.532 OA
ENDBRANCH  18  21
ENDBRANCH  14  15
ENDBRANCH  13  14
ENDBRANCH   1  13
TORSDOF 8
