REMARK  4 active torsions:
REMARK  status: ('A' for Active; 'I' for Inactive)
REMARK    1  A    between atoms: C_7  and  C_1 
REMARK    2  A    between atoms: C_8  and  C_2 
REMARK    3  A    between atoms: O_16  and  C_7 
REMARK    4  A    between atoms: O_15  and  C_8 
ROOT
ATOM      1  C   UNL d   1      -0.710  -1.909   0.040  0.00  0.00     0.099 A 
ATOM      2  C   UNL d   1       0.698  -1.891  -0.006  0.00  0.00     0.099 A 
ATOM      3  C   UNL d   1      -1.393  -0.679   0.059  0.00  0.00     0.176 A 
ATOM      4  C   UNL d   1       1.367  -0.662  -0.026  0.00  0.00     0.176 A 
ATOM      5  C   UNL d   1      -0.708   0.531   0.035  0.00  0.00     0.197 A 
ATOM      6  C   UNL d   1       0.672   0.539  -0.010  0.00  0.00     0.197 A 
ATOM      7  F   UNL d   1       2.708  -0.628  -0.083  0.00  0.00    -0.202 F 
ATOM      8  F   UNL d   1      -2.733  -0.636   0.117  0.00  0.00    -0.202 F 
ATOM      9  F   UNL d   1      -1.384   1.687   0.048  0.00  0.00    -0.199 F 
ATOM     10  F   UNL d   1       1.342   1.698  -0.040  0.00  0.00    -0.199 F 
ENDROOT
BRANCH   1  11
ATOM     11  C   UNL d   1      -1.576  -3.110  -0.060  0.00  0.00     0.180 C 
ATOM     12  O   UNL d   1      -2.573  -3.098  -0.763  0.00  0.00    -0.646 OA
BRANCH  11  13
ATOM     13  O   UNL d   1      -1.283  -4.153   0.734  0.00  0.00    -0.773 OA
ATOM     14  H   UNL d   1      -0.344  -4.266   1.016  0.00  0.00     0.167 HD
ENDBRANCH  11  13
ENDBRANCH   1  11
BRANCH   2  15
ATOM     15  C   UNL d   1       1.512  -3.120   0.028  0.00  0.00     0.180 C 
ATOM     16  O   UNL d   1       1.138  -4.097   0.656  0.00  0.00    -0.646 OA
BRANCH  15  17
ATOM     17  O   UNL d   1       2.665  -3.094  -0.661  0.00  0.00    -0.773 OA
ATOM     18  H   UNL d   1       2.975  -2.232  -1.006  0.00  0.00     0.167 HD
ENDBRANCH  15  17
ENDBRANCH   2  15
TORSDOF 4
