REMARK  5 active torsions:
REMARK  status: ('A' for Active; 'I' for Inactive)
REMARK    1  A    between atoms: C_8  and  N_1 
REMARK    2  A    between atoms: C_4  and  N_9 
REMARK    3  A    between atoms: C_5  and  C_15 
REMARK       I    between atoms: N_7  and  C_5 
REMARK    4  A    between atoms: C_14  and  C_6 
REMARK    5  A    between atoms: N_9  and  N_7 
ROOT
ATOM      1  N   UNL d   1      -4.482   5.290   1.578  0.00  0.00    -0.331 N 
ATOM      2  HN  UNL d   1      -3.613   5.130   2.086  1.00  0.00     0.168 HD
ATOM      3  C   UNL d   1      -4.581   4.992   0.274  0.00  0.00     0.176 A 
ATOM      4  C   UNL d   1      -5.563   5.809   2.203  0.00  0.00     0.047 A 
ATOM      5  N   UNL d   1      -5.685   5.211  -0.463  0.00  0.00    -0.341 N 
ATOM      6  HN  UNL d   1      -5.716   4.997  -1.460  1.00  0.00     0.167 HD
ATOM      7  C   UNL d   1      -6.743   6.040   1.523  0.00  0.00     0.047 A 
ATOM      8  C   UNL d   1      -6.745   5.725   0.184  0.00  0.00     0.093 A 
ENDROOT
BRANCH   3   9
ATOM      9  N   UNL d   1      -3.465   4.385  -0.318  0.00  0.00    -0.172 NA
ATOM     10  H   UNL d   1      -2.647   4.559   0.270  0.00  0.00     0.156 HD
BRANCH   9  11
ATOM     11  N   UNL d   1      -3.269   4.722  -1.669  0.00  0.00    -0.280 N 
ATOM     12  C   UNL d   1      -1.966   4.700  -2.130  0.00  0.00     0.266 C 
ATOM     13  O   UNL d   1      -1.008   4.551  -1.371  0.00  0.00    -0.266 OA
ATOM     14  H   UNL d   1      -4.117   4.805  -2.220  0.00  0.00     0.184 HD
BRANCH  12  15
ATOM     15  C   UNL d   1      -1.731   4.864  -3.598  0.00  0.00     0.033 A 
ATOM     16  C   UNL d   1      -2.762   5.008  -4.537  0.00  0.00     0.019 A 
ATOM     17  C   UNL d   1      -2.465   5.145  -5.901  0.00  0.00     0.037 A 
ATOM     18  C   UNL d   1      -1.131   5.138  -6.330  0.00  0.00     0.102 A 
ATOM     19  C   UNL d   1      -0.092   4.995  -5.406  0.00  0.00     0.037 A 
ATOM     20  C   UNL d   1      -0.397   4.858  -4.048  0.00  0.00     0.019 A 
BRANCH  18  21
ATOM     21  N   UNL d   1      -0.822   5.280  -7.760  0.00  0.00    -0.116 N 
ATOM     22  O   UNL d   1       0.371   5.299  -8.093  0.00  0.00    -0.532 OA
ATOM     23  O   UNL d   1      -1.775   5.372  -8.547  0.00  0.00    -0.532 OA
ENDBRANCH  18  21
ENDBRANCH  12  15
ENDBRANCH   9  11
ENDBRANCH   3   9
BRANCH   4  24
ATOM     24  C   UNL d   1      -5.385   6.113   3.633  0.00  0.00     0.006 A 
ATOM     25  C   UNL d   1      -4.140   6.495   4.140  0.00  0.00     0.101 A 
ATOM     26  N   UNL d   1      -3.884   6.811   5.435  0.00  0.00    -0.374 N 
ATOM     27  C   UNL d   1      -4.918   6.730   6.293  0.00  0.00     0.087 A 
ATOM     28  HN  UNL d   1      -2.954   7.096   5.743  1.00  0.00     0.164 HD
ATOM     29  C   UNL d   1      -6.194   6.350   5.915  0.00  0.00     0.018 A 
ATOM     30  C   UNL d   1      -6.425   6.041   4.573  0.00  0.00     0.016 A 
ENDBRANCH   4  24
TORSDOF 5
