REMARK  2 active torsions:
REMARK  status: ('A' for Active; 'I' for Inactive)
REMARK    1  A    between atoms: C_4  and  C_1 
REMARK       I    between atoms: N_7  and  C_4 
REMARK    2  A    between atoms: C_10  and  N_7 
ROOT
ATOM      1  C   UNL d   1       3.985  -0.842   0.416  0.00  0.00     0.265 C 
ATOM      2  N   UNL d   1       4.957  -1.821   0.329  0.00  0.00    -0.308 N 
ATOM      3  O   UNL d   1       2.789  -1.068   0.251  0.00  0.00    -0.267 OA
ATOM      4  H   UNL d   1       5.927  -1.550   0.259  0.00  0.00     0.170 HD
ENDROOT
BRANCH   2   5
ATOM      5  C   UNL d   1       4.737  -3.193   0.157  0.00  0.00     0.108 A 
ATOM      6  N   UNL d   1       5.823  -3.892  -0.238  0.00  0.00    -0.342 N 
ATOM      7  C   UNL d   1       5.687  -5.217  -0.475  0.00  0.00     0.043 A 
ATOM      8  HN  UNL d   1       6.726  -3.432  -0.355  1.00  0.00     0.167 HD
ATOM      9  C   UNL d   1       6.766  -5.958  -0.944  0.00  0.00     0.030 A 
ATOM     10  C   UNL d   1       4.468  -5.898  -0.280  0.00  0.00    -0.009 A 
ATOM     11  C   UNL d   1       6.660  -7.327  -1.221  0.00  0.00     0.002 A 
ATOM     12  C   UNL d   1       5.453  -7.986  -1.021  0.00  0.00     0.001 A 
ATOM     13  C   UNL d   1       4.356  -7.274  -0.546  0.00  0.00     0.013 A 
ATOM     14  C   UNL d   1       3.377  -5.164   0.179  0.00  0.00     0.017 A 
ATOM     15  C   UNL d   1       3.511  -3.799   0.395  0.00  0.00     0.049 A 
ENDBRANCH   2   5
BRANCH   1  16
ATOM     16  C   UNL d   1       4.458   0.507   0.697  0.00  0.00     0.096 A 
ATOM     17  S   UNL d   1       5.818   0.779   1.695  0.00  0.00    -0.082 SA
ATOM     18  C   UNL d   1       5.535   2.477   1.764  0.00  0.00     0.017 A 
ATOM     19  C   UNL d   1       6.253   3.427   2.519  0.00  0.00     0.020 A 
ATOM     20  C   UNL d   1       4.459   2.849   0.955  0.00  0.00     0.004 A 
ATOM     21  C   UNL d   1       5.872   4.770   2.461  0.00  0.00     0.001 A 
ATOM     22  C   UNL d   1       4.814   5.168   1.658  0.00  0.00     0.001 A 
ATOM     23  C   UNL d   1       4.114   4.225   0.902  0.00  0.00     0.014 A 
ATOM     24  C   UNL d   1       3.868   1.698   0.323  0.00  0.00     0.068 A 
ATOM     25 CL   UNL d   1       2.529   1.854  -0.749  0.00  0.00    -0.082 Cl
ENDBRANCH   1  16
TORSDOF 2
