REMARK  4 active torsions:
REMARK  status: ('A' for Active; 'I' for Inactive)
REMARK       I    between atoms: C_2  and  N_1 
REMARK       I    between atoms: N_7  and  C_2 
REMARK    1  A    between atoms: C_5  and  C_3 
REMARK    2  A    between atoms: C_6  and  C_5 
REMARK       I    between atoms: N_9  and  C_6 
REMARK    3  A    between atoms: C_15  and  N_7 
REMARK    4  A    between atoms: C_13  and  N_9 
ROOT
ATOM      1  N   UNL d   1      -1.412  -1.113   0.373  0.00  0.00    -0.318 N 
ATOM      2  C   UNL d   1      -2.245  -1.994   1.060  0.00  0.00     0.323 C 
ATOM      3  C   UNL d   1       0.076  -1.203   0.473  0.00  0.00     0.189 C 
ATOM      4  C   UNL d   1       0.647  -0.032   1.313  0.00  0.00     0.241 C 
ATOM      5  N   UNL d   1      -3.593  -1.848   0.813  0.00  0.00    -0.309 N 
ATOM      6  N   UNL d   1       0.022   1.187   1.171  0.00  0.00    -0.358 N 
ATOM      7  O   UNL d   1      -1.791  -2.887   1.769  0.00  0.00    -0.247 OA
ATOM      8  O   UNL d   1       1.711  -0.078   1.929  0.00  0.00    -0.271 OA
ATOM      9  C   UNL d   1      -1.843   0.196  -0.145  0.00  0.00     0.148 C 
ATOM     10  C   UNL d   1      -1.372   1.309   0.796  0.00  0.00     0.142 C 
ATOM     11  H   UNL d   1      -3.840  -1.332  -0.014  0.00  0.00     0.170 HD
ATOM     12  H   UNL d   1       0.445   1.920   1.730  0.00  0.00     0.162 HD
ENDROOT
BRANCH   3  13
ATOM     13  C   UNL d   1       0.747  -2.515   0.888  0.00  0.00     0.138 C 
BRANCH  13  14
ATOM     14  C   UNL d   1       0.612  -3.566  -0.186  0.00  0.00     0.224 C 
ATOM     15  N   UNL d   1      -0.306  -4.550   0.119  0.00  0.00    -0.327 N 
ATOM     16  H   UNL d   1      -0.944  -4.333   0.888  0.00  0.00     0.169 HD
ATOM     17  O   UNL d   1       1.286  -3.492  -1.214  0.00  0.00    -0.273 OA
BRANCH  15  18
ATOM     18  C   UNL d   1      -0.483  -5.785  -0.533  0.00  0.00     0.034 A 
ATOM     19  C   UNL d   1       0.385  -6.267  -1.520  0.00  0.00     0.032 A 
ATOM     20  C   UNL d   1       0.198  -7.539  -2.068  0.00  0.00     0.044 A 
ATOM     21  C   UNL d   1      -0.860  -8.325  -1.634  0.00  0.00     0.116 A 
ATOM     22  C   UNL d   1      -1.742  -7.860  -0.667  0.00  0.00     0.044 A 
ATOM     23  F   UNL d   1      -1.028  -9.551  -2.148  0.00  0.00    -0.206 F 
ATOM     24  C   UNL d   1      -1.552  -6.589  -0.115  0.00  0.00     0.032 A 
ENDBRANCH  15  18
ENDBRANCH  13  14
ENDBRANCH   3  13
BRANCH   5  25
ATOM     25  C   UNL d   1      -4.636  -2.660   1.323  0.00  0.00     0.036 A 
ATOM     26  C   UNL d   1      -4.486  -3.560   2.382  0.00  0.00     0.029 A 
ATOM     27  C   UNL d   1      -5.541  -4.397   2.761  0.00  0.00     0.002 A 
ATOM     28  C   UNL d   1      -6.765  -4.324   2.103  0.00  0.00     0.000 A 
ATOM     29  C   UNL d   1      -6.943  -3.397   1.080  0.00  0.00     0.002 A 
ATOM     30  C   UNL d   1      -5.887  -2.565   0.697  0.00  0.00     0.029 A 
ENDBRANCH   5  25
TORSDOF 4
