REMARK  2 active torsions:
REMARK  status: ('A' for Active; 'I' for Inactive)
REMARK    1  A    between atoms: C_6  and  C_1 
REMARK    2  A    between atoms: C_12  and  C_6 
ROOT
ATOM      1  N   UNL d   1       4.239   1.861  -2.974  0.00  0.00    -0.197 NA
ATOM      2  C   UNL d   1       4.469   1.587  -1.871  0.00  0.00     0.067 C 
ATOM      3  C   UNL d   1       4.750   1.264  -0.472  0.00  0.00     0.208 C 
ENDROOT
BRANCH   3   4
ATOM      4  C   UNL d   1       4.000   0.020  -0.039  0.00  0.00     0.179 C 
ATOM      5  O   UNL d   1       4.662  -0.962   0.310  0.00  0.00    -0.291 OA
BRANCH   4   6
ATOM      6  C   UNL d   1       2.530   0.020  -0.015  0.00  0.00     0.059 A 
ATOM      7  S   UNL d   1       1.677   1.503   0.042  0.00  0.00    -0.085 SA
ATOM      8  C   UNL d   1       0.145   0.747   0.021  0.00  0.00     0.016 A 
ATOM      9  C   UNL d   1      -1.110   1.389   0.015  0.00  0.00     0.021 A 
ATOM     10  C   UNL d   1       0.266  -0.642   0.014  0.00  0.00    -0.010 A 
ATOM     11  C   UNL d   1      -2.268   0.611   0.006  0.00  0.00     0.025 A 
ATOM     12  C   UNL d   1      -2.177  -0.772   0.006  0.00  0.00     0.035 A 
ATOM     13  C   UNL d   1      -0.931  -1.406   0.011  0.00  0.00     0.037 A 
ATOM     14 CL   UNL d   1      -3.613  -1.721  -0.002  0.00  0.00    -0.084 Cl
ATOM     15  C   UNL d   1       1.658  -1.065   0.006  0.00  0.00    -0.029 A 
ATOM     16  C   UNL d   1       2.043  -2.516  -0.009  0.00  0.00     0.050 C 
ENDBRANCH   4   6
ENDBRANCH   3   4
TORSDOF 2
