REMARK  3 active torsions:
REMARK  status: ('A' for Active; 'I' for Inactive)
REMARK    1  A    between atoms: C_2  and  C_1 
REMARK    2  A    between atoms: O_6  and  C_1 
REMARK    3  A    between atoms: N_8  and  C_7 
ROOT
ATOM      1  C   UNL d   1       0.363  -0.877  -0.864  0.00  0.00     0.037 A 
ATOM      2  C   UNL d   1       0.836  -2.191  -0.847  0.00  0.00     0.020 A 
ATOM      3  C   UNL d   1      -0.729  -0.551  -1.671  0.00  0.00     0.020 A 
ATOM      4  C   UNL d   1      -0.903  -2.877  -2.416  0.00  0.00     0.007 A 
ATOM      5  C   UNL d   1       0.198  -3.179  -1.607  0.00  0.00     0.024 A 
ATOM      6  C   UNL d   1      -1.365  -1.551  -2.418  0.00  0.00     0.024 A 
ENDROOT
BRANCH   1   7
ATOM      7  C   UNL d   1       1.050   0.133  -0.023  0.00  0.00     0.176 C 
ATOM      8  O   UNL d   1       2.245   0.091   0.224  0.00  0.00    -0.646 OA
BRANCH   7   9
ATOM      9  O   UNL d   1       0.223   1.071   0.484  0.00  0.00    -0.773 OA
ATOM     10  H   UNL d   1      -0.727   0.881   0.375  0.00  0.00     0.167 HD
ENDBRANCH   7   9
ENDBRANCH   1   7
BRANCH   4  11
ATOM     11  N   UNL d   1      -1.639  -3.846  -3.101  0.00  0.00    -0.297 NA
ATOM     12  C   UNL d   1      -0.958  -4.962  -3.741  0.00  0.00     0.113 C 
ATOM     13  H   UNL d   1      -2.333  -3.437  -3.722  0.00  0.00     0.127 HD
ENDBRANCH   4  11
TORSDOF 3
