REMARK  4 active torsions:
REMARK  status: ('A' for Active; 'I' for Inactive)
REMARK    1  A    between atoms: C_7  and  C_8 
REMARK       I    between atoms: N_13  and  C_7 
REMARK    2  A    between atoms: C_14  and  N_13 
REMARK    3  A    between atoms: C_16  and  C_14 
REMARK    4  A    between atoms: C_15  and  C_16 
ROOT
ATOM      1  C   UNL d   1      -3.982   1.063   0.068  0.00  0.00     0.251 C 
ATOM      2  O   UNL d   1      -4.093   2.284   0.059  0.00  0.00    -0.268 OA
ATOM      3  N   UNL d   1      -5.063   0.205   0.099  0.00  0.00    -0.357 N 
ATOM      4  H   UNL d   1      -4.925  -0.772  -0.117  0.00  0.00     0.162 HD
ENDROOT
BRANCH   1   5
ATOM      5  C   UNL d   1      -2.628   0.445   0.003  0.00  0.00     0.034 A 
ATOM      6  C   UNL d   1      -1.599   1.189  -0.598  0.00  0.00     0.049 A 
ATOM      7  C   UNL d   1      -0.294   0.662  -0.658  0.00  0.00     0.064 A 
ATOM      8  N   UNL d   1       0.821   1.273  -1.221  0.00  0.00    -0.292 N 
ATOM      9  C   UNL d   1      -0.056  -0.599  -0.104  0.00  0.00     0.047 A 
ATOM     10  N   UNL d   1       1.905   0.523  -1.115  0.00  0.00    -0.061 NA
ATOM     11  HN  UNL d   1       0.805   2.191  -1.664  1.00  0.00     0.183 HD
ATOM     12  S   UNL d   1       1.619  -0.928  -0.337  0.00  0.00     0.002 SA
ATOM     13  C   UNL d   1      -1.065  -1.356   0.509  0.00  0.00     0.023 A 
ATOM     14  C   UNL d   1      -2.357  -0.811   0.556  0.00  0.00     0.018 A 
ENDBRANCH   1   5
BRANCH   3  15
ATOM     15  C   UNL d   1      -6.418   0.740   0.061  0.00  0.00     0.127 C 
BRANCH  15  16
ATOM     16  C   UNL d   1      -7.473  -0.364   0.057  0.00  0.00     0.058 C 
BRANCH  16  17
ATOM     17  C   UNL d   1      -8.885   0.168   0.035  0.00  0.00    -0.057 A 
ATOM     18  C   UNL d   1      -9.524   0.447  -1.180  0.00  0.00     0.007 A 
ATOM     19  C   UNL d   1     -10.838   0.920  -1.198  0.00  0.00     0.001 A 
ATOM     20  C   UNL d   1     -11.523   1.125  -0.002  0.00  0.00     0.000 A 
ATOM     21  C   UNL d   1     -10.891   0.867   1.212  0.00  0.00     0.001 A 
ATOM     22  C   UNL d   1      -9.577   0.395   1.233  0.00  0.00     0.007 A 
ENDBRANCH  16  17
ENDBRANCH  15  16
ENDBRANCH   3  15
TORSDOF 4
