REMARK  4 active torsions:
REMARK  status: ('A' for Active; 'I' for Inactive)
REMARK    1  A    between atoms: N_2  and  C_1 
REMARK    2  A    between atoms: O_7  and  C_1 
REMARK    3  A    between atoms: C_3  and  N_2 
REMARK    4  A    between atoms: C_13  and  O_7 
ROOT
ATOM      1  C   UNL d   1       0.907   1.565  -2.103  0.00  0.00     0.045 A 
ATOM      2  C   UNL d   1       0.378   2.878  -2.280  0.00  0.00     0.001 A 
ATOM      3  C   UNL d   1       0.974   3.711  -3.269  0.00  0.00    -0.024 A 
ATOM      4  C   UNL d   1       1.900   1.093  -2.979  0.00  0.00     0.030 A 
ATOM      5  C   UNL d   1       2.457   1.916  -3.945  0.00  0.00     0.003 A 
ATOM      6  C   UNL d   1      -0.681   3.444  -1.522  0.00  0.00     0.014 A 
ATOM      7  C   UNL d   1       2.016   3.226  -4.071  0.00  0.00     0.012 A 
ATOM      8  C   UNL d   1       0.532   5.029  -3.457  0.00  0.00     0.012 A 
ATOM      9  C   UNL d   1      -1.126   4.753  -1.740  0.00  0.00     0.001 A 
ATOM     10  C   UNL d   1      -0.517   5.548  -2.703  0.00  0.00     0.001 A 
ENDROOT
BRANCH   1  11
ATOM     11  N   UNL d   1       0.422   0.689  -1.094  0.00  0.00    -0.327 N 
ATOM     12  H   UNL d   1      -0.495   0.877  -0.716  0.00  0.00     0.169 HD
BRANCH  11  13
ATOM     13  C   UNL d   1       1.165  -0.237  -0.383  0.00  0.00     0.214 C 
ATOM     14  S   UNL d   1       2.804  -0.272  -0.086  0.00  0.00    -0.033 SA
BRANCH  13  15
ATOM     15  O   UNL d   1       0.459  -1.179   0.287  0.00  0.00    -0.327 OA
BRANCH  15  16
ATOM     16  C   UNL d   1      -0.700  -1.814  -0.288  0.00  0.00     0.173 C 
ATOM     17  C   UNL d   1      -0.440  -2.398  -1.667  0.00  0.00     0.034 C 
ENDBRANCH  15  16
ENDBRANCH  13  15
ENDBRANCH  11  13
ENDBRANCH   1  11
TORSDOF 4
