REMARK  3 active torsions:
REMARK  status: ('A' for Active; 'I' for Inactive)
REMARK    1  A    between atoms: C_1  and  O_7 
REMARK    2  A    between atoms: S_3  and  O_7 
REMARK    3  A    between atoms: C_5  and  C_9 
ROOT
ATOM      1  C   UNL d   1      -2.192  -0.090  -0.122  0.00  0.00     0.251 C 
ATOM      2  C   UNL d   1      -1.148  -0.965   0.538  0.00  0.00     0.195 C 
ATOM      3  O   UNL d   1      -0.500   1.769   0.171  0.00  0.00    -0.337 OA
ATOM      4  C   UNL d   1      -1.875   1.354   0.316  0.00  0.00     0.200 C 
ATOM      5  C   UNL d   1       0.231  -0.543   0.302  0.00  0.00     0.046 A 
ATOM      6  C   UNL d   1       0.467   0.814   0.152  0.00  0.00     0.083 A 
ATOM      7  O   UNL d   1      -1.372  -1.949   1.229  0.00  0.00    -0.289 OA
ATOM      8  C   UNL d   1       1.267  -1.476   0.235  0.00  0.00     0.018 A 
ATOM      9  C   UNL d   1       1.774   1.257  -0.036  0.00  0.00     0.038 A 
ATOM     10  C   UNL d   1       2.570  -1.030   0.018  0.00  0.00     0.001 A 
ATOM     11  C   UNL d   1       2.824   0.338  -0.105  0.00  0.00     0.003 A 
ENDROOT
BRANCH   4  12
ATOM     12  C   UNL d   1      -2.640   2.393  -0.498  0.00  0.00    -0.026 A 
ATOM     13  C   UNL d   1      -2.357   2.577  -1.865  0.00  0.00     0.011 A 
ATOM     14  C   UNL d   1      -2.969   3.599  -2.594  0.00  0.00     0.019 A 
ATOM     15  C   UNL d   1      -3.873   4.447  -1.963  0.00  0.00     0.011 A 
ATOM     16  C   UNL d   1      -4.177   4.276  -0.613  0.00  0.00     0.019 A 
ATOM     17 BR   UNL d   1      -4.675   5.853  -2.939  0.00  0.00    -0.051 Br
ATOM     18  C   UNL d   1      -3.563   3.253   0.117  0.00  0.00     0.011 A 
ENDBRANCH   4  12
BRANCH   1  19
ATOM     19  O   UNL d   1      -3.506  -0.464   0.282  0.00  0.00    -0.260 OA
BRANCH  19  20
ATOM     20  S   UNL d   1      -4.207  -1.724  -0.482  0.00  0.00     0.262 S 
ATOM     21  O   UNL d   1      -4.235  -1.437  -1.902  0.00  0.00    -0.199 OA
ATOM     22  O   UNL d   1      -3.683  -2.974   0.024  0.00  0.00    -0.199 OA
ATOM     23  C   UNL d   1      -5.843  -1.518   0.170  0.00  0.00     0.194 C 
ENDBRANCH  19  20
ENDBRANCH   1  19
TORSDOF 3
