REMARK  3 active torsions:
REMARK  status: ('A' for Active; 'I' for Inactive)
REMARK    1  A    between atoms: O_2  and  S_1 
REMARK    2  A    between atoms: C_4  and  S_1 
REMARK    3  A    between atoms: C_3  and  O_2 
ROOT
ATOM      1  S   UNL d   1       0.927  -0.151   0.095  0.00  0.00     0.303 S 
ATOM      2  O   UNL d   1      -0.002  -1.201   0.474  0.00  0.00    -0.193 OA
ATOM      3  O   UNL d   1       2.361  -0.385   0.095  0.00  0.00    -0.193 OA
ENDROOT
BRANCH   1   4
ATOM      4  O   UNL d   1       0.621   1.205   0.959  0.00  0.00    -0.229 OA
BRANCH   4   5
ATOM      5  C   UNL d   1       0.868   1.246   2.314  0.00  0.00     0.096 A 
ATOM      6  C   UNL d   1       1.373   2.437   2.860  0.00  0.00    -0.027 A 
ATOM      7  C   UNL d   1       1.632   2.497   4.240  0.00  0.00     0.010 A 
ATOM      8  C   UNL d   1       1.711   3.632   2.015  0.00  0.00     0.051 C 
ATOM      9  C   UNL d   1       1.351   1.411   5.070  0.00  0.00     0.007 A 
ATOM     10  C   UNL d   1       0.803   0.244   4.537  0.00  0.00    -0.059 A 
ATOM     11  C   UNL d   1       0.562   0.172   3.160  0.00  0.00     0.045 A 
ATOM     12  C   UNL d   1       0.473  -0.916   5.430  0.00  0.00     0.048 C 
ENDBRANCH   4   5
ENDBRANCH   1   4
BRANCH   1  13
ATOM     13  C   UNL d   1       0.466   0.281  -1.571  0.00  0.00     0.086 A 
ATOM     14  C   UNL d   1       1.375   0.114  -2.617  0.00  0.00     0.026 A 
ATOM     15  C   UNL d   1       0.956   0.333  -3.930  0.00  0.00     0.008 A 
ATOM     16  C   UNL d   1      -0.366   0.714  -4.202  0.00  0.00    -0.062 A 
ATOM     17  C   UNL d   1      -1.262   0.896  -3.139  0.00  0.00     0.008 A 
ATOM     18  C   UNL d   1      -0.814   0.888  -5.625  0.00  0.00     0.048 C 
ATOM     19  C   UNL d   1      -0.850   0.680  -1.823  0.00  0.00     0.026 A 
ENDBRANCH   1  13
TORSDOF 3
