REMARK  0 active torsions:
REMARK  status: ('A' for Active; 'I' for Inactive)
ROOT
ATOM      1  C   UNL d   1      -1.610  -0.401   0.899  0.00  0.00     0.144 C 
ATOM      2  C   UNL d   1      -0.565  -1.536   1.032  0.00  0.00     0.024 C 
ATOM      3  C   UNL d   1      -0.528   0.633   0.515  0.00  0.00     0.024 C 
ATOM      4  C   UNL d   1      -2.425  -0.312   2.187  0.00  0.00     0.281 C 
ATOM      5  C   UNL d   1      -2.615  -0.346  -0.224  0.00  0.00     0.281 C 
ATOM      6  C   UNL d   1       0.265  -1.537  -0.255  0.00  0.00     0.001 C 
ATOM      7  C   UNL d   1       0.259  -0.038  -0.645  0.00  0.00     0.001 C 
ATOM      8  C   UNL d   1       0.469   0.581   1.665  0.00  0.00     0.001 A 
ATOM      9  C   UNL d   1       0.466  -0.921   2.034  0.00  0.00     0.001 A 
ATOM     10  C   UNL d   1       1.881  -1.050   1.458  0.00  0.00    -0.000 A 
ATOM     11  C   UNL d   1       1.865   0.443   1.048  0.00  0.00    -0.000 A 
ATOM     12  C   UNL d   1       1.742  -1.786   0.121  0.00  0.00    -0.004 C 
ATOM     13  C   UNL d   1       1.725   0.377  -0.481  0.00  0.00    -0.004 C 
ATOM     14  O   UNL d   1      -3.564   0.418   2.133  0.00  0.00    -0.283 OA
ATOM     15  O   UNL d   1      -3.325   0.821  -0.193  0.00  0.00    -0.283 OA
ATOM     16  C   UNL d   1      -3.626   1.389   1.094  0.00  0.00     0.175 C 
ATOM     17  C   UNL d   1       2.499  -0.886  -0.851  0.00  0.00     0.011 C 
ATOM     18  O   UNL d   1      -2.153  -0.924   3.220  0.00  0.00    -0.264 OA
ATOM     19  O   UNL d   1      -2.716  -1.163  -1.123  0.00  0.00    -0.264 OA
ATOM     20  C   UNL d   1      -2.753   2.580   1.524  0.00  0.00     0.079 C 
ATOM     21  C   UNL d   1      -5.063   1.908   0.994  0.00  0.00     0.079 C 
ENDROOT
TORSDOF 0
