REMARK  3 active torsions:
REMARK  status: ('A' for Active; 'I' for Inactive)
REMARK    1  A    between atoms: C_11  and  C_1 
REMARK    2  A    between atoms: C_8  and  C_3 
REMARK    3  A    between atoms: O_18  and  C_11 
ROOT
ATOM      1  C   UNL d   1       2.805  -0.855   0.072  0.00  0.00     0.054 C 
ATOM      2  C   UNL d   1       0.271  -0.715   0.098  0.00  0.00     0.025 C 
ATOM      3  C   UNL d   1       1.485  -1.562   0.434  0.00  0.00     0.115 C 
ATOM      4  C   UNL d   1       0.373   0.621  -0.026  0.00  0.00     0.021 C 
ATOM      5  C   UNL d   1       2.818   0.497  -0.071  0.00  0.00     0.018 C 
ATOM      6  N   UNL d   1       1.622   1.208   0.021  0.00  0.00    -0.362 N 
ATOM      7  C   UNL d   1      -1.024  -1.390  -0.177  0.00  0.00     0.159 C 
ATOM      8  C   UNL d   1      -0.811   1.527  -0.248  0.00  0.00     0.067 C 
ATOM      9  C   UNL d   1      -2.175   0.856   0.028  0.00  0.00    -0.036 C 
ATOM     10  C   UNL d   1      -2.196  -0.537  -0.619  0.00  0.00     0.092 C 
ATOM     11  O   UNL d   1      -1.111  -2.616  -0.144  0.00  0.00    -0.293 OA
ATOM     12  C   UNL d   1       4.019   1.372  -0.328  0.00  0.00     0.069 C 
ATOM     13  C   UNL d   1      -3.288   1.723  -0.585  0.00  0.00     0.015 C 
ATOM     14  C   UNL d   1      -2.439   0.738   1.544  0.00  0.00     0.015 C 
ATOM     15  H   UNL d   1       1.674   2.216  -0.097  0.00  0.00     0.165 HD
ENDROOT
BRANCH   3  16
ATOM     16  C   UNL d   1       1.469  -1.927   1.929  0.00  0.00     0.022 A 
ATOM     17  N   UNL d   1       2.054  -1.057   2.799  0.00  0.00    -0.362 N 
ATOM     18  C   UNL d   1       2.021  -1.329   4.122  0.00  0.00     0.005 A 
ATOM     19  HN  UNL d   1       2.512  -0.212   2.456  1.00  0.00     0.165 HD
ATOM     20  C   UNL d   1       2.688  -0.347   5.036  0.00  0.00     0.068 C 
ATOM     21  C   UNL d   1       1.394  -2.458   4.630  0.00  0.00     0.024 A 
ATOM     22  C   UNL d   1       0.793  -3.344   3.742  0.00  0.00     0.004 A 
ATOM     23  C   UNL d   1       0.831  -3.081   2.375  0.00  0.00     0.026 A 
ENDBRANCH   3  16
BRANCH   1  24
ATOM     24  C   UNL d   1       4.004  -1.736  -0.070  0.00  0.00     0.291 C 
ATOM     25  O   UNL d   1       5.127  -1.371  -0.386  0.00  0.00    -0.260 OA
BRANCH  24  26
ATOM     26  O   UNL d   1       3.658  -3.034   0.139  0.00  0.00    -0.323 OA
ATOM     27  C   UNL d   1       4.722  -3.976  -0.007  0.00  0.00     0.213 C 
ENDBRANCH  24  26
ENDBRANCH   1  24
TORSDOF 3
