REMARK  6 active torsions:
REMARK  status: ('A' for Active; 'I' for Inactive)
REMARK    1  A    between atoms: C_14  and  C_2 
REMARK    2  A    between atoms: C_15  and  C_3 
REMARK    3  A    between atoms: S_17  and  C_6 
REMARK    4  A    between atoms: C_13  and  C_14 
REMARK    5  A    between atoms: C_23  and  S_17 
REMARK    6  A    between atoms: C_26  and  C_23 
ROOT
ATOM      1  N   UNL d   1       0.840  -0.034   0.024  0.00  0.00    -0.319 N 
ATOM      2  C   UNL d   1       0.036   1.070  -0.176  0.00  0.00     0.107 A 
ATOM      3  C   UNL d   1       0.027  -1.118  -0.178  0.00  0.00     0.162 A 
ATOM      4  N   UNL d   1      -1.186   0.657  -0.453  0.00  0.00    -0.286 N 
ATOM      5  HN  UNL d   1      -1.992   1.255  -0.635  1.00  0.00     0.188 HD
ATOM      6  N   UNL d   1      -1.189  -0.713  -0.456  0.00  0.00    -0.278 N 
ATOM      7  HN  UNL d   1      -1.994  -1.312  -0.641  1.00  0.00     0.189 HD
ATOM      8  C   UNL d   1       2.243  -0.055   0.353  0.00  0.00     0.159 C 
ENDROOT
BRANCH   2   9
ATOM      9  C   UNL d   1       0.438   2.498  -0.032  0.00  0.00     0.164 C 
BRANCH   9  10
ATOM     10  C   UNL d   1       1.409   2.960  -1.053  0.00  0.00     0.155 A 
ATOM     11  N   UNL d   1       2.674   2.643  -1.199  0.00  0.00    -0.321 N 
ATOM     12  C   UNL d   1       3.100   3.512  -2.187  0.00  0.00     0.156 A 
ATOM     13  HN  UNL d   1       3.211   1.931  -0.705  1.00  0.00     0.169 HD
ATOM     14  N   UNL d   1       2.124   4.317  -2.648  0.00  0.00    -0.241 N 
ATOM     15  O   UNL d   1       1.006   3.953  -1.898  0.00  0.00    -0.222 OA
ATOM     16  HN  UNL d   1       2.187   5.027  -3.377  1.00  0.00     0.196 HD
BRANCH  12  17
ATOM     17  C   UNL d   1       4.492   3.579  -2.622  0.00  0.00     0.094 A 
ATOM     18  N   UNL d   1       5.350   2.640  -2.127  0.00  0.00    -0.360 N 
ATOM     19  C   UNL d   1       6.643   2.760  -2.509  0.00  0.00     0.105 A 
ATOM     20  HN  UNL d   1       5.036   1.894  -1.507  1.00  0.00     0.165 HD
ATOM     21  C   UNL d   1       7.081   3.771  -3.346  0.00  0.00     0.104 A 
ATOM     22  N   UNL d   1       6.243   4.705  -3.850  0.00  0.00    -0.372 N 
ATOM     23  C   UNL d   1       4.943   4.584  -3.469  0.00  0.00     0.121 A 
ATOM     24  HN  UNL d   1       6.564   5.447  -4.472  1.00  0.00     0.164 HD
ENDBRANCH  12  17
ENDBRANCH   9  10
ENDBRANCH   2   9
BRANCH   3  25
ATOM     25  S   UNL d   1       0.551  -2.764  -0.086  0.00  0.00    -0.088 SA
BRANCH  25  26
ATOM     26  C   UNL d   1      -0.807  -3.565  -0.989  0.00  0.00     0.121 C 
BRANCH  26  27
ATOM     27  C   UNL d   1      -0.673  -5.069  -1.020  0.00  0.00    -0.048 A 
ATOM     28  C   UNL d   1      -1.311  -5.858  -0.051  0.00  0.00     0.009 A 
ATOM     29  C   UNL d   1      -1.229  -7.252  -0.102  0.00  0.00     0.024 A 
ATOM     30  C   UNL d   1      -0.499  -7.864  -1.117  0.00  0.00     0.034 A 
ATOM     31  C   UNL d   1       0.160  -7.096  -2.075  0.00  0.00     0.024 A 
ATOM     32 CL   UNL d   1      -0.417  -9.581  -1.195  0.00  0.00    -0.084 Cl
ATOM     33  C   UNL d   1       0.075  -5.701  -2.025  0.00  0.00     0.009 A 
ENDBRANCH  26  27
ENDBRANCH  25  26
ENDBRANCH   3  25
TORSDOF 6
