REMARK  6 active torsions:
REMARK  status: ('A' for Active; 'I' for Inactive)
REMARK    1  A    between atoms: C_2  and  C_1 
REMARK       I    between atoms: N_4  and  C_1 
REMARK    2  A    between atoms: C_3  and  O_8 
REMARK    3  A    between atoms: C_10  and  N_4 
REMARK    4  A    between atoms: O_8  and  C_14 
REMARK    5  A    between atoms: O_9  and  C_15 
REMARK    6  A    between atoms: C_16  and  O_9 
ROOT
ATOM      1  C   UNL d   1      -1.217   0.762   0.933  0.00  0.00     0.035 A 
ATOM      2  C   UNL d   1      -4.011   0.724   1.150  0.00  0.00     0.076 A 
ATOM      3  C   UNL d   1      -1.900  -0.443   1.123  0.00  0.00     0.032 A 
ATOM      4  C   UNL d   1      -1.937   1.957   0.964  0.00  0.00     0.032 A 
ATOM      5  C   UNL d   1      -3.287  -0.460   1.259  0.00  0.00     0.039 A 
ATOM      6  C   UNL d   1      -3.334   1.940   1.060  0.00  0.00     0.039 A 
ENDROOT
BRANCH   1   7
ATOM      7  N   UNL d   1       0.177   0.828   0.708  0.00  0.00    -0.323 N 
ATOM      8  C   UNL d   1       0.994  -0.233   0.333  0.00  0.00     0.262 C 
ATOM      9  O   UNL d   1       0.597  -1.370   0.113  0.00  0.00    -0.267 OA
ATOM     10  H   UNL d   1       0.587   1.756   0.734  0.00  0.00     0.169 HD
BRANCH   8  11
ATOM     11  C   UNL d   1       2.444   0.060   0.159  0.00  0.00     0.109 A 
ATOM     12  C   UNL d   1       3.028   1.260   0.571  0.00  0.00     0.135 A 
ATOM     13  F   UNL d   1       2.286   2.240   1.110  0.00  0.00    -0.205 F 
ATOM     14  C   UNL d   1       4.400   1.488   0.436  0.00  0.00     0.043 A 
ATOM     15  C   UNL d   1       5.218   0.510  -0.124  0.00  0.00     0.006 A 
ATOM     16  C   UNL d   1       4.654  -0.688  -0.553  0.00  0.00     0.043 A 
ATOM     17  C   UNL d   1       3.282  -0.906  -0.412  0.00  0.00     0.135 A 
ATOM     18  F   UNL d   1       2.807  -2.077  -0.859  0.00  0.00    -0.205 F 
ENDBRANCH   8  11
ENDBRANCH   1   7
BRANCH   2  19
ATOM     19  O   UNL d   1      -5.385   0.771   1.169  0.00  0.00    -0.311 OA
BRANCH  19  20
ATOM     20  C   UNL d   1      -6.098  -0.186   0.476  0.00  0.00     0.076 A 
ATOM     21  C   UNL d   1      -7.368  -0.472   0.969  0.00  0.00     0.040 A 
ATOM     22  C   UNL d   1      -8.171  -1.416   0.325  0.00  0.00     0.040 A 
ATOM     23  C   UNL d   1      -7.723  -2.077  -0.825  0.00  0.00     0.078 A 
ATOM     24  C   UNL d   1      -6.445  -1.805  -1.306  0.00  0.00     0.040 A 
ATOM     25  C   UNL d   1      -5.652  -0.832  -0.683  0.00  0.00     0.040 A 
BRANCH  23  26
ATOM     26  O   UNL d   1      -8.620  -2.955  -1.349  0.00  0.00    -0.255 OA
BRANCH  26  27
ATOM     27  C   UNL d   1      -8.518  -3.327  -2.715  0.00  0.00     0.530 C 
ATOM     28  F   UNL d   1      -7.861  -2.426  -3.476  0.00  0.00    -0.144 F 
ATOM     29  F   UNL d   1      -7.910  -4.526  -2.821  0.00  0.00    -0.144 F 
ATOM     30  F   UNL d   1      -9.771  -3.445  -3.215  0.00  0.00    -0.144 F 
ENDBRANCH  26  27
ENDBRANCH  23  26
ENDBRANCH  19  20
ENDBRANCH   2  19
TORSDOF 6
