REMARK  2 active torsions:
REMARK  status: ('A' for Active; 'I' for Inactive)
REMARK    1  A    between atoms: C_8  and  N_2 
REMARK    2  A    between atoms: C_13  and  N_7 
ROOT
ATOM      1  N   UNL d   1       2.243   0.167  -0.542  0.00  0.00    -0.019 NA
ATOM      2  N   UNL d   1       1.604  -0.982  -0.210  0.00  0.00    -0.269 N 
ATOM      3  N   UNL d   1       1.379   1.162  -0.446  0.00  0.00    -0.282 N 
ATOM      4  HN  UNL d   1       1.574   2.146  -0.633  1.00  0.00     0.184 HD
ATOM      5  C   UNL d   1       0.292  -0.744   0.106  0.00  0.00     0.077 A 
ATOM      6  C   UNL d   1       0.184   0.641  -0.052  0.00  0.00     0.074 A 
ATOM      7  C   UNL d   1      -0.799  -1.523   0.513  0.00  0.00     0.033 A 
ATOM      8  C   UNL d   1      -1.029   1.295   0.189  0.00  0.00     0.033 A 
ATOM      9  C   UNL d   1      -2.013  -0.848   0.739  0.00  0.00     0.002 A 
ATOM     10  C   UNL d   1      -2.129   0.538   0.583  0.00  0.00     0.002 A 
ENDROOT
BRANCH   2  11
ATOM     11  C   UNL d   1       2.434  -2.167  -0.171  0.00  0.00     0.110 C 
ATOM     12  C   UNL d   1       3.021  -2.428   1.209  0.00  0.00     0.057 C 
ATOM     13  C   UNL d   1       4.218  -3.361   1.043  0.00  0.00     0.275 C 
ATOM     14  N   UNL d   1       3.895  -4.640   0.376  0.00  0.00     0.092 N 
ATOM     15  C   UNL d   1       3.089  -4.457  -0.855  0.00  0.00     0.275 C 
ATOM     16  C   UNL d   1       1.897  -3.487  -0.706  0.00  0.00     0.057 C 
BRANCH  14  17
ATOM     17  C   UNL d   1       5.152  -5.406   0.095  0.00  0.00     0.215 C 
ATOM     18  C   UNL d   1       6.022  -5.610   1.351  0.00  0.00     0.042 C 
ATOM     19  C   UNL d   1       4.888  -6.793  -0.510  0.00  0.00     0.042 C 
ENDBRANCH  14  17
ENDBRANCH   2  11
TORSDOF 2
