REMARK  6 active torsions:
REMARK  status: ('A' for Active; 'I' for Inactive)
REMARK    1  A    between atoms: C_4  and  C_1 
REMARK       I    between atoms: N_5  and  C_1 
REMARK    2  A    between atoms: C_7  and  C_2 
REMARK    3  A    between atoms: C_3  and  N_6 
REMARK    4  A    between atoms: C_8  and  N_5 
REMARK    5  A    between atoms: N_6  and  C_9 
REMARK    6  A    between atoms: O_17  and  C_7 
ROOT
ATOM      1  C   UNL d   1      -1.050  -0.011  -1.533  0.00  0.00     0.056 C 
ATOM      2  C   UNL d   1      -1.520   1.192  -0.983  0.00  0.00     0.039 C 
ATOM      3  C   UNL d   1      -1.905  -0.826  -2.283  0.00  0.00     0.031 C 
ATOM      4  C   UNL d   1      -2.910   1.391  -0.939  0.00  0.00     0.026 C 
ATOM      5  C   UNL d   1      -3.277  -0.571  -2.296  0.00  0.00     0.002 C 
ATOM      6  C   UNL d   1      -3.782   0.504  -1.573  0.00  0.00     0.002 C 
ENDROOT
BRANCH   1   7
ATOM      7  N   UNL d   1       0.231  -0.549  -1.255  0.00  0.00    -0.321 N 
ATOM      8  C   UNL d   1       0.588  -0.800   0.075  0.00  0.00     0.259 C 
ATOM      9  O   UNL d   1       0.225  -0.196   1.075  0.00  0.00    -0.267 OA
ATOM     10  H   UNL d   1       0.533  -1.253  -1.916  0.00  0.00     0.169 HD
BRANCH   8  11
ATOM     11  C   UNL d   1       1.364  -2.055   0.209  0.00  0.00     0.075 A 
ATOM     12  C   UNL d   1       2.627  -2.169  -0.380  0.00  0.00     0.051 A 
ATOM     13 CL   UNL d   1       3.515  -0.797  -0.930  0.00  0.00    -0.083 Cl
ATOM     14  C   UNL d   1       3.206  -3.429  -0.555  0.00  0.00     0.025 A 
ATOM     15  C   UNL d   1       2.536  -4.575  -0.128  0.00  0.00     0.003 A 
ATOM     16  C   UNL d   1       1.318  -4.457   0.539  0.00  0.00     0.025 A 
ATOM     17  C   UNL d   1       0.732  -3.200   0.719  0.00  0.00     0.051 A 
ATOM     18 CL   UNL d   1      -0.794  -3.153   1.530  0.00  0.00    -0.083 Cl
ENDBRANCH   8  11
ENDBRANCH   1   7
BRANCH   2  19
ATOM     19  N   UNL d   1      -0.700   2.171  -0.370  0.00  0.00    -0.260 NA
ATOM     20  H   UNL d   1      -0.720   1.951   0.632  0.00  0.00     0.133 HD
BRANCH  19  21
ATOM     21  C   UNL d   1       0.597   2.515  -0.765  0.00  0.00     0.012 C 
ATOM     22  C   UNL d   1       1.187   2.628  -1.977  0.00  0.00     0.044 C 
ATOM     23  C   UNL d   1       2.659   2.930  -1.980  0.00  0.00     0.120 C 
ATOM     24  S   UNL d   1       3.195   2.980  -0.258  0.00  0.00    -0.159 SA
ATOM     25  C   UNL d   1       1.524   2.841   0.395  0.00  0.00     0.126 C 
BRANCH  22  26
ATOM     26  C   UNL d   1       0.650   2.477  -3.357  0.00  0.00     0.291 C 
ATOM     27  O   UNL d   1       1.380   2.308  -4.322  0.00  0.00    -0.260 OA
BRANCH  26  28
ATOM     28  O   UNL d   1      -0.691   2.631  -3.415  0.00  0.00    -0.323 OA
ATOM     29  C   UNL d   1      -1.296   2.512  -4.706  0.00  0.00     0.213 C 
ENDBRANCH  26  28
ENDBRANCH  22  26
ENDBRANCH  19  21
ENDBRANCH   2  19
TORSDOF 6
