REMARK  5 active torsions:
REMARK  status: ('A' for Active; 'I' for Inactive)
REMARK    1  A    between atoms: C_7  and  C_3 
REMARK    2  A    between atoms: C_15  and  C_4 
REMARK    3  A    between atoms: O_16  and  C_15 
REMARK    4  A    between atoms: C_17  and  O_16 
REMARK    5  A    between atoms: O_23  and  C_18 
ROOT
ATOM      1  N   UNL d   1       1.463  -0.588  -0.002  0.00  0.00    -0.351 N 
ATOM      2  HN  UNL d   1       2.353  -1.083  -0.042  1.00  0.00     0.166 HD
ATOM      3  C   UNL d   1       1.321   0.791   0.004  0.00  0.00     0.049 A 
ATOM      4  C   UNL d   1       0.279  -1.165   0.051  0.00  0.00     0.075 A 
ATOM      5  S   UNL d   1      -1.064  -0.091   0.121  0.00  0.00    -0.084 SA
ATOM      6  C   UNL d   1       0.015   1.237   0.072  0.00  0.00     0.082 A 
ENDROOT
BRANCH   3   7
ATOM      7  C   UNL d   1       2.482   1.673  -0.048  0.00  0.00    -0.006 A 
ATOM      8  C   UNL d   1       2.394   2.958  -0.599  0.00  0.00     0.053 A 
ATOM      9  C   UNL d   1       3.513   3.788  -0.639  0.00  0.00     0.103 A 
ATOM     10  O   UNL d   1       3.334   5.024  -1.209  0.00  0.00    -0.346 OA
ATOM     11  C   UNL d   1       4.730   3.354  -0.111  0.00  0.00     0.102 A 
ATOM     12  C   UNL d   1       4.587   5.641  -1.513  0.00  0.00     0.202 C 
ATOM     13  C   UNL d   1       5.551   5.507  -0.344  0.00  0.00     0.202 C 
ATOM     14  O   UNL d   1       5.860   4.131  -0.092  0.00  0.00    -0.346 OA
ATOM     15  C   UNL d   1       4.838   2.071   0.421  0.00  0.00     0.040 A 
ATOM     16  C   UNL d   1       3.717   1.233   0.450  0.00  0.00     0.017 A 
ENDBRANCH   3   7
BRANCH   4  17
ATOM     17  C   UNL d   1       0.046  -2.644  -0.003  0.00  0.00     0.240 C 
BRANCH  17  18
ATOM     18  O   UNL d   1       0.060  -3.133   1.339  0.00  0.00    -0.345 OA
BRANCH  18  19
ATOM     19  C   UNL d   1      -0.122  -4.482   1.487  0.00  0.00     0.069 A 
ATOM     20  C   UNL d   1      -0.369  -5.389   0.457  0.00  0.00     0.039 A 
ATOM     21  C   UNL d   1      -0.551  -6.748   0.735  0.00  0.00     0.039 A 
ATOM     22  C   UNL d   1      -0.489  -7.215   2.046  0.00  0.00     0.068 A 
ATOM     23  C   UNL d   1      -0.234  -6.308   3.077  0.00  0.00     0.039 A 
ATOM     24  C   UNL d   1      -0.052  -4.949   2.800  0.00  0.00     0.039 A 
BRANCH  22  25
ATOM     25  O   UNL d   1      -0.663  -8.512   2.442  0.00  0.00    -0.356 OA
ATOM     26  C   UNL d   1      -0.923  -9.462   1.415  0.00  0.00     0.210 C 
ENDBRANCH  22  25
ENDBRANCH  18  19
ENDBRANCH  17  18
ENDBRANCH   4  17
TORSDOF 5
