REMARK  3 active torsions:
REMARK  status: ('A' for Active; 'I' for Inactive)
REMARK    1  A    between atoms: C_7  and  N_1 
REMARK    2  A    between atoms: C_8  and  C_7 
REMARK       I    between atoms: N_11  and  C_8 
REMARK    3  A    between atoms: N_13  and  N_11 
ROOT
ATOM      1  N   UNL d   1      -0.189  -1.118   0.032  0.00  0.00    -0.286 N 
ATOM      2  N   UNL d   1       1.075  -0.636   0.070  0.00  0.00    -0.301 N 
ATOM      3  HN  UNL d   1       1.944  -1.167   0.120  1.00  0.00     0.187 HD
ATOM      4  C   UNL d   1      -1.146  -0.131   0.007  0.00  0.00     0.044 A 
ATOM      5  C   UNL d   1      -0.435   1.046   0.009  0.00  0.00     0.058 A 
ATOM      6  C   UNL d   1       0.927   0.695   0.026  0.00  0.00     0.041 A 
ATOM      7 BR   UNL d   1      -1.111   2.793  -0.019  0.00  0.00    -0.047 Br
ATOM      8  C   UNL d   1      -2.613  -0.359  -0.017  0.00  0.00     0.071 C 
ATOM      9  C   UNL d   1       2.116   1.582   0.000  0.00  0.00     0.071 C 
ENDROOT
BRANCH   1  10
ATOM     10  C   UNL d   1      -0.363  -2.558  -0.034  0.00  0.00     0.252 C 
BRANCH  10  11
ATOM     11  C   UNL d   1      -1.108  -3.103   1.157  0.00  0.00     0.251 C 
ATOM     12  O   UNL d   1      -2.181  -3.695   1.047  0.00  0.00    -0.270 OA
ATOM     13  N   UNL d   1      -0.482  -2.916   2.383  0.00  0.00    -0.292 N 
ATOM     14  H   UNL d   1       0.470  -2.555   2.436  0.00  0.00     0.183 HD
BRANCH  13  15
ATOM     15  N   UNL d   1      -1.087  -3.442   3.547  0.00  0.00    -0.247 NA
ATOM     16  H   UNL d   1      -1.853  -4.059   3.237  0.00  0.00     0.143 HD
ATOM     17  H   UNL d   1      -1.571  -2.677   4.026  0.00  0.00     0.143 HD
ENDBRANCH  13  15
ENDBRANCH  10  11
ENDBRANCH   1  10
TORSDOF 3
