REMARK  5 active torsions:
REMARK  status: ('A' for Active; 'I' for Inactive)
REMARK    1  A    between atoms: C_4  and  C_1 
REMARK    2  A    between atoms: N_8  and  C_2 
REMARK    3  A    between atoms: S_3  and  C_10 
REMARK    4  A    between atoms: N_15  and  S_3 
REMARK       I    between atoms: C_7  and  N_8 
REMARK       I    between atoms: N_11  and  C_7 
REMARK    5  A    between atoms: C_16  and  N_11 
ROOT
ATOM      1  C   UNL d   1       1.327  -3.440   0.057  0.00  0.00     0.325 C 
ATOM      2  N   UNL d   1       0.243  -2.644  -0.267  0.00  0.00    -0.306 N 
ATOM      3  N   UNL d   1       2.514  -2.739  -0.086  0.00  0.00    -0.309 N 
ATOM      4  O   UNL d   1       1.214  -4.591   0.462  0.00  0.00    -0.247 OA
ATOM      5  H   UNL d   1       0.366  -1.655  -0.108  0.00  0.00     0.171 HD
ATOM      6  H   UNL d   1       2.449  -1.824  -0.507  0.00  0.00     0.170 HD
ENDROOT
BRANCH   2   7
ATOM      7  C   UNL d   1      -1.074  -3.088  -0.278  0.00  0.00     0.077 A 
ATOM      8  C   UNL d   1      -1.616  -4.339  -0.541  0.00  0.00     0.186 A 
ATOM      9  O   UNL d   1      -2.983  -4.270  -0.398  0.00  0.00    -0.308 OA
ATOM     10  C   UNL d   1      -3.311  -2.990  -0.092  0.00  0.00     0.052 A 
ATOM     11  C   UNL d   1      -4.747  -2.704   0.101  0.00  0.00     0.077 C 
ATOM     12  C   UNL d   1      -2.176  -2.219  -0.034  0.00  0.00     0.064 A 
BRANCH   8  13
ATOM     13  C   UNL d   1      -1.117  -5.668  -0.985  0.00  0.00     0.441 C 
ATOM     14  F   UNL d   1       0.114  -5.641  -1.559  0.00  0.00    -0.164 F 
ATOM     15  F   UNL d   1      -1.089  -6.582   0.019  0.00  0.00    -0.164 F 
ATOM     16  F   UNL d   1      -1.937  -6.194  -1.945  0.00  0.00    -0.164 F 
ENDBRANCH   8  13
ENDBRANCH   2   7
BRANCH   3  17
ATOM     17  C   UNL d   1       3.815  -3.179   0.246  0.00  0.00     0.037 A 
ATOM     18  C   UNL d   1       4.096  -4.452   0.739  0.00  0.00     0.054 A 
ATOM     19  C   UNL d   1       5.409  -4.803   1.073  0.00  0.00     0.076 A 
ATOM     20  C   UNL d   1       6.455  -3.891   0.933  0.00  0.00     0.025 A 
ATOM     21  C   UNL d   1       6.182  -2.622   0.432  0.00  0.00     0.004 A 
ATOM     22  C   UNL d   1       4.871  -2.270   0.085  0.00  0.00     0.029 A 
BRANCH  19  23
ATOM     23  S   UNL d   1       5.710  -6.421   1.713  0.00  0.00     0.239 S 
ATOM     24  O   UNL d   1       7.117  -6.562   2.011  0.00  0.00    -0.206 OA
ATOM     25  O   UNL d   1       4.681  -6.748   2.670  0.00  0.00    -0.206 OA
BRANCH  23  26
ATOM     26  N   UNL d   1       5.435  -7.384   0.366  0.00  0.00    -0.225 NA
ATOM     27  H   UNL d   1       6.279  -7.905   0.131  0.00  0.00     0.136 HD
ATOM     28  H   UNL d   1       4.611  -7.967   0.512  0.00  0.00     0.136 HD
ENDBRANCH  23  26
ENDBRANCH  19  23
ENDBRANCH   3  17
TORSDOF 5
