REMARK  4 active torsions:
REMARK  status: ('A' for Active; 'I' for Inactive)
REMARK    1  A    between atoms: C_4  and  C_1 
REMARK       I    between atoms: N_7  and  C_1 
REMARK    2  A    between atoms: C_5  and  C_6 
REMARK    3  A    between atoms: O_16  and  C_5 
REMARK    4  A    between atoms: C_8  and  N_7 
ROOT
ATOM      1  C   UNL d   1       0.996  -0.187   0.140  0.00  0.00     0.245 C 
ATOM      2  N   UNL d   1       0.251   0.968   0.011  0.00  0.00    -0.324 N 
ATOM      3  O   UNL d   1       0.580  -1.320   0.344  0.00  0.00    -0.268 OA
ATOM      4  H   UNL d   1       0.753   1.827  -0.177  0.00  0.00     0.169 HD
ENDROOT
BRANCH   2   5
ATOM      5  C   UNL d   1      -1.151   1.092   0.138  0.00  0.00     0.036 A 
ATOM      6  C   UNL d   1      -2.008   0.021   0.403  0.00  0.00     0.054 A 
ATOM      7  C   UNL d   1      -3.391   0.219   0.518  0.00  0.00     0.053 A 
ATOM      8 CL   UNL d   1      -4.370  -1.167   0.848  0.00  0.00    -0.083 Cl
ATOM      9  C   UNL d   1      -3.928   1.500   0.367  0.00  0.00     0.032 A 
ATOM     10  C   UNL d   1      -3.078   2.577   0.110  0.00  0.00     0.023 A 
ATOM     11 BR   UNL d   1      -5.788   1.858   0.491  0.00  0.00    -0.049 Br
ATOM     12  C   UNL d   1      -1.698   2.373  -0.004  0.00  0.00     0.031 A 
ENDBRANCH   2   5
BRANCH   1  13
ATOM     13  C   UNL d   1       2.455   0.064   0.026  0.00  0.00     0.081 C 
ATOM     14  C   UNL d   1       3.305  -0.950   0.250  0.00  0.00     0.086 C 
BRANCH  14  15
ATOM     15  C   UNL d   1       4.750  -0.692   0.169  0.00  0.00     0.165 C 
ATOM     16  O   UNL d   1       5.235   0.388  -0.122  0.00  0.00    -0.647 OA
BRANCH  15  17
ATOM     17  O   UNL d   1       5.483  -1.781   0.465  0.00  0.00    -0.773 OA
ATOM     18  H   UNL d   1       4.979  -2.585   0.689  0.00  0.00     0.167 HD
ENDBRANCH  15  17
ENDBRANCH  14  15
ENDBRANCH   1  13
TORSDOF 4
