REMARK  3 active torsions:
REMARK  status: ('A' for Active; 'I' for Inactive)
REMARK    1  A    between atoms: C_6  and  C_1 
REMARK    2  A    between atoms: C_7  and  C_2 
REMARK    3  A    between atoms: O_10  and  C_6 
ROOT
ATOM      1  C   UNL d   1      -0.769  -1.366   0.067  0.00  0.00     0.077 A 
ATOM      2  C   UNL d   1       0.680  -1.364   0.065  0.00  0.00     0.050 A 
ATOM      3  C   UNL d   1      -1.171  -0.034  -0.022  0.00  0.00     0.022 A 
ATOM      4  C   UNL d   1       1.077  -0.030  -0.006  0.00  0.00     0.020 A 
ATOM      5  N   UNL d   1      -0.048   0.747  -0.066  0.00  0.00    -0.362 N 
ATOM      6  C   UNL d   1      -2.513   0.611  -0.023  0.00  0.00     0.069 C 
ATOM      7  C   UNL d   1       2.419   0.615  -0.038  0.00  0.00     0.069 C 
ATOM      8  H   UNL d   1      -0.048   1.758  -0.117  0.00  0.00     0.165 HD
ENDROOT
BRANCH   1   9
ATOM      9  C   UNL d   1      -1.700  -2.492   0.181  0.00  0.00     0.295 C 
ATOM     10  O   UNL d   1      -2.849  -2.469  -0.249  0.00  0.00    -0.259 OA
BRANCH   9  11
ATOM     11  O   UNL d   1      -1.164  -3.554   0.846  0.00  0.00    -0.322 OA
ATOM     12  C   UNL d   1      -2.065  -4.649   1.014  0.00  0.00     0.213 C 
ENDBRANCH   9  11
ENDBRANCH   1   9
BRANCH   2  13
ATOM     13  C   UNL d   1       1.627  -2.489   0.126  0.00  0.00     0.158 C 
ATOM     14  O   UNL d   1       2.700  -2.385   0.726  0.00  0.00    -0.293 OA
ATOM     15  C   UNL d   1       1.324  -3.777  -0.594  0.00  0.00     0.097 C 
ENDBRANCH   2  13
TORSDOF 3
