REMARK  8 active torsions:
REMARK  status: ('A' for Active; 'I' for Inactive)
REMARK    1  A    between atoms: C_6  and  N_1 
REMARK    2  A    between atoms: C_2  and  C_8 
REMARK    3  A    between atoms: C_4  and  N_20 
REMARK    4  A    between atoms: N_19  and  C_4 
REMARK    5  A    between atoms: C_16  and  C_7 
REMARK    6  A    between atoms: N_20  and  N_9 
REMARK    7  A    between atoms: C_14  and  C_24 
REMARK    8  A    between atoms: C_24  and  N_19 
ROOT
ATOM      1  N   UNL d   1       1.191  -7.440   5.630  0.00  0.00    -0.307 N 
ATOM      2  HN  UNL d   1       1.142  -6.800   6.423  1.00  0.00     0.186 HD
ATOM      3  C   UNL d   1       0.943  -7.044   4.420  0.00  0.00     0.144 C 
ENDROOT
BRANCH   3   4
ATOM      4  C   UNL d   1       0.698  -5.650   4.177  0.00  0.00     0.093 A 
ATOM      5  O   UNL d   1       0.433  -5.227   2.903  0.00  0.00    -0.309 OA
ATOM      6  C   UNL d   1       0.278  -3.864   2.954  0.00  0.00     0.086 A 
ATOM      7  C   UNL d   1       0.462  -3.429   4.250  0.00  0.00     0.041 A 
ATOM      8  C   UNL d   1       0.716  -4.573   5.035  0.00  0.00     0.041 A 
BRANCH   6   9
ATOM      9  C   UNL d   1      -0.051  -3.179   1.706  0.00  0.00     0.000 A 
ATOM     10  C   UNL d   1      -0.131  -1.777   1.691  0.00  0.00     0.050 A 
ATOM     11  C   UNL d   1      -0.515  -1.099   0.527  0.00  0.00     0.103 A 
ATOM     12  C   UNL d   1      -0.812  -1.804  -0.643  0.00  0.00     0.036 A 
ATOM     13  C   UNL d   1      -0.712  -3.196  -0.643  0.00  0.00     0.003 A 
ATOM     14  C   UNL d   1      -0.333  -3.876   0.522  0.00  0.00     0.014 A 
BRANCH  11  15
ATOM     15  N   UNL d   1      -0.622   0.366   0.550  0.00  0.00    -0.116 N 
ATOM     16  O   UNL d   1      -0.330   0.950   1.603  0.00  0.00    -0.532 OA
ATOM     17  O   UNL d   1      -1.001   0.932  -0.486  0.00  0.00    -0.532 OA
ENDBRANCH  11  15
ENDBRANCH   6   9
ENDBRANCH   3   4
BRANCH   1  18
ATOM     18  N   UNL d   1       1.520  -8.755   5.790  0.00  0.00    -0.277 N 
ATOM     19  H   UNL d   1       2.069  -8.918   6.636  0.00  0.00     0.189 HD
BRANCH  18  20
ATOM     20  C   UNL d   1       0.760  -9.849   5.427  0.00  0.00     0.186 C 
ATOM     21  S   UNL d   1      -0.816  -9.866   4.874  0.00  0.00    -0.040 SA
BRANCH  20  22
ATOM     22  N   UNL d   1       1.425 -11.047   5.521  0.00  0.00    -0.360 N 
ATOM     23  H   UNL d   1       0.875 -11.854   5.251  0.00  0.00     0.162 HD
BRANCH  22  24
ATOM     24  C   UNL d   1       2.870 -11.197   5.523  0.00  0.00     0.187 C 
BRANCH  24  25
ATOM     25  C   UNL d   1       3.388 -11.234   6.911  0.00  0.00     0.070 A 
ATOM     26  O   UNL d   1       3.603 -10.030   7.521  0.00  0.00    -0.325 OA
ATOM     27  C   UNL d   1       4.128 -10.294   8.746  0.00  0.00     0.142 A 
ATOM     28  C   UNL d   1       4.248 -11.650   8.936  0.00  0.00     0.027 A 
ATOM     29  C   UNL d   1       3.762 -12.259   7.754  0.00  0.00     0.036 A 
ENDBRANCH  24  25
ENDBRANCH  22  24
ENDBRANCH  20  22
ENDBRANCH  18  20
ENDBRANCH   1  18
TORSDOF 8
