REMARK  6 active torsions:
REMARK  status: ('A' for Active; 'I' for Inactive)
REMARK    1  A    between atoms: C_6  and  C_1 
REMARK    2  A    between atoms: O_7  and  C_1 
REMARK    3  A    between atoms: C_2  and  C_5 
REMARK    4  A    between atoms: O_8  and  C_4 
REMARK    5  A    between atoms: C_5  and  C_6 
REMARK    6  A    between atoms: C_11  and  O_8 
ROOT
ATOM      1  C   UNL d   1      -2.154  -2.445  -0.084  0.00  0.00    -0.024 A 
ATOM      2  C   UNL d   1      -1.329  -3.535  -0.424  0.00  0.00     0.075 A 
ATOM      3  C   UNL d   1      -3.502  -2.723   0.224  0.00  0.00     0.010 A 
ATOM      4  C   UNL d   1      -1.843  -4.839  -0.445  0.00  0.00     0.037 A 
ATOM      5  C   UNL d   1      -3.177  -5.086  -0.127  0.00  0.00     0.003 A 
ATOM      6  C   UNL d   1      -4.009  -4.025   0.197  0.00  0.00     0.001 A 
ENDROOT
BRANCH   1   7
ATOM      7  C   UNL d   1      -1.627  -1.022  -0.062  0.00  0.00     0.052 C 
BRANCH   7   8
ATOM      8  C   UNL d   1      -2.665   0.080   0.162  0.00  0.00     0.115 C 
BRANCH   8   9
ATOM      9  C   UNL d   1      -2.049   1.452   0.199  0.00  0.00     0.139 C 
ATOM     10  O   UNL d   1      -0.862   1.701   0.097  0.00  0.00    -0.650 OA
BRANCH   9  11
ATOM     11  O   UNL d   1      -2.978   2.423   0.383  0.00  0.00    -0.776 OA
ATOM     12  H   UNL d   1      -3.891   2.087   0.451  0.00  0.00     0.167 HD
ENDBRANCH   9  11
ENDBRANCH   8   9
ENDBRANCH   7   8
ENDBRANCH   1   7
BRANCH   2  13
ATOM     13  O   UNL d   1      -0.054  -3.422  -0.915  0.00  0.00    -0.351 OA
BRANCH  13  14
ATOM     14  C   UNL d   1       0.908  -2.880  -0.011  0.00  0.00     0.171 C 
ATOM     15  C   UNL d   1       2.257  -3.504  -0.333  0.00  0.00     0.034 C 
ENDBRANCH  13  14
ENDBRANCH   2  13
TORSDOF 6
