REMARK  6 active torsions:
REMARK  status: ('A' for Active; 'I' for Inactive)
REMARK    1  A    between atoms: S_2  and  C_1 
REMARK    2  A    between atoms: C_5  and  C_1 
REMARK    3  A    between atoms: C_6  and  S_2 
REMARK    4  A    between atoms: N_4  and  C_3 
REMARK    5  A    between atoms: S_12  and  C_3 
REMARK    6  A    between atoms: N_7  and  C_5 
ROOT
ATOM      1  C   UNL d   1       1.033  -0.073  -0.060  0.00  0.00     0.159 C 
ATOM      2  C   UNL d   1       0.402   0.896   0.657  0.00  0.00     0.099 C 
ENDROOT
BRANCH   1   3
ATOM      3  S   UNL d   1       0.275  -1.137  -1.190  0.00  0.00     0.218 S 
ATOM      4  O   UNL d   1      -1.034  -1.572  -0.732  0.00  0.00    -0.216 OA
ATOM      5  O   UNL d   1       0.441  -0.621  -2.535  0.00  0.00    -0.216 OA
BRANCH   3   6
ATOM      6  C   UNL d   1       1.268  -2.636  -1.107  0.00  0.00     0.065 A 
ATOM      7  C   UNL d   1       0.900  -3.656  -0.218  0.00  0.00     0.025 A 
ATOM      8  C   UNL d   1       1.618  -4.855  -0.210  0.00  0.00     0.025 A 
ATOM      9  C   UNL d   1       2.688  -5.029  -1.087  0.00  0.00     0.034 A 
ATOM     10  C   UNL d   1       3.045  -4.017  -1.980  0.00  0.00     0.025 A 
ATOM     11 CL   UNL d   1       3.561  -6.512  -1.083  0.00  0.00    -0.084 Cl
ATOM     12  C   UNL d   1       2.327  -2.819  -2.001  0.00  0.00     0.025 A 
ENDBRANCH   3   6
ENDBRANCH   1   3
BRANCH   1  13
ATOM     13  C   UNL d   1       2.553  -0.073  -0.060  0.00  0.00    -0.022 C 
BRANCH  13  14
ATOM     14  N   UNL d   1       3.814  -0.073  -0.060  0.00  0.00    -0.365 N 
ATOM     15  HN2 UNL d   1       2.794  -0.073  -0.060  1.00  0.00     0.165 HD
ATOM     16  HN1 UNL d   1       4.834  -0.073  -0.060  1.00  0.00     0.165 HD
ENDBRANCH  13  14
ENDBRANCH   1  13
BRANCH   2  17
ATOM     17  N   UNL d   1       1.062   1.645   1.657  0.00  0.00    -0.370 N 
ATOM     18  C   UNL d   1       1.817   1.025   2.773  0.00  0.00     0.149 C 
ATOM     19  C   UNL d   1       1.609   1.859   4.046  0.00  0.00     0.187 C 
ATOM     20  O   UNL d   1       2.059   3.210   3.850  0.00  0.00    -0.388 OA
ATOM     21  C   UNL d   1       1.335   3.836   2.777  0.00  0.00     0.187 C 
ATOM     22  C   UNL d   1       1.468   3.057   1.455  0.00  0.00     0.149 C 
ENDBRANCH   2  17
BRANCH   2  23
ATOM     23  S   UNL d   1      -1.274   1.320   0.256  0.00  0.00    -0.115 SA
ATOM     24  C   UNL d   1      -1.927   1.889   1.835  0.00  0.00     0.097 C 
ENDBRANCH   2  23
TORSDOF 6
