REMARK  3 active torsions:
REMARK  status: ('A' for Active; 'I' for Inactive)
REMARK    1  A    between atoms: N_13  and  C_3 
REMARK    2  A    between atoms: C_4  and  N_13 
REMARK    3  A    between atoms: C_7  and  C_5 
ROOT
ATOM      1  N   UNL d   1       0.434   1.528  -0.057  0.00  0.00    -0.350 N 
ATOM      2  HN  UNL d   1      -0.309   2.226  -0.092  1.00  0.00     0.166 HD
ATOM      3  C   UNL d   1       2.479  -0.366   0.048  0.00  0.00     0.048 A 
ATOM      4  C   UNL d   1       1.733   1.923  -0.066  0.00  0.00     0.119 A 
ATOM      5  C   UNL d   1       0.120   0.214   0.000  0.00  0.00     0.067 A 
ATOM      6  C   UNL d   1       1.122  -0.783   0.063  0.00  0.00     0.019 A 
ATOM      7  C   UNL d   1       2.766   1.000  -0.025  0.00  0.00     0.064 A 
ATOM      8  C   UNL d   1      -1.220  -0.205   0.005  0.00  0.00     0.061 A 
ATOM      9 CL   UNL d   1      -2.509   0.955  -0.085  0.00  0.00    -0.082 Cl
ATOM     10  C   UNL d   1       0.740  -2.144   0.152  0.00  0.00     0.016 A 
ATOM     11  C   UNL d   1      -0.601  -2.526   0.161  0.00  0.00     0.003 A 
ATOM     12  C   UNL d   1      -1.584  -1.552   0.081  0.00  0.00     0.026 A 
ENDROOT
BRANCH   3  13
ATOM     13  N   UNL d   1       3.531  -1.328   0.077  0.00  0.00    -0.334 N 
ATOM     14  H   UNL d   1       3.448  -1.975  -0.705  0.00  0.00     0.168 HD
BRANCH  13  15
ATOM     15  C   UNL d   1       4.796  -1.061   0.473  0.00  0.00     0.172 A 
ATOM     16  C   UNL d   1       5.337  -0.297   1.477  0.00  0.00     0.085 A 
ATOM     17  C   UNL d   1       6.730  -0.365   1.264  0.00  0.00     0.033 A 
ATOM     18  C   UNL d   1       7.802   0.342   1.996  0.00  0.00     0.070 C 
ATOM     19  N   UNL d   1       7.026  -1.175   0.239  0.00  0.00    -0.264 N 
ATOM     20  O   UNL d   1       5.807  -1.630  -0.240  0.00  0.00    -0.220 OA
ATOM     21  HN  UNL d   1       7.953  -1.408  -0.115  1.00  0.00     0.194 HD
ENDBRANCH  13  15
ENDBRANCH   3  13
BRANCH   4  22
ATOM     22  C   UNL d   1       2.085   3.402  -0.111  0.00  0.00     0.432 C 
ATOM     23  F   UNL d   1       1.015   4.240  -0.162  0.00  0.00    -0.165 F 
ATOM     24  F   UNL d   1       2.812   3.789   0.980  0.00  0.00    -0.165 F 
ATOM     25  F   UNL d   1       2.860   3.718  -1.190  0.00  0.00    -0.165 F 
ENDBRANCH   4  22
TORSDOF 3
