REMARK  6 active torsions:
REMARK  status: ('A' for Active; 'I' for Inactive)
REMARK    1  A    between atoms: C_10  and  C_1 
REMARK    2  A    between atoms: N_3  and  C_10 
REMARK    3  A    between atoms: S_17  and  C_4 
REMARK    4  A    between atoms: C_11  and  C_15 
REMARK    5  A    between atoms: C_28  and  S_17 
REMARK    6  A    between atoms: C_26  and  C_28 
ROOT
ATOM      1  N   UNL d   1       1.812   2.749  -0.252  0.00  0.00    -0.309 N 
ATOM      2  C   UNL d   1       2.488   2.872  -1.518  0.00  0.00     0.055 A 
ATOM      3  C   UNL d   1       2.396   3.107   0.964  0.00  0.00     0.234 C 
ATOM      4  C   UNL d   1       2.038   2.173  -2.652  0.00  0.00     0.047 A 
ATOM      5  S   UNL d   1       4.264   4.655  -0.309  0.00  0.00    -0.118 SA
ATOM      6  C   UNL d   1       2.680   2.275  -3.895  0.00  0.00     0.050 A 
ATOM      7  C   UNL d   1       3.604   3.716  -1.668  0.00  0.00     0.028 A 
ATOM      8  C   UNL d   1       3.869   3.455   0.974  0.00  0.00     0.182 C 
ATOM      9  O   UNL d   1       1.765   3.063   2.028  0.00  0.00    -0.272 OA
ATOM     10  C   UNL d   1       3.758   3.155  -4.025  0.00  0.00     0.017 A 
ATOM     11  C   UNL d   1       4.211   3.875  -2.923  0.00  0.00     0.021 A 
ENDROOT
BRANCH   1  12
ATOM     12  C   UNL d   1       0.389   2.385  -0.217  0.00  0.00     0.210 C 
BRANCH  12  13
ATOM     13  C   UNL d   1       0.182   0.915  -0.039  0.00  0.00     0.118 A 
ATOM     14  N   UNL d   1      -0.567   0.310   0.948  0.00  0.00    -0.318 N 
ATOM     15  C   UNL d   1      -0.507  -1.031   0.681  0.00  0.00     0.162 A 
ATOM     16  C   UNL d   1      -1.279   0.934   2.034  0.00  0.00     0.160 C 
ATOM     17  N   UNL d   1       0.181  -1.240  -0.414  0.00  0.00    -0.278 N 
ATOM     18  N   UNL d   1       0.616  -0.025  -0.862  0.00  0.00    -0.285 N 
ATOM     19  HN  UNL d   1       0.360  -2.144  -0.851  1.00  0.00     0.189 HD
ATOM     20  HN  UNL d   1       1.183   0.132  -1.696  1.00  0.00     0.188 HD
BRANCH  15  21
ATOM     21  S   UNL d   1      -1.236  -2.257   1.657  0.00  0.00    -0.085 SA
BRANCH  21  22
ATOM     22  C   UNL d   1      -0.270  -3.698   1.118  0.00  0.00     0.160 C 
BRANCH  22  23
ATOM     23  C   UNL d   1       1.196  -3.587   1.506  0.00  0.00     0.132 C 
ATOM     24  O   UNL d   1       1.593  -2.975   2.499  0.00  0.00    -0.298 OA
ATOM     25  C   UNL d   1       2.163  -4.379   0.661  0.00  0.00     0.091 C 
ENDBRANCH  22  23
ENDBRANCH  21  22
ENDBRANCH  15  21
ENDBRANCH  12  13
ENDBRANCH   1  12
BRANCH   6  26
ATOM     26  C   UNL d   1       2.231   1.443  -5.073  0.00  0.00     0.417 C 
ATOM     27  F   UNL d   1       1.222   0.576  -4.783  0.00  0.00    -0.166 F 
ATOM     28  F   UNL d   1       1.778   2.208  -6.104  0.00  0.00    -0.166 F 
ATOM     29  F   UNL d   1       3.239   0.684  -5.586  0.00  0.00    -0.166 F 
ENDBRANCH   6  26
TORSDOF 6
