REMARK  1 active torsions:
REMARK  status: ('A' for Active; 'I' for Inactive)
REMARK    1  A    between atoms: C_2  and  C_1 
ROOT
ATOM      1  C   UNL d   1      -1.374   0.766  -0.004  0.00  0.00     0.134 A 
ATOM      2  N   UNL d   1      -1.277  -0.593  -0.004  0.00  0.00    -0.296 N 
ATOM      3  C   UNL d   1      -0.079   1.236  -0.004  0.00  0.00     0.061 A 
ATOM      4  N   UNL d   1      -0.010  -1.037  -0.004  0.00  0.00    -0.305 N 
ATOM      5  HN  UNL d   1       0.315  -2.004  -0.005  1.00  0.00     0.186 HD
ATOM      6  C   UNL d   1       0.730   0.078  -0.004  0.00  0.00     0.024 A 
ATOM      7  C   UNL d   1       2.210  -0.001  -0.003  0.00  0.00     0.070 C 
ATOM      8  H   UNL d   1      -2.029  -1.277  -0.003  0.00  0.00     0.187 HD
ENDROOT
BRANCH   1   9
ATOM      9  C   UNL d   1      -2.682   1.433  -0.000  0.00  0.00     0.434 C 
ATOM     10  F   UNL d   1      -3.702   0.536  -0.006  0.00  0.00    -0.165 F 
ATOM     11  F   UNL d   1      -2.848   2.212   1.096  0.00  0.00    -0.165 F 
ATOM     12  F   UNL d   1      -2.848   2.227  -1.085  0.00  0.00    -0.165 F 
ENDBRANCH   1   9
TORSDOF 1
