REMARK  2 active torsions:
REMARK  status: ('A' for Active; 'I' for Inactive)
REMARK    1  A    between atoms: C_8  and  C_2 
REMARK    2  A    between atoms: C_7  and  C_9 
ROOT
ATOM      1  C   UNL d   1       2.311  -1.241  -0.041  0.00  0.00    -0.002 A 
ATOM      2  C   UNL d   1       4.853  -2.499  -0.092  0.00  0.00     0.048 A 
ATOM      3  C   UNL d   1       2.651  -2.134  -1.067  0.00  0.00     0.015 A 
ATOM      4  C   UNL d   1       3.266  -0.987   0.958  0.00  0.00     0.015 A 
ATOM      5  C   UNL d   1       4.519  -1.609   0.936  0.00  0.00     0.017 A 
ATOM      6  C   UNL d   1       3.905  -2.756  -1.093  0.00  0.00     0.017 A 
ENDROOT
BRANCH   1   7
ATOM      7  C   UNL d   1       1.021  -0.530   0.004  0.00  0.00     0.086 A 
ATOM      8  S   UNL d   1      -0.410  -1.212  -0.674  0.00  0.00    -0.062 SA
ATOM      9  C   UNL d   1      -1.271   0.186  -0.240  0.00  0.00     0.075 A 
ATOM     10  C   UNL d   1      -0.462   1.088   0.414  0.00  0.00     0.030 A 
ATOM     11 BR   UNL d   1      -3.085   0.418  -0.638  0.00  0.00    -0.041 Br
ATOM     12  C   UNL d   1      -0.796   2.434   0.947  0.00  0.00     0.070 C 
ATOM     13  N   UNL d   1       0.849   0.650   0.570  0.00  0.00    -0.352 N 
ATOM     14  HN  UNL d   1       1.580   1.170   1.056  1.00  0.00     0.166 HD
ENDBRANCH   1   7
BRANCH   2  15
ATOM     15  C   UNL d   1       6.204  -3.168  -0.143  0.00  0.00     0.417 C 
ATOM     16  F   UNL d   1       7.022  -2.831   0.892  0.00  0.00    -0.166 F 
ATOM     17  F   UNL d   1       6.111  -4.528  -0.118  0.00  0.00    -0.166 F 
ATOM     18  F   UNL d   1       6.893  -2.863  -1.278  0.00  0.00    -0.166 F 
ENDBRANCH   2  15
TORSDOF 2
