REMARK  7 active torsions:
REMARK  status: ('A' for Active; 'I' for Inactive)
REMARK    1  A    between atoms: O_4  and  C_1 
REMARK    2  A    between atoms: C_5  and  C_1 
REMARK    3  A    between atoms: N_2  and  O_4 
REMARK    4  A    between atoms: C_6  and  C_7 
REMARK    5  A    between atoms: C_14  and  C_15 
REMARK    6  A    between atoms: C_15  and  C_19 
REMARK    7  A    between atoms: O_26  and  C_16 
ROOT
ATOM      1  N   UNL d   1      -0.890   0.471   1.075  0.00  0.00    -0.266 N 
ATOM      2  HN  UNL d   1      -1.216   1.432   1.175  1.00  0.00     0.194 HD
ATOM      3  C   UNL d   1      -1.679  -0.552   0.928  0.00  0.00     0.010 C 
ATOM      4  C   UNL d   1      -1.239  -1.975   0.669  0.00  0.00     0.055 C 
ATOM      5  C   UNL d   1      -3.177  -0.338   1.004  0.00  0.00     0.055 C 
ATOM      6  C   UNL d   1      -3.408  -2.299  -0.650  0.00  0.00    -0.010 C 
ATOM      7  C   UNL d   1      -3.839  -0.865  -0.267  0.00  0.00     0.010 C 
ATOM      8  C   UNL d   1      -1.869  -2.411  -0.652  0.00  0.00     0.010 C 
ENDROOT
BRANCH   1   9
ATOM      9  O   UNL d   1       0.465   0.095   1.078  0.00  0.00    -0.195 OA
BRANCH   9  10
ATOM     10  C   UNL d   1       1.266   1.194   0.941  0.00  0.00     0.315 C 
ATOM     11  O   UNL d   1       0.953   2.297   0.512  0.00  0.00    -0.257 OA
BRANCH  10  12
ATOM     12  C   UNL d   1       2.616   0.894   1.496  0.00  0.00     0.041 A 
ATOM     13  C   UNL d   1       3.467   1.968   1.771  0.00  0.00     0.018 A 
ATOM     14  C   UNL d   1       4.679   1.760   2.438  0.00  0.00     0.009 A 
ATOM     15  C   UNL d   1       5.084   0.476   2.849  0.00  0.00    -0.051 A 
ATOM     16  C   UNL d   1       4.252  -0.601   2.498  0.00  0.00     0.009 A 
ATOM     17  C   UNL d   1       3.034  -0.398   1.830  0.00  0.00     0.018 A 
BRANCH  15  18
ATOM     18  C   UNL d   1       6.368   0.300   3.684  0.00  0.00    -0.024 C 
ATOM     19  C   UNL d   1       6.651  -1.164   4.092  0.00  0.00     0.019 C 
ATOM     20  C   UNL d   1       7.593   0.802   2.891  0.00  0.00     0.019 C 
ATOM     21  C   UNL d   1       6.248   1.114   4.993  0.00  0.00     0.019 C 
ENDBRANCH  15  18
ENDBRANCH  10  12
ENDBRANCH   9  10
ENDBRANCH   1   9
BRANCH   6  22
ATOM     22  C   UNL d   1      -4.038  -3.398   0.239  0.00  0.00     0.043 C 
BRANCH  22  23
ATOM     23  C   UNL d   1      -5.545  -3.470   0.172  0.00  0.00    -0.058 A 
ATOM     24  C   UNL d   1      -6.208  -3.682  -1.044  0.00  0.00     0.010 A 
ATOM     25  C   UNL d   1      -7.606  -3.715  -1.100  0.00  0.00     0.037 A 
ATOM     26  C   UNL d   1      -8.356  -3.551   0.063  0.00  0.00     0.068 A 
ATOM     27  C   UNL d   1      -7.703  -3.396   1.284  0.00  0.00     0.037 A 
ATOM     28  C   UNL d   1      -6.306  -3.348   1.341  0.00  0.00     0.010 A 
BRANCH  26  29
ATOM     29  O   UNL d   1      -9.723  -3.581   0.125  0.00  0.00    -0.356 OA
ATOM     30  C   UNL d   1     -10.393  -3.051  -1.014  0.00  0.00     0.210 C 
ENDBRANCH  26  29
ENDBRANCH  22  23
ENDBRANCH   6  22
TORSDOF 7
