REMARK  4 active torsions:
REMARK  status: ('A' for Active; 'I' for Inactive)
REMARK    1  A    between atoms: C_9  and  C_1 
REMARK    2  A    between atoms: C_3  and  N_2 
REMARK    3  A    between atoms: C_7  and  C_4 
REMARK    4  A    between atoms: N_20  and  C_7 
ROOT
ATOM      1  C   UNL d   1      -3.413   1.711   1.493  0.00  0.00     0.102 A 
ATOM      2  C   UNL d   1      -5.806   2.575   2.667  0.00  0.00     0.017 A 
ATOM      3  N   UNL d   1      -4.140   0.855   2.242  0.00  0.00    -0.352 N 
ATOM      4  HN  UNL d   1      -3.828  -0.107   2.378  1.00  0.00     0.166 HD
ATOM      5  C   UNL d   1      -5.295   1.294   2.814  0.00  0.00     0.104 A 
ATOM      6  C   UNL d   1      -5.066   3.449   1.875  0.00  0.00     0.020 A 
ATOM      7  C   UNL d   1      -3.875   3.012   1.290  0.00  0.00     0.049 A 
ENDROOT
BRANCH   1   8
ATOM      8  N   UNL d   1      -2.231   1.269   0.933  0.00  0.00    -0.367 N 
ATOM      9  C   UNL d   1      -1.098   2.158   0.703  0.00  0.00     0.125 C 
ATOM     10  C   UNL d   1       0.129   1.675   1.500  0.00  0.00     0.033 C 
ATOM     11  C   UNL d   1       0.430   0.186   1.280  0.00  0.00     0.096 C 
ATOM     12  C   UNL d   1      -0.835  -0.639   1.562  0.00  0.00     0.033 C 
ATOM     13  C   UNL d   1      -2.027  -0.164   0.739  0.00  0.00     0.125 C 
BRANCH  11  14
ATOM     14  C   UNL d   1       1.030  -0.083  -0.100  0.00  0.00     0.391 C 
ATOM     15  F   UNL d   1       0.510  -1.184  -0.683  0.00  0.00    -0.171 F 
ATOM     16  F   UNL d   1       2.365  -0.289   0.011  0.00  0.00    -0.171 F 
ATOM     17  F   UNL d   1       0.867   0.944  -0.958  0.00  0.00    -0.171 F 
ENDBRANCH  11  14
ENDBRANCH   1   8
BRANCH   2  18
ATOM     18  C   UNL d   1      -7.067   3.010   3.320  0.00  0.00     0.105 C 
ATOM     19  S   UNL d   1      -7.662   2.426   4.767  0.00  0.00    -0.060 SA
BRANCH  18  20
ATOM     20  N   UNL d   1      -7.802   3.973   2.671  0.00  0.00    -0.389 N 
ATOM     21  H   UNL d   1      -7.593   4.313   1.738  0.00  0.00     0.157 HD
ATOM     22  H   UNL d   1      -8.681   4.263   3.080  0.00  0.00     0.157 HD
ENDBRANCH  18  20
ENDBRANCH   2  18
TORSDOF 4
