REMARK  4 active torsions:
REMARK  status: ('A' for Active; 'I' for Inactive)
REMARK    1  A    between atoms: C_6  and  C_1 
REMARK    2  A    between atoms: C_3  and  C_2 
REMARK       I    between atoms: N_7  and  C_3 
REMARK    3  A    between atoms: C_8  and  N_7 
REMARK    4  A    between atoms: C_16  and  C_8 
ROOT
ATOM      1  C   UNL d   1      -1.361  -0.599   0.029  0.00  0.00     0.086 A 
ATOM      2  C   UNL d   1      -0.069  -1.217   0.120  0.00  0.00     0.093 A 
ATOM      3  N   UNL d   1      -1.225   0.697  -0.297  0.00  0.00    -0.259 N 
ATOM      4  HN  UNL d   1      -1.978   1.353  -0.504  1.00  0.00     0.195 HD
ATOM      5  O   UNL d   1       0.117   0.969  -0.298  0.00  0.00    -0.241 OA
ATOM      6  C   UNL d   1       0.815  -0.162  -0.033  0.00  0.00     0.090 A 
ATOM      7  C   UNL d   1       2.277   0.031   0.062  0.00  0.00     0.080 C 
ENDROOT
BRANCH   2   8
ATOM      8  C   UNL d   1       0.266  -2.604   0.378  0.00  0.00     0.262 C 
ATOM      9  N   UNL d   1       1.361  -3.065  -0.357  0.00  0.00    -0.308 N 
ATOM     10  H   UNL d   1       1.729  -2.418  -1.032  0.00  0.00     0.170 HD
ATOM     11  O   UNL d   1      -0.399  -3.311   1.128  0.00  0.00    -0.267 OA
BRANCH   9  12
ATOM     12  C   UNL d   1       1.974  -4.301  -0.266  0.00  0.00     0.112 C 
ATOM     13  N   UNL d   1       1.466  -5.247   0.448  0.00  0.00    -0.385 N 
ATOM     14  H   UNL d   1       0.588  -4.922   0.882  0.00  0.00     0.157 HD
ATOM     15  HN  UNL d   1       1.871  -6.175   0.566  1.00  0.00     0.157 HD
BRANCH  12  16
ATOM     16  C   UNL d   1       3.265  -4.513  -1.006  0.00  0.00     0.007 A 
ATOM     17  C   UNL d   1       3.945  -3.494  -1.692  0.00  0.00     0.015 A 
ATOM     18  C   UNL d   1       5.182  -3.748  -2.298  0.00  0.00     0.001 A 
ATOM     19  C   UNL d   1       5.754  -5.016  -2.226  0.00  0.00     0.000 A 
ATOM     20  C   UNL d   1       5.086  -6.038  -1.559  0.00  0.00     0.001 A 
ATOM     21  C   UNL d   1       3.851  -5.788  -0.955  0.00  0.00     0.015 A 
ENDBRANCH  12  16
ENDBRANCH   9  12
ENDBRANCH   2   8
BRANCH   1  22
ATOM     22  C   UNL d   1      -2.709  -1.160   0.184  0.00  0.00     0.037 A 
ATOM     23  C   UNL d   1      -3.643  -0.554   1.056  0.00  0.00     0.048 A 
ATOM     24 CL   UNL d   1      -3.248   0.781   2.093  0.00  0.00    -0.083 Cl
ATOM     25  C   UNL d   1      -4.963  -1.021   1.144  0.00  0.00     0.025 A 
ATOM     26  C   UNL d   1      -5.370  -2.121   0.398  0.00  0.00     0.003 A 
ATOM     27  C   UNL d   1      -4.460  -2.747  -0.449  0.00  0.00     0.025 A 
ATOM     28  C   UNL d   1      -3.149  -2.261  -0.575  0.00  0.00     0.048 A 
ATOM     29 CL   UNL d   1      -2.164  -3.041  -1.770  0.00  0.00    -0.083 Cl
ENDBRANCH   1  22
TORSDOF 4
