REMARK  5 active torsions:
REMARK  status: ('A' for Active; 'I' for Inactive)
REMARK    1  A    between atoms: N_2  and  C_1 
REMARK    2  A    between atoms: O_6  and  C_3 
REMARK    3  A    between atoms: O_5  and  C_4 
REMARK    4  A    between atoms: C_8  and  O_5 
REMARK    5  A    between atoms: C_9  and  O_6 
ROOT
ATOM      1  C   UNL d   1       1.377  -0.171   0.353  0.00  0.00     0.170 A 
ATOM      2  C   UNL d   1       0.530  -1.281   0.233  0.00  0.00     0.115 A 
ATOM      3  C   UNL d   1       0.866   1.119   0.163  0.00  0.00     0.115 A 
ATOM      4  C   UNL d   1      -0.503   1.297  -0.079  0.00  0.00     0.040 A 
ATOM      5  C   UNL d   1      -0.837  -1.088  -0.010  0.00  0.00     0.040 A 
ATOM      6  C   UNL d   1      -1.349   0.195  -0.172  0.00  0.00     0.006 A 
ENDROOT
BRANCH   2   7
ATOM      7  O   UNL d   1       0.979  -2.587   0.488  0.00  0.00    -0.277 OA
BRANCH   7   8
ATOM      8  C   UNL d   1       0.692  -3.505  -0.520  0.00  0.00     0.260 C 
ATOM      9  O   UNL d   1       0.366  -3.241  -1.671  0.00  0.00    -0.265 OA
ATOM     10  C   UNL d   1       0.809  -4.901   0.017  0.00  0.00     0.126 C 
ENDBRANCH   7   8
ENDBRANCH   2   7
BRANCH   1  11
ATOM     11  N   UNL d   1       2.761  -0.355   0.734  0.00  0.00    -0.110 N 
ATOM     12  O   UNL d   1       3.437  -1.161   0.078  0.00  0.00    -0.532 OA
ATOM     13  O   UNL d   1       3.175   0.291   1.706  0.00  0.00    -0.532 OA
ENDBRANCH   1  11
BRANCH   3  14
ATOM     14  O   UNL d   1       1.668   2.263   0.312  0.00  0.00    -0.277 OA
BRANCH  14  15
ATOM     15  C   UNL d   1       1.622   3.161  -0.752  0.00  0.00     0.260 C 
ATOM     16  O   UNL d   1       1.216   2.921  -1.881  0.00  0.00    -0.265 OA
ATOM     17  C   UNL d   1       2.144   4.495  -0.312  0.00  0.00     0.126 C 
ENDBRANCH  14  15
ENDBRANCH   3  14
TORSDOF 5
