REMARK  8 active torsions:
REMARK  status: ('A' for Active; 'I' for Inactive)
REMARK    1  A    between atoms: C_6  and  C_1 
REMARK    2  A    between atoms: C_2  and  C_3 
REMARK       I    between atoms: C_3  and  N_12 
REMARK    3  A    between atoms: C_4  and  C_17 
REMARK    4  A    between atoms: C_26  and  C_5 
REMARK    5  A    between atoms: N_12  and  N_7 
REMARK    6  A    between atoms: C_20  and  C_22 
REMARK    7  A    between atoms: C_27  and  C_26 
REMARK    8  A    between atoms: C_28  and  C_27 
ROOT
ATOM      1  C   UNL d   1      -2.504   6.912   4.388  0.00  0.00     0.271 C 
ATOM      2  N   UNL d   1      -1.202   7.306   4.674  0.00  0.00    -0.266 N 
ATOM      3  O   UNL d   1      -3.247   7.461   3.582  0.00  0.00    -0.266 OA
ATOM      4  H   UNL d   1      -0.675   6.900   5.438  0.00  0.00     0.190 HD
ENDROOT
BRANCH   1   5
ATOM      5  C   UNL d   1      -3.015   5.738   5.133  0.00  0.00     0.050 A 
ATOM      6  C   UNL d   1      -2.209   4.673   5.549  0.00  0.00     0.040 A 
ATOM      7  C   UNL d   1      -2.811   3.562   6.140  0.00  0.00     0.034 A 
ATOM      8  C   UNL d   1      -4.191   3.561   6.308  0.00  0.00     0.108 A 
ATOM      9  N   UNL d   1      -4.994   4.586   5.940  0.00  0.00    -0.373 N 
ATOM     10  C   UNL d   1      -4.388   5.645   5.348  0.00  0.00     0.104 A 
ATOM     11  HN  UNL d   1      -6.001   4.563   6.099  1.00  0.00     0.164 HD
BRANCH   7  12
ATOM     12  C   UNL d   1      -2.045   2.419   6.531  0.00  0.00    -0.066 C 
ATOM     13  C   UNL d   1      -1.440   1.431   6.843  0.00  0.00    -0.101 C 
BRANCH  13  14
ATOM     14  C   UNL d   1      -0.739   0.190   7.204  0.00  0.00     0.094 C 
BRANCH  14  15
ATOM     15  C   UNL d   1       0.084  -0.325   6.025  0.00  0.00     0.012 C 
BRANCH  15  16
ATOM     16  C   UNL d   1       0.824  -1.613   6.380  0.00  0.00    -0.004 C 
ATOM     17  C   UNL d   1       1.642  -2.118   5.202  0.00  0.00     0.005 C 
ENDBRANCH  15  16
ENDBRANCH  14  15
ENDBRANCH  13  14
ENDBRANCH   7  12
ENDBRANCH   1   5
BRANCH   2  18
ATOM     18  N   UNL d   1      -0.665   8.342   3.969  0.00  0.00    -0.308 N 
ATOM     19  C   UNL d   1       0.552   8.680   4.246  0.00  0.00     0.118 C 
ATOM     20  HN  UNL d   1      -1.202   8.831   3.252  1.00  0.00     0.186 HD
BRANCH  19  21
ATOM     21  C   UNL d   1       1.213   9.791   3.524  0.00  0.00    -0.019 A 
ATOM     22  C   UNL d   1       0.519  10.505   2.542  0.00  0.00     0.013 A 
ATOM     23  C   UNL d   1       1.147  11.550   1.859  0.00  0.00     0.017 A 
ATOM     24  C   UNL d   1       2.470  11.907   2.162  0.00  0.00     0.048 A 
ATOM     25  C   UNL d   1       3.161  11.176   3.143  0.00  0.00     0.017 A 
ATOM     26  C   UNL d   1       2.537  10.122   3.823  0.00  0.00     0.013 A 
BRANCH  24  27
ATOM     27  C   UNL d   1       3.116  13.073   1.450  0.00  0.00     0.417 C 
ATOM     28  F   UNL d   1       4.379  13.341   1.885  0.00  0.00    -0.166 F 
ATOM     29  F   UNL d   1       2.416  14.230   1.609  0.00  0.00    -0.166 F 
ATOM     30  F   UNL d   1       3.218  12.878   0.106  0.00  0.00    -0.166 F 
ENDBRANCH  24  27
ENDBRANCH  19  21
ENDBRANCH   2  18
TORSDOF 8
