REMARK  2 active torsions:
REMARK  status: ('A' for Active; 'I' for Inactive)
REMARK       I    between atoms: C_3  and  N_1 
REMARK    1  A    between atoms: C_8  and  C_3 
REMARK    2  A    between atoms: C_10  and  N_4 
ROOT
ATOM      1  N   UNL d   1      -2.702   0.329  -0.144  0.00  0.00    -0.279 N 
ATOM      2  C   UNL d   1      -2.312  -0.655  -1.083  0.00  0.00     0.155 C 
ATOM      3  C   UNL d   1      -3.598  -0.073   0.862  0.00  0.00     0.267 C 
ATOM      4  N   UNL d   1      -2.528  -1.934  -0.963  0.00  0.00    -0.335 N 
ATOM      5  HN  UNL d   1      -3.043  -2.266  -0.147  1.00  0.00     0.168 HD
ATOM      6  S   UNL d   1      -1.400   0.059  -2.402  0.00  0.00    -0.056 SA
ATOM      7  C   UNL d   1      -2.105   1.728  -0.401  0.00  0.00     0.075 C 
ATOM      8  C   UNL d   1      -0.981   1.422  -1.432  0.00  0.00     0.005 C 
ATOM      9  O   UNL d   1      -4.177  -1.161   0.920  0.00  0.00    -0.267 OA
ATOM     10  C   UNL d   1       0.192   2.037  -1.659  0.00  0.00     0.029 C 
ATOM     11  C   UNL d   1      -3.078   2.640  -1.224  0.00  0.00     0.037 C 
ATOM     12  C   UNL d   1      -1.486   2.380   0.869  0.00  0.00     0.037 C 
ATOM     13  C   UNL d   1      -2.131   3.650   1.422  0.00  0.00     0.003 C 
ATOM     14  C   UNL d   1      -3.626   3.918  -0.608  0.00  0.00     0.003 C 
ATOM     15  C   UNL d   1      -2.714   4.594   0.390  0.00  0.00     0.000 C 
ENDROOT
BRANCH   4  16
ATOM     16  C   UNL d   1      -2.086  -2.875  -1.905  0.00  0.00     0.046 A 
ATOM     17  C   UNL d   1      -0.721  -3.216  -2.032  0.00  0.00    -0.034 A 
ATOM     18  C   UNL d   1      -0.319  -4.140  -3.014  0.00  0.00     0.015 A 
ATOM     19  C   UNL d   1       0.356  -2.611  -1.173  0.00  0.00     0.050 C 
ATOM     20  C   UNL d   1      -1.257  -4.779  -3.824  0.00  0.00    -0.061 A 
ATOM     21  C   UNL d   1      -2.607  -4.500  -3.653  0.00  0.00     0.015 A 
ATOM     22  C   UNL d   1      -0.792  -5.765  -4.867  0.00  0.00     0.048 C 
ATOM     23  C   UNL d   1      -3.033  -3.554  -2.702  0.00  0.00    -0.034 A 
ATOM     24  C   UNL d   1      -4.517  -3.377  -2.510  0.00  0.00     0.050 C 
ENDBRANCH   4  16
BRANCH   3  25
ATOM     25  C   UNL d   1      -4.007   0.789   1.968  0.00  0.00     0.109 C 
ATOM     26  C   UNL d   1      -4.968   1.768   1.767  0.00  0.00     0.135 C 
ATOM     27  F   UNL d   1      -5.483   1.960   0.547  0.00  0.00    -0.205 F 
ATOM     28  C   UNL d   1      -5.438   2.547   2.827  0.00  0.00     0.043 C 
ATOM     29  C   UNL d   1      -5.034   2.260   4.131  0.00  0.00     0.006 C 
ATOM     30  C   UNL d   1      -4.177   1.184   4.361  0.00  0.00     0.043 C 
ATOM     31  C   UNL d   1      -3.666   0.459   3.281  0.00  0.00     0.135 C 
ATOM     32  F   UNL d   1      -2.857  -0.578   3.542  0.00  0.00    -0.205 F 
ENDBRANCH   3  25
TORSDOF 2
