REMARK  4 active torsions:
REMARK  status: ('A' for Active; 'I' for Inactive)
REMARK    1  A    between atoms: O_13  and  C_2 
REMARK    2  A    between atoms: C_10  and  C_16 
REMARK       I    between atoms: N_12  and  C_10 
REMARK    3  A    between atoms: C_17  and  N_12 
REMARK    4  A    between atoms: C_16  and  O_13 
ROOT
ATOM      1  C   UNL d   1       0.721   0.668  -1.861  0.00  0.00     0.042 A 
ATOM      2  C   UNL d   1       1.768   1.491  -1.433  0.00  0.00     0.156 A 
ATOM      3  C   UNL d   1       1.123  -0.568  -2.380  0.00  0.00     0.049 A 
ATOM      4  N   UNL d   1       3.068   1.159  -1.518  0.00  0.00    -0.332 N 
ATOM      5  HN  UNL d   1       3.812   1.783  -1.206  1.00  0.00     0.168 HD
ATOM      6  N   UNL d   1       2.409  -0.925  -2.473  0.00  0.00    -0.351 N 
ATOM      7  HN  UNL d   1       2.684  -1.830  -2.857  1.00  0.00     0.166 HD
ATOM      8  C   UNL d   1      -0.657   0.996  -1.798  0.00  0.00     0.020 A 
ATOM      9  C   UNL d   1       0.151  -1.456  -2.822  0.00  0.00     0.054 A 
ATOM     10  C   UNL d   1       3.320  -0.045  -2.039  0.00  0.00     0.182 A 
ATOM     11  C   UNL d   1      -1.205  -1.136  -2.757  0.00  0.00     0.036 A 
ATOM     12  C   UNL d   1      -1.617   0.090  -2.249  0.00  0.00     0.025 A 
ATOM     13 CL   UNL d   1      -2.376  -2.269  -3.311  0.00  0.00    -0.084 Cl
ENDROOT
BRANCH   2  14
ATOM     14  O   UNL d   1       1.451   2.751  -0.956  0.00  0.00    -0.326 OA
BRANCH  14  15
ATOM     15  C   UNL d   1       2.516   3.355  -0.226  0.00  0.00     0.280 C 
BRANCH  15  16
ATOM     16  C   UNL d   1       2.156   4.809   0.062  0.00  0.00     0.246 C 
ATOM     17  N   UNL d   1       2.324   5.623  -1.051  0.00  0.00    -0.325 N 
ATOM     18  H   UNL d   1       2.486   5.146  -1.931  0.00  0.00     0.169 HD
ATOM     19  O   UNL d   1       1.774   5.165   1.173  0.00  0.00    -0.271 OA
BRANCH  17  20
ATOM     20  C   UNL d   1       2.189   7.024  -1.112  0.00  0.00     0.034 A 
ATOM     21  C   UNL d   1       2.055   7.840   0.014  0.00  0.00     0.031 A 
ATOM     22  C   UNL d   1       1.910   9.225  -0.125  0.00  0.00     0.026 A 
ATOM     23  C   UNL d   1       1.901   9.799  -1.393  0.00  0.00     0.034 A 
ATOM     24  C   UNL d   1       2.055   9.001  -2.523  0.00  0.00     0.026 A 
ATOM     25 CL   UNL d   1       1.697  11.498  -1.565  0.00  0.00    -0.084 Cl
ATOM     26  C   UNL d   1       2.207   7.618  -2.381  0.00  0.00     0.031 A 
ENDBRANCH  17  20
ENDBRANCH  15  16
ENDBRANCH  14  15
ENDBRANCH   2  14
TORSDOF 4
