REMARK  4 active torsions:
REMARK  status: ('A' for Active; 'I' for Inactive)
REMARK    1  A    between atoms: C_3  and  N_1 
REMARK    2  A    between atoms: C_2  and  C_6 
REMARK    3  A    between atoms: C_7  and  C_2 
REMARK    4  A    between atoms: O_18  and  C_15 
ROOT
ATOM      1  C   UNL d   1      -2.051   4.799   0.366  0.00  0.00     0.192 C 
ATOM      2  O   UNL d   1      -1.199   3.954   0.623  0.00  0.00    -0.287 OA
ENDROOT
BRANCH   1   3
ATOM      3  C   UNL d   1      -1.896   5.632  -0.857  0.00  0.00     0.015 A 
ATOM      4  C   UNL d   1      -2.338   6.964  -0.898  0.00  0.00     0.018 A 
ATOM      5  C   UNL d   1      -2.198   7.717  -2.066  0.00  0.00     0.037 A 
ATOM      6  C   UNL d   1      -1.579   7.147  -3.186  0.00  0.00     0.102 A 
ATOM      7  C   UNL d   1      -1.106   5.828  -3.146  0.00  0.00     0.037 A 
ATOM      8  C   UNL d   1      -1.265   5.074  -1.977  0.00  0.00     0.018 A 
BRANCH   6   9
ATOM      9  N   UNL d   1      -1.415   7.948  -4.407  0.00  0.00    -0.116 N 
ATOM     10  O   UNL d   1      -0.849   7.416  -5.373  0.00  0.00    -0.532 OA
ATOM     11  O   UNL d   1      -1.857   9.104  -4.400  0.00  0.00    -0.532 OA
ENDBRANCH   6   9
ENDBRANCH   1   3
BRANCH   1  12
ATOM     12  C   UNL d   1      -3.215   4.963   1.279  0.00  0.00     0.015 A 
ATOM     13  C   UNL d   1      -3.056   4.675   2.639  0.00  0.00     0.018 A 
ATOM     14  C   UNL d   1      -4.133   4.816   3.524  0.00  0.00     0.037 A 
ATOM     15  C   UNL d   1      -5.377   5.240   3.050  0.00  0.00     0.068 A 
ATOM     16  C   UNL d   1      -5.533   5.518   1.692  0.00  0.00     0.037 A 
ATOM     17  C   UNL d   1      -4.467   5.365   0.804  0.00  0.00     0.018 A 
BRANCH  15  18
ATOM     18  O   UNL d   1      -6.510   5.411   3.795  0.00  0.00    -0.356 OA
ATOM     19  C   UNL d   1      -6.424   5.101   5.179  0.00  0.00     0.210 C 
ENDBRANCH  15  18
ENDBRANCH   1  12
TORSDOF 4
