REMARK  4 active torsions:
REMARK  status: ('A' for Active; 'I' for Inactive)
REMARK    1  A    between atoms: N_2  and  C_1 
REMARK    2  A    between atoms: O_5  and  C_1 
REMARK    3  A    between atoms: C_4  and  N_2 
REMARK    4  A    between atoms: C_12  and  O_5 
ROOT
ATOM      1  C   UNL d   1       0.810   0.393   2.598  0.00  0.00     0.034 A 
ATOM      2  C   UNL d   1       1.385   0.541   5.352  0.00  0.00     0.006 A 
ATOM      3  I   UNL d   1       1.823   0.660   7.377  0.00  0.00    -0.045 I 
ATOM      4  C   UNL d   1      -0.179   0.752   3.529  0.00  0.00     0.031 A 
ATOM      5  C   UNL d   1       2.087   0.100   3.078  0.00  0.00     0.031 A 
ATOM      6  C   UNL d   1       2.375   0.169   4.447  0.00  0.00     0.020 A 
ATOM      7  C   UNL d   1       0.103   0.833   4.896  0.00  0.00     0.020 A 
ENDROOT
BRANCH   1   8
ATOM      8  N   UNL d   1       0.416   0.388   1.241  0.00  0.00    -0.328 N 
ATOM      9  H   UNL d   1      -0.569   0.563   1.107  0.00  0.00     0.169 HD
BRANCH   8  10
ATOM     10  C   UNL d   1       1.114   0.222   0.068  0.00  0.00     0.214 C 
ATOM     11  S   UNL d   1       2.681  -0.230  -0.236  0.00  0.00    -0.033 SA
BRANCH  10  12
ATOM     12  O   UNL d   1       0.396   0.442  -1.068  0.00  0.00    -0.327 OA
BRANCH  12  13
ATOM     13  C   UNL d   1      -0.683   1.398  -1.172  0.00  0.00     0.173 C 
ATOM     14  C   UNL d   1      -0.261   2.790  -0.734  0.00  0.00     0.034 C 
ENDBRANCH  12  13
ENDBRANCH  10  12
ENDBRANCH   8  10
ENDBRANCH   1   8
TORSDOF 4
