REMARK  3 active torsions:
REMARK  status: ('A' for Active; 'I' for Inactive)
REMARK    1  A    between atoms: C_3  and  N_1 
REMARK    2  A    between atoms: C_14  and  C_4 
REMARK    3  A    between atoms: C_16  and  N_5 
ROOT
ATOM      1  C   UNL d   1       0.064   2.326   0.401  0.00  0.00     0.107 A 
ATOM      2  C   UNL d   1      -0.442   2.985   1.565  0.00  0.00     0.095 A 
ATOM      3  N   UNL d   1      -0.309   4.316   1.440  0.00  0.00    -0.258 N 
ATOM      4  HN  UNL d   1      -0.614   5.026   2.105  1.00  0.00     0.195 HD
ATOM      5  C   UNL d   1       0.564   3.343  -0.382  0.00  0.00     0.102 A 
ATOM      6  O   UNL d   1       0.323   4.531   0.233  0.00  0.00    -0.240 OA
ATOM      7  C   UNL d   1       1.204   3.426  -1.707  0.00  0.00     0.081 C 
ENDROOT
BRANCH   1   8
ATOM      8  N   UNL d   1       0.054   0.954   0.113  0.00  0.00    -0.229 N 
ATOM      9  C   UNL d   1      -1.210   0.340   0.040  0.00  0.00     0.332 C 
ATOM     10  N   UNL d   1      -1.188  -1.048  -0.085  0.00  0.00    -0.329 N 
ATOM     11  O   UNL d   1      -2.263   0.973   0.010  0.00  0.00    -0.246 OA
ATOM     12  C   UNL d   1       0.029  -1.770   0.225  0.00  0.00     0.137 C 
ATOM     13  C   UNL d   1       1.202  -1.132  -0.474  0.00  0.00     0.123 C 
ATOM     14  C   UNL d   1       1.277   0.328  -0.125  0.00  0.00     0.234 C 
ATOM     15  O   UNL d   1       2.379   0.885  -0.076  0.00  0.00    -0.272 OA
BRANCH  10  16
ATOM     16  C   UNL d   1      -2.446  -1.777  -0.341  0.00  0.00     0.080 C 
ATOM     17  C   UNL d   1      -2.401  -2.471  -1.703  0.00  0.00     0.032 C 
ATOM     18  C   UNL d   1      -2.809  -2.761   0.769  0.00  0.00     0.032 C 
ENDBRANCH  10  16
ENDBRANCH   1   8
BRANCH   2  19
ATOM     19  C   UNL d   1      -0.937   2.382   2.805  0.00  0.00    -0.005 A 
ATOM     20  C   UNL d   1      -0.380   1.182   3.278  0.00  0.00     0.014 A 
ATOM     21  C   UNL d   1      -0.827   0.603   4.466  0.00  0.00     0.001 A 
ATOM     22  C   UNL d   1      -1.822   1.230   5.209  0.00  0.00     0.000 A 
ATOM     23  C   UNL d   1      -2.372   2.431   4.762  0.00  0.00     0.001 A 
ATOM     24  C   UNL d   1      -1.935   3.004   3.563  0.00  0.00     0.014 A 
ENDBRANCH   2  19
TORSDOF 3
