REMARK  3 active torsions:
REMARK  status: ('A' for Active; 'I' for Inactive)
REMARK       I    between atoms: N_3  and  C_1 
REMARK       I    between atoms: N_4  and  C_1 
REMARK    1  A    between atoms: N_2  and  C_5 
REMARK    2  A    between atoms: C_7  and  N_3 
REMARK    3  A    between atoms: C_11  and  N_4 
ROOT
ATOM      1  C   UNL d   1       1.026  -1.808  -0.947  0.00  0.00     0.325 C 
ATOM      2  N   UNL d   1       2.304  -1.587  -0.460  0.00  0.00    -0.309 N 
ATOM      3  N   UNL d   1       0.169  -0.766  -0.622  0.00  0.00    -0.309 N 
ATOM      4  O   UNL d   1       0.687  -2.805  -1.571  0.00  0.00    -0.247 OA
ATOM      5  H   UNL d   1       2.391  -0.864   0.236  0.00  0.00     0.170 HD
ATOM      6  H   UNL d   1       0.586   0.142  -0.494  0.00  0.00     0.170 HD
ENDROOT
BRANCH   3   7
ATOM      7  C   UNL d   1      -1.237  -0.809  -0.766  0.00  0.00     0.036 A 
ATOM      8  C   UNL d   1      -1.944  -2.004  -0.877  0.00  0.00     0.032 A 
ATOM      9  C   UNL d   1      -3.337  -2.005  -0.995  0.00  0.00     0.031 A 
ATOM     10  C   UNL d   1      -4.085  -0.822  -0.991  0.00  0.00     0.030 A 
ATOM     11  C   UNL d   1      -3.360   0.373  -0.887  0.00  0.00     0.031 A 
ATOM     12  C   UNL d   1      -1.958   0.385  -0.761  0.00  0.00     0.032 A 
BRANCH  10  13
ATOM     13  N   UNL d   1      -5.461  -0.858  -1.084  0.00  0.00    -0.381 N 
ATOM     14  C   UNL d   1      -6.239   0.183  -1.750  0.00  0.00     0.123 C 
ATOM     15  C   UNL d   1      -7.160  -0.470  -2.787  0.00  0.00     0.020 C 
ATOM     16  C   UNL d   1      -7.998  -1.599  -2.184  0.00  0.00     0.003 C 
ATOM     17  C   UNL d   1      -7.118  -2.609  -1.450  0.00  0.00     0.020 C 
ATOM     18  C   UNL d   1      -6.235  -1.910  -0.421  0.00  0.00     0.123 C 
ENDBRANCH  10  13
ENDBRANCH   3   7
BRANCH   2  19
ATOM     19  C   UNL d   1       3.407  -2.464  -0.615  0.00  0.00     0.037 A 
ATOM     20  C   UNL d   1       3.425  -3.538  -1.510  0.00  0.00     0.053 A 
ATOM     21  C   UNL d   1       4.531  -4.387  -1.575  0.00  0.00     0.036 A 
ATOM     22 CL   UNL d   1       4.523  -5.719  -2.666  0.00  0.00    -0.084 Cl
ATOM     23  C   UNL d   1       5.638  -4.169  -0.762  0.00  0.00     0.024 A 
ATOM     24  C   UNL d   1       5.643  -3.087   0.115  0.00  0.00     0.004 A 
ATOM     25  C   UNL d   1       4.534  -2.235   0.184  0.00  0.00     0.029 A 
ENDBRANCH   2  19
TORSDOF 3
