REMARK  4 active torsions:
REMARK  status: ('A' for Active; 'I' for Inactive)
REMARK    1  A    between atoms: C_6  and  C_1 
REMARK    2  A    between atoms: C_5  and  C_2 
REMARK       I    between atoms: N_11  and  C_5 
REMARK    3  A    between atoms: N_7  and  C_9 
REMARK    4  A    between atoms: C_16  and  N_11 
ROOT
ATOM      1  C   UNL d   1      -0.876  -0.280  -0.468  0.00  0.00     0.086 A 
ATOM      2  C   UNL d   1       0.033  -1.242   0.080  0.00  0.00     0.093 A 
ATOM      3  N   UNL d   1      -0.589   0.945   0.012  0.00  0.00    -0.259 N 
ATOM      4  HN  UNL d   1      -1.096   1.807  -0.190  1.00  0.00     0.195 HD
ATOM      5  O   UNL d   1       0.505   0.820   0.818  0.00  0.00    -0.241 OA
ATOM      6  C   UNL d   1       0.900  -0.471   0.837  0.00  0.00     0.090 A 
ATOM      7  C   UNL d   1       2.127  -0.739   1.613  0.00  0.00     0.080 C 
ENDROOT
BRANCH   2   8
ATOM      8  C   UNL d   1       0.232  -2.670  -0.064  0.00  0.00     0.261 C 
ATOM      9  N   UNL d   1      -0.870  -3.461   0.216  0.00  0.00    -0.323 N 
ATOM     10  H   UNL d   1      -1.781  -3.023   0.211  0.00  0.00     0.169 HD
ATOM     11  O   UNL d   1       1.353  -3.111  -0.312  0.00  0.00    -0.267 OA
BRANCH   9  12
ATOM     12  C   UNL d   1      -0.814  -4.822   0.626  0.00  0.00     0.037 A 
ATOM     13  C   UNL d   1       0.363  -5.455   1.043  0.00  0.00     0.066 A 
ATOM     14  C   UNL d   1       0.334  -6.777   1.528  0.00  0.00     0.111 A 
ATOM     15  C   UNL d   1      -0.861  -7.516   1.571  0.00  0.00    -0.029 A 
ATOM     16  C   UNL d   1      -2.033  -6.870   1.151  0.00  0.00     0.011 A 
ATOM     17  C   UNL d   1      -0.942  -8.934   2.070  0.00  0.00     0.050 C 
ATOM     18  C   UNL d   1      -2.011  -5.539   0.698  0.00  0.00     0.030 A 
BRANCH  14  19
ATOM     19  N   UNL d   1       1.593  -7.336   2.032  0.00  0.00    -0.115 N 
ATOM     20  O   UNL d   1       2.612  -7.130   1.365  0.00  0.00    -0.532 OA
ATOM     21  O   UNL d   1       1.557  -7.951   3.105  0.00  0.00    -0.532 OA
ENDBRANCH  14  19
ENDBRANCH   9  12
ENDBRANCH   2   8
BRANCH   1  22
ATOM     22  C   UNL d   1      -1.917  -0.334  -1.501  0.00  0.00     0.037 A 
ATOM     23  C   UNL d   1      -3.170   0.277  -1.269  0.00  0.00     0.048 A 
ATOM     24 CL   UNL d   1      -3.746   0.644   0.326  0.00  0.00    -0.083 Cl
ATOM     25  C   UNL d   1      -4.021   0.615  -2.330  0.00  0.00     0.025 A 
ATOM     26  C   UNL d   1      -3.660   0.313  -3.639  0.00  0.00     0.003 A 
ATOM     27  C   UNL d   1      -2.474  -0.374  -3.880  0.00  0.00     0.025 A 
ATOM     28  C   UNL d   1      -1.606  -0.696  -2.825  0.00  0.00     0.048 A 
ATOM     29 CL   UNL d   1      -0.133  -1.490  -3.261  0.00  0.00    -0.083 Cl
ENDBRANCH   1  22
TORSDOF 4
