REMARK  16 active torsions:
REMARK  status: ('A' for Active; 'I' for Inactive)
REMARK    1  A    between atoms: S_10  and  C_2 
REMARK    2  A    between atoms: S_11  and  C_3 
REMARK    3  A    between atoms: C_8  and  C_25 
REMARK       I    between atoms: N_27  and  C_8 
REMARK    4  A    between atoms: C_9  and  C_24 
REMARK       I    between atoms: N_26  and  C_9 
REMARK    5  A    between atoms: C_25  and  S_10 
REMARK    6  A    between atoms: C_24  and  S_11 
REMARK    7  A    between atoms: C_12  and  C_31 
REMARK    8  A    between atoms: C_13  and  C_30 
REMARK    9  A    between atoms: C_33  and  N_26 
REMARK   10  A    between atoms: C_32  and  N_27 
REMARK   11  A    between atoms: S_28  and  C_35 
REMARK   12  A    between atoms: C_31  and  S_28 
REMARK   13  A    between atoms: S_29  and  C_34 
REMARK   14  A    between atoms: C_30  and  S_29 
REMARK   15  A    between atoms: C_35  and  C_32 
REMARK   16  A    between atoms: C_34  and  C_33 
ROOT
ATOM      1  S   UNL d   1       2.659   1.118  -2.723  0.00  0.00    -0.038 SA
ATOM      2  C   UNL d   1       2.078   2.212  -1.531  0.00  0.00     0.129 C 
ATOM      3  C   UNL d   1       1.284   0.146  -2.397  0.00  0.00     0.129 C 
ATOM      4  N   UNL d   1       0.872   1.919  -1.083  0.00  0.00    -0.287 N 
ATOM      5  HN  UNL d   1       0.334   2.518  -0.457  1.00  0.00     0.188 HD
ATOM      6  N   UNL d   1       0.419   0.692  -1.566  0.00  0.00    -0.287 N 
ATOM      7  HN  UNL d   1      -0.472   0.268  -1.309  1.00  0.00     0.188 HD
ENDROOT
BRANCH   2   8
ATOM      8  S   UNL d   1       3.050   3.559  -0.955  0.00  0.00    -0.094 SA
BRANCH   8   9
ATOM      9  C   UNL d   1       2.470   3.767   0.752  0.00  0.00     0.184 C 
BRANCH   9  10
ATOM     10  C   UNL d   1       3.636   3.832   1.751  0.00  0.00     0.227 C 
ATOM     11  O   UNL d   1       4.282   4.866   1.929  0.00  0.00    -0.273 OA
ATOM     12  N   UNL d   1       3.897   2.674   2.469  0.00  0.00    -0.360 N 
ATOM     13  H   UNL d   1       3.157   1.974   2.446  0.00  0.00     0.162 HD
BRANCH  12  14
ATOM     14  C   UNL d   1       4.779   2.660   3.633  0.00  0.00     0.132 C 
BRANCH  14  15
ATOM     15  C   UNL d   1       5.015   1.263   4.264  0.00  0.00     0.094 C 
BRANCH  15  16
ATOM     16  S   UNL d   1       3.573   0.671   5.235  0.00  0.00    -0.161 SA
BRANCH  16  17
ATOM     17  C   UNL d   1       3.872  -1.133   5.388  0.00  0.00     0.139 C 
BRANCH  17  18
ATOM     18  C   UNL d   1       2.599  -1.917   5.232  0.00  0.00     0.061 A 
ATOM     19  O   UNL d   1       1.682  -1.821   6.240  0.00  0.00    -0.326 OA
ATOM     20  C   UNL d   1       0.602  -2.563   5.882  0.00  0.00     0.142 A 
ATOM     21  C   UNL d   1       0.801  -3.150   4.657  0.00  0.00     0.027 A 
ATOM     22  C   UNL d   1       2.106  -2.773   4.260  0.00  0.00     0.035 A 
ENDBRANCH  17  18
ENDBRANCH  16  17
ENDBRANCH  15  16
ENDBRANCH  14  15
ENDBRANCH  12  14
ENDBRANCH   9  10
ENDBRANCH   8   9
ENDBRANCH   2   8
BRANCH   3  23
ATOM     23  S   UNL d   1       1.011  -1.415  -3.145  0.00  0.00    -0.094 SA
BRANCH  23  24
ATOM     24  C   UNL d   1       1.319  -2.551  -1.758  0.00  0.00     0.184 C 
BRANCH  24  25
ATOM     25  C   UNL d   1       2.708  -2.393  -1.168  0.00  0.00     0.227 C 
ATOM     26  O   UNL d   1       3.682  -2.009  -1.792  0.00  0.00    -0.273 OA
ATOM     27  N   UNL d   1       2.782  -2.751   0.178  0.00  0.00    -0.360 N 
ATOM     28  H   UNL d   1       1.954  -3.075   0.655  0.00  0.00     0.162 HD
BRANCH  27  29
ATOM     29  C   UNL d   1       3.937  -2.369   0.952  0.00  0.00     0.132 C 
BRANCH  29  30
ATOM     30  C   UNL d   1       3.832  -1.000   1.638  0.00  0.00     0.094 C 
BRANCH  30  31
ATOM     31  S   UNL d   1       2.606   0.197   1.048  0.00  0.00    -0.161 SA
BRANCH  31  32
ATOM     32  C   UNL d   1       1.077  -0.149   1.986  0.00  0.00     0.139 C 
BRANCH  32  33
ATOM     33  C   UNL d   1       0.774   0.781   3.120  0.00  0.00     0.061 A 
ATOM     34  O   UNL d   1       1.277   2.050   3.077  0.00  0.00    -0.326 OA
ATOM     35  C   UNL d   1       0.879   2.702   4.199  0.00  0.00     0.142 A 
ATOM     36  C   UNL d   1       0.090   1.882   4.967  0.00  0.00     0.027 A 
ATOM     37  C   UNL d   1      -0.001   0.655   4.259  0.00  0.00     0.035 A 
ENDBRANCH  32  33
ENDBRANCH  31  32
ENDBRANCH  30  31
ENDBRANCH  29  30
ENDBRANCH  27  29
ENDBRANCH  24  25
ENDBRANCH  23  24
ENDBRANCH   3  23
TORSDOF 16
