REMARK  2 active torsions:
REMARK  status: ('A' for Active; 'I' for Inactive)
REMARK    1  A    between atoms: N_9  and  C_3 
REMARK    2  A    between atoms: C_10  and  C_5 
ROOT
ATOM      1  N   UNL d   1      -1.698   1.304   0.085  0.00  0.00    -0.325 N 
ATOM      2  HN  UNL d   1      -2.267   2.146   0.167  1.00  0.00     0.169 HD
ATOM      3  C   UNL d   1      -0.349   1.377   0.084  0.00  0.00     0.129 A 
ATOM      4  C   UNL d   1       0.438   0.224  -0.021  0.00  0.00     0.100 A 
ATOM      5  C   UNL d   1      -2.275   0.088  -0.026  0.00  0.00     0.134 A 
ATOM      6  N   UNL d   1      -1.581  -1.067  -0.128  0.00  0.00    -0.343 N 
ATOM      7  HN  UNL d   1      -2.056  -1.965  -0.214  1.00  0.00     0.167 HD
ATOM      8  C   UNL d   1      -0.231  -0.985  -0.111  0.00  0.00     0.032 A 
ATOM      9 CL   UNL d   1       2.170   0.265   0.091  0.00  0.00    -0.078 Cl
ATOM     10  C   UNL d   1       0.498  -2.298  -0.133  0.00  0.00     0.070 C 
ENDROOT
BRANCH   5  11
ATOM     11  C   UNL d   1      -3.760  -0.020   0.025  0.00  0.00     0.076 A 
ATOM     12  N   UNL d   1      -4.486   1.136   0.049  0.00  0.00    -0.363 N 
ATOM     13  C   UNL d   1      -5.832   1.043   0.111  0.00  0.00     0.088 A 
ATOM     14  HN  UNL d   1      -4.024   2.045   0.020  1.00  0.00     0.165 HD
ATOM     15  C   UNL d   1      -6.525  -0.154   0.158  0.00  0.00     0.017 A 
ATOM     16  C   UNL d   1      -5.791  -1.331   0.132  0.00  0.00     0.004 A 
ATOM     17  C   UNL d   1      -4.401  -1.265   0.065  0.00  0.00     0.033 A 
ENDBRANCH   5  11
BRANCH   3  18
ATOM     18  N   UNL d   1       0.246   2.616   0.325  0.00  0.00    -0.362 N 
ATOM     19  C   UNL d   1      -0.560   3.609   1.053  0.00  0.00     0.150 C 
ATOM     20  C   UNL d   1       0.420   4.652   1.625  0.00  0.00     0.187 C 
ATOM     21  O   UNL d   1       1.200   5.279   0.585  0.00  0.00    -0.388 OA
ATOM     22  C   UNL d   1       1.928   4.292  -0.174  0.00  0.00     0.187 C 
ATOM     23  C   UNL d   1       0.980   3.245  -0.788  0.00  0.00     0.150 C 
ENDBRANCH   3  18
TORSDOF 2
