REMARK  8 active torsions:
REMARK  status: ('A' for Active; 'I' for Inactive)
REMARK    1  A    between atoms: N_3  and  C_1 
REMARK    2  A    between atoms: N_5  and  C_1 
REMARK    3  A    between atoms: C_2  and  N_4 
REMARK    4  A    between atoms: N_12  and  C_2 
REMARK    5  A    between atoms: N_4  and  N_3 
REMARK    6  A    between atoms: C_10  and  N_5 
REMARK    7  A    between atoms: O_15  and  C_7 
REMARK    8  A    between atoms: O_16  and  C_11 
ROOT
ATOM      1  N   UNL d   1       0.133   0.226  -0.846  0.00  0.00    -0.332 N 
ATOM      2  H   UNL d   1       0.523  -0.337  -1.592  0.00  0.00     0.168 HD
ENDROOT
BRANCH   1   3
ATOM      3  C   UNL d   1       1.097   0.835  -0.073  0.00  0.00     0.191 C 
ATOM      4  S   UNL d   1       0.954   2.126   0.980  0.00  0.00    -0.039 SA
BRANCH   3   5
ATOM      5  N   UNL d   1       2.368   0.328  -0.226  0.00  0.00    -0.272 N 
ATOM      6  H   UNL d   1       3.126   0.756   0.302  0.00  0.00     0.189 HD
BRANCH   5   7
ATOM      7  N   UNL d   1       2.742  -0.654  -1.175  0.00  0.00    -0.270 N 
ATOM      8  C   UNL d   1       3.056  -0.036  -2.468  0.00  0.00     0.180 C 
BRANCH   7   9
ATOM      9  C   UNL d   1       3.397  -1.803  -0.674  0.00  0.00     0.188 C 
ATOM     10  S   UNL d   1       4.382  -2.811  -1.583  0.00  0.00    -0.039 SA
BRANCH   9  11
ATOM     11  N   UNL d   1       3.151  -1.994   0.676  0.00  0.00    -0.370 N 
ATOM     12  C   UNL d   1       3.650  -3.074   1.506  0.00  0.00     0.148 C 
ATOM     13  H   UNL d   1       2.370  -1.454   1.034  0.00  0.00     0.161 HD
ENDBRANCH   9  11
ENDBRANCH   7   9
ENDBRANCH   5   7
ENDBRANCH   3   5
ENDBRANCH   1   3
BRANCH   1  14
ATOM     14  C   UNL d   1      -1.269   0.407  -0.874  0.00  0.00     0.037 A 
ATOM     15  C   UNL d   1      -2.017   0.799   0.241  0.00  0.00     0.069 A 
ATOM     16  C   UNL d   1      -3.407   0.961   0.164  0.00  0.00     0.103 A 
ATOM     17  C   UNL d   1      -4.064   0.698  -1.048  0.00  0.00     0.101 A 
ATOM     18  C   UNL d   1      -3.327   0.298  -2.165  0.00  0.00     0.042 A 
ATOM     19  C   UNL d   1      -1.941   0.133  -2.070  0.00  0.00     0.032 A 
BRANCH  16  20
ATOM     20  O   UNL d   1      -4.204   1.334   1.218  0.00  0.00    -0.353 OA
ATOM     21  C   UNL d   1      -3.562   1.670   2.440  0.00  0.00     0.210 C 
ENDBRANCH  16  20
BRANCH  17  22
ATOM     22  O   UNL d   1      -5.423   0.896  -1.073  0.00  0.00    -0.353 OA
ATOM     23  C   UNL d   1      -6.156   0.030  -1.930  0.00  0.00     0.210 C 
ENDBRANCH  17  22
ENDBRANCH   1  14
TORSDOF 8
