REMARK  4 active torsions:
REMARK  status: ('A' for Active; 'I' for Inactive)
REMARK    1  A    between atoms: S_11  and  C_3 
REMARK    2  A    between atoms: C_15  and  C_6 
REMARK    3  A    between atoms: N_8  and  C_12 
REMARK    4  A    between atoms: C_16  and  S_11 
ROOT
ATOM      1  N   UNL d   1      -0.757   0.797   0.052  0.00  0.00    -0.282 N 
ATOM      2  C   UNL d   1      -1.502  -0.334  -0.137  0.00  0.00     0.158 A 
ATOM      3  C   UNL d   1      -1.638   1.859   0.052  0.00  0.00     0.111 A 
ATOM      4  N   UNL d   1      -2.783  -0.118  -0.188  0.00  0.00    -0.333 N 
ATOM      5  HN  UNL d   1      -3.531  -0.801  -0.314  1.00  0.00     0.168 HD
ATOM      6  C   UNL d   1      -2.897   1.257  -0.030  0.00  0.00     0.079 A 
ATOM      7  S   UNL d   1      -0.565  -1.784  -0.266  0.00  0.00    -0.051 SA
ATOM      8  C   UNL d   1       0.625   0.577   0.146  0.00  0.00     0.059 A 
ATOM      9  C   UNL d   1       0.906  -0.789  -0.042  0.00  0.00     0.035 A 
ATOM     10  C   UNL d   1       1.635   1.495   0.376  0.00  0.00     0.031 A 
ATOM     11  C   UNL d   1       2.212  -1.251  -0.057  0.00  0.00     0.021 A 
ATOM     12  C   UNL d   1       2.954   1.026   0.372  0.00  0.00     0.002 A 
ATOM     13  C   UNL d   1       3.242  -0.329   0.143  0.00  0.00     0.002 A 
ENDROOT
BRANCH   3  14
ATOM     14  S   UNL d   1      -1.124   3.507   0.215  0.00  0.00    -0.070 SA
BRANCH  14  15
ATOM     15  C   UNL d   1      -1.228   4.141  -1.455  0.00  0.00     0.007 A 
ATOM     16  C   UNL d   1      -1.716   5.448  -1.624  0.00  0.00     0.021 A 
ATOM     17  C   UNL d   1      -1.612   6.109  -2.855  0.00  0.00     0.037 A 
ATOM     18  C   UNL d   1      -1.013   5.453  -3.934  0.00  0.00     0.102 A 
ATOM     19  C   UNL d   1      -0.571   4.131  -3.801  0.00  0.00     0.037 A 
ATOM     20  C   UNL d   1      -0.679   3.480  -2.562  0.00  0.00     0.021 A 
BRANCH  18  21
ATOM     21  N   UNL d   1      -0.792   6.182  -5.194  0.00  0.00    -0.116 N 
ATOM     22  O   UNL d   1      -1.151   7.364  -5.248  0.00  0.00    -0.532 OA
ATOM     23  O   UNL d   1      -0.239   5.569  -6.121  0.00  0.00    -0.532 OA
ENDBRANCH  18  21
ENDBRANCH  14  15
ENDBRANCH   3  14
BRANCH   6  24
ATOM     24  C   UNL d   1      -4.217   1.878   0.008  0.00  0.00    -0.007 A 
ATOM     25  C   UNL d   1      -5.281   1.234  -0.645  0.00  0.00     0.014 A 
ATOM     26  C   UNL d   1      -6.572   1.769  -0.621  0.00  0.00     0.001 A 
ATOM     27  C   UNL d   1      -6.818   2.956   0.059  0.00  0.00     0.000 A 
ATOM     28  C   UNL d   1      -5.780   3.596   0.733  0.00  0.00     0.001 A 
ATOM     29  C   UNL d   1      -4.491   3.053   0.718  0.00  0.00     0.014 A 
ENDBRANCH   6  24
TORSDOF 4
