REMARK  7 active torsions:
REMARK  status: ('A' for Active; 'I' for Inactive)
REMARK    1  A    between atoms: C_7  and  S_1 
REMARK    2  A    between atoms: N_9  and  S_1 
REMARK    3  A    between atoms: N_3  and  C_2 
REMARK    4  A    between atoms: C_5  and  C_4 
REMARK    5  A    between atoms: S_10  and  C_8 
REMARK    6  A    between atoms: C_17  and  N_9 
REMARK    7  A    between atoms: C_24  and  S_10 
ROOT
ATOM      1  C   UNL d   1      -0.081  -1.175   3.686  0.00  0.00     0.121 A 
ATOM      2  C   UNL d   1       0.249  -0.365   2.584  0.00  0.00     0.062 A 
ATOM      3  C   UNL d   1       0.634  -0.983   1.392  0.00  0.00     0.082 A 
ATOM      4  C   UNL d   1      -0.066  -2.577   3.618  0.00  0.00     0.038 A 
ATOM      5  C   UNL d   1       0.326  -3.163   2.402  0.00  0.00     0.023 A 
ATOM      6  C   UNL d   1       0.659  -2.377   1.292  0.00  0.00     0.027 A 
ENDROOT
BRANCH   3   7
ATOM      7  S   UNL d   1       1.068   0.013  -0.024  0.00  0.00     0.263 S 
ATOM      8  O   UNL d   1       0.399   1.286   0.136  0.00  0.00    -0.200 OA
ATOM      9  O   UNL d   1       0.882  -0.801  -1.205  0.00  0.00    -0.200 OA
BRANCH   7  10
ATOM     10  N   UNL d   1       2.713   0.308   0.192  0.00  0.00    -0.281 N 
ATOM     11  H   UNL d   1       2.922   1.162   0.707  0.00  0.00     0.179 HD
BRANCH  10  12
ATOM     12  C   UNL d   1       3.617  -0.779   0.255  0.00  0.00     0.043 A 
ATOM     13  C   UNL d   1       4.133  -1.321  -0.922  0.00  0.00     0.048 A 
ATOM     14  C   UNL d   1       5.004  -2.434  -0.895  0.00  0.00     0.071 A 
ATOM     15  C   UNL d   1       5.313  -3.000   0.347  0.00  0.00     0.049 A 
ATOM     16  C   UNL d   1       4.787  -2.451   1.526  0.00  0.00     0.027 A 
ATOM     17 CL   UNL d   1       6.332  -4.378   0.536  0.00  0.00    -0.083 Cl
ATOM     18  C   UNL d   1       3.956  -1.333   1.484  0.00  0.00     0.032 A 
BRANCH  14  19
ATOM     19  C   UNL d   1       5.567  -2.904  -2.213  0.00  0.00     0.419 C 
ATOM     20  F   UNL d   1       6.252  -4.076  -2.193  0.00  0.00    -0.166 F 
ATOM     21  F   UNL d   1       4.591  -3.075  -3.150  0.00  0.00    -0.166 F 
ATOM     22  F   UNL d   1       6.425  -1.986  -2.745  0.00  0.00    -0.166 F 
ENDBRANCH  14  19
ENDBRANCH  10  12
ENDBRANCH   7  10
ENDBRANCH   3   7
BRANCH   1  23
ATOM     23  N   UNL d   1      -0.388  -0.495   4.929  0.00  0.00    -0.114 N 
ATOM     24  O   UNL d   1      -1.384   0.239   4.932  0.00  0.00    -0.532 OA
ATOM     25  O   UNL d   1       0.414  -0.634   5.861  0.00  0.00    -0.532 OA
ENDBRANCH   1  23
BRANCH   4  26
ATOM     26  S   UNL d   1      -0.439  -3.673   4.974  0.00  0.00    -0.088 SA
BRANCH  26  27
ATOM     27  C   UNL d   1      -2.186  -4.019   4.831  0.00  0.00     0.005 A 
ATOM     28  C   UNL d   1      -2.896  -4.002   3.624  0.00  0.00     0.020 A 
ATOM     29  C   UNL d   1      -4.254  -4.340   3.590  0.00  0.00     0.025 A 
ATOM     30  C   UNL d   1      -4.912  -4.706   4.761  0.00  0.00     0.034 A 
ATOM     31  C   UNL d   1      -4.222  -4.735   5.969  0.00  0.00     0.025 A 
ATOM     32 CL   UNL d   1      -6.577  -5.131   4.714  0.00  0.00    -0.084 Cl
ATOM     33  C   UNL d   1      -2.865  -4.396   6.000  0.00  0.00     0.020 A 
ENDBRANCH  26  27
ENDBRANCH   4  26
TORSDOF 7
