REMARK  5 active torsions:
REMARK  status: ('A' for Active; 'I' for Inactive)
REMARK    1  A    between atoms: C_8  and  N_1 
REMARK    2  A    between atoms: O_18  and  C_13 
REMARK    3  A    between atoms: O_19  and  C_14 
REMARK    4  A    between atoms: C_20  and  O_18 
REMARK    5  A    between atoms: C_21  and  O_19 
ROOT
ATOM      1  N   UNL d   1       2.414  -0.603   0.039  0.00  0.00    -0.339 N 
ATOM      2  N   UNL d   1       1.128   1.422  -0.062  0.00  0.00    -0.352 N 
ATOM      3  HN  UNL d   1       1.116   2.440  -0.119  1.00  0.00     0.166 HD
ATOM      4  C   UNL d   1       2.236   0.758  -0.003  0.00  0.00     0.184 C 
ATOM      5  C   UNL d   1      -0.049  -0.725  -0.051  0.00  0.00    -0.011 A 
ATOM      6  C   UNL d   1       1.255  -1.475  -0.119  0.00  0.00     0.171 C 
ATOM      7  C   UNL d   1      -0.055   0.674  -0.045  0.00  0.00     0.041 A 
ATOM      8  C   UNL d   1      -1.262  -1.435  -0.018  0.00  0.00     0.048 A 
ATOM      9  C   UNL d   1      -1.276   1.348  -0.011  0.00  0.00     0.033 A 
ATOM     10  C   UNL d   1      -2.480  -0.756   0.020  0.00  0.00     0.069 A 
ATOM     11  C   UNL d   1      -2.480   0.639   0.021  0.00  0.00     0.039 A 
ENDROOT
BRANCH   1  12
ATOM     12  C   UNL d   1       3.648  -1.226   0.319  0.00  0.00     0.035 A 
ATOM     13  C   UNL d   1       4.578  -0.618   1.176  0.00  0.00     0.032 A 
ATOM     14  C   UNL d   1       5.803  -1.223   1.483  0.00  0.00     0.039 A 
ATOM     15  C   UNL d   1       6.137  -2.452   0.924  0.00  0.00     0.068 A 
ATOM     16  C   UNL d   1       5.222  -3.084   0.083  0.00  0.00     0.039 A 
ATOM     17  C   UNL d   1       3.998  -2.475  -0.221  0.00  0.00     0.032 A 
BRANCH  15  18
ATOM     18  O   UNL d   1       7.297  -3.135   1.162  0.00  0.00    -0.352 OA
BRANCH  18  19
ATOM     19  C   UNL d   1       8.433  -2.321   1.459  0.00  0.00     0.171 C 
ATOM     20  C   UNL d   1       9.643  -3.223   1.614  0.00  0.00     0.034 C 
ENDBRANCH  18  19
ENDBRANCH  15  18
ENDBRANCH   1  12
BRANCH  10  21
ATOM     21  O   UNL d   1      -3.718  -1.341   0.057  0.00  0.00    -0.351 OA
BRANCH  21  22
ATOM     22  C   UNL d   1      -3.750  -2.768   0.071  0.00  0.00     0.171 C 
ATOM     23  C   UNL d   1      -5.198  -3.218   0.115  0.00  0.00     0.034 C 
ENDBRANCH  21  22
ENDBRANCH  10  21
TORSDOF 5
