REMARK  4 active torsions:
REMARK  status: ('A' for Active; 'I' for Inactive)
REMARK    1  A    between atoms: S_5  and  C_1 
REMARK       I    between atoms: C_2  and  N_3 
REMARK    2  A    between atoms: C_6  and  C_2 
REMARK    3  A    between atoms: N_3  and  C_4 
REMARK    4  A    between atoms: C_17  and  S_5 
ROOT
ATOM      1  C   UNL d   1       0.087   0.746  -0.590  0.00  0.00     0.049 A 
ATOM      2  C   UNL d   1       1.445   1.073  -0.386  0.00  0.00     0.053 A 
ATOM      3  C   UNL d   1      -0.293  -0.612  -0.522  0.00  0.00     0.053 A 
ATOM      4 CL   UNL d   1      -1.925  -1.142  -0.772  0.00  0.00    -0.083 Cl
ATOM      5  C   UNL d   1       2.384   0.058  -0.145  0.00  0.00     0.031 A 
ATOM      6  C   UNL d   1       1.988  -1.276  -0.075  0.00  0.00     0.004 A 
ATOM      7  C   UNL d   1       0.653  -1.610  -0.262  0.00  0.00     0.025 A 
ENDROOT
BRANCH   2   8
ATOM      8  N   UNL d   1       1.856   2.431  -0.342  0.00  0.00    -0.322 N 
ATOM      9  C   UNL d   1       3.111   2.873  -0.712  0.00  0.00     0.256 C 
ATOM     10  O   UNL d   1       3.951   2.230  -1.330  0.00  0.00    -0.267 OA
ATOM     11  H   UNL d   1       1.123   3.119  -0.206  0.00  0.00     0.169 HD
BRANCH   9  12
ATOM     12  C   UNL d   1       3.421   4.274  -0.355  0.00  0.00     0.032 A 
ATOM     13  C   UNL d   1       3.240   4.717   0.960  0.00  0.00     0.018 A 
ATOM     14  C   UNL d   1       3.666   5.997   1.321  0.00  0.00     0.025 A 
ATOM     15  C   UNL d   1       4.256   6.828   0.366  0.00  0.00     0.034 A 
ATOM     16  C   UNL d   1       4.425   6.392  -0.949  0.00  0.00     0.025 A 
ATOM     17 CL   UNL d   1       4.805   8.393   0.823  0.00  0.00    -0.084 Cl
ATOM     18  C   UNL d   1       4.015   5.107  -1.310  0.00  0.00     0.018 A 
ENDBRANCH   9  12
ENDBRANCH   2   8
BRANCH   1  19
ATOM     19  S   UNL d   1      -1.131   2.029  -0.955  0.00  0.00    -0.122 SA
BRANCH  19  20
ATOM     20  C   UNL d   1      -0.551   2.649  -2.592  0.00  0.00     0.044 C 
ATOM     21  C   UNL d   1      -0.438   1.549  -3.645  0.00  0.00     0.021 C 
ATOM     22  C   UNL d   1      -1.532   3.724  -3.061  0.00  0.00     0.021 C 
ENDBRANCH  19  20
ENDBRANCH   1  19
TORSDOF 4
