REMARK  5 active torsions:
REMARK  status: ('A' for Active; 'I' for Inactive)
REMARK    1  A    between atoms: S_12  and  C_3 
REMARK    2  A    between atoms: C_4  and  C_5 
REMARK       I    between atoms: N_6  and  C_7 
REMARK    3  A    between atoms: C_8  and  N_6 
REMARK    4  A    between atoms: C_7  and  C_18 
REMARK    5  A    between atoms: C_18  and  S_12 
ROOT
ATOM      1  N   UNL d   1      -1.709   0.828   0.262  0.00  0.00    -0.335 N 
ATOM      2  HN  UNL d   1      -2.361   1.547  -0.052  1.00  0.00     0.168 HD
ATOM      3  C   UNL d   1      -0.581   1.135   0.923  0.00  0.00     0.145 A 
ATOM      4  C   UNL d   1      -1.934  -0.487   0.034  0.00  0.00     0.069 A 
ATOM      5  N   UNL d   1       0.317   0.239   1.360  0.00  0.00    -0.347 N 
ATOM      6  HN  UNL d   1       1.160   0.526   1.858  1.00  0.00     0.167 HD
ATOM      7  C   UNL d   1      -1.068  -1.477   0.442  0.00  0.00     0.049 A 
ATOM      8  C   UNL d   1       0.053  -1.052   1.112  0.00  0.00     0.092 A 
ENDROOT
BRANCH   3   9
ATOM      9  S   UNL d   1      -0.204   2.837   1.269  0.00  0.00    -0.085 SA
BRANCH   9  10
ATOM     10  C   UNL d   1      -1.501   3.649   0.295  0.00  0.00     0.185 C 
BRANCH  10  11
ATOM     11  C   UNL d   1      -1.510   5.159   0.460  0.00  0.00     0.231 C 
ATOM     12  N   UNL d   1      -0.270   5.766   0.574  0.00  0.00    -0.325 N 
ATOM     13  H   UNL d   1       0.548   5.197   0.376  0.00  0.00     0.169 HD
ATOM     14  O   UNL d   1      -2.575   5.771   0.378  0.00  0.00    -0.272 OA
BRANCH  12  15
ATOM     15  C   UNL d   1      -0.030   7.145   0.799  0.00  0.00     0.056 A 
ATOM     16  C   UNL d   1       1.227   7.692   0.488  0.00  0.00     0.060 A 
ATOM     17 CL   UNL d   1       2.482   6.713  -0.193  0.00  0.00    -0.082 Cl
ATOM     18  C   UNL d   1       1.483   9.053   0.682  0.00  0.00     0.026 A 
ATOM     19  C   UNL d   1       0.498   9.878   1.223  0.00  0.00     0.002 A 
ATOM     20  C   UNL d   1      -0.739   9.341   1.570  0.00  0.00     0.002 A 
ATOM     21  C   UNL d   1      -1.002   7.984   1.356  0.00  0.00     0.031 A 
ENDBRANCH  12  15
ENDBRANCH  10  11
ENDBRANCH   9  10
ENDBRANCH   3   9
BRANCH   4  22
ATOM     22  C   UNL d   1      -3.170  -0.788  -0.678  0.00  0.00     0.101 A 
ATOM     23  O   UNL d   1      -3.372  -2.097  -1.029  0.00  0.00    -0.321 OA
ATOM     24  C   UNL d   1      -4.564  -2.164  -1.672  0.00  0.00     0.142 A 
ATOM     25  C   UNL d   1      -5.144  -0.921  -1.743  0.00  0.00     0.027 A 
ATOM     26  C   UNL d   1      -4.246  -0.034  -1.107  0.00  0.00     0.041 A 
ENDBRANCH   4  22
TORSDOF 5
