REMARK  6 active torsions:
REMARK  status: ('A' for Active; 'I' for Inactive)
REMARK    1  A    between atoms: C_5  and  C_1 
REMARK    2  A    between atoms: C_6  and  C_2 
REMARK    3  A    between atoms: N_9  and  C_6 
REMARK    4  A    between atoms: O_15  and  N_9 
REMARK    5  A    between atoms: C_11  and  C_12 
REMARK    6  A    between atoms: C_12  and  O_15 
ROOT
ATOM      1  C   UNL d   1       2.230  -4.284  -0.113  0.00  0.00     0.085 A 
ATOM      2  C   UNL d   1       1.645  -2.965   0.023  0.00  0.00     0.070 A 
ATOM      3  N   UNL d   1       3.557  -4.180  -0.289  0.00  0.00    -0.259 N 
ATOM      4  HN  UNL d   1       4.209  -4.948  -0.448  1.00  0.00     0.195 HD
ATOM      5  O   UNL d   1       3.867  -2.853  -0.214  0.00  0.00    -0.241 OA
ATOM      6  C   UNL d   1       2.740  -2.117  -0.046  0.00  0.00     0.088 A 
ATOM      7  C   UNL d   1       3.007  -0.666   0.030  0.00  0.00     0.080 C 
ENDROOT
BRANCH   2   8
ATOM      8  C   UNL d   1       0.244  -2.618   0.182  0.00  0.00     0.134 C 
ATOM      9  N   UNL d   1      -0.176  -1.513  -0.493  0.00  0.00    -0.383 N 
ATOM     10  H   UNL d   1       0.454  -0.758  -0.707  0.00  0.00     0.157 HD
ATOM     11  H   UNL d   1      -1.132  -1.232  -0.305  0.00  0.00     0.157 HD
BRANCH   8  12
ATOM     12  N   UNL d   1      -0.504  -3.417   0.875  0.00  0.00    -0.241 N 
ATOM     13  HN  UNL d   1      -0.170  -4.239   1.378  1.00  0.00     0.196 HD
BRANCH  12  14
ATOM     14  O   UNL d   1      -1.848  -2.986   0.832  0.00  0.00    -0.198 OA
BRANCH  14  15
ATOM     15  C   UNL d   1      -2.761  -3.950   1.208  0.00  0.00     0.285 C 
ATOM     16  O   UNL d   1      -3.961  -3.719   1.222  0.00  0.00    -0.263 OA
BRANCH  15  17
ATOM     17  C   UNL d   1      -2.235  -5.300   1.609  0.00  0.00     0.087 A 
ATOM     18  C   UNL d   1      -3.098  -6.533   1.448  0.00  0.00     0.015 A 
ATOM     19  C   UNL d   1      -2.805  -5.998   2.821  0.00  0.00     0.015 A 
ENDBRANCH  15  17
ENDBRANCH  14  15
ENDBRANCH  12  14
ENDBRANCH   8  12
ENDBRANCH   2   8
BRANCH   1  20
ATOM     20  C   UNL d   1       1.612  -5.622  -0.135  0.00  0.00     0.037 A 
ATOM     21  C   UNL d   1       0.515  -5.927  -0.968  0.00  0.00     0.048 A 
ATOM     22 CL   UNL d   1      -0.143  -4.820  -2.129  0.00  0.00    -0.083 Cl
ATOM     23  C   UNL d   1      -0.077  -7.200  -0.953  0.00  0.00     0.025 A 
ATOM     24  C   UNL d   1       0.454  -8.221  -0.175  0.00  0.00     0.003 A 
ATOM     25  C   UNL d   1       1.576  -7.967   0.603  0.00  0.00     0.025 A 
ATOM     26  C   UNL d   1       2.139  -6.681   0.643  0.00  0.00     0.048 A 
ATOM     27 CL   UNL d   1       3.492  -6.505   1.717  0.00  0.00    -0.083 Cl
ENDBRANCH   1  20
TORSDOF 6
