REMARK  4 active torsions:
REMARK  status: ('A' for Active; 'I' for Inactive)
REMARK    1  A    between atoms: N_2  and  S_1 
REMARK    2  A    between atoms: C_3  and  S_1 
REMARK    3  A    between atoms: C_13  and  N_2 
REMARK       I    between atoms: C_8  and  N_9 
REMARK    4  A    between atoms: N_9  and  C_15 
ROOT
ATOM      1  N   UNL d   1       3.453   4.973  -5.734  0.00  0.00    -0.191 NA
ATOM      2  C   UNL d   1       3.233   4.249  -4.852  0.00  0.00     0.099 C 
ATOM      3  C   UNL d   1       2.533   1.601  -1.625  0.00  0.00     0.042 A 
ATOM      4  C   UNL d   1       2.978   3.351  -3.763  0.00  0.00     0.044 A 
ATOM      5  C   UNL d   1       2.345   2.971  -1.452  0.00  0.00     0.031 A 
ATOM      6  C   UNL d   1       2.936   1.099  -2.862  0.00  0.00     0.031 A 
ATOM      7  C   UNL d   1       2.572   3.848  -2.519  0.00  0.00     0.025 A 
ATOM      8  C   UNL d   1       3.151   1.972  -3.933  0.00  0.00     0.025 A 
ENDROOT
BRANCH   3   9
ATOM      9  N   UNL d   1       2.393   0.725  -0.525  0.00  0.00    -0.281 N 
ATOM     10  H   UNL d   1       3.211   0.294  -0.103  0.00  0.00     0.179 HD
BRANCH   9  11
ATOM     11  S   UNL d   1       0.902   0.133  -0.050  0.00  0.00     0.263 S 
ATOM     12  O   UNL d   1      -0.035   1.230   0.059  0.00  0.00    -0.200 OA
ATOM     13  O   UNL d   1       1.160  -0.748   1.070  0.00  0.00    -0.200 OA
BRANCH  11  14
ATOM     14  C   UNL d   1       0.412  -0.887  -1.423  0.00  0.00     0.080 A 
ATOM     15  C   UNL d   1       0.767  -2.238  -1.456  0.00  0.00     0.027 A 
ATOM     16  C   UNL d   1       0.369  -3.033  -2.540  0.00  0.00     0.031 A 
ATOM     17  C   UNL d   1      -0.386  -2.487  -3.590  0.00  0.00     0.034 A 
ATOM     18  C   UNL d   1      -0.762  -1.143  -3.519  0.00  0.00     0.031 A 
ATOM     19  C   UNL d   1      -0.373  -0.343  -2.438  0.00  0.00     0.027 A 
BRANCH  17  20
ATOM     20  N   UNL d   1      -0.720  -3.337  -4.668  0.00  0.00    -0.328 N 
ATOM     21  C   UNL d   1      -1.403  -2.992  -5.821  0.00  0.00     0.218 C 
ATOM     22  O   UNL d   1      -1.854  -1.885  -6.101  0.00  0.00    -0.274 OA
ATOM     23  C   UNL d   1      -1.563  -4.133  -6.794  0.00  0.00     0.117 C 
ATOM     24  H   UNL d   1      -0.403  -4.295  -4.592  0.00  0.00     0.169 HD
ENDBRANCH  17  20
ENDBRANCH  11  14
ENDBRANCH   9  11
ENDBRANCH   3   9
TORSDOF 4
