REMARK  3 active torsions:
REMARK  status: ('A' for Active; 'I' for Inactive)
REMARK    1  A    between atoms: C_5  and  C_8 
REMARK       I    between atoms: N_10  and  C_5 
REMARK    2  A    between atoms: C_14  and  N_10 
REMARK    3  A    between atoms: C_15  and  C_14 
ROOT
ATOM      1  C   UNL d   1      -3.874   1.078   0.036  0.00  0.00     0.252 C 
ATOM      2  N   UNL d   1      -4.211   2.416   0.083  0.00  0.00    -0.353 N 
ATOM      3  O   UNL d   1      -2.705   0.699  -0.001  0.00  0.00    -0.268 OA
ATOM      4  H   UNL d   1      -5.170   2.726   0.045  0.00  0.00     0.163 HD
ENDROOT
BRANCH   1   5
ATOM      5  C   UNL d   1      -4.963   0.050   0.028  0.00  0.00     0.034 A 
ATOM      6  C   UNL d   1      -6.329   0.364   0.003  0.00  0.00     0.049 A 
ATOM      7  C   UNL d   1      -7.289  -0.676  -0.002  0.00  0.00     0.064 A 
ATOM      8  N   UNL d   1      -8.671  -0.519  -0.023  0.00  0.00    -0.292 N 
ATOM      9  C   UNL d   1      -6.853  -2.004   0.017  0.00  0.00     0.047 A 
ATOM     10  N   UNL d   1      -9.305  -1.680  -0.017  0.00  0.00    -0.061 NA
ATOM     11  HN  UNL d   1      -9.141   0.386  -0.042  1.00  0.00     0.183 HD
ATOM     12  S   UNL d   1      -8.267  -2.988   0.012  0.00  0.00     0.002 SA
ATOM     13  C   UNL d   1      -5.498  -2.347   0.035  0.00  0.00     0.023 A 
ATOM     14  C   UNL d   1      -4.570  -1.300   0.039  0.00  0.00     0.018 A 
ENDBRANCH   1   5
BRANCH   2  15
ATOM     15  C   UNL d   1      -3.190   3.446  -0.008  0.00  0.00     0.161 C 
BRANCH  15  16
ATOM     16  C   UNL d   1      -3.221   4.462   1.110  0.00  0.00    -0.041 A 
ATOM     17  C   UNL d   1      -3.640   4.142   2.409  0.00  0.00     0.009 A 
ATOM     18  C   UNL d   1      -3.554   5.084   3.439  0.00  0.00     0.001 A 
ATOM     19  C   UNL d   1      -3.032   6.352   3.190  0.00  0.00     0.000 A 
ATOM     20  C   UNL d   1      -2.600   6.682   1.909  0.00  0.00     0.001 A 
ATOM     21  C   UNL d   1      -2.692   5.744   0.878  0.00  0.00     0.009 A 
ENDBRANCH  15  16
ENDBRANCH   2  15
TORSDOF 3
