REMARK  2 active torsions:
REMARK  status: ('A' for Active; 'I' for Inactive)
REMARK    1  A    between atoms: C_6  and  C_1 
REMARK    2  A    between atoms: C_8  and  C_5 
ROOT
ATOM      1  C   UNL d   1      -0.271  -1.200  -0.099  0.00  0.00     0.071 A 
ATOM      2  C   UNL d   1      -1.297  -0.298   0.284  0.00  0.00     0.075 A 
ATOM      3  N   UNL d   1       0.789  -0.525  -0.567  0.00  0.00    -0.260 N 
ATOM      4  HN  UNL d   1       1.659  -0.922  -0.922  1.00  0.00     0.195 HD
ATOM      5  C   UNL d   1      -0.786   0.954   0.031  0.00  0.00     0.146 A 
ATOM      6  O   UNL d   1       0.469   0.815  -0.473  0.00  0.00    -0.234 OA
ENDROOT
BRANCH   1   7
ATOM      7  C   UNL d   1      -0.290  -2.661  -0.042  0.00  0.00     0.036 A 
ATOM      8  C   UNL d   1      -1.282  -3.400  -0.715  0.00  0.00     0.048 A 
ATOM      9 CL   UNL d   1      -2.519  -2.657  -1.676  0.00  0.00    -0.083 Cl
ATOM     10  C   UNL d   1      -1.303  -4.800  -0.654  0.00  0.00     0.025 A 
ATOM     11  C   UNL d   1      -0.332  -5.488   0.067  0.00  0.00     0.003 A 
ATOM     12  C   UNL d   1       0.658  -4.776   0.736  0.00  0.00     0.025 A 
ATOM     13  C   UNL d   1       0.679  -3.374   0.691  0.00  0.00     0.048 A 
ATOM     14 CL   UNL d   1       1.919  -2.597   1.620  0.00  0.00    -0.083 Cl
ENDBRANCH   1   7
BRANCH   5  15
ATOM     15  C   UNL d   1      -1.353   2.268   0.208  0.00  0.00     0.181 C 
ATOM     16  O   UNL d   1      -2.526   2.438   0.541  0.00  0.00    -0.291 OA
ATOM     17  C   UNL d   1      -0.471   3.463  -0.056  0.00  0.00     0.099 C 
ENDBRANCH   5  15
TORSDOF 2
