REMARK  4 active torsions:
REMARK  status: ('A' for Active; 'I' for Inactive)
REMARK    1  A    between atoms: O_2  and  C_1 
REMARK    2  A    between atoms: C_3  and  O_2 
REMARK    3  A    between atoms: C_6  and  C_3 
REMARK    4  A    between atoms: C_9  and  C_10 
ROOT
ATOM      1  C   UNL d   1      -1.185  -3.070   0.083  0.00  0.00     0.298 C 
ATOM      2  O   UNL d   1      -0.227  -2.928  -0.649  0.00  0.00    -0.259 OA
ENDROOT
BRANCH   1   3
ATOM      3  O   UNL d   1      -1.237  -3.806   1.263  0.00  0.00    -0.271 OA
BRANCH   3   4
ATOM      4  C   UNL d   1      -0.096  -4.434   1.797  0.00  0.00     0.125 A 
ATOM      5  C   UNL d   1       0.941  -3.694   2.361  0.00  0.00     0.085 A 
ATOM      6 CL   UNL d   1       0.967  -1.974   2.367  0.00  0.00    -0.080 Cl
ATOM      7  C   UNL d   1       1.937  -4.394   3.028  0.00  0.00     0.114 A 
ATOM      8  N   UNL d   1       1.948  -5.743   3.184  0.00  0.00    -0.372 N 
ATOM      9  C   UNL d   1       0.905  -6.423   2.649  0.00  0.00     0.114 A 
ATOM     10  HN  UNL d   1       2.702  -6.219   3.678  1.00  0.00     0.164 HD
ATOM     11  C   UNL d   1      -0.133  -5.821   1.953  0.00  0.00     0.085 A 
ATOM     12 CL   UNL d   1      -1.446  -6.774   1.379  0.00  0.00    -0.080 Cl
ENDBRANCH   3   4
ENDBRANCH   1   3
BRANCH   1  13
ATOM     13  C   UNL d   1      -2.527  -2.432  -0.087  0.00  0.00     0.040 A 
ATOM     14  C   UNL d   1      -2.713  -1.397  -1.007  0.00  0.00     0.018 A 
ATOM     15  C   UNL d   1      -3.943  -0.714  -1.058  0.00  0.00     0.009 A 
ATOM     16  C   UNL d   1      -5.003  -1.037  -0.185  0.00  0.00    -0.051 A 
ATOM     17  C   UNL d   1      -4.816  -2.132   0.669  0.00  0.00     0.009 A 
ATOM     18  C   UNL d   1      -3.602  -2.817   0.718  0.00  0.00     0.018 A 
BRANCH  16  19
ATOM     19  C   UNL d   1      -6.284  -0.183  -0.118  0.00  0.00    -0.024 C 
ATOM     20  C   UNL d   1      -7.269  -0.642   0.986  0.00  0.00     0.019 C 
ATOM     21  C   UNL d   1      -5.905   1.278   0.206  0.00  0.00     0.019 C 
ATOM     22  C   UNL d   1      -7.046  -0.226  -1.455  0.00  0.00     0.019 C 
ENDBRANCH  16  19
ENDBRANCH   1  13
TORSDOF 4
