REMARK  4 active torsions:
REMARK  status: ('A' for Active; 'I' for Inactive)
REMARK       I    between atoms: C_4  and  N_1 
REMARK    1  A    between atoms: C_3  and  C_4 
REMARK    2  A    between atoms: C_13  and  C_5 
REMARK    3  A    between atoms: C_17  and  N_11 
REMARK    4  A    between atoms: O_26  and  C_21 
ROOT
ATOM      1  N   UNL d   1       0.926   0.503   0.129  0.00  0.00    -0.279 N 
ATOM      2  C   UNL d   1       0.505  -0.822   0.289  0.00  0.00     0.155 C 
ATOM      3  C   UNL d   1       2.082   0.894   0.799  0.00  0.00     0.265 C 
ATOM      4  S   UNL d   1      -1.255  -0.823   0.351  0.00  0.00    -0.057 SA
ATOM      5  C   UNL d   1       0.079   1.136  -0.937  0.00  0.00     0.068 C 
ATOM      6  C   UNL d   1      -1.331   0.686  -0.517  0.00  0.00     0.005 C 
ATOM      7  N   UNL d   1       1.306  -1.833   0.232  0.00  0.00    -0.336 N 
ATOM      8  HN  UNL d   1       2.311  -1.662   0.211  1.00  0.00     0.168 HD
ATOM      9  O   UNL d   1       2.698   0.146   1.555  0.00  0.00    -0.267 OA
ATOM     10  C   UNL d   1      -2.504   1.319  -0.655  0.00  0.00     0.029 C 
ATOM     11  C   UNL d   1       0.142   2.646  -1.189  0.00  0.00     0.044 C 
ATOM     12  C   UNL d   1       0.422   0.487  -2.312  0.00  0.00     0.044 C 
ENDROOT
BRANCH   3  13
ATOM     13  C   UNL d   1       2.545   2.260   0.712  0.00  0.00     0.093 C 
ATOM     14  C   UNL d   1       3.878   2.754   0.491  0.00  0.00     0.085 C 
ATOM     15  N   UNL d   1       3.849   4.095   0.405  0.00  0.00    -0.259 N 
ATOM     16  O   UNL d   1       2.630   4.484   0.908  0.00  0.00    -0.241 OA
ATOM     17  HN  UNL d   1       4.583   4.702   0.040  1.00  0.00     0.195 HD
ATOM     18  C   UNL d   1       1.891   3.383   1.194  0.00  0.00     0.090 C 
ATOM     19  C   UNL d   1       0.654   3.631   1.959  0.00  0.00     0.080 C 
BRANCH  14  20
ATOM     20  C   UNL d   1       5.151   2.024   0.414  0.00  0.00     0.015 A 
ATOM     21  C   UNL d   1       6.305   2.454   1.110  0.00  0.00     0.046 A 
ATOM     22 CL   UNL d   1       6.348   3.861   2.127  0.00  0.00    -0.083 Cl
ATOM     23  C   UNL d   1       7.491   1.709   1.064  0.00  0.00     0.025 A 
ATOM     24  C   UNL d   1       7.546   0.519   0.348  0.00  0.00     0.002 A 
ATOM     25  C   UNL d   1       6.417   0.073  -0.333  0.00  0.00     0.001 A 
ATOM     26  C   UNL d   1       5.233   0.821  -0.308  0.00  0.00     0.015 A 
ENDBRANCH  14  20
ENDBRANCH   3  13
BRANCH   7  27
ATOM     27  C   UNL d   1       0.846  -3.161   0.196  0.00  0.00     0.036 A 
ATOM     28  C   UNL d   1      -0.078  -3.618  -0.757  0.00  0.00     0.066 A 
ATOM     29  C   UNL d   1      -0.531  -4.939  -0.747  0.00  0.00     0.070 A 
ATOM     30  C   UNL d   1       0.037  -5.846   0.145  0.00  0.00     0.037 A 
ATOM     31  C   UNL d   1       1.015  -5.427   1.046  0.00  0.00     0.005 A 
ATOM     32  C   UNL d   1       1.409  -4.087   1.075  0.00  0.00     0.029 A 
BRANCH  29  33
ATOM     33  O   UNL d   1      -1.497  -5.445  -1.575  0.00  0.00    -0.356 OA
ATOM     34  C   UNL d   1      -2.422  -4.493  -2.094  0.00  0.00     0.210 C 
ENDBRANCH  29  33
ENDBRANCH   7  27
TORSDOF 4
