REMARK  6 active torsions:
REMARK  status: ('A' for Active; 'I' for Inactive)
REMARK    1  A    between atoms: N_3  and  C_1 
REMARK    2  A    between atoms: S_10  and  C_4 
REMARK    3  A    between atoms: C_7  and  C_12 
REMARK       I    between atoms: C_9  and  N_11 
REMARK       I    between atoms: N_15  and  C_9 
REMARK    4  A    between atoms: C_14  and  S_10 
REMARK    5  A    between atoms: N_11  and  C_13 
REMARK    6  A    between atoms: C_20  and  N_15 
ROOT
ATOM      1  C   UNL d   1       2.234  -3.151   2.211  0.00  0.00     0.053 C 
ATOM      2  C   UNL d   1       1.659  -3.507   3.460  0.00  0.00     0.034 C 
ATOM      3  C   UNL d   1       1.998  -3.948   1.081  0.00  0.00     0.031 C 
ATOM      4  C   UNL d   1       0.701  -4.531   3.464  0.00  0.00     0.021 C 
ATOM      5  C   UNL d   1       1.091  -4.999   1.129  0.00  0.00     0.002 C 
ATOM      6  C   UNL d   1       0.413  -5.266   2.310  0.00  0.00     0.002 C 
ENDROOT
BRANCH   1   7
ATOM      7  N   UNL d   1       2.902  -1.896   2.086  0.00  0.00    -0.307 N 
ATOM      8  C   UNL d   1       2.712  -1.091   0.951  0.00  0.00     0.325 C 
ATOM      9  N   UNL d   1       2.254   0.166   1.347  0.00  0.00    -0.309 N 
ATOM     10  O   UNL d   1       2.776  -1.489  -0.204  0.00  0.00    -0.247 OA
ATOM     11  H   UNL d   1       2.224   0.320   2.341  0.00  0.00     0.170 HD
ATOM     12  H   UNL d   1       3.010  -1.405   2.963  0.00  0.00     0.170 HD
BRANCH   9  13
ATOM     13  C   UNL d   1       1.370   0.964   0.584  0.00  0.00     0.037 A 
ATOM     14  C   UNL d   1       0.470   1.761   1.306  0.00  0.00     0.045 A 
ATOM     15  C   UNL d   1      -0.588   2.423   0.661  0.00  0.00     0.050 A 
ATOM     16  C   UNL d   1      -0.687   2.344  -0.734  0.00  0.00     0.016 A 
ATOM     17  C   UNL d   1       0.250   1.615  -1.464  0.00  0.00     0.003 A 
ATOM     18  C   UNL d   1       1.269   0.918  -0.806  0.00  0.00     0.029 A 
BRANCH  15  19
ATOM     19  C   UNL d   1      -1.662   3.115   1.462  0.00  0.00     0.417 C 
ATOM     20  F   UNL d   1      -1.317   3.321   2.764  0.00  0.00    -0.166 F 
ATOM     21  F   UNL d   1      -1.995   4.337   0.965  0.00  0.00    -0.166 F 
ATOM     22  F   UNL d   1      -2.818   2.395   1.496  0.00  0.00    -0.166 F 
ENDBRANCH  15  19
ENDBRANCH   9  13
ENDBRANCH   1   7
BRANCH   2  23
ATOM     23  S   UNL d   1       1.909  -2.467   4.907  0.00  0.00    -0.063 SA
BRANCH  23  24
ATOM     24  C   UNL d   1       2.276  -3.556   6.245  0.00  0.00     0.119 A 
ATOM     25  S   UNL d   1       1.256  -4.827   6.809  0.00  0.00    -0.040 SA
ATOM     26  C   UNL d   1       2.185  -4.944   8.223  0.00  0.00     0.161 A 
ATOM     27  C   UNL d   1       3.229  -4.055   8.194  0.00  0.00     0.133 A 
ATOM     28  N   UNL d   1       3.284  -3.268   7.048  0.00  0.00    -0.352 N 
ATOM     29  HN  UNL d   1       4.000  -2.567   6.856  1.00  0.00     0.166 HD
BRANCH  26  30
ATOM     30  N   UNL d   1       1.835  -5.833   9.286  0.00  0.00    -0.107 N 
ATOM     31  O   UNL d   1       2.513  -5.753  10.316  0.00  0.00    -0.531 OA
ATOM     32  O   UNL d   1       0.880  -6.605   9.110  0.00  0.00    -0.531 OA
ENDBRANCH  26  30
ENDBRANCH  23  24
ENDBRANCH   2  23
TORSDOF 6
