REMARK  3 active torsions:
REMARK  status: ('A' for Active; 'I' for Inactive)
REMARK    1  A    between atoms: N_6  and  C_1 
REMARK    2  A    between atoms: C_10  and  N_4 
REMARK       I    between atoms: C_7  and  N_6 
REMARK       I    between atoms: N_9  and  C_7 
REMARK    3  A    between atoms: C_14  and  N_9 
ROOT
ATOM      1  C   UNL d   1      -0.479  -0.961  -0.449  0.00  0.00     0.131 C 
ATOM      2  C   UNL d   1       0.772  -0.327  -0.962  0.00  0.00     0.296 C 
ATOM      3  N   UNL d   1      -0.570   1.269  -0.012  0.00  0.00    -0.289 N 
ATOM      4  N   UNL d   1       0.687   1.037  -0.642  0.00  0.00    -0.217 N 
ATOM      5  C   UNL d   1      -1.256   0.045  -0.014  0.00  0.00     0.057 C 
ATOM      6  O   UNL d   1       1.664  -0.985  -1.481  0.00  0.00    -0.264 OA
ATOM      7  C   UNL d   1      -1.201   2.574  -0.180  0.00  0.00     0.178 C 
ATOM      8  C   UNL d   1      -2.703  -0.085   0.364  0.00  0.00     0.072 C 
ENDROOT
BRANCH   1   9
ATOM      9  N   UNL d   1      -0.631  -2.334  -0.439  0.00  0.00    -0.302 N 
ATOM     10  C   UNL d   1      -1.225  -2.998   0.626  0.00  0.00     0.325 C 
ATOM     11  N   UNL d   1      -1.178  -4.372   0.480  0.00  0.00    -0.309 N 
ATOM     12  O   UNL d   1      -1.696  -2.414   1.594  0.00  0.00    -0.247 OA
ATOM     13  H   UNL d   1      -0.728  -4.731  -0.343  0.00  0.00     0.170 HD
ATOM     14  H   UNL d   1       0.136  -2.822  -0.889  0.00  0.00     0.171 HD
BRANCH  11  15
ATOM     15  C   UNL d   1      -1.641  -5.322   1.429  0.00  0.00     0.036 A 
ATOM     16  C   UNL d   1      -2.359  -4.986   2.587  0.00  0.00     0.029 A 
ATOM     17  C   UNL d   1      -2.750  -5.971   3.497  0.00  0.00     0.002 A 
ATOM     18  C   UNL d   1      -2.436  -7.304   3.260  0.00  0.00     0.000 A 
ATOM     19  C   UNL d   1      -1.737  -7.656   2.109  0.00  0.00     0.002 A 
ATOM     20  C   UNL d   1      -1.351  -6.670   1.191  0.00  0.00     0.029 A 
ENDBRANCH  11  15
ENDBRANCH   1   9
BRANCH   4  21
ATOM     21  C   UNL d   1       1.807   1.905  -0.530  0.00  0.00     0.060 A 
ATOM     22  C   UNL d   1       2.919   1.730  -1.367  0.00  0.00     0.031 A 
ATOM     23  C   UNL d   1       4.038   2.567  -1.276  0.00  0.00     0.002 A 
ATOM     24  C   UNL d   1       4.064   3.597  -0.342  0.00  0.00     0.000 A 
ATOM     25  C   UNL d   1       2.975   3.783   0.504  0.00  0.00     0.002 A 
ATOM     26  C   UNL d   1       1.860   2.940   0.413  0.00  0.00     0.031 A 
ENDBRANCH   4  21
TORSDOF 3
