REMARK  5 active torsions:
REMARK  status: ('A' for Active; 'I' for Inactive)
REMARK    1  A    between atoms: C_2  and  CA_1 
REMARK    2  A    between atoms: CA_1  and  N_3 
REMARK    3  A    between atoms: C_5  and  CA_1 
REMARK    4  A    between atoms: OXT_9  and  C_2 
REMARK       I    between atoms: C_4  and  N_3 
REMARK    5  A    between atoms: C_8  and  C_5 
ROOT
ATOM      1  CA  UNL d   1       1.064  -0.015  -0.043  0.00  0.00     0.186 C 
ENDROOT
BRANCH   1   2
ATOM      2  C   UNL d   1       0.478  -1.406  -0.316  0.00  0.00     0.163 C 
ATOM      3  O   UNL d   1       0.937  -2.449   0.122  0.00  0.00    -0.648 OA
BRANCH   2   4
ATOM      4  OXT UNL d   1      -0.707  -1.357  -0.977  0.00  0.00    -0.775 OA
ATOM      5  HXT UNL d   1      -1.062  -0.441  -1.058  0.00  0.00     0.167 HD
ENDBRANCH   2   4
ENDBRANCH   1   2
BRANCH   1   6
ATOM      6  N   UNL d   1       0.553   0.431   1.253  0.00  0.00    -0.347 N 
ATOM      7  C   UNL d   1      -0.686   1.020   1.330  0.00  0.00     0.214 C 
ATOM      8  O   UNL d   1      -1.373   1.220   0.332  0.00  0.00    -0.274 OA
ATOM      9  C   UNL d   1      -1.122   1.384   2.722  0.00  0.00     0.117 C 
ATOM     10  H   UNL d   1       0.885  -0.063   2.076  0.00  0.00     0.163 HD
ENDBRANCH   1   6
BRANCH   1  11
ATOM     11  C   UNL d   1       2.596  -0.037  -0.037  0.00  0.00     0.074 C 
BRANCH  11  12
ATOM     12  C   UNL d   1       3.224  -0.401  -1.362  0.00  0.00    -0.056 A 
ATOM     13  C   UNL d   1       2.993   0.366  -2.513  0.00  0.00     0.008 A 
ATOM     14  C   UNL d   1       3.608   0.031  -3.722  0.00  0.00     0.019 A 
ATOM     15  C   UNL d   1       4.466  -1.065  -3.782  0.00  0.00     0.011 A 
ATOM     16  C   UNL d   1       4.703  -1.837  -2.649  0.00  0.00     0.019 A 
ATOM     17 BR   UNL d   1       5.325  -1.498  -5.409  0.00  0.00    -0.051 Br
ATOM     18  C   UNL d   1       4.082  -1.507  -1.443  0.00  0.00     0.008 A 
ENDBRANCH  11  12
ENDBRANCH   1  11
TORSDOF 5
