REMARK  4 active torsions:
REMARK  status: ('A' for Active; 'I' for Inactive)
REMARK    1  A    between atoms: C_3  and  C_1 
REMARK    2  A    between atoms: C_6  and  C_2 
REMARK       I    between atoms: N_9  and  C_3 
REMARK    3  A    between atoms: C_10  and  N_9 
REMARK       I    between atoms: C_12  and  N_13 
REMARK    4  A    between atoms: N_13  and  C_16 
ROOT
ATOM      1  C   UNL d   1       0.492  -2.478  -0.034  0.00  0.00     0.261 C 
ATOM      2  N   UNL d   1      -0.306  -3.571   0.242  0.00  0.00    -0.322 N 
ATOM      3  O   UNL d   1       0.252  -1.613  -0.862  0.00  0.00    -0.267 OA
ATOM      4  H   UNL d   1      -0.131  -4.043   1.121  0.00  0.00     0.169 HD
ENDROOT
BRANCH   1   5
ATOM      5  C   UNL d   1       1.634  -2.375   0.851  0.00  0.00     0.093 A 
ATOM      6  C   UNL d   1       2.763  -3.230   1.067  0.00  0.00     0.085 A 
ATOM      7  N   UNL d   1       3.551  -2.696   2.019  0.00  0.00    -0.259 N 
ATOM      8  O   UNL d   1       2.958  -1.527   2.427  0.00  0.00    -0.241 OA
ATOM      9  HN  UNL d   1       4.426  -3.087   2.371  1.00  0.00     0.195 HD
ATOM     10  C   UNL d   1       1.809  -1.340   1.741  0.00  0.00     0.090 A 
ATOM     11  C   UNL d   1       0.999  -0.166   2.118  0.00  0.00     0.080 C 
BRANCH   6  12
ATOM     12  C   UNL d   1       3.128  -4.540   0.503  0.00  0.00     0.015 A 
ATOM     13  C   UNL d   1       3.009  -4.905  -0.848  0.00  0.00     0.046 A 
ATOM     14 CL   UNL d   1       2.524  -3.813  -2.094  0.00  0.00    -0.083 Cl
ATOM     15  C   UNL d   1       3.369  -6.196  -1.271  0.00  0.00     0.025 A 
ATOM     16  C   UNL d   1       3.893  -7.124  -0.371  0.00  0.00     0.002 A 
ATOM     17  C   UNL d   1       4.063  -6.766   0.959  0.00  0.00     0.001 A 
ATOM     18  C   UNL d   1       3.678  -5.494   1.389  0.00  0.00     0.015 A 
ENDBRANCH   6  12
ENDBRANCH   1   5
BRANCH   2  19
ATOM     19  C   UNL d   1      -1.306  -4.114  -0.585  0.00  0.00     0.041 C 
ATOM     20  C   UNL d   1      -2.219  -5.034  -0.049  0.00  0.00    -0.033 C 
ATOM     21  C   UNL d   1      -3.003  -5.802  -0.930  0.00  0.00     0.038 C 
ATOM     22  C   UNL d   1      -2.435  -5.239   1.426  0.00  0.00     0.050 C 
ATOM     23  C   UNL d   1      -2.908  -5.667  -2.323  0.00  0.00     0.035 C 
ATOM     24  C   UNL d   1      -2.120  -4.640  -2.824  0.00  0.00     0.032 C 
ATOM     25  C   UNL d   1      -1.328  -3.867  -1.961  0.00  0.00     0.032 C 
BRANCH  23  26
ATOM     26  N   UNL d   1      -3.572  -6.649  -3.079  0.00  0.00    -0.327 N 
ATOM     27  C   UNL d   1      -3.598  -6.976  -4.399  0.00  0.00     0.218 C 
ATOM     28  O   UNL d   1      -4.106  -8.058  -4.711  0.00  0.00    -0.274 OA
ATOM     29  C   UNL d   1      -3.037  -6.076  -5.457  0.00  0.00     0.117 C 
ATOM     30  H   UNL d   1      -4.030  -7.379  -2.543  0.00  0.00     0.169 HD
ENDBRANCH  23  26
ENDBRANCH   2  19
TORSDOF 4
