REMARK  6 active torsions:
REMARK  status: ('A' for Active; 'I' for Inactive)
REMARK    1  A    between atoms: C_6  and  C_1 
REMARK    2  A    between atoms: C_10  and  N_2 
REMARK       I    between atoms: N_8  and  C_6 
REMARK    3  A    between atoms: C_9  and  C_14 
REMARK    4  A    between atoms: O_21  and  C_9 
REMARK    5  A    between atoms: C_26  and  O_21 
REMARK    6  A    between atoms: O_25  and  C_22 
ROOT
ATOM      1  C   UNL d   1      -0.129   1.220   0.035  0.00  0.00     0.073 C 
ATOM      2  N   UNL d   1       0.162  -0.937  -0.449  0.00  0.00    -0.260 N 
ATOM      3  C   UNL d   1      -0.741   0.116  -0.559  0.00  0.00     0.048 C 
ATOM      4  N   UNL d   1       1.311  -0.541   0.155  0.00  0.00    -0.304 N 
ATOM      5  HN  UNL d   1       2.173  -1.074   0.268  1.00  0.00     0.186 HD
ATOM      6  C   UNL d   1       1.061   0.695   0.566  0.00  0.00     0.126 C 
ATOM      7  C   UNL d   1      -2.051   0.050  -1.266  0.00  0.00     0.071 C 
ENDROOT
BRANCH   1   8
ATOM      8  C   UNL d   1      -0.660   2.579   0.116  0.00  0.00     0.257 C 
ATOM      9  N   UNL d   1       0.235   3.657   0.008  0.00  0.00    -0.348 N 
ATOM     10  C   UNL d   1      -0.251   4.990   0.359  0.00  0.00     0.127 C 
ATOM     11  C   UNL d   1       1.678   3.547  -0.223  0.00  0.00     0.127 C 
ATOM     12  C   UNL d   1       0.242   6.048  -0.627  0.00  0.00     0.034 C 
ATOM     13  C   UNL d   1       1.770   6.029  -0.766  0.00  0.00     0.088 C 
ATOM     14  C   UNL d   1       2.212   4.620  -1.169  0.00  0.00     0.034 C 
ATOM     15  O   UNL d   1      -1.867   2.754   0.256  0.00  0.00    -0.267 OA
BRANCH  13  16
ATOM     16  C   UNL d   1       2.459   6.483   0.514  0.00  0.00     0.263 C 
ATOM     17  O   UNL d   1       3.331   5.855   1.098  0.00  0.00    -0.265 OA
BRANCH  16  18
ATOM     18  O   UNL d   1       1.941   7.671   0.925  0.00  0.00    -0.322 OA
BRANCH  18  19
ATOM     19  C   UNL d   1       2.214   8.048   2.281  0.00  0.00     0.174 C 
ATOM     20  C   UNL d   1       3.236   9.163   2.342  0.00  0.00     0.034 C 
ENDBRANCH  18  19
ENDBRANCH  16  18
ENDBRANCH  13  16
ENDBRANCH   1   8
BRANCH   2  21
ATOM     21  C   UNL d   1       0.043  -2.303  -0.812  0.00  0.00     0.056 A 
ATOM     22  C   UNL d   1       1.202  -3.012  -1.173  0.00  0.00     0.034 A 
ATOM     23  C   UNL d   1       1.137  -4.377  -1.466  0.00  0.00     0.039 A 
ATOM     24  C   UNL d   1      -0.080  -5.048  -1.369  0.00  0.00     0.068 A 
ATOM     25  C   UNL d   1      -1.227  -4.345  -0.995  0.00  0.00     0.039 A 
ATOM     26  C   UNL d   1      -1.177  -2.975  -0.730  0.00  0.00     0.034 A 
BRANCH  24  27
ATOM     27  O   UNL d   1      -0.268  -6.389  -1.558  0.00  0.00    -0.356 OA
ATOM     28  C   UNL d   1       0.684  -7.044  -2.385  0.00  0.00     0.210 C 
ENDBRANCH  24  27
ENDBRANCH   2  21
TORSDOF 6
