REMARK  5 active torsions:
REMARK  status: ('A' for Active; 'I' for Inactive)
REMARK    1  A    between atoms: C_3  and  C_1 
REMARK    2  A    between atoms: S_13  and  C_6 
REMARK    3  A    between atoms: C_16  and  S_13 
REMARK    4  A    between atoms: C_15  and  C_16 
REMARK    5  A    between atoms: C_18  and  C_15 
ROOT
ATOM      1  C   UNL d   1      -0.015   1.078  -0.029  0.00  0.00     0.153 A 
ATOM      2  N   UNL d   1       0.845   0.002  -0.031  0.00  0.00    -0.314 N 
ATOM      3  N   UNL d   1      -1.254   0.623   0.061  0.00  0.00    -0.281 N 
ATOM      4  HN  UNL d   1      -2.095   1.195   0.141  1.00  0.00     0.188 HD
ATOM      5  C   UNL d   1       0.043  -1.110  -0.053  0.00  0.00     0.163 A 
ATOM      6  N   UNL d   1      -1.217  -0.755   0.028  0.00  0.00    -0.278 N 
ATOM      7  HN  UNL d   1      -2.020  -1.383   0.060  1.00  0.00     0.189 HD
ATOM      8  C   UNL d   1       2.284   0.007   0.020  0.00  0.00     0.160 C 
ENDROOT
BRANCH   5   9
ATOM      9  S   UNL d   1       0.650  -2.732  -0.102  0.00  0.00    -0.085 SA
BRANCH   9  10
ATOM     10  C   UNL d   1      -0.298  -3.453  -1.482  0.00  0.00     0.166 C 
BRANCH  10  11
ATOM     11  C   UNL d   1       0.079  -2.868  -2.830  0.00  0.00     0.169 C 
ATOM     12  O   UNL d   1       0.872  -1.940  -2.961  0.00  0.00    -0.291 OA
BRANCH  11  13
ATOM     13  C   UNL d   1      -0.534  -3.447  -4.073  0.00  0.00     0.010 A 
ATOM     14  C   UNL d   1      -1.367  -4.567  -4.062  0.00  0.00     0.015 A 
ATOM     15  C   UNL d   1      -1.897  -5.065  -5.258  0.00  0.00     0.001 A 
ATOM     16  C   UNL d   1      -1.608  -4.443  -6.474  0.00  0.00     0.000 A 
ATOM     17  C   UNL d   1      -0.774  -3.331  -6.497  0.00  0.00     0.001 A 
ATOM     18  C   UNL d   1      -0.238  -2.836  -5.305  0.00  0.00     0.015 A 
ENDBRANCH  11  13
ENDBRANCH  10  11
ENDBRANCH   9  10
ENDBRANCH   5   9
BRANCH   1  19
ATOM     19  C   UNL d   1       0.324   2.533  -0.137  0.00  0.00     0.102 A 
ATOM     20  N   UNL d   1       1.568   2.985  -0.336  0.00  0.00    -0.257 N 
ATOM     21  O   UNL d   1       1.472   4.357  -0.420  0.00  0.00    -0.242 OA
ATOM     22  HN  UNL d   1       2.418   2.425  -0.411  1.00  0.00     0.195 HD
ATOM     23  C   UNL d   1       0.175   4.729  -0.271  0.00  0.00     0.074 A 
ATOM     24  C   UNL d   1      -0.596   3.607  -0.080  0.00  0.00     0.070 A 
ATOM     25  C   UNL d   1      -0.088   6.175  -0.359  0.00  0.00     0.079 C 
ENDBRANCH   1  19
TORSDOF 5
