REMARK  4 active torsions:
REMARK  status: ('A' for Active; 'I' for Inactive)
REMARK    1  A    between atoms: C_9  and  C_1 
REMARK    2  A    between atoms: C_13  and  C_4 
REMARK    3  A    between atoms: C_7  and  C_8 
REMARK       I    between atoms: C_8  and  N_12 
REMARK    4  A    between atoms: N_12  and  C_9 
ROOT
ATOM      1  C   UNL d   1       0.029  -1.303  -0.072  0.00  0.00     0.020 A 
ATOM      2  N   UNL d   1      -1.332   0.522  -0.155  0.00  0.00    -0.260 N 
ATOM      3  HN  UNL d   1      -2.155   1.123  -0.192  1.00  0.00     0.195 HD
ATOM      4  C   UNL d   1      -1.323  -0.821  -0.086  0.00  0.00     0.075 A 
ATOM      5  O   UNL d   1      -0.020   0.929  -0.166  0.00  0.00    -0.242 OA
ATOM      6  C   UNL d   1       0.793  -0.152  -0.101  0.00  0.00     0.082 A 
ATOM      7  C   UNL d   1       2.241   0.128  -0.053  0.00  0.00     0.079 C 
ENDROOT
BRANCH   1   8
ATOM      8  C   UNL d   1       0.525  -2.697   0.022  0.00  0.00     0.166 C 
BRANCH   8   9
ATOM      9  N   UNL d   1       0.643  -3.250  -1.307  0.00  0.00    -0.356 N 
ATOM     10  C   UNL d   1       0.950  -4.575  -1.484  0.00  0.00     0.222 C 
ATOM     11  O   UNL d   1       1.097  -5.373  -0.566  0.00  0.00    -0.273 OA
ATOM     12  H   UNL d   1       0.586  -2.637  -2.109  0.00  0.00     0.162 HD
BRANCH  10  13
ATOM     13  C   UNL d   1       1.135  -4.978  -2.906  0.00  0.00     0.078 A 
ATOM     14  C   UNL d   1       1.197  -6.432  -3.314  0.00  0.00     0.015 A 
ATOM     15  C   UNL d   1       2.448  -5.602  -3.316  0.00  0.00     0.015 A 
ENDBRANCH  10  13
ENDBRANCH   8   9
ENDBRANCH   1   8
BRANCH   4  16
ATOM     16  C   UNL d   1      -2.584  -1.564  -0.001  0.00  0.00    -0.007 A 
ATOM     17  C   UNL d   1      -2.733  -2.838  -0.564  0.00  0.00     0.014 A 
ATOM     18  C   UNL d   1      -3.929  -3.549  -0.427  0.00  0.00     0.001 A 
ATOM     19  C   UNL d   1      -5.001  -2.984   0.256  0.00  0.00     0.000 A 
ATOM     20  C   UNL d   1      -4.882  -1.707   0.798  0.00  0.00     0.001 A 
ATOM     21  C   UNL d   1      -3.683  -1.002   0.670  0.00  0.00     0.014 A 
ENDBRANCH   4  16
TORSDOF 4
