REMARK  3 active torsions:
REMARK  status: ('A' for Active; 'I' for Inactive)
REMARK    1  A    between atoms: N_2  and  C_1 
REMARK    2  A    between atoms: N_3  and  C_1 
REMARK    3  A    between atoms: C_6  and  N_3 
ROOT
ATOM      1  C   UNL d   1       0.761  -0.221   0.120  0.00  0.00     0.170 C 
ATOM      2  S   UNL d   1       0.064  -0.172   1.653  0.00  0.00    -0.041 SA
ENDROOT
BRANCH   1   3
ATOM      3  N   UNL d   1       2.007  -0.793  -0.157  0.00  0.00    -0.354 N 
ATOM      4  C   UNL d   1       2.622  -0.869  -1.496  0.00  0.00     0.151 C 
ATOM      5  C   UNL d   1       2.797  -2.329  -1.935  0.00  0.00     0.187 C 
ATOM      6  O   UNL d   1       3.558  -3.071  -0.971  0.00  0.00    -0.388 OA
ATOM      7  C   UNL d   1       2.906  -3.049   0.309  0.00  0.00     0.187 C 
ATOM      8  C   UNL d   1       2.753  -1.609   0.824  0.00  0.00     0.151 C 
ENDBRANCH   1   3
BRANCH   1   9
ATOM      9  N   UNL d   1       0.114   0.280  -0.998  0.00  0.00    -0.362 N 
ATOM     10  H   UNL d   1       0.706   0.854  -1.579  0.00  0.00     0.162 HD
BRANCH   9  11
ATOM     11  C   UNL d   1      -1.327   0.525  -1.139  0.00  0.00     0.083 C 
ATOM     12  C   UNL d   1      -2.105  -0.808  -1.140  0.00  0.00     0.025 C 
ATOM     13  C   UNL d   1      -1.836  -1.632  -2.398  0.00  0.00     0.002 C 
ATOM     14  C   UNL d   1      -2.185  -0.840  -3.651  0.00  0.00     0.000 C 
ATOM     15  C   UNL d   1      -1.432   0.485  -3.701  0.00  0.00     0.002 C 
ATOM     16  C   UNL d   1      -1.631   1.309  -2.428  0.00  0.00     0.025 C 
ENDBRANCH   9  11
ENDBRANCH   1   9
TORSDOF 3
