REMARK  7 active torsions:
REMARK  status: ('A' for Active; 'I' for Inactive)
REMARK    1  A    between atoms: N_5  and  C_1 
REMARK    2  A    between atoms: N_7  and  C_1 
REMARK    3  A    between atoms: N_2  and  N_7 
REMARK    4  A    between atoms: O_16  and  C_4 
REMARK    5  A    between atoms: C_12  and  N_5 
REMARK    6  A    between atoms: O_21  and  C_8 
REMARK    7  A    between atoms: C_13  and  C_11 
ROOT
ATOM      1  N   UNL d   1       3.232   1.135  -0.528  0.00  0.00    -0.309 N 
ATOM      2  HN  UNL d   1       2.761   2.026  -0.689  1.00  0.00     0.186 HD
ATOM      3  C   UNL d   1       4.478   0.919  -0.823  0.00  0.00     0.118 C 
ENDROOT
BRANCH   1   4
ATOM      4  N   UNL d   1       2.617   0.049   0.020  0.00  0.00    -0.276 N 
ATOM      5  H   UNL d   1       3.102  -0.847   0.064  0.00  0.00     0.189 HD
BRANCH   4   6
ATOM      6  C   UNL d   1       1.351   0.075   0.553  0.00  0.00     0.191 C 
ATOM      7  S   UNL d   1       0.748  -1.375   1.135  0.00  0.00    -0.039 SA
BRANCH   6   8
ATOM      8  N   UNL d   1       0.729   1.304   0.500  0.00  0.00    -0.332 N 
ATOM      9  H   UNL d   1       1.069   1.876  -0.267  0.00  0.00     0.168 HD
BRANCH   8  10
ATOM     10  C   UNL d   1      -0.406   1.733   1.215  0.00  0.00     0.034 A 
ATOM     11  C   UNL d   1      -0.642   1.317   2.532  0.00  0.00     0.032 A 
ATOM     12  C   UNL d   1      -1.776   1.745   3.221  0.00  0.00     0.044 A 
ATOM     13  C   UNL d   1      -2.673   2.596   2.592  0.00  0.00     0.116 A 
ATOM     14  C   UNL d   1      -2.438   3.051   1.299  0.00  0.00     0.044 A 
ATOM     15  F   UNL d   1      -3.775   2.989   3.244  0.00  0.00    -0.206 F 
ATOM     16  C   UNL d   1      -1.289   2.637   0.614  0.00  0.00     0.032 A 
ENDBRANCH   8  10
ENDBRANCH   6   8
ENDBRANCH   4   6
ENDBRANCH   1   4
BRANCH   3  17
ATOM     17  C   UNL d   1       5.328   1.917  -1.497  0.00  0.00    -0.017 A 
ATOM     18  C   UNL d   1       4.830   3.182  -1.822  0.00  0.00     0.052 A 
ATOM     19  C   UNL d   1       5.613   4.090  -2.551  0.00  0.00     0.102 A 
ATOM     20  C   UNL d   1       6.918   3.715  -2.925  0.00  0.00     0.101 A 
ATOM     21  C   UNL d   1       7.405   2.445  -2.581  0.00  0.00     0.040 A 
ATOM     22  C   UNL d   1       6.620   1.547  -1.864  0.00  0.00     0.016 A 
BRANCH  19  23
ATOM     23  O   UNL d   1       5.153   5.314  -2.956  0.00  0.00    -0.353 OA
ATOM     24  C   UNL d   1       3.824   5.681  -2.606  0.00  0.00     0.210 C 
ENDBRANCH  19  23
BRANCH  20  25
ATOM     25  O   UNL d   1       7.818   4.436  -3.667  0.00  0.00    -0.353 OA
ATOM     26  C   UNL d   1       7.724   5.853  -3.614  0.00  0.00     0.210 C 
ENDBRANCH  20  25
ENDBRANCH   3  17
TORSDOF 7
