REMARK  6 active torsions:
REMARK  status: ('A' for Active; 'I' for Inactive)
REMARK    1  A    between atoms: N_5  and  S_1 
REMARK    2  A    between atoms: C_2  and  N_4 
REMARK    3  A    between atoms: N_7  and  C_2 
REMARK    4  A    between atoms: N_4  and  C_3 
REMARK    5  A    between atoms: C_11  and  N_5 
REMARK    6  A    between atoms: C_14  and  N_7 
ROOT
ATOM      1  C   UNL d   1      -0.026  -4.961   0.867  0.00  0.00     0.042 C 
ATOM      2  C   UNL d   1      -0.096  -3.665   1.392  0.00  0.00     0.054 C 
ATOM      3  C   UNL d   1       0.727  -2.657   0.902  0.00  0.00     0.024 C 
ATOM      4  C   UNL d   1       0.762  -5.201  -0.273  0.00  0.00    -0.035 C 
ATOM      5  C   UNL d   1       1.628  -4.187  -0.720  0.00  0.00     0.011 C 
ATOM      6  C   UNL d   1       1.627  -2.928  -0.120  0.00  0.00     0.025 C 
ATOM      7  C   UNL d   1       0.681  -6.473  -1.069  0.00  0.00     0.050 C 
ENDROOT
BRANCH   1   8
ATOM      8  N   UNL d   1      -0.778  -6.000   1.467  0.00  0.00    -0.333 N 
ATOM      9  H   UNL d   1      -0.878  -6.855   0.934  0.00  0.00     0.168 HD
BRANCH   8  10
ATOM     10  C   UNL d   1      -0.959  -6.193   2.817  0.00  0.00     0.176 C 
ATOM     11  S   UNL d   1       0.009  -5.604   4.059  0.00  0.00    -0.041 SA
BRANCH  10  12
ATOM     12  N   UNL d   1      -1.956  -7.041   3.205  0.00  0.00    -0.333 N 
ATOM     13  H   UNL d   1      -1.885  -7.273   4.192  0.00  0.00     0.168 HD
BRANCH  12  14
ATOM     14  C   UNL d   1      -3.087  -7.548   2.542  0.00  0.00     0.034 A 
ATOM     15  C   UNL d   1      -3.541  -7.108   1.297  0.00  0.00     0.032 A 
ATOM     16  C   UNL d   1      -4.684  -7.671   0.724  0.00  0.00     0.044 A 
ATOM     17  C   UNL d   1      -5.385  -8.659   1.405  0.00  0.00     0.116 A 
ATOM     18  C   UNL d   1      -4.967  -9.087   2.658  0.00  0.00     0.044 A 
ATOM     19  F   UNL d   1      -6.480  -9.192   0.854  0.00  0.00    -0.206 F 
ATOM     20  C   UNL d   1      -3.825  -8.528   3.228  0.00  0.00     0.032 A 
ENDBRANCH  12  14
ENDBRANCH  10  12
ENDBRANCH   8  10
ENDBRANCH   1   8
BRANCH   3  21
ATOM     21  N   UNL d   1       0.559  -1.320   1.367  0.00  0.00    -0.186 NA
ATOM     22  H   UNL d   1       0.278  -1.240   2.348  0.00  0.00     0.145 HD
BRANCH  21  23
ATOM     23  S   UNL d   1      -0.458  -0.325   0.438  0.00  0.00     0.210 S 
ATOM     24  O   UNL d   1      -1.002   0.641   1.365  0.00  0.00    -0.211 OA
ATOM     25  O   UNL d   1      -1.319  -1.125  -0.405  0.00  0.00    -0.211 OA
ATOM     26  C   UNL d   1       0.733   0.519  -0.581  0.00  0.00     0.180 C 
ENDBRANCH  21  23
ENDBRANCH   3  21
TORSDOF 6
