REMARK  5 active torsions:
REMARK  status: ('A' for Active; 'I' for Inactive)
REMARK    1  A    between atoms: S_14  and  C_3 
REMARK    2  A    between atoms: C_4  and  C_5 
REMARK       I    between atoms: N_6  and  C_9 
REMARK    3  A    between atoms: C_7  and  N_6 
REMARK    4  A    between atoms: C_9  and  C_21 
REMARK    5  A    between atoms: C_21  and  S_14 
ROOT
ATOM      1  S   UNL d   1      -0.288   2.819   1.171  0.00  0.00    -0.085 SA
ENDROOT
BRANCH   1   2
ATOM      2  C   UNL d   1      -0.639   3.413   2.804  0.00  0.00     0.145 A 
ATOM      3  N   UNL d   1      -1.841   3.952   3.071  0.00  0.00    -0.335 N 
ATOM      4  C   UNL d   1      -2.080   4.250   4.372  0.00  0.00     0.069 A 
ATOM      5  HN  UNL d   1      -2.531   4.127   2.340  1.00  0.00     0.168 HD
ATOM      6  C   UNL d   1      -1.157   4.043   5.378  0.00  0.00     0.049 A 
ATOM      7  C   UNL d   1       0.041   3.507   4.989  0.00  0.00     0.092 A 
ATOM      8  N   UNL d   1       0.318   3.179   3.718  0.00  0.00    -0.347 N 
ATOM      9  HN  UNL d   1       1.214   2.769   3.456  1.00  0.00     0.167 HD
BRANCH   4  10
ATOM     10  C   UNL d   1      -3.404   4.790   4.652  0.00  0.00     0.101 A 
ATOM     11  O   UNL d   1      -3.709   5.010   5.968  0.00  0.00    -0.321 OA
ATOM     12  C   UNL d   1      -4.974   5.498   6.019  0.00  0.00     0.142 A 
ATOM     13  C   UNL d   1      -5.496   5.604   4.753  0.00  0.00     0.027 A 
ATOM     14  C   UNL d   1      -4.490   5.140   3.871  0.00  0.00     0.041 A 
ENDBRANCH   4  10
ENDBRANCH   1   2
BRANCH   1  15
ATOM     15  C   UNL d   1      -1.554   3.673   0.203  0.00  0.00     0.185 C 
BRANCH  15  16
ATOM     16  C   UNL d   1      -1.190   5.128  -0.040  0.00  0.00     0.232 C 
ATOM     17  N   UNL d   1      -2.184   6.015   0.338  0.00  0.00    -0.324 N 
ATOM     18  H   UNL d   1      -2.850   5.699   1.037  0.00  0.00     0.169 HD
ATOM     19  O   UNL d   1      -0.128   5.449  -0.568  0.00  0.00    -0.272 OA
BRANCH  17  20
ATOM     20  C   UNL d   1      -2.236   7.390   0.020  0.00  0.00     0.073 A 
ATOM     21  C   UNL d   1      -3.119   8.198   0.750  0.00  0.00     0.145 A 
ATOM     22  C   UNL d   1      -3.221   9.565   0.516  0.00  0.00     0.086 A 
ATOM     23  F   UNL d   1      -3.877   7.646   1.711  0.00  0.00    -0.204 F 
ATOM     24  C   UNL d   1      -2.446  10.130  -0.486  0.00  0.00     0.119 A 
ATOM     25  C   UNL d   1      -1.587   9.349  -1.253  0.00  0.00     0.044 A 
ATOM     26  F   UNL d   1      -2.529  11.445  -0.724  0.00  0.00    -0.206 F 
ATOM     27  C   UNL d   1      -1.482   7.977  -1.000  0.00  0.00     0.036 A 
ENDBRANCH  17  20
ENDBRANCH  15  16
ENDBRANCH   1  15
TORSDOF 5
