REMARK  12 active torsions:
REMARK  status: ('A' for Active; 'I' for Inactive)
REMARK    1  A    between atoms: C_13  and  N_1 
REMARK    2  A    between atoms: C_8  and  C_2 
REMARK    3  A    between atoms: S_20  and  C_5 
REMARK    4  A    between atoms: C_11  and  C_26 
REMARK    5  A    between atoms: C_12  and  C_27 
REMARK    6  A    between atoms: C_16  and  C_13 
REMARK    7  A    between atoms: O_25  and  C_14 
REMARK    8  A    between atoms: O_24  and  C_15 
REMARK    9  A    between atoms: C_36  and  S_20 
REMARK   10  A    between atoms: C_26  and  O_24 
REMARK   11  A    between atoms: C_27  and  O_25 
REMARK   12  A    between atoms: C_34  and  C_36 
ROOT
ATOM      1  C   UNL d   1       2.346  -1.143  -0.137  0.00  0.00     0.018 A 
ATOM      2  N   UNL d   1       4.928  -2.194  -0.077  0.00  0.00    -0.318 N 
ATOM      3  HN  UNL d   1       5.864  -2.596  -0.026  1.00  0.00     0.170 HD
ATOM      4  C   UNL d   1       3.934  -2.844  -0.706  0.00  0.00     0.145 A 
ATOM      5  C   UNL d   1       4.659  -1.002   0.485  0.00  0.00     0.145 A 
ATOM      6  C   UNL d   1       2.646  -2.341  -0.782  0.00  0.00     0.071 A 
ATOM      7  C   UNL d   1       3.390  -0.449   0.491  0.00  0.00     0.071 A 
ENDROOT
BRANCH   1   8
ATOM      8  C   UNL d   1       0.993  -0.569  -0.095  0.00  0.00     0.135 A 
ATOM      9  N   UNL d   1      -0.232  -1.215   0.026  0.00  0.00    -0.305 N 
ATOM     10  C   UNL d   1      -1.175  -0.215  -0.014  0.00  0.00     0.163 A 
ATOM     11  N   UNL d   1      -0.586   0.953  -0.072  0.00  0.00    -0.278 N 
ATOM     12  N   UNL d   1       0.764   0.735  -0.102  0.00  0.00    -0.283 N 
ATOM     13  HN  UNL d   1      -1.050   1.862  -0.090  1.00  0.00     0.189 HD
ATOM     14  HN  UNL d   1       1.480   1.461  -0.127  1.00  0.00     0.188 HD
BRANCH   9  15
ATOM     15  C   UNL d   1      -0.512  -2.641   0.069  0.00  0.00     0.198 C 
BRANCH  15  16
ATOM     16  C   UNL d   1       0.126  -3.383   1.186  0.00  0.00     0.070 A 
ATOM     17  O   UNL d   1      -0.068  -4.736   1.140  0.00  0.00    -0.325 OA
ATOM     18  C   UNL d   1       0.590  -5.277   2.195  0.00  0.00     0.142 A 
ATOM     19  C   UNL d   1       1.206  -4.294   2.926  0.00  0.00     0.027 A 
ATOM     20  C   UNL d   1       0.890  -3.067   2.292  0.00  0.00     0.036 A 
ENDBRANCH  15  16
ENDBRANCH   9  15
BRANCH  10  21
ATOM     21  S   UNL d   1      -2.885  -0.478  -0.002  0.00  0.00    -0.089 SA
BRANCH  21  22
ATOM     22  C   UNL d   1      -3.482   1.079  -0.719  0.00  0.00     0.108 C 
BRANCH  22  23
ATOM     23  C   UNL d   1      -4.984   1.046  -0.763  0.00  0.00    -0.026 C 
ATOM     24  C   UNL d   1      -5.717   1.095  -1.884  0.00  0.00     0.007 C 
ENDBRANCH  22  23
ENDBRANCH  21  22
ENDBRANCH  10  21
ENDBRANCH   1   8
BRANCH   4  25
ATOM     25  O   UNL d   1       4.329  -4.057  -1.193  0.00  0.00    -0.327 OA
BRANCH  25  26
ATOM     26  C   UNL d   1       3.607  -4.611  -2.295  0.00  0.00     0.294 C 
BRANCH  26  27
ATOM     27  C   UNL d   1       2.395  -5.450  -1.898  0.00  0.00     0.408 C 
ATOM     28  F   UNL d   1       2.253  -5.563  -0.563  0.00  0.00    -0.169 F 
ATOM     29  F   UNL d   1       1.258  -4.883  -2.375  0.00  0.00    -0.169 F 
ATOM     30  F   UNL d   1       2.466  -6.698  -2.412  0.00  0.00    -0.169 F 
ENDBRANCH  26  27
ENDBRANCH  25  26
ENDBRANCH   4  25
BRANCH   5  31
ATOM     31  O   UNL d   1       5.740  -0.442   1.102  0.00  0.00    -0.327 OA
BRANCH  31  32
ATOM     32  C   UNL d   1       5.838   0.983   0.999  0.00  0.00     0.294 C 
BRANCH  32  33
ATOM     33  C   UNL d   1       7.289   1.451   1.091  0.00  0.00     0.408 C 
ATOM     34  F   UNL d   1       8.181   0.439   1.065  0.00  0.00    -0.169 F 
ATOM     35  F   UNL d   1       7.588   2.278   0.059  0.00  0.00    -0.169 F 
ATOM     36  F   UNL d   1       7.499   2.150   2.232  0.00  0.00    -0.169 F 
ENDBRANCH  32  33
ENDBRANCH  31  32
ENDBRANCH   5  31
TORSDOF 12
