REMARK  8 active torsions:
REMARK  status: ('A' for Active; 'I' for Inactive)
REMARK       I    between atoms: N_2  and  C_1 
REMARK       I    between atoms: N_3  and  C_1 
REMARK    1  A    between atoms: C_9  and  N_2 
REMARK    2  A    between atoms: C_8  and  N_3 
REMARK    3  A    between atoms: O_5  and  C_10 
REMARK    4  A    between atoms: C_7  and  O_5 
REMARK    5  A    between atoms: C_6  and  C_8 
REMARK    6  A    between atoms: C_10  and  C_6 
REMARK    7  A    between atoms: O_16  and  C_6 
REMARK    8  A    between atoms: O_17  and  C_11 
ROOT
ATOM      1  C   UNL d   1      -1.753   1.349   2.346  0.00  0.00     0.160 C 
ENDROOT
BRANCH   1   2
ATOM      2  C   UNL d   1      -1.247   0.631   1.093  0.00  0.00     0.158 C 
BRANCH   2   3
ATOM      3  N   UNL d   1      -1.785  -0.715   1.025  0.00  0.00    -0.340 N 
ATOM      4  C   UNL d   1      -1.154  -1.713   0.321  0.00  0.00     0.320 C 
ATOM      5  N   UNL d   1      -1.905  -2.865   0.293  0.00  0.00    -0.309 N 
ATOM      6  O   UNL d   1      -0.062  -1.533  -0.202  0.00  0.00    -0.247 OA
ATOM      7  H   UNL d   1      -2.876  -2.769   0.542  0.00  0.00     0.170 HD
ATOM      8  H   UNL d   1      -2.695  -0.867   1.437  0.00  0.00     0.164 HD
BRANCH   5   9
ATOM      9  C   UNL d   1      -1.517  -4.102  -0.261  0.00  0.00     0.036 A 
ATOM     10  C   UNL d   1      -0.194  -4.416  -0.580  0.00  0.00     0.029 A 
ATOM     11  C   UNL d   1       0.127  -5.652  -1.147  0.00  0.00     0.002 A 
ATOM     12  C   UNL d   1      -0.873  -6.588  -1.394  0.00  0.00     0.000 A 
ATOM     13  C   UNL d   1      -2.193  -6.295  -1.056  0.00  0.00     0.002 A 
ATOM     14  C   UNL d   1      -2.513  -5.061  -0.481  0.00  0.00     0.029 A 
ENDBRANCH   5   9
ENDBRANCH   2   3
ENDBRANCH   1   2
BRANCH   1  15
ATOM     15  C   UNL d   1      -1.215   2.785   2.402  0.00  0.00     0.209 C 
BRANCH  15  16
ATOM     16  O   UNL d   1      -1.652   3.397   3.619  0.00  0.00    -0.349 OA
BRANCH  16  17
ATOM     17  C   UNL d   1      -1.315   4.710   3.803  0.00  0.00     0.069 A 
ATOM     18  C   UNL d   1      -0.495   5.469   2.970  0.00  0.00     0.039 A 
ATOM     19  C   UNL d   1      -0.227   6.811   3.269  0.00  0.00     0.039 A 
ATOM     20  C   UNL d   1      -0.773   7.406   4.406  0.00  0.00     0.068 A 
ATOM     21  C   UNL d   1      -1.589   6.643   5.242  0.00  0.00     0.039 A 
ATOM     22  C   UNL d   1      -1.859   5.304   4.943  0.00  0.00     0.039 A 
BRANCH  20  23
ATOM     23  O   UNL d   1      -0.583   8.700   4.803  0.00  0.00    -0.356 OA
ATOM     24  C   UNL d   1       0.226   9.514   3.963  0.00  0.00     0.210 C 
ENDBRANCH  20  23
ENDBRANCH  16  17
ENDBRANCH  15  16
ENDBRANCH   1  15
BRANCH   1  25
ATOM     25  O   UNL d   1      -3.193   1.323   2.328  0.00  0.00    -0.392 OA
ATOM     26  H   UNL d   1      -3.498   2.006   1.706  0.00  0.00     0.210 HD
ENDBRANCH   1  25
TORSDOF 8
