REMARK  5 active torsions:
REMARK  status: ('A' for Active; 'I' for Inactive)
REMARK    1  A    between atoms: S_6  and  C_1 
REMARK    2  A    between atoms: C_4  and  S_6 
REMARK    3  A    between atoms: C_22  and  N_5 
REMARK    4  A    between atoms: C_21  and  C_8 
REMARK    5  A    between atoms: C_23  and  C_22 
ROOT
ATOM      1  C   UNL d   1       2.053   3.813  -0.033  0.00  0.00     0.169 A 
ATOM      2  N   UNL d   1       2.770   3.442  -1.146  0.00  0.00    -0.307 N 
ATOM      3  C   UNL d   1       4.061   3.906  -0.932  0.00  0.00     0.135 A 
ATOM      4  N   UNL d   1       4.072   4.546   0.228  0.00  0.00    -0.283 N 
ATOM      5  HN  UNL d   1       4.884   5.002   0.644  1.00  0.00     0.188 HD
ATOM      6  N   UNL d   1       2.817   4.497   0.782  0.00  0.00    -0.278 N 
ATOM      7  HN  UNL d   1       2.531   4.916   1.667  1.00  0.00     0.189 HD
ENDROOT
BRANCH   1   8
ATOM      8  S   UNL d   1       0.448   3.276   0.344  0.00  0.00    -0.031 SA
BRANCH   8   9
ATOM      9  C   UNL d   1      -0.437   4.714  -0.070  0.00  0.00     0.127 A 
ATOM     10  N   UNL d   1      -0.979   4.837  -1.365  0.00  0.00    -0.078 N 
ATOM     11  C   UNL d   1      -1.774   5.946  -1.724  0.00  0.00     0.705 A 
ATOM     12  N   UNL d   1      -0.883   4.005  -2.441  0.00  0.00    -0.274 N 
ATOM     13  N   UNL d   1      -2.154   5.818  -2.974  0.00  0.00    -0.185 N 
ATOM     14  N   UNL d   1      -2.072   6.938  -0.837  0.00  0.00    -0.193 N 
ATOM     15  C   UNL d   1      -1.607   4.640  -3.361  0.00  0.00     0.215 A 
ATOM     16  HN  UNL d   1      -2.727   6.456  -3.526  1.00  0.00     0.185 HD
ATOM     17  C   UNL d   1      -1.578   6.790   0.349  0.00  0.00     0.035 A 
ATOM     18  HN  UNL d   1      -2.646   7.742  -1.091  1.00  0.00     0.184 HD
ATOM     19  C   UNL d   1      -0.715   5.677   0.823  0.00  0.00     0.002 A 
ATOM     20  C   UNL d   1      -1.850   7.766   1.446  0.00  0.00     0.058 A 
ATOM     21  C   UNL d   1      -0.391   5.896   2.256  0.00  0.00     0.044 A 
ATOM     22  C   UNL d   1      -1.176   7.149   2.671  0.00  0.00     0.011 A 
ATOM     23  HN  UNL d   1      -0.382   3.120  -2.522  1.00  0.00     0.189 HD
ENDBRANCH   8   9
ENDBRANCH   1   8
BRANCH   2  24
ATOM     24  C   UNL d   1       2.253   2.772  -2.326  0.00  0.00     0.159 C 
BRANCH  24  25
ATOM     25  C   UNL d   1       2.725   1.361  -2.505  0.00  0.00    -0.017 C 
ATOM     26  C   UNL d   1       1.897   0.352  -2.808  0.00  0.00     0.008 C 
ENDBRANCH  24  25
ENDBRANCH   2  24
BRANCH   3  27
ATOM     27  C   UNL d   1       5.259   3.657  -1.749  0.00  0.00     0.009 A 
ATOM     28  C   UNL d   1       5.270   3.735  -3.148  0.00  0.00     0.015 A 
ATOM     29  C   UNL d   1       6.422   3.421  -3.878  0.00  0.00     0.001 A 
ATOM     30  C   UNL d   1       7.595   3.066  -3.219  0.00  0.00     0.000 A 
ATOM     31  C   UNL d   1       7.622   3.038  -1.828  0.00  0.00     0.001 A 
ATOM     32  C   UNL d   1       6.463   3.331  -1.101  0.00  0.00     0.015 A 
ENDBRANCH   3  27
TORSDOF 5
