REMARK  0 active torsions:
REMARK  status: ('A' for Active; 'I' for Inactive)
ROOT
ATOM      1  C   UNL d   1      -0.024   0.732  -0.030  0.00  0.00     0.050 A 
ATOM      2  C   UNL d   1      -0.012  -0.659   0.008  0.00  0.00     0.089 A 
ATOM      3  C   UNL d   1      -1.232   1.430   0.009  0.00  0.00     0.042 A 
ATOM      4  C   UNL d   1       1.259   1.452  -0.091  0.00  0.00     0.186 A 
ATOM      5  C   UNL d   1      -2.437   0.726   0.105  0.00  0.00     0.041 A 
ATOM      6  C   UNL d   1      -1.213  -1.362   0.094  0.00  0.00     0.046 A 
ATOM      7  C   UNL d   1       2.474   0.620  -0.070  0.00  0.00     0.080 A 
ATOM      8  C   UNL d   1      -2.442  -0.679   0.162  0.00  0.00    -0.038 A 
ATOM      9  O   UNL d   1       1.147  -1.396  -0.024  0.00  0.00    -0.322 OA
ATOM     10  C   UNL d   1       2.337  -0.709  -0.039  0.00  0.00     0.146 A 
ATOM     11  O   UNL d   1       1.327   2.672  -0.146  0.00  0.00    -0.287 OA
ATOM     12 CL   UNL d   1      -3.892   1.654   0.158  0.00  0.00    -0.084 Cl
ATOM     13  C   UNL d   1      -3.692  -1.506   0.287  0.00  0.00     0.050 C 
ENDROOT
TORSDOF 0
