REMARK  5 active torsions:
REMARK  status: ('A' for Active; 'I' for Inactive)
REMARK    1  A    between atoms: C_17  and  N_3 
REMARK    2  A    between atoms: C_14  and  N_4 
REMARK    3  A    between atoms: S_20  and  C_10 
REMARK    4  A    between atoms: C_18  and  C_13 
REMARK    5  A    between atoms: C_15  and  C_14 
ROOT
ATOM      1  C   UNL d   1      -0.055  -1.325   0.197  0.00  0.00     0.158 A 
ATOM      2  C   UNL d   1      -0.386  -2.716   0.180  0.00  0.00     0.099 C 
ATOM      3  N   UNL d   1       1.053  -0.719   0.806  0.00  0.00    -0.274 N 
ATOM      4  N   UNL d   1      -1.008  -3.406  -0.836  0.00  0.00    -0.284 N 
ATOM      5  N   UNL d   1      -0.859  -0.403  -0.283  0.00  0.00    -0.281 N 
ATOM      6  HN  UNL d   1      -1.732  -0.574  -0.783  1.00  0.00     0.188 HD
ATOM      7  N   UNL d   1      -1.006  -4.747  -0.621  0.00  0.00    -0.301 N 
ATOM      8  HN  UNL d   1      -1.322  -5.478  -1.258  1.00  0.00     0.187 HD
ATOM      9  C   UNL d   1      -0.178  -3.652   1.169  0.00  0.00     0.062 C 
ATOM     10  C   UNL d   1       0.806   0.636   0.634  0.00  0.00     0.165 A 
ATOM     11  N   UNL d   1      -0.329   0.823   0.001  0.00  0.00    -0.278 N 
ATOM     12  HN  UNL d   1      -0.742   1.725  -0.238  1.00  0.00     0.189 HD
ATOM     13  C   UNL d   1      -0.501  -4.900   0.609  0.00  0.00     0.036 C 
ENDROOT
BRANCH   4  14
ATOM     14  C   UNL d   1      -1.639  -2.894  -2.055  0.00  0.00     0.189 C 
BRANCH  14  15
ATOM     15  C   UNL d   1      -0.688  -2.910  -3.230  0.00  0.00    -0.017 A 
ATOM     16  C   UNL d   1      -0.543  -4.023  -4.079  0.00  0.00     0.043 A 
ATOM     17  C   UNL d   1       0.427  -4.031  -5.087  0.00  0.00     0.048 A 
ATOM     18 CL   UNL d   1      -1.558  -5.416  -3.958  0.00  0.00    -0.084 Cl
ATOM     19  C   UNL d   1       1.245  -2.921  -5.270  0.00  0.00     0.035 A 
ATOM     20  C   UNL d   1       1.081  -1.788  -4.480  0.00  0.00     0.024 A 
ATOM     21 CL   UNL d   1       2.471  -2.951  -6.476  0.00  0.00    -0.084 Cl
ATOM     22  C   UNL d   1       0.118  -1.780  -3.470  0.00  0.00     0.012 A 
ENDBRANCH  14  15
ENDBRANCH   4  14
BRANCH   3  23
ATOM     23  C   UNL d   1       2.184  -1.347   1.414  0.00  0.00     0.043 A 
ATOM     24  C   UNL d   1       2.725  -2.520   0.866  0.00  0.00     0.030 A 
ATOM     25  C   UNL d   1       3.837  -3.130   1.457  0.00  0.00     0.002 A 
ATOM     26  C   UNL d   1       4.431  -2.563   2.581  0.00  0.00     0.000 A 
ATOM     27  C   UNL d   1       3.901  -1.400   3.134  0.00  0.00     0.002 A 
ATOM     28  C   UNL d   1       2.772  -0.801   2.566  0.00  0.00     0.030 A 
ENDBRANCH   3  23
BRANCH  13  29
ATOM     29  C   UNL d   1      -0.265  -6.275   1.211  0.00  0.00    -0.007 C 
ATOM     30  C   UNL d   1      -0.235  -6.198   2.755  0.00  0.00     0.021 C 
ATOM     31  C   UNL d   1      -1.371  -7.268   0.809  0.00  0.00     0.021 C 
ATOM     32  C   UNL d   1       1.098  -6.819   0.735  0.00  0.00     0.021 C 
ENDBRANCH  13  29
BRANCH  10  33
ATOM     33  S   UNL d   1       1.904   1.941   0.966  0.00  0.00    -0.105 SA
ATOM     34  H   UNL d   1       3.055   1.256   1.009  0.00  0.00     0.110 HD
ENDBRANCH  10  33
TORSDOF 5
