REMARK  5 active torsions:
REMARK  status: ('A' for Active; 'I' for Inactive)
REMARK    1  A    between atoms: C_2  and  S_1 
REMARK    2  A    between atoms: N_8  and  S_1 
REMARK    3  A    between atoms: S_3  and  C_9 
REMARK    4  A    between atoms: N_12  and  S_3 
REMARK    5  A    between atoms: C_10  and  N_8 
ROOT
ATOM      1  C   UNL d   1       0.050  -0.131  -4.914  0.00  0.00     0.081 A 
ATOM      2  C   UNL d   1       0.815  -0.576  -2.671  0.00  0.00     0.050 A 
ATOM      3  C   UNL d   1      -0.229  -0.501  -3.592  0.00  0.00     0.055 A 
ATOM      4  C   UNL d   1       2.137  -0.299  -3.066  0.00  0.00    -0.035 A 
ATOM      5  C   UNL d   1       1.356   0.152  -5.321  0.00  0.00     0.026 A 
ATOM      6  C   UNL d   1       2.392   0.082  -4.393  0.00  0.00     0.010 A 
ATOM      7  C   UNL d   1       3.300  -0.387  -2.114  0.00  0.00     0.050 C 
ENDROOT
BRANCH   2   8
ATOM      8  N   UNL d   1       0.547  -0.952  -1.322  0.00  0.00    -0.280 N 
ATOM      9  H   UNL d   1       0.041  -1.826  -1.183  0.00  0.00     0.179 HD
BRANCH   8  10
ATOM     10  S   UNL d   1       0.117   0.247  -0.217  0.00  0.00     0.265 S 
ATOM     11  O   UNL d   1       0.282  -0.294   1.113  0.00  0.00    -0.200 OA
ATOM     12  O   UNL d   1       0.697   1.516  -0.606  0.00  0.00    -0.200 OA
BRANCH  10  13
ATOM     13  C   UNL d   1      -1.589   0.516  -0.315  0.00  0.00     0.110 A 
ATOM     14  C   UNL d   1      -2.544  -0.450  -0.110  0.00  0.00     0.099 A 
ATOM     15  S   UNL d   1      -4.131   0.150  -0.231  0.00  0.00    -0.064 SA
ATOM     16 CL   UNL d   1      -2.333  -2.123   0.227  0.00  0.00    -0.075 Cl
ATOM     17  C   UNL d   1      -3.555   1.709  -0.552  0.00  0.00     0.077 A 
ATOM     18  C   UNL d   1      -2.187   1.793  -0.571  0.00  0.00     0.059 A 
ATOM     19 CL   UNL d   1      -4.665   2.990  -0.817  0.00  0.00    -0.076 Cl
ENDBRANCH  10  13
ENDBRANCH   8  10
ENDBRANCH   2   8
BRANCH   1  20
ATOM     20  S   UNL d   1      -1.254  -0.123  -6.127  0.00  0.00     0.260 S 
ATOM     21  O   UNL d   1      -0.635  -0.282  -7.427  0.00  0.00    -0.200 OA
ATOM     22  O   UNL d   1      -2.266  -1.047  -5.662  0.00  0.00    -0.200 OA
BRANCH  20  23
ATOM     23  N   UNL d   1      -1.877   1.454  -6.021  0.00  0.00    -0.315 N 
ATOM     24  C   UNL d   1      -2.691   1.772  -4.837  0.00  0.00     0.162 C 
ATOM     25  C   UNL d   1      -0.988   2.550  -6.441  0.00  0.00     0.162 C 
ENDBRANCH  20  23
ENDBRANCH   1  20
TORSDOF 5
