REMARK  3 active torsions:
REMARK  status: ('A' for Active; 'I' for Inactive)
REMARK    1  A    between atoms: C_9  and  N_4 
REMARK    2  A    between atoms: C_10  and  C_9 
REMARK    3  A    between atoms: N_12  and  C_11 
ROOT
ATOM      1  C   UNL d   1      -2.968  -1.407   2.275  0.00  0.00    -0.030 A 
ATOM      2  C   UNL d   1      -4.050  -3.804   3.308  0.00  0.00     0.005 A 
ATOM      3  C   UNL d   1      -2.832  -3.807   2.625  0.00  0.00     0.024 A 
ATOM      4  C   UNL d   1      -4.690  -2.583   3.525  0.00  0.00     0.024 A 
ATOM      5  C   UNL d   1      -2.304  -2.626   2.093  0.00  0.00     0.011 A 
ATOM      6  C   UNL d   1      -4.168  -1.398   2.998  0.00  0.00     0.011 A 
ENDROOT
BRANCH   1   7
ATOM      7  C   UNL d   1      -2.370  -0.115   1.768  0.00  0.00     0.311 C 
BRANCH   7   8
ATOM      8  N   UNL d   1      -2.213  -0.043   0.305  0.00  0.00     0.094 N 
ATOM      9  C   UNL d   1      -3.467  -0.159  -0.457  0.00  0.00     0.287 C 
ATOM     10  C   UNL d   1      -4.454   0.977  -0.257  0.00  0.00     0.170 C 
ATOM     11  S   UNL d   1      -3.711   2.534  -0.669  0.00  0.00     0.147 S 
ATOM     12  C   UNL d   1      -2.137   2.474   0.146  0.00  0.00     0.170 C 
ATOM     13  O   UNL d   1      -4.494   3.575  -0.032  0.00  0.00    -0.228 OA
ATOM     14  O   UNL d   1      -3.477   2.564  -2.100  0.00  0.00    -0.228 OA
ATOM     15  C   UNL d   1      -1.449   1.145  -0.112  0.00  0.00     0.287 C 
ENDBRANCH   7   8
ENDBRANCH   1   7
BRANCH   2  16
ATOM     16  N   UNL d   1      -4.495  -4.957   3.966  0.00  0.00    -0.303 NA
ATOM     17  H   UNL d   1      -5.489  -4.957   4.168  0.00  0.00     0.124 HD
ATOM     18  H   UNL d   1      -4.189  -5.821   3.530  0.00  0.00     0.124 HD
ENDBRANCH   2  16
TORSDOF 3
