REMARK  5 active torsions:
REMARK  status: ('A' for Active; 'I' for Inactive)
REMARK    1  A    between atoms: C_2  and  C_1 
REMARK       I    between atoms: N_6  and  C_1 
REMARK       I    between atoms: C_3  and  N_4 
REMARK    2  A    between atoms: C_9  and  C_3 
REMARK    3  A    between atoms: N_4  and  C_5 
REMARK    4  A    between atoms: C_11  and  N_6 
REMARK    5  A    between atoms: C_14  and  C_10 
ROOT
ATOM      1  C   UNL d   1       0.207  -1.169   0.589  0.00  0.00     0.059 A 
ATOM      2  C   UNL d   1       0.794  -1.675   1.769  0.00  0.00     0.050 A 
ATOM      3  C   UNL d   1      -1.007  -1.718   0.133  0.00  0.00     0.019 A 
ATOM      4  C   UNL d   1       0.097  -2.633   2.519  0.00  0.00     0.030 A 
ATOM      5  C   UNL d   1      -1.670  -2.695   0.878  0.00  0.00     0.001 A 
ATOM      6  C   UNL d   1      -1.129  -3.134   2.081  0.00  0.00     0.002 A 
ENDROOT
BRANCH   1   7
ATOM      7  C   UNL d   1       0.930  -0.158  -0.245  0.00  0.00     0.258 C 
ATOM      8  N   UNL d   1       0.146   0.609  -1.095  0.00  0.00    -0.323 N 
ATOM      9  H   UNL d   1      -0.847   0.650  -0.913  0.00  0.00     0.169 HD
ATOM     10  O   UNL d   1       2.142  -0.031  -0.103  0.00  0.00    -0.267 OA
BRANCH   8  11
ATOM     11  C   UNL d   1       0.618   1.386  -2.173  0.00  0.00     0.035 A 
ATOM     12  C   UNL d   1       1.921   1.287  -2.664  0.00  0.00     0.030 A 
ATOM     13  C   UNL d   1       2.314   2.017  -3.789  0.00  0.00     0.010 A 
ATOM     14  C   UNL d   1       1.417   2.864  -4.446  0.00  0.00    -0.055 A 
ATOM     15  C   UNL d   1       0.114   2.975  -3.942  0.00  0.00     0.010 A 
ATOM     16  C   UNL d   1      -0.282   2.237  -2.820  0.00  0.00     0.030 A 
BRANCH  14  17
ATOM     17  C   UNL d   1       1.830   3.618  -5.699  0.00  0.00     0.010 C 
ATOM     18  C   UNL d   1       3.015   4.553  -5.438  0.00  0.00     0.015 C 
ATOM     19  C   UNL d   1       2.151   2.643  -6.838  0.00  0.00     0.015 C 
ENDBRANCH  14  17
ENDBRANCH   8  11
ENDBRANCH   1   7
BRANCH   2  20
ATOM     20  N   UNL d   1       2.074  -1.229   2.191  0.00  0.00    -0.322 N 
ATOM     21  C   UNL d   1       3.013  -2.052   2.787  0.00  0.00     0.256 C 
ATOM     22  O   UNL d   1       2.878  -3.251   3.018  0.00  0.00    -0.267 OA
ATOM     23  H   UNL d   1       2.464  -0.449   1.655  0.00  0.00     0.169 HD
BRANCH  21  24
ATOM     24  C   UNL d   1       4.316  -1.418   3.099  0.00  0.00     0.032 A 
ATOM     25  C   UNL d   1       4.379  -0.157   3.700  0.00  0.00     0.017 A 
ATOM     26  C   UNL d   1       5.619   0.368   4.077  0.00  0.00     0.001 A 
ATOM     27  C   UNL d   1       6.788  -0.358   3.844  0.00  0.00     0.000 A 
ATOM     28  C   UNL d   1       6.726  -1.610   3.232  0.00  0.00     0.001 A 
ATOM     29  C   UNL d   1       5.490  -2.145   2.866  0.00  0.00     0.017 A 
ENDBRANCH  21  24
ENDBRANCH   2  20
TORSDOF 5
