REMARK  11 active torsions:
REMARK  status: ('A' for Active; 'I' for Inactive)
REMARK    1  A    between atoms: O_10  and  C_1 
REMARK    2  A    between atoms: C_2  and  N_4 
REMARK    3  A    between atoms: N_5  and  C_2 
REMARK    4  A    between atoms: C_3  and  C_20 
REMARK       I    between atoms: N_7  and  C_3 
REMARK    5  A    between atoms: N_4  and  N_7 
REMARK    6  A    between atoms: C_19  and  N_5 
REMARK       I    between atoms: C_6  and  N_9 
REMARK    7  A    between atoms: C_25  and  C_6 
REMARK    8  A    between atoms: N_9  and  C_17 
REMARK    9  A    between atoms: C_18  and  O_10 
REMARK   10  A    between atoms: S_16  and  C_25 
REMARK   11  A    between atoms: C_20  and  S_16 
ROOT
ATOM      1  S   UNL d   1       5.582  -7.318   3.395  0.00  0.00    -0.150 SA
ENDROOT
BRANCH   1   2
ATOM      2  C   UNL d   1       5.925  -7.108   1.612  0.00  0.00     0.177 C 
BRANCH   2   3
ATOM      3  C   UNL d   1       5.212  -5.869   1.080  0.00  0.00     0.231 C 
ATOM      4  N   UNL d   1       5.547  -4.713   1.764  0.00  0.00    -0.327 N 
ATOM      5  H   UNL d   1       6.226  -4.822   2.511  0.00  0.00     0.169 HD
ATOM      6  O   UNL d   1       4.478  -5.946   0.098  0.00  0.00    -0.272 OA
BRANCH   4   7
ATOM      7  C   UNL d   1       5.006  -3.424   1.598  0.00  0.00     0.034 A 
ATOM      8  C   UNL d   1       3.930  -3.128   0.759  0.00  0.00     0.032 A 
ATOM      9  C   UNL d   1       3.440  -1.818   0.655  0.00  0.00     0.039 A 
ATOM     10  C   UNL d   1       4.047  -0.783   1.362  0.00  0.00     0.078 A 
ATOM     11  C   UNL d   1       5.098  -1.085   2.231  0.00  0.00     0.039 A 
ATOM     12  C   UNL d   1       5.573  -2.393   2.351  0.00  0.00     0.032 A 
BRANCH  10  13
ATOM     13  O   UNL d   1       3.727   0.540   1.311  0.00  0.00    -0.255 OA
BRANCH  13  14
ATOM     14  C   UNL d   1       2.946   1.011   0.225  0.00  0.00     0.530 C 
ATOM     15  F   UNL d   1       3.219   0.376  -0.934  0.00  0.00    -0.144 F 
ATOM     16  F   UNL d   1       3.219   2.324   0.045  0.00  0.00    -0.144 F 
ATOM     17  F   UNL d   1       1.632   0.888   0.507  0.00  0.00    -0.144 F 
ENDBRANCH  13  14
ENDBRANCH  10  13
ENDBRANCH   4   7
ENDBRANCH   2   3
ENDBRANCH   1   2
BRANCH   1  18
ATOM     18  C   UNL d   1       6.326  -8.961   3.657  0.00  0.00     0.178 C 
BRANCH  18  19
ATOM     19  C   UNL d   1       7.831  -8.892   3.526  0.00  0.00     0.245 C 
ATOM     20  N   UNL d   1       8.353  -9.657   2.499  0.00  0.00    -0.267 N 
ATOM     21  H   UNL d   1       7.772 -10.072   1.777  0.00  0.00     0.190 HD
ATOM     22  O   UNL d   1       8.549  -8.193   4.247  0.00  0.00    -0.271 OA
BRANCH  20  23
ATOM     23  N   UNL d   1       9.693  -9.425   2.154  0.00  0.00    -0.274 N 
ATOM     24  H   UNL d   1      10.227  -8.938   2.877  0.00  0.00     0.189 HD
BRANCH  23  25
ATOM     25  C   UNL d   1      10.388 -10.288   1.363  0.00  0.00     0.191 C 
ATOM     26  S   UNL d   1       9.834 -11.808   0.913  0.00  0.00    -0.039 SA
BRANCH  25  27
ATOM     27  N   UNL d   1      11.588  -9.882   0.856  0.00  0.00    -0.332 N 
ATOM     28  H   UNL d   1      12.044 -10.625   0.335  0.00  0.00     0.168 HD
BRANCH  27  29
ATOM     29  C   UNL d   1      12.165  -8.600   0.688  0.00  0.00     0.034 A 
ATOM     30  C   UNL d   1      11.663  -7.401   1.202  0.00  0.00     0.029 A 
ATOM     31  C   UNL d   1      12.280  -6.180   0.904  0.00  0.00     0.002 A 
ATOM     32  C   UNL d   1      13.394  -6.138   0.072  0.00  0.00     0.000 A 
ATOM     33  C   UNL d   1      13.907  -7.322  -0.446  0.00  0.00     0.002 A 
ATOM     34  C   UNL d   1      13.304  -8.543  -0.130  0.00  0.00     0.029 A 
ENDBRANCH  27  29
ENDBRANCH  25  27
ENDBRANCH  23  25
ENDBRANCH  20  23
ENDBRANCH  18  19
ENDBRANCH   1  18
TORSDOF 11
