REMARK  6 active torsions:
REMARK  status: ('A' for Active; 'I' for Inactive)
REMARK    1  A    between atoms: N_6  and  C_1 
REMARK    2  A    between atoms: C_7  and  C_4 
REMARK    3  A    between atoms: C_10  and  C_5 
REMARK    4  A    between atoms: O_15  and  C_10 
REMARK    5  A    between atoms: C_22  and  O_15 
REMARK    6  A    between atoms: C_23  and  C_22 
ROOT
ATOM      1  C   UNL d   1       0.213   1.316   0.024  0.00  0.00     0.680 A 
ATOM      2  N   UNL d   1       1.313   0.550  -0.016  0.00  0.00    -0.185 N 
ATOM      3  HN  UNL d   1       2.234   0.986  -0.061  1.00  0.00     0.184 HD
ATOM      4  C   UNL d   1       1.204  -0.817   0.003  0.00  0.00     0.150 A 
ATOM      5  C   UNL d   1      -0.030  -1.436   0.024  0.00  0.00     0.087 A 
ATOM      6  N   UNL d   1      -1.007   0.780   0.108  0.00  0.00    -0.201 N 
ATOM      7  HN  UNL d   1      -1.837   1.368   0.182  1.00  0.00     0.183 HD
ATOM      8  C   UNL d   1      -1.104  -0.569   0.093  0.00  0.00     0.126 A 
ENDROOT
BRANCH   5   9
ATOM      9  C   UNL d   1      -0.339  -2.879   0.010  0.00  0.00     0.297 C 
ATOM     10  O   UNL d   1      -1.459  -3.297   0.262  0.00  0.00    -0.259 OA
BRANCH   9  11
ATOM     11  O   UNL d   1       0.726  -3.631  -0.323  0.00  0.00    -0.313 OA
BRANCH  11  12
ATOM     12  C   UNL d   1       0.534  -5.055  -0.290  0.00  0.00     0.217 C 
BRANCH  12  13
ATOM     13  C   UNL d   1       1.076  -5.677  -1.553  0.00  0.00    -0.034 A 
ATOM     14  C   UNL d   1       2.441  -5.599  -1.859  0.00  0.00     0.009 A 
ATOM     15  C   UNL d   1       2.947  -6.217  -3.004  0.00  0.00     0.001 A 
ATOM     16  C   UNL d   1       2.096  -6.918  -3.856  0.00  0.00     0.000 A 
ATOM     17  C   UNL d   1       0.734  -6.995  -3.567  0.00  0.00     0.001 A 
ATOM     18  C   UNL d   1       0.227  -6.377  -2.423  0.00  0.00     0.009 A 
ENDBRANCH  12  13
ENDBRANCH  11  12
ENDBRANCH   9  11
ENDBRANCH   5   9
BRANCH   4  19
ATOM     19  C   UNL d   1       2.510  -1.585   0.033  0.00  0.00     0.434 C 
ATOM     20  F   UNL d   1       3.603  -0.779   0.193  0.00  0.00    -0.165 F 
ATOM     21  F   UNL d   1       2.583  -2.474   1.066  0.00  0.00    -0.165 F 
ATOM     22  F   UNL d   1       2.758  -2.286  -1.107  0.00  0.00    -0.165 F 
ENDBRANCH   4  19
BRANCH   1  23
ATOM     23  N   UNL d   1       0.337   2.683  -0.124  0.00  0.00    -0.213 N 
ATOM     24  C   UNL d   1      -0.638   3.522   0.588  0.00  0.00     0.172 C 
ATOM     25  C   UNL d   1      -0.578   4.967   0.032  0.00  0.00     0.136 C 
ATOM     26  C   UNL d   1      -1.444   5.916   0.848  0.00  0.00     0.041 C 
ATOM     27  O   UNL d   1       0.768   5.490   0.055  0.00  0.00    -0.378 OA
ATOM     28  C   UNL d   1       1.645   4.655  -0.725  0.00  0.00     0.136 C 
ATOM     29  C   UNL d   1       1.697   3.232  -0.136  0.00  0.00     0.172 C 
ATOM     30  C   UNL d   1       3.024   5.295  -0.742  0.00  0.00     0.041 C 
ENDBRANCH   1  23
TORSDOF 6
