REMARK  5 active torsions:
REMARK  status: ('A' for Active; 'I' for Inactive)
REMARK    1  A    between atoms: O_2  and  S_1 
REMARK    2  A    between atoms: C_3  and  S_1 
REMARK    3  A    between atoms: C_11  and  O_2 
REMARK    4  A    between atoms: O_10  and  C_13 
REMARK    5  A    between atoms: C_16  and  O_10 
ROOT
ATOM      1  C   UNL d   1       0.128  -1.010  -1.321  0.00  0.00     0.086 A 
ATOM      2  N   UNL d   1      -2.380  -3.987  -5.039  0.00  0.00    -0.191 NA
ATOM      3  C   UNL d   1      -1.840  -3.349  -4.237  0.00  0.00     0.099 C 
ATOM      4  C   UNL d   1       0.270  -0.690  -2.676  0.00  0.00     0.027 A 
ATOM      5  C   UNL d   1      -0.644  -2.104  -0.921  0.00  0.00     0.027 A 
ATOM      6  C   UNL d   1      -1.171  -2.554  -3.247  0.00  0.00     0.044 A 
ATOM      7  C   UNL d   1      -1.296  -2.874  -1.890  0.00  0.00     0.024 A 
ATOM      8  C   UNL d   1      -0.383  -1.463  -3.639  0.00  0.00     0.024 A 
ENDROOT
BRANCH   1   9
ATOM      9  S   UNL d   1       1.030  -0.050  -0.117  0.00  0.00     0.303 S 
ATOM     10  O   UNL d   1       0.689  -0.575   1.192  0.00  0.00    -0.193 OA
ATOM     11  O   UNL d   1       2.402  -0.053  -0.593  0.00  0.00    -0.193 OA
BRANCH   9  12
ATOM     12  O   UNL d   1       0.391   1.449  -0.264  0.00  0.00    -0.229 OA
BRANCH  12  13
ATOM     13  C   UNL d   1       0.865   2.507   0.475  0.00  0.00     0.089 A 
ATOM     14  C   UNL d   1       2.179   2.621   0.926  0.00  0.00     0.041 A 
ATOM     15  C   UNL d   1       2.585   3.750   1.642  0.00  0.00     0.040 A 
ATOM     16  C   UNL d   1       1.667   4.753   1.960  0.00  0.00     0.076 A 
ATOM     17  C   UNL d   1       0.364   4.668   1.469  0.00  0.00     0.040 A 
ATOM     18  C   UNL d   1      -0.034   3.549   0.725  0.00  0.00     0.041 A 
BRANCH  16  19
ATOM     19  O   UNL d   1       1.987   5.868   2.707  0.00  0.00    -0.311 OA
BRANCH  19  20
ATOM     20  C   UNL d   1       2.882   5.735   3.749  0.00  0.00     0.076 A 
ATOM     21  C   UNL d   1       3.714   6.827   4.011  0.00  0.00     0.037 A 
ATOM     22  C   UNL d   1       4.666   6.752   5.031  0.00  0.00     0.003 A 
ATOM     23  C   UNL d   1       4.788   5.588   5.790  0.00  0.00     0.000 A 
ATOM     24  C   UNL d   1       3.933   4.513   5.559  0.00  0.00     0.003 A 
ATOM     25  C   UNL d   1       2.962   4.598   4.561  0.00  0.00     0.037 A 
ENDBRANCH  19  20
ENDBRANCH  16  19
ENDBRANCH  12  13
ENDBRANCH   9  12
ENDBRANCH   1   9
TORSDOF 5
