REMARK  1 active torsions:
REMARK  status: ('A' for Active; 'I' for Inactive)
REMARK    1  A    between atoms: C_2  and  C_7 
REMARK       I    between atoms: N_6  and  C_2 
ROOT
ATOM      1  N   UNL d   1       0.742  -2.534   1.068  0.00  0.00    -0.061 NA
ATOM      2  N   UNL d   1      -0.479  -2.187   1.435  0.00  0.00    -0.292 N 
ATOM      3  HN  UNL d   1      -0.992  -2.628   2.200  1.00  0.00     0.183 HD
ATOM      4  C   UNL d   1      -0.984  -1.150   0.658  0.00  0.00     0.064 A 
ATOM      5  C   UNL d   1      -2.592   0.521  -0.059  0.00  0.00     0.034 A 
ATOM      6  S   UNL d   1       1.317  -1.637  -0.218  0.00  0.00     0.002 SA
ATOM      7  C   UNL d   1      -0.123  -0.700  -0.349  0.00  0.00     0.047 A 
ATOM      8  C   UNL d   1      -2.241  -0.531   0.800  0.00  0.00     0.049 A 
ATOM      9  C   UNL d   1      -1.738   0.902  -1.099  0.00  0.00     0.018 A 
ATOM     10  C   UNL d   1      -0.475   0.318  -1.245  0.00  0.00     0.023 A 
ENDROOT
BRANCH   5  11
ATOM     11  C   UNL d   1      -3.916   1.161   0.124  0.00  0.00     0.254 C 
ATOM     12  N   UNL d   1      -4.029   2.547   0.053  0.00  0.00    -0.344 N 
ATOM     13  C   UNL d   1      -5.356   3.157   0.157  0.00  0.00     0.152 C 
ATOM     14  C   UNL d   1      -2.941   3.523   0.205  0.00  0.00     0.152 C 
ATOM     15  C   UNL d   1      -5.477   4.351  -0.798  0.00  0.00     0.187 C 
ATOM     16  O   UNL d   1      -4.403   5.291  -0.620  0.00  0.00    -0.388 OA
ATOM     17  C   UNL d   1      -3.128   4.657  -0.806  0.00  0.00     0.187 C 
ATOM     18  O   UNL d   1      -4.880   0.422   0.315  0.00  0.00    -0.267 OA
ENDBRANCH   5  11
TORSDOF 1
