REMARK  4 active torsions:
REMARK  status: ('A' for Active; 'I' for Inactive)
REMARK    1  A    between atoms: C_2  and  C_1 
REMARK       I    between atoms: N_3  and  C_1 
REMARK    2  A    between atoms: C_8  and  N_3 
REMARK    3  A    between atoms: C_14  and  N_3 
REMARK    4  A    between atoms: C_6  and  C_8 
ROOT
ATOM      1  C   UNL d   1       0.954   0.113   0.095  0.00  0.00     0.260 C 
ATOM      2  N   UNL d   1       0.233  -1.084  -0.129  0.00  0.00    -0.309 N 
ATOM      3  O   UNL d   1       2.182   0.148   0.032  0.00  0.00    -0.267 OA
ENDROOT
BRANCH   2   4
ATOM      4  C   UNL d   1       0.960  -2.323  -0.532  0.00  0.00     0.093 C 
ATOM      5  C   UNL d   1       2.173  -2.671   0.338  0.00  0.00     0.033 C 
BRANCH   4   6
ATOM      6  C   UNL d   1       1.344  -2.255  -1.997  0.00  0.00     0.009 A 
ATOM      7  C   UNL d   1       0.309  -2.390  -3.092  0.00  0.00     0.007 A 
ATOM      8  C   UNL d   1       1.289  -3.501  -2.852  0.00  0.00     0.007 A 
ENDBRANCH   4   6
ENDBRANCH   2   4
BRANCH   2   9
ATOM      9  C   UNL d   1      -1.179  -1.144  -0.326  0.00  0.00     0.037 A 
ATOM     10  C   UNL d   1      -1.839  -0.269  -1.195  0.00  0.00     0.030 A 
ATOM     11  C   UNL d   1      -3.225  -0.336  -1.339  0.00  0.00     0.002 A 
ATOM     12  C   UNL d   1      -3.961  -1.274  -0.617  0.00  0.00     0.000 A 
ATOM     13  C   UNL d   1      -3.311  -2.159   0.242  0.00  0.00     0.002 A 
ATOM     14  C   UNL d   1      -1.926  -2.102   0.379  0.00  0.00     0.030 A 
ENDBRANCH   2   9
BRANCH   1  15
ATOM     15  C   UNL d   1       0.262   1.381   0.518  0.00  0.00     0.054 A 
ATOM     16  C   UNL d   1       0.743   2.644   0.134  0.00  0.00     0.051 A 
ATOM     17  C   UNL d   1       0.070   3.809   0.530  0.00  0.00     0.049 A 
ATOM     18 CL   UNL d   1       2.123   2.891  -0.881  0.00  0.00    -0.083 Cl
ATOM     19  C   UNL d   1      -1.116   3.736   1.262  0.00  0.00     0.041 A 
ATOM     20  C   UNL d   1      -1.619   2.495   1.662  0.00  0.00    -0.039 A 
ATOM     21 CL   UNL d   1      -1.916   5.221   1.628  0.00  0.00    -0.084 Cl
ATOM     22  C   UNL d   1      -0.881   1.339   1.340  0.00  0.00     0.027 A 
ATOM     23  C   UNL d   1      -2.951   2.310   2.336  0.00  0.00     0.050 C 
ENDBRANCH   1  15
TORSDOF 4
