REMARK  6 active torsions:
REMARK  status: ('A' for Active; 'I' for Inactive)
REMARK    1  A    between atoms: C_2  and  C_1 
REMARK       I    between atoms: N_5  and  C_1 
REMARK    2  A    between atoms: N_3  and  N_5 
REMARK    3  A    between atoms: C_18  and  C_7 
REMARK    4  A    between atoms: C_9  and  C_8 
REMARK    5  A    between atoms: O_15  and  C_10 
REMARK    6  A    between atoms: O_16  and  C_18 
ROOT
ATOM      1  C   UNL d   1       0.864   0.127  -0.334  0.00  0.00     0.270 C 
ATOM      2  N   UNL d   1       0.100   1.270  -0.189  0.00  0.00    -0.266 N 
ATOM      3  O   UNL d   1       2.044   0.121  -0.676  0.00  0.00    -0.266 OA
ATOM      4  H   UNL d   1      -0.766   1.207   0.330  0.00  0.00     0.190 HD
ENDROOT
BRANCH   2   5
ATOM      5  N   UNL d   1       0.667   2.504  -0.318  0.00  0.00    -0.308 N 
ATOM      6  C   UNL d   1      -0.109   3.488   0.007  0.00  0.00     0.118 C 
ATOM      7  HN  UNL d   1       1.624   2.640  -0.644  1.00  0.00     0.186 HD
BRANCH   6   8
ATOM      8  C   UNL d   1       0.361   4.886  -0.011  0.00  0.00    -0.019 A 
ATOM      9  C   UNL d   1       1.692   5.180  -0.317  0.00  0.00     0.015 A 
ATOM     10  C   UNL d   1       2.126   6.505  -0.304  0.00  0.00     0.037 A 
ATOM     11  C   UNL d   1       1.231   7.521   0.014  0.00  0.00     0.065 A 
ATOM     12  C   UNL d   1      -0.099   7.236   0.319  0.00  0.00     0.037 A 
ATOM     13  C   UNL d   1      -0.538   5.911   0.308  0.00  0.00     0.015 A 
BRANCH  11  14
ATOM     14  O   UNL d   1       1.702   8.799   0.018  0.00  0.00    -0.361 OA
ATOM     15  H   UNL d   1       0.980   9.399   0.263  0.00  0.00     0.217 HD
ENDBRANCH  11  14
ENDBRANCH   6   8
ENDBRANCH   2   5
BRANCH   1  16
ATOM     16  C   UNL d   1       0.155  -1.189  -0.137  0.00  0.00     0.042 A 
ATOM     17  C   UNL d   1      -0.948  -1.462   0.708  0.00  0.00    -0.019 A 
ATOM     18  C   UNL d   1      -1.513  -2.761   0.670  0.00  0.00     0.010 A 
ATOM     19  C   UNL d   1      -0.993  -3.770  -0.138  0.00  0.00     0.001 A 
ATOM     20  C   UNL d   1       0.109  -3.510  -0.935  0.00  0.00     0.001 A 
ATOM     21  C   UNL d   1       0.675  -2.236  -0.932  0.00  0.00     0.018 A 
BRANCH  17  22
ATOM     22  C   UNL d   1      -1.642  -0.501   1.640  0.00  0.00     0.203 C 
BRANCH  22  23
ATOM     23  O   UNL d   1      -0.775   0.486   2.161  0.00  0.00    -0.396 OA
ATOM     24  H   UNL d   1      -0.768   0.398   3.131  0.00  0.00     0.209 HD
ENDBRANCH  22  23
ENDBRANCH  17  22
ENDBRANCH   1  16
TORSDOF 6
