REMARK  5 active torsions:
REMARK  status: ('A' for Active; 'I' for Inactive)
REMARK    1  A    between atoms: N_2  and  S_1 
REMARK    2  A    between atoms: C_9  and  S_1 
REMARK    3  A    between atoms: C_12  and  C_8 
REMARK    4  A    between atoms: O_19  and  C_12 
REMARK    5  A    between atoms: C_23  and  O_19 
ROOT
ATOM      1  N   UNL d   1       0.449   0.871   0.354  0.00  0.00    -0.305 N 
ATOM      2  C   UNL d   1      -1.707   0.652   1.407  0.00  0.00     0.075 C 
ATOM      3  C   UNL d   1      -0.344   2.763   1.703  0.00  0.00     0.075 C 
ATOM      4  C   UNL d   1      -1.711   2.151   1.542  0.00  0.00     0.138 C 
ATOM      5  C   UNL d   1       0.533   2.331   0.520  0.00  0.00     0.147 C 
ATOM      6  C   UNL d   1      -0.920   0.375   0.123  0.00  0.00     0.147 C 
ATOM      7  C   UNL d   1      -0.048   0.843   3.456  0.00  0.00     0.087 C 
ATOM      8  C   UNL d   1       0.188   2.320   3.062  0.00  0.00     0.028 C 
ATOM      9  C   UNL d   1      -1.055  -0.001   2.637  0.00  0.00     0.028 C 
ATOM     10  O   UNL d   1      -2.738   2.821   1.501  0.00  0.00    -0.297 OA
ENDROOT
BRANCH   1  11
ATOM     11  S   UNL d   1       1.776  -0.013  -0.177  0.00  0.00     0.260 S 
ATOM     12  O   UNL d   1       1.425  -1.418  -0.121  0.00  0.00    -0.200 OA
ATOM     13  O   UNL d   1       2.930   0.493   0.527  0.00  0.00    -0.200 OA
BRANCH  11  14
ATOM     14  C   UNL d   1       1.953   0.431  -1.887  0.00  0.00     0.079 A 
ATOM     15  C   UNL d   1       2.882   1.417  -2.239  0.00  0.00     0.026 A 
ATOM     16  C   UNL d   1       3.160   1.651  -3.585  0.00  0.00     0.008 A 
ATOM     17  C   UNL d   1       2.527   0.900  -4.584  0.00  0.00    -0.062 A 
ATOM     18  C   UNL d   1       1.586  -0.072  -4.220  0.00  0.00     0.008 A 
ATOM     19  C   UNL d   1       2.898   1.118  -6.023  0.00  0.00     0.048 C 
ATOM     20  C   UNL d   1       1.302  -0.315  -2.873  0.00  0.00     0.026 A 
ENDBRANCH  11  14
ENDBRANCH   1  11
BRANCH   7  21
ATOM     21  C   UNL d   1      -0.505   0.856   4.907  0.00  0.00     0.263 C 
ATOM     22  O   UNL d   1      -1.616   1.230   5.262  0.00  0.00    -0.265 OA
BRANCH  21  23
ATOM     23  O   UNL d   1       0.510   0.504   5.738  0.00  0.00    -0.322 OA
BRANCH  23  24
ATOM     24  C   UNL d   1       0.280   0.771   7.130  0.00  0.00     0.174 C 
ATOM     25  C   UNL d   1       0.793   2.165   7.440  0.00  0.00     0.034 C 
ENDBRANCH  23  24
ENDBRANCH  21  23
ENDBRANCH   7  21
TORSDOF 5
