REMARK  7 active torsions:
REMARK  status: ('A' for Active; 'I' for Inactive)
REMARK    1  A    between atoms: C_14  and  N_2 
REMARK    2  A    between atoms: C_9  and  C_5 
REMARK    3  A    between atoms: S_23  and  C_6 
REMARK    4  A    between atoms: C_7  and  C_12 
REMARK    5  A    between atoms: C_8  and  C_13 
REMARK    6  A    between atoms: N_10  and  C_14 
REMARK       I    between atoms: C_11  and  N_10 
REMARK       I    between atoms: N_20  and  C_11 
REMARK    7  A    between atoms: C_18  and  N_20 
ROOT
ATOM      1  C   UNL d   1      -1.515   0.082   2.477  0.00  0.00     0.109 A 
ATOM      2  N   UNL d   1      -0.815   1.464   0.925  0.00  0.00    -0.266 N 
ATOM      3  N   UNL d   1       0.278   1.239   1.690  0.00  0.00    -0.293 N 
ATOM      4  HN  UNL d   1       1.218   1.613   1.558  1.00  0.00     0.187 HD
ATOM      5  C   UNL d   1      -0.148   0.416   2.660  0.00  0.00     0.089 A 
ATOM      6  C   UNL d   1      -1.913   0.745   1.331  0.00  0.00     0.112 A 
ATOM      7  C   UNL d   1      -2.327  -0.754   3.293  0.00  0.00     0.104 C 
ATOM      8  N   UNL d   1      -3.026  -1.405   3.955  0.00  0.00    -0.191 NA
ENDROOT
BRANCH   5   9
ATOM      9  C   UNL d   1       0.800  -0.025   3.748  0.00  0.00     0.034 A 
ATOM     10  S   UNL d   1       0.422  -1.108   5.015  0.00  0.00    -0.100 SA
ATOM     11  C   UNL d   1       1.984  -0.984   5.693  0.00  0.00     0.050 A 
ATOM     12  C   UNL d   1       2.790  -0.134   4.971  0.00  0.00     0.008 A 
ATOM     13  C   UNL d   1       2.108   0.414   3.844  0.00  0.00     0.022 A 
ENDBRANCH   5   9
BRANCH   6  14
ATOM     14  S   UNL d   1      -3.385   0.789   0.400  0.00  0.00    -0.114 SA
ATOM     15  C   UNL d   1      -4.693   0.578   1.625  0.00  0.00     0.097 C 
ENDBRANCH   6  14
BRANCH   2  16
ATOM     16  C   UNL d   1      -0.714   2.420  -0.183  0.00  0.00     0.276 C 
BRANCH  16  17
ATOM     17  N   UNL d   1       0.394   3.351  -0.062  0.00  0.00    -0.325 N 
ATOM     18  C   UNL d   1       0.454   4.699   0.009  0.00  0.00     0.322 C 
ATOM     19  N   UNL d   1      -0.731   5.378  -0.051  0.00  0.00    -0.309 N 
ATOM     20  O   UNL d   1       1.569   5.208   0.090  0.00  0.00    -0.247 OA
ATOM     21  H   UNL d   1      -1.564   4.867   0.187  0.00  0.00     0.170 HD
ATOM     22  H   UNL d   1       1.297   2.915   0.083  0.00  0.00     0.166 HD
BRANCH  19  23
ATOM     23  C   UNL d   1      -0.906   6.756  -0.310  0.00  0.00     0.037 A 
ATOM     24  C   UNL d   1       0.138   7.613  -0.666  0.00  0.00     0.045 A 
ATOM     25  C   UNL d   1      -0.110   8.941  -1.055  0.00  0.00     0.050 A 
ATOM     26  C   UNL d   1      -1.430   9.413  -1.066  0.00  0.00     0.032 A 
ATOM     27  C   UNL d   1      -2.493   8.575  -0.697  0.00  0.00     0.050 A 
ATOM     28  C   UNL d   1      -2.215   7.255  -0.299  0.00  0.00     0.045 A 
BRANCH  25  29
ATOM     29  C   UNL d   1       1.044   9.810  -1.497  0.00  0.00     0.417 C 
ATOM     30  F   UNL d   1       0.647  11.014  -1.996  0.00  0.00    -0.166 F 
ATOM     31  F   UNL d   1       1.909  10.092  -0.486  0.00  0.00    -0.166 F 
ATOM     32  F   UNL d   1       1.785   9.229  -2.481  0.00  0.00    -0.166 F 
ENDBRANCH  25  29
BRANCH  27  33
ATOM     33  C   UNL d   1      -3.924   9.053  -0.768  0.00  0.00     0.417 C 
ATOM     34  F   UNL d   1      -4.064  10.262  -1.378  0.00  0.00    -0.166 F 
ATOM     35  F   UNL d   1      -4.717   8.191  -1.465  0.00  0.00    -0.166 F 
ATOM     36  F   UNL d   1      -4.495   9.178   0.459  0.00  0.00    -0.166 F 
ENDBRANCH  27  33
ENDBRANCH  19  23
ENDBRANCH  16  17
ENDBRANCH   2  16
TORSDOF 7
