REMARK  4 active torsions:
REMARK  status: ('A' for Active; 'I' for Inactive)
REMARK    1  A    between atoms: C_2  and  S_1 
REMARK    2  A    between atoms: C_8  and  S_1 
REMARK    3  A    between atoms: N_6  and  C_3 
REMARK    4  A    between atoms: C_13  and  N_4 
ROOT
ATOM      1  C   UNL d   1       0.639   1.345  -2.749  0.00  0.00     0.159 C 
ATOM      2  C   UNL d   1      -0.407   0.743  -2.155  0.00  0.00     0.121 C 
ATOM      3  C   UNL d   1       1.568   0.633  -3.539  0.00  0.00     0.113 C 
ATOM      4  N   UNL d   1       2.322   0.036  -4.194  0.00  0.00    -0.191 NA
ENDROOT
BRANCH   1   5
ATOM      5  S   UNL d   1       0.976   3.003  -2.394  0.00  0.00     0.218 S 
ATOM      6  O   UNL d   1       2.002   3.081  -1.371  0.00  0.00    -0.216 OA
ATOM      7  O   UNL d   1      -0.270   3.732  -2.216  0.00  0.00    -0.216 OA
BRANCH   5   8
ATOM      8  C   UNL d   1       1.704   3.646  -3.901  0.00  0.00     0.065 A 
ATOM      9  C   UNL d   1       0.881   4.216  -4.882  0.00  0.00     0.027 A 
ATOM     10  C   UNL d   1       1.460   4.746  -6.038  0.00  0.00     0.044 A 
ATOM     11  C   UNL d   1       2.843   4.708  -6.197  0.00  0.00     0.116 A 
ATOM     12  C   UNL d   1       3.664   4.158  -5.218  0.00  0.00     0.044 A 
ATOM     13  F   UNL d   1       3.391   5.218  -7.308  0.00  0.00    -0.206 F 
ATOM     14  C   UNL d   1       3.097   3.632  -4.056  0.00  0.00     0.027 A 
ENDBRANCH   5   8
ENDBRANCH   1   5
BRANCH   2  15
ATOM     15  N   UNL d   1      -0.823  -0.575  -2.304  0.00  0.00    -0.385 N 
ATOM     16  C   UNL d   1      -1.187  -1.153  -3.625  0.00  0.00     0.142 C 
ATOM     17  C   UNL d   1      -0.674  -2.605  -3.766  0.00  0.00     0.143 C 
ATOM     18  N   UNL d   1      -1.099  -3.423  -2.613  0.00  0.00    -0.378 N 
ATOM     19  C   UNL d   1      -0.810  -2.836  -1.292  0.00  0.00     0.143 C 
ATOM     20  C   UNL d   1      -1.349  -1.388  -1.182  0.00  0.00     0.142 C 
BRANCH  18  21
ATOM     21  C   UNL d   1      -1.941  -4.501  -2.791  0.00  0.00     0.030 A 
ATOM     22  C   UNL d   1      -3.020  -4.760  -1.934  0.00  0.00     0.029 A 
ATOM     23  C   UNL d   1      -3.859  -5.865  -2.120  0.00  0.00     0.002 A 
ATOM     24  C   UNL d   1      -3.630  -6.749  -3.168  0.00  0.00     0.000 A 
ATOM     25  C   UNL d   1      -2.564  -6.523  -4.030  0.00  0.00     0.002 A 
ATOM     26  C   UNL d   1      -1.736  -5.411  -3.841  0.00  0.00     0.029 A 
ENDBRANCH  18  21
ENDBRANCH   2  15
TORSDOF 4
