REMARK  3 active torsions:
REMARK  status: ('A' for Active; 'I' for Inactive)
REMARK    1  A    between atoms: C_6  and  C_1 
REMARK    2  A    between atoms: C_7  and  C_6 
REMARK    3  A    between atoms: O_13  and  C_7 
ROOT
ATOM      1  C   UNL d   1       1.088  -1.714  -0.056  0.00  0.00    -0.031 A 
ATOM      2  C   UNL d   1      -0.014  -0.770  -0.092  0.00  0.00    -0.011 A 
ATOM      3  S   UNL d   1       2.156   0.631  -0.022  0.00  0.00    -0.101 SA
ATOM      4  C   UNL d   1       2.306  -1.063  -0.034  0.00  0.00     0.058 A 
ATOM      5  C   UNL d   1       0.439   0.552  -0.039  0.00  0.00     0.015 A 
ATOM      6  C   UNL d   1      -1.419  -0.980  -0.136  0.00  0.00     0.020 A 
ATOM      7  C   UNL d   1      -0.452   1.642  -0.001  0.00  0.00     0.020 A 
ATOM      8  C   UNL d   1      -2.320   0.097  -0.082  0.00  0.00    -0.061 A 
ATOM      9  C   UNL d   1      -1.826   1.397  -0.014  0.00  0.00     0.008 A 
ATOM     10  C   UNL d   1      -3.802  -0.139  -0.089  0.00  0.00     0.048 C 
ENDROOT
BRANCH   1  11
ATOM     11  C   UNL d   1       0.944  -3.211   0.005  0.00  0.00     0.151 C 
BRANCH  11  12
ATOM     12  C   UNL d   1       1.024  -3.898  -1.340  0.00  0.00     0.262 C 
ATOM     13  O   UNL d   1       1.233  -3.367  -2.422  0.00  0.00    -0.265 OA
BRANCH  12  14
ATOM     14  O   UNL d   1       0.849  -5.242  -1.153  0.00  0.00    -0.326 OA
ATOM     15  C   UNL d   1       0.923  -6.040  -2.338  0.00  0.00     0.213 C 
ENDBRANCH  12  14
ENDBRANCH  11  12
ENDBRANCH   1  11
TORSDOF 3
