REMARK  5 active torsions:
REMARK  status: ('A' for Active; 'I' for Inactive)
REMARK    1  A    between atoms: C_4  and  C_1 
REMARK       I    between atoms: N_11  and  C_4 
REMARK    2  A    between atoms: C_6  and  O_10 
REMARK    3  A    between atoms: N_8  and  N_11 
REMARK    4  A    between atoms: O_10  and  C_14 
REMARK    5  A    between atoms: C_21  and  C_19 
ROOT
ATOM      1  C   UNL d   1      -2.405  -0.270  -0.083  0.00  0.00     0.103 A 
ATOM      2  N   UNL d   1      -1.623   0.869  -0.087  0.00  0.00    -0.351 N 
ATOM      3  C   UNL d   1      -1.532  -1.342  -0.041  0.00  0.00     0.049 A 
ATOM      4  C   UNL d   1      -0.202  -0.835  -0.028  0.00  0.00    -0.004 A 
ATOM      5  C   UNL d   1      -0.286   0.553  -0.069  0.00  0.00     0.043 A 
ATOM      6  C   UNL d   1       1.072  -1.430   0.017  0.00  0.00     0.051 A 
ATOM      7  C   UNL d   1       2.223  -0.627   0.034  0.00  0.00     0.079 A 
ATOM      8  C   UNL d   1       0.845   1.376  -0.091  0.00  0.00     0.033 A 
ATOM      9  C   UNL d   1       2.104   0.759  -0.054  0.00  0.00     0.039 A 
ATOM     10  H   UNL d   1      -2.008   1.805  -0.109  0.00  0.00     0.166 HD
ENDROOT
BRANCH   1  11
ATOM     11  C   UNL d   1      -3.851  -0.166  -0.122  0.00  0.00     0.286 C 
ATOM     12  N   UNL d   1      -4.529  -1.381  -0.145  0.00  0.00    -0.265 N 
ATOM     13  H   UNL d   1      -4.025  -2.255  -0.138  0.00  0.00     0.190 HD
ATOM     14  O   UNL d   1      -4.402   0.928  -0.137  0.00  0.00    -0.264 OA
BRANCH  12  15
ATOM     15  N   UNL d   1      -5.890  -1.384  -0.213  0.00  0.00    -0.308 N 
ATOM     16  C   UNL d   1      -6.468  -2.540  -0.239  0.00  0.00     0.118 C 
ATOM     17  HN  UNL d   1      -6.426  -0.516  -0.243  1.00  0.00     0.186 HD
BRANCH  16  18
ATOM     18  C   UNL d   1      -7.940  -2.644  -0.319  0.00  0.00    -0.019 A 
ATOM     19  C   UNL d   1      -8.726  -1.489  -0.397  0.00  0.00     0.013 A 
ATOM     20  C   UNL d   1     -10.115  -1.595  -0.471  0.00  0.00     0.001 A 
ATOM     21  C   UNL d   1     -10.717  -2.852  -0.467  0.00  0.00     0.000 A 
ATOM     22  C   UNL d   1      -9.934  -4.005  -0.389  0.00  0.00     0.001 A 
ATOM     23  C   UNL d   1      -8.542  -3.905  -0.316  0.00  0.00     0.013 A 
ENDBRANCH  16  18
ENDBRANCH  12  15
ENDBRANCH   1  11
BRANCH   7  24
ATOM     24  O   UNL d   1       3.382  -1.339   0.119  0.00  0.00    -0.255 OA
BRANCH  24  25
ATOM     25  C   UNL d   1       4.550  -0.710   0.620  0.00  0.00     0.530 C 
ATOM     26  F   UNL d   1       4.293   0.322   1.450  0.00  0.00    -0.144 F 
ATOM     27  F   UNL d   1       5.258  -1.629   1.316  0.00  0.00    -0.144 F 
ATOM     28  F   UNL d   1       5.315  -0.278  -0.405  0.00  0.00    -0.144 F 
ENDBRANCH  24  25
ENDBRANCH   7  24
TORSDOF 5
