REMARK  9 active torsions:
REMARK  status: ('A' for Active; 'I' for Inactive)
REMARK    1  A    between atoms: C_4  and  C_1 
REMARK    2  A    between atoms: C_2  and  C_3 
REMARK    3  A    between atoms: C_5  and  N_8 
REMARK    4  A    between atoms: N_19  and  C_5 
REMARK    5  A    between atoms: N_8  and  C_7 
REMARK    6  A    between atoms: N_9  and  C_21 
REMARK    7  A    between atoms: C_25  and  N_19 
REMARK    8  A    between atoms: C_21  and  C_22 
REMARK    9  A    between atoms: C_22  and  C_25 
ROOT
ATOM      1  N   UNL d   1      -2.777  -1.121  -5.404  0.00  0.00    -0.333 N 
ATOM      2  H   UNL d   1      -2.256  -1.421  -6.217  0.00  0.00     0.168 HD
ENDROOT
BRANCH   1   3
ATOM      3  C   UNL d   1      -3.296  -2.190  -4.669  0.00  0.00     0.172 C 
ATOM      4  S   UNL d   1      -4.806  -2.268  -3.945  0.00  0.00    -0.041 SA
BRANCH   3   5
ATOM      5  N   UNL d   1      -2.397  -3.247  -4.698  0.00  0.00    -0.367 N 
ATOM      6  H   UNL d   1      -1.436  -3.010  -4.898  0.00  0.00     0.161 HD
BRANCH   5   7
ATOM      7  C   UNL d   1      -2.656  -4.601  -4.223  0.00  0.00     0.123 C 
BRANCH   7   8
ATOM      8  C   UNL d   1      -3.457  -5.395  -5.253  0.00  0.00     0.050 C 
BRANCH   8   9
ATOM      9  C   UNL d   1      -3.759  -6.806  -4.746  0.00  0.00     0.274 C 
BRANCH   9  10
ATOM     10  N   UNL d   1      -4.590  -7.596  -5.671  0.00  0.00     0.092 N 
ATOM     11  C   UNL d   1      -4.874  -8.937  -5.107  0.00  0.00     0.298 C 
ATOM     12  C   UNL d   1      -3.661  -9.887  -5.131  0.00  0.00     0.198 C 
ATOM     13  O   UNL d   1      -3.104 -10.011  -6.447  0.00  0.00    -0.388 OA
ATOM     14  C   UNL d   1      -2.767  -8.728  -6.990  0.00  0.00     0.198 C 
ATOM     15  C   UNL d   1      -3.989  -7.798  -7.007  0.00  0.00     0.298 C 
ENDBRANCH   9  10
ENDBRANCH   8   9
ENDBRANCH   7   8
ENDBRANCH   5   7
ENDBRANCH   3   5
ENDBRANCH   1   3
BRANCH   1  16
ATOM     16  C   UNL d   1      -3.267   0.198  -5.434  0.00  0.00     0.035 A 
ATOM     17  C   UNL d   1      -3.770   0.825  -4.293  0.00  0.00     0.045 A 
ATOM     18  C   UNL d   1      -4.336   2.105  -4.358  0.00  0.00     0.050 A 
ATOM     19  C   UNL d   1      -4.338   2.782  -5.585  0.00  0.00     0.032 A 
ATOM     20  C   UNL d   1      -3.774   2.197  -6.731  0.00  0.00     0.050 A 
ATOM     21  C   UNL d   1      -3.224   0.904  -6.639  0.00  0.00     0.045 A 
BRANCH  18  22
ATOM     22  C   UNL d   1      -4.936   2.703  -3.109  0.00  0.00     0.417 C 
ATOM     23  F   UNL d   1      -5.550   3.898  -3.323  0.00  0.00    -0.166 F 
ATOM     24  F   UNL d   1      -4.002   2.929  -2.144  0.00  0.00    -0.166 F 
ATOM     25  F   UNL d   1      -5.876   1.897  -2.541  0.00  0.00    -0.166 F 
ENDBRANCH  18  22
BRANCH  20  26
ATOM     26  C   UNL d   1      -3.782   2.913  -8.059  0.00  0.00     0.417 C 
ATOM     27  F   UNL d   1      -4.382   4.135  -8.014  0.00  0.00    -0.166 F 
ATOM     28  F   UNL d   1      -2.526   3.130  -8.537  0.00  0.00    -0.166 F 
ATOM     29  F   UNL d   1      -4.435   2.211  -9.026  0.00  0.00    -0.166 F 
ENDBRANCH  20  26
ENDBRANCH   1  16
TORSDOF 9
