REMARK  10 active torsions:
REMARK  status: ('A' for Active; 'I' for Inactive)
REMARK    1  A    between atoms: C_8  and  C_1 
REMARK    2  A    between atoms: C_2  and  O_10 
REMARK    3  A    between atoms: C_5  and  C_2 
REMARK    4  A    between atoms: O_10  and  N_3 
REMARK    5  A    between atoms: C_21  and  C_17 
REMARK    6  A    between atoms: C_22  and  C_21 
REMARK    7  A    between atoms: C_26  and  C_22 
REMARK    8  A    between atoms: C_23  and  C_24 
REMARK    9  A    between atoms: C_24  and  C_25 
REMARK   10  A    between atoms: C_25  and  C_26 
ROOT
ATOM      1  C   UNL d   1      -2.250   5.044  -0.014  0.00  0.00     0.315 C 
ATOM      2  O   UNL d   1      -1.378   4.833   0.818  0.00  0.00    -0.257 OA
ENDROOT
BRANCH   1   3
ATOM      3  O   UNL d   1      -2.182   5.936  -1.046  0.00  0.00    -0.195 OA
BRANCH   3   4
ATOM      4  N   UNL d   1      -1.688   7.156  -0.555  0.00  0.00    -0.268 N 
ATOM      5  C   UNL d   1      -1.038   7.784  -1.478  0.00  0.00     0.129 C 
ATOM      6  HN  UNL d   1      -1.823   7.498   0.396  1.00  0.00     0.194 HD
BRANCH   5   7
ATOM      7  C   UNL d   1      -0.522   9.161  -1.286  0.00  0.00     0.025 A 
ATOM      8  C   UNL d   1      -0.281   9.719  -0.017  0.00  0.00     0.047 A 
ATOM      9 CL   UNL d   1      -0.383   8.842   1.472  0.00  0.00    -0.083 Cl
ATOM     10  C   UNL d   1       0.111  11.060   0.104  0.00  0.00     0.025 A 
ATOM     11  C   UNL d   1       0.281  11.855  -1.025  0.00  0.00     0.003 A 
ATOM     12  C   UNL d   1       0.074  11.307  -2.286  0.00  0.00     0.025 A 
ATOM     13  C   UNL d   1      -0.324   9.970  -2.421  0.00  0.00     0.047 A 
ATOM     14 CL   UNL d   1      -0.586   9.412  -4.040  0.00  0.00    -0.083 Cl
ENDBRANCH   5   7
ENDBRANCH   3   4
ENDBRANCH   1   3
BRANCH   1  15
ATOM     15  C   UNL d   1      -3.556   4.331  -0.026  0.00  0.00     0.041 A 
ATOM     16  C   UNL d   1      -3.755   3.304   0.905  0.00  0.00     0.018 A 
ATOM     17  C   UNL d   1      -4.977   2.631   0.967  0.00  0.00     0.008 A 
ATOM     18  C   UNL d   1      -6.022   2.975   0.099  0.00  0.00    -0.058 A 
ATOM     19  C   UNL d   1      -5.829   4.022  -0.813  0.00  0.00     0.008 A 
ATOM     20  C   UNL d   1      -4.605   4.693  -0.881  0.00  0.00     0.018 A 
BRANCH  18  21
ATOM     21  C   UNL d   1      -7.330   2.222   0.146  0.00  0.00     0.038 C 
BRANCH  21  22
ATOM     22  C   UNL d   1      -7.696   1.536  -1.177  0.00  0.00     0.005 C 
BRANCH  22  23
ATOM     23  C   UNL d   1      -6.675   0.479  -1.609  0.00  0.00     0.000 C 
BRANCH  23  24
ATOM     24  C   UNL d   1      -7.072  -0.157  -2.941  0.00  0.00     0.000 C 
BRANCH  24  25
ATOM     25  C   UNL d   1      -6.042  -1.192  -3.395  0.00  0.00    -0.000 C 
BRANCH  25  26
ATOM     26  C   UNL d   1      -6.439  -1.815  -4.733  0.00  0.00    -0.005 C 
ATOM     27  C   UNL d   1      -5.423  -2.849  -5.190  0.00  0.00     0.005 C 
ENDBRANCH  25  26
ENDBRANCH  24  25
ENDBRANCH  23  24
ENDBRANCH  22  23
ENDBRANCH  21  22
ENDBRANCH  18  21
ENDBRANCH   1  15
TORSDOF 10
