REMARK  6 active torsions:
REMARK  status: ('A' for Active; 'I' for Inactive)
REMARK    1  A    between atoms: N_2  and  S_1 
REMARK    2  A    between atoms: C_3  and  S_1 
REMARK    3  A    between atoms: C_4  and  N_2 
REMARK    4  A    between atoms: O_16  and  C_8 
REMARK    5  A    between atoms: O_18  and  C_11 
REMARK    6  A    between atoms: C_20  and  C_17 
ROOT
ATOM      1  S   UNL d   1       1.062  -0.067   0.005  0.00  0.00     0.247 S 
ATOM      2  O   UNL d   1       0.332   1.004  -0.641  0.00  0.00    -0.205 OA
ATOM      3  O   UNL d   1       2.504  -0.062   0.116  0.00  0.00    -0.205 OA
ENDROOT
BRANCH   1   4
ATOM      4  N   UNL d   1       0.498  -1.506  -0.697  0.00  0.00    -0.166 NA
ATOM      5  H   UNL d   1      -0.124  -1.216  -1.455  0.00  0.00     0.147 HD
BRANCH   4   6
ATOM      6  C   UNL d   1       1.517  -2.311  -1.257  0.00  0.00     0.094 A 
ATOM      7  N   UNL d   1       1.827  -1.992  -2.522  0.00  0.00    -0.356 N 
ATOM      8  C   UNL d   1       2.834  -2.700  -3.079  0.00  0.00     0.090 A 
ATOM      9  HN  UNL d   1       1.333  -1.260  -3.032  1.00  0.00     0.166 HD
ATOM     10  C   UNL d   1       3.521  -3.720  -2.432  0.00  0.00     0.024 A 
ATOM     11  C   UNL d   1       3.165  -4.043  -1.120  0.00  0.00    -0.054 A 
ATOM     12  C   UNL d   1       2.133  -3.314  -0.523  0.00  0.00     0.050 A 
BRANCH  11  13
ATOM     13  C   UNL d   1       3.848  -5.171  -0.388  0.00  0.00     0.034 C 
ATOM     14  C   UNL d   1       4.554  -4.726   0.886  0.00  0.00     0.010 C 
ENDBRANCH  11  13
ENDBRANCH   4   6
ENDBRANCH   1   4
BRANCH   1  15
ATOM     15  C   UNL d   1       0.446  -0.189   1.674  0.00  0.00     0.077 A 
ATOM     16  C   UNL d   1       0.905  -1.231   2.490  0.00  0.00     0.064 A 
ATOM     17  C   UNL d   1       0.515  -1.319   3.835  0.00  0.00     0.102 A 
ATOM     18  C   UNL d   1      -0.338  -0.331   4.360  0.00  0.00     0.101 A 
ATOM     19  C   UNL d   1      -0.779   0.714   3.529  0.00  0.00     0.041 A 
ATOM     20  C   UNL d   1      -0.395   0.791   2.189  0.00  0.00     0.028 A 
BRANCH  17  21
ATOM     21  O   UNL d   1       0.945  -2.319   4.665  0.00  0.00    -0.353 OA
ATOM     22  C   UNL d   1       1.797  -3.327   4.138  0.00  0.00     0.210 C 
ENDBRANCH  17  21
BRANCH  18  23
ATOM     23  O   UNL d   1      -0.831  -0.214   5.634  0.00  0.00    -0.353 OA
ATOM     24  C   UNL d   1      -0.458  -1.172   6.613  0.00  0.00     0.210 C 
ENDBRANCH  18  23
ENDBRANCH   1  15
TORSDOF 6
