REMARK  5 active torsions:
REMARK  status: ('A' for Active; 'I' for Inactive)
REMARK    1  A    between atoms: C_3  and  C_1 
REMARK    2  A    between atoms: C_9  and  C_2 
REMARK    3  A    between atoms: N_15  and  C_8 
REMARK    4  A    between atoms: C_16  and  N_15 
REMARK    5  A    between atoms: O_29  and  C_23 
ROOT
ATOM      1  C   UNL d   1       0.305  -2.719  -0.087  0.00  0.00     0.056 A 
ATOM      2  N   UNL d   1       1.004  -3.205   0.987  0.00  0.00    -0.335 N 
ATOM      3  HN  UNL d   1       1.211  -2.667   1.828  1.00  0.00     0.168 HD
ATOM      4  C   UNL d   1       1.373  -4.452   0.797  0.00  0.00     0.149 A 
ATOM      5  S   UNL d   1       0.862  -5.112  -0.712  0.00  0.00    -0.064 SA
ATOM      6  C   UNL d   1       0.060  -3.640  -1.083  0.00  0.00     0.083 A 
ENDROOT
BRANCH   1   7
ATOM      7  C   UNL d   1      -0.060  -1.307  -0.085  0.00  0.00     0.052 A 
ATOM      8  C   UNL d   1       0.726  -0.211   0.407  0.00  0.00     0.081 A 
ATOM      9  N   UNL d   1       0.070   0.940   0.176  0.00  0.00    -0.259 N 
ATOM     10  O   UNL d   1      -1.132   0.612  -0.403  0.00  0.00    -0.241 OA
ATOM     11  HN  UNL d   1       0.402   1.880   0.390  1.00  0.00     0.195 HD
ATOM     12  C   UNL d   1      -1.210  -0.733  -0.573  0.00  0.00     0.087 A 
ATOM     13  C   UNL d   1      -2.446  -1.234  -1.200  0.00  0.00     0.080 C 
BRANCH   8  14
ATOM     14  C   UNL d   1       2.083  -0.185   0.983  0.00  0.00     0.015 A 
ATOM     15  C   UNL d   1       2.457   0.663   2.046  0.00  0.00     0.048 A 
ATOM     16  C   UNL d   1       3.780   0.690   2.512  0.00  0.00     0.048 A 
ATOM     17 CL   UNL d   1       1.343   1.695   2.881  0.00  0.00    -0.083 Cl
ATOM     18  C   UNL d   1       4.736  -0.148   1.948  0.00  0.00     0.035 A 
ATOM     19  C   UNL d   1       4.390  -1.006   0.913  0.00  0.00     0.025 A 
ATOM     20 CL   UNL d   1       6.355  -0.119   2.529  0.00  0.00    -0.084 Cl
ATOM     21  C   UNL d   1       3.080  -1.009   0.424  0.00  0.00     0.017 A 
ENDBRANCH   8  14
ENDBRANCH   1   7
BRANCH   4  22
ATOM     22  N   UNL d   1       2.117  -5.181   1.657  0.00  0.00    -0.335 N 
ATOM     23  H   UNL d   1       2.616  -5.998   1.322  0.00  0.00     0.168 HD
BRANCH  22  24
ATOM     24  C   UNL d   1       2.181  -4.996   3.057  0.00  0.00     0.058 A 
ATOM     25  C   UNL d   1       1.159  -4.323   3.752  0.00  0.00     0.067 A 
ATOM     26  C   UNL d   1       1.222  -4.118   5.132  0.00  0.00     0.070 A 
ATOM     27  C   UNL d   1       2.335  -4.571   5.836  0.00  0.00     0.038 A 
ATOM     28  C   UNL d   1       3.377  -5.218   5.170  0.00  0.00     0.029 A 
ATOM     29  C   UNL d   1       3.301  -5.426   3.791  0.00  0.00     0.060 A 
ATOM     30 CL   UNL d   1       4.621  -6.221   3.005  0.00  0.00    -0.082 Cl
BRANCH  26  31
ATOM     31  O   UNL d   1       0.261  -3.502   5.887  0.00  0.00    -0.356 OA
ATOM     32  C   UNL d   1      -0.859  -2.967   5.185  0.00  0.00     0.210 C 
ENDBRANCH  26  31
ENDBRANCH  22  24
ENDBRANCH   4  22
TORSDOF 5
