REMARK  5 active torsions:
REMARK  status: ('A' for Active; 'I' for Inactive)
REMARK    1  A    between atoms: O_2  and  C_1 
REMARK       I    between atoms: N_4  and  C_1 
REMARK    2  A    between atoms: C_5  and  O_2 
REMARK    3  A    between atoms: C_12  and  N_4 
REMARK    4  A    between atoms: C_14  and  C_12 
REMARK    5  A    between atoms: C_13  and  C_14 
ROOT
ATOM      1  C   UNL d   1       1.150   0.107  -0.081  0.00  0.00     0.365 C 
ATOM      2  O   UNL d   1       0.547   0.651   0.836  0.00  0.00    -0.238 OA
ATOM      3  N   UNL d   1       2.517   0.150  -0.132  0.00  0.00    -0.336 N 
ATOM      4  H   UNL d   1       2.930   0.704   0.605  0.00  0.00     0.164 HD
ENDROOT
BRANCH   1   5
ATOM      5  O   UNL d   1       0.580  -0.589  -1.145  0.00  0.00    -0.262 OA
BRANCH   5   6
ATOM      6  C   UNL d   1      -0.801  -0.884  -1.246  0.00  0.00     0.081 A 
ATOM      7  C   UNL d   1      -1.258  -1.205  -2.528  0.00  0.00     0.039 A 
ATOM      8  C   UNL d   1      -2.588  -1.587  -2.716  0.00  0.00     0.026 A 
ATOM      9  C   UNL d   1      -3.451  -1.650  -1.623  0.00  0.00     0.034 A 
ATOM     10  C   UNL d   1      -2.996  -1.327  -0.344  0.00  0.00     0.026 A 
ATOM     11 CL   UNL d   1      -5.084  -2.145  -1.846  0.00  0.00    -0.084 Cl
ATOM     12  C   UNL d   1      -1.664  -0.950  -0.153  0.00  0.00     0.039 A 
ENDBRANCH   5   6
ENDBRANCH   1   5
BRANCH   3  13
ATOM     13  C   UNL d   1       3.327  -0.314  -1.240  0.00  0.00     0.129 C 
BRANCH  13  14
ATOM     14  C   UNL d   1       4.824  -0.157  -0.960  0.00  0.00     0.058 C 
BRANCH  14  15
ATOM     15  C   UNL d   1       5.644  -0.558  -2.158  0.00  0.00    -0.057 A 
ATOM     16  C   UNL d   1       6.011   0.396  -3.118  0.00  0.00     0.007 A 
ATOM     17  C   UNL d   1       6.704   0.012  -4.266  0.00  0.00     0.001 A 
ATOM     18  C   UNL d   1       7.039  -1.326  -4.464  0.00  0.00     0.000 A 
ATOM     19  C   UNL d   1       6.691  -2.280  -3.510  0.00  0.00     0.001 A 
ATOM     20  C   UNL d   1       5.998  -1.899  -2.360  0.00  0.00     0.007 A 
ENDBRANCH  14  15
ENDBRANCH  13  14
ENDBRANCH   3  13
TORSDOF 5
