REMARK  1 active torsions:
REMARK  status: ('A' for Active; 'I' for Inactive)
REMARK    1  A    between atoms: N_2  and  C_1 
ROOT
ATOM      1  C   UNL d   1      -2.306   0.027  -0.034  0.00  0.00     0.103 A 
ATOM      2  N   UNL d   1      -1.607   1.057  -0.560  0.00  0.00    -0.351 N 
ATOM      3  HN  UNL d   1      -2.087   1.819  -1.040  1.00  0.00     0.166 HD
ATOM      4  N   UNL d   1       3.050   0.177   0.345  0.00  0.00    -0.191 NA
ATOM      5  C   UNL d   1       1.893   0.128   0.268  0.00  0.00     0.101 C 
ATOM      6  C   UNL d   1       0.471   0.059   0.179  0.00  0.00     0.060 A 
ATOM      7  C   UNL d   1      -1.632  -1.023   0.593  0.00  0.00     0.050 A 
ATOM      8  C   UNL d   1      -0.254   1.062  -0.439  0.00  0.00     0.112 A 
ATOM      9  C   UNL d   1      -0.239  -1.013   0.701  0.00  0.00     0.028 A 
ENDROOT
BRANCH   1  10
ATOM     10  N   UNL d   1      -3.676   0.021  -0.152  0.00  0.00    -0.364 N 
ATOM     11  C   UNL d   1      -4.339   0.797  -1.206  0.00  0.00     0.154 C 
ATOM     12  C   UNL d   1      -5.346   1.809  -0.617  0.00  0.00     0.289 C 
ATOM     13  N   UNL d   1      -6.300   1.210   0.339  0.00  0.00     0.086 N 
ATOM     14  C   UNL d   1      -5.543   0.523   1.402  0.00  0.00     0.289 C 
ATOM     15  H   UNL d   1      -6.859   1.953   0.755  0.00  0.00     0.316 HD
ATOM     16  C   UNL d   1      -4.561  -0.546   0.870  0.00  0.00     0.154 C 
ENDBRANCH   1  10
TORSDOF 1
