REMARK  3 active torsions:
REMARK  status: ('A' for Active; 'I' for Inactive)
REMARK    1  A    between atoms: C_3  and  C_1 
REMARK    2  A    between atoms: C_2  and  C_5 
REMARK       I    between atoms: N_4  and  C_2 
REMARK    3  A    between atoms: C_11  and  N_4 
ROOT
ATOM      1  C   UNL d   1       0.880   0.640   1.252  0.00  0.00     0.048 A 
ATOM      2  C   UNL d   1       0.331   0.836   3.635  0.00  0.00     0.033 A 
ATOM      3  C   UNL d   1       0.583   0.054   2.491  0.00  0.00     0.033 A 
ATOM      4  C   UNL d   1       0.882   2.038   1.156  0.00  0.00     0.016 A 
ATOM      5  C   UNL d   1       0.368   2.230   3.520  0.00  0.00     0.017 A 
ATOM      6  C   UNL d   1       0.629   2.825   2.281  0.00  0.00     0.002 A 
ENDROOT
BRANCH   2   7
ATOM      7  C   UNL d   1       0.079   0.102   4.917  0.00  0.00     0.256 C 
ATOM      8  N   UNL d   1      -0.397   0.834   5.996  0.00  0.00    -0.323 N 
ATOM      9  H   UNL d   1      -0.666   1.792   5.842  0.00  0.00     0.169 HD
ATOM     10  O   UNL d   1       0.279  -1.112   4.914  0.00  0.00    -0.267 OA
BRANCH   8  11
ATOM     11  C   UNL d   1      -0.720   0.309   7.270  0.00  0.00     0.035 A 
ATOM     12  C   UNL d   1      -0.376  -0.980   7.690  0.00  0.00     0.029 A 
ATOM     13  C   UNL d   1      -0.799  -1.465   8.930  0.00  0.00     0.002 A 
ATOM     14  C   UNL d   1      -1.563  -0.662   9.771  0.00  0.00     0.000 A 
ATOM     15  C   UNL d   1      -1.874   0.639   9.385  0.00  0.00     0.002 A 
ATOM     16  C   UNL d   1      -1.446   1.127   8.146  0.00  0.00     0.029 A 
ENDBRANCH   8  11
ENDBRANCH   2   7
BRANCH   1  17
ATOM     17  C   UNL d   1       1.218  -0.211   0.052  0.00  0.00     0.417 C 
ATOM     18  F   UNL d   1       1.284  -1.545   0.323  0.00  0.00    -0.166 F 
ATOM     19  F   UNL d   1       2.424   0.118  -0.487  0.00  0.00    -0.166 F 
ATOM     20  F   UNL d   1       0.312  -0.076  -0.953  0.00  0.00    -0.166 F 
ENDBRANCH   1  17
TORSDOF 3
