REMARK  4 active torsions:
REMARK  status: ('A' for Active; 'I' for Inactive)
REMARK    1  A    between atoms: S_6  and  C_3 
REMARK    2  A    between atoms: C_7  and  C_4 
REMARK    3  A    between atoms: C_5  and  C_8 
REMARK    4  A    between atoms: C_8  and  S_6 
ROOT
ATOM      1  C   UNL d   1      -0.544   4.036  -0.011  0.00  0.00     0.108 C 
ENDROOT
BRANCH   1   2
ATOM      2  C   UNL d   1      -1.345   5.304   0.008  0.00  0.00    -0.015 C 
ATOM      3  C   UNL d   1      -0.808   6.533  -0.065  0.00  0.00     0.008 C 
BRANCH   3   4
ATOM      4  C   UNL d   1      -1.577   7.787  -0.012  0.00  0.00    -0.036 A 
ATOM      5  C   UNL d   1      -2.804   7.886   0.658  0.00  0.00     0.011 A 
ATOM      6  C   UNL d   1      -3.483   9.106   0.725  0.00  0.00     0.001 A 
ATOM      7  C   UNL d   1      -2.938  10.242   0.136  0.00  0.00     0.000 A 
ATOM      8  C   UNL d   1      -1.711  10.162  -0.519  0.00  0.00     0.001 A 
ATOM      9  C   UNL d   1      -1.032   8.942  -0.590  0.00  0.00     0.011 A 
ENDBRANCH   3   4
ENDBRANCH   1   2
BRANCH   1  10
ATOM     10  S   UNL d   1      -0.306   3.482   1.706  0.00  0.00    -0.109 SA
BRANCH  10  11
ATOM     11  C   UNL d   1       0.639   1.998   1.428  0.00  0.00     0.069 A 
ATOM     12  N   UNL d   1       0.864   1.605   0.154  0.00  0.00    -0.361 N 
ATOM     13  C   UNL d   1       1.569   0.468  -0.028  0.00  0.00     0.089 A 
ATOM     14  HN  UNL d   1       0.515   2.145  -0.637  1.00  0.00     0.165 HD
ATOM     15  C   UNL d   1       2.066  -0.305   1.007  0.00  0.00     0.017 A 
ATOM     16  C   UNL d   1       1.829   0.115   2.310  0.00  0.00     0.004 A 
ATOM     17  C   UNL d   1       1.105   1.284   2.527  0.00  0.00     0.037 A 
ENDBRANCH  10  11
ENDBRANCH   1  10
TORSDOF 4
