REMARK  3 active torsions:
REMARK  status: ('A' for Active; 'I' for Inactive)
REMARK    1  A    between atoms: O_11  and  C_3 
REMARK    2  A    between atoms: C_7  and  C_4 
REMARK    3  A    between atoms: O_12  and  C_7 
ROOT
ATOM      1  N   UNL d   1      -0.615   1.275  -0.001  0.00  0.00    -0.317 N 
ATOM      2  HN  UNL d   1      -1.128   2.157  -0.003  1.00  0.00     0.169 HD
ATOM      3  C   UNL d   1      -1.215   0.089  -0.002  0.00  0.00     0.222 A 
ATOM      4  C   UNL d   1       0.735   1.211   0.002  0.00  0.00     0.113 A 
ATOM      5  N   UNL d   1      -0.639  -1.115  -0.000  0.00  0.00    -0.326 N 
ATOM      6  HN  UNL d   1      -1.188  -1.974  -0.001  1.00  0.00     0.169 HD
ATOM      7  C   UNL d   1       1.450   0.028   0.003  0.00  0.00     0.060 A 
ATOM      8  C   UNL d   1       0.708  -1.132   0.002  0.00  0.00     0.011 A 
ATOM      9  C   UNL d   1       1.373  -2.475   0.004  0.00  0.00     0.068 C 
ENDROOT
BRANCH   4  10
ATOM     10  C   UNL d   1       1.507   2.487   0.003  0.00  0.00     0.309 C 
ATOM     11  O   UNL d   1       2.731   2.523   0.006  0.00  0.00    -0.258 OA
BRANCH  10  12
ATOM     12  O   UNL d   1       0.687   3.567   0.001  0.00  0.00    -0.321 OA
ATOM     13  C   UNL d   1       1.386   4.813   0.003  0.00  0.00     0.213 C 
ENDBRANCH  10  12
ENDBRANCH   4  10
BRANCH   3  14
ATOM     14  O   UNL d   1      -2.572   0.132  -0.005  0.00  0.00    -0.332 OA
ATOM     15  H   UNL d   1      -2.700   1.095  -0.006  0.00  0.00     0.220 HD
ENDBRANCH   3  14
TORSDOF 3
