REMARK  2 active torsions:
REMARK  status: ('A' for Active; 'I' for Inactive)
REMARK       I    between atoms: N_2  and  C_1 
REMARK    1  A    between atoms: C_4  and  C_1 
REMARK    2  A    between atoms: N_3  and  N_2 
REMARK       I    between atoms: C_5  and  N_3 
ROOT
ATOM      1  C   UNL d   1       1.133  -0.024   0.129  0.00  0.00     0.286 C 
ATOM      2  N   UNL d   1       0.354   1.071   0.436  0.00  0.00    -0.262 N 
ATOM      3  O   UNL d   1       2.350  -0.042   0.302  0.00  0.00    -0.264 OA
ATOM      4  H   UNL d   1      -0.657   1.085   0.280  0.00  0.00     0.190 HD
ENDROOT
BRANCH   1   5
ATOM      5  C   UNL d   1       0.402  -1.197  -0.437  0.00  0.00     0.102 A 
ATOM      6  N   UNL d   1      -0.944  -1.068  -0.599  0.00  0.00    -0.361 N 
ATOM      7  C   UNL d   1      -1.586  -2.136  -1.122  0.00  0.00     0.088 A 
ATOM      8  HN  UNL d   1      -1.438  -0.215  -0.340  1.00  0.00     0.165 HD
ATOM      9  C   UNL d   1      -0.957  -3.317  -1.489  0.00  0.00     0.017 A 
ATOM     10  C   UNL d   1       0.419  -3.420  -1.309  0.00  0.00     0.004 A 
ATOM     11  C   UNL d   1       1.115  -2.343  -0.773  0.00  0.00     0.035 A 
ENDBRANCH   1   5
BRANCH   2  12
ATOM     12  N   UNL d   1       0.982   2.204   0.949  0.00  0.00    -0.268 N 
ATOM     13  C   UNL d   1       0.246   3.337   1.207  0.00  0.00     0.232 C 
ATOM     14  O   UNL d   1      -0.967   3.418   1.030  0.00  0.00    -0.272 OA
ATOM     15  C   UNL d   1       1.064   4.485   1.736  0.00  0.00     0.119 C 
ATOM     16  H   UNL d   1       1.993   2.145   1.057  0.00  0.00     0.190 HD
ENDBRANCH   2  12
TORSDOF 2
