REMARK  2 active torsions:
REMARK  status: ('A' for Active; 'I' for Inactive)
REMARK       I    between atoms: N_2  and  C_1 
REMARK    1  A    between atoms: C_3  and  C_1 
REMARK    2  A    between atoms: C_5  and  N_2 
ROOT
ATOM      1  C   UNL d   1       2.447  -0.031   0.430  0.00  0.00     0.256 C 
ATOM      2  N   UNL d   1       3.037  -1.145  -0.148  0.00  0.00    -0.323 N 
ATOM      3  O   UNL d   1       3.014   0.877   1.023  0.00  0.00    -0.267 OA
ATOM      4  H   UNL d   1       2.425  -1.769  -0.660  0.00  0.00     0.169 HD
ENDROOT
BRANCH   1   5
ATOM      5  C   UNL d   1       0.966   0.033   0.271  0.00  0.00     0.038 A 
ATOM      6  C   UNL d   1       0.319   1.205  -0.172  0.00  0.00    -0.046 A 
ATOM      7  C   UNL d   1       1.047   2.476  -0.516  0.00  0.00     0.049 C 
ATOM      8  C   UNL d   1      -1.085   1.208  -0.253  0.00  0.00     0.007 A 
ATOM      9  C   UNL d   1      -1.826   0.073   0.079  0.00  0.00     0.001 A 
ATOM     10  C   UNL d   1      -1.180  -1.081   0.509  0.00  0.00     0.001 A 
ATOM     11  C   UNL d   1       0.210  -1.103   0.610  0.00  0.00     0.017 A 
ENDBRANCH   1   5
BRANCH   2  12
ATOM     12  C   UNL d   1       4.415  -1.449  -0.199  0.00  0.00     0.037 A 
ATOM     13  C   UNL d   1       5.403  -0.692   0.431  0.00  0.00     0.071 A 
ATOM     14  C   UNL d   1       6.744  -1.039   0.282  0.00  0.00     0.118 A 
ATOM     15  F   UNL d   1       7.687  -0.298   0.880  0.00  0.00    -0.206 F 
ATOM     16  C   UNL d   1       7.127  -2.135  -0.481  0.00  0.00     0.042 A 
ATOM     17  C   UNL d   1       6.149  -2.912  -1.094  0.00  0.00     0.005 A 
ATOM     18  C   UNL d   1       4.799  -2.573  -0.948  0.00  0.00     0.029 A 
ENDBRANCH   2  12
TORSDOF 2
