REMARK  7 active torsions:
REMARK  status: ('A' for Active; 'I' for Inactive)
REMARK    1  A    between atoms: N_7  and  S_1 
REMARK    2  A    between atoms: C_10  and  S_1 
REMARK    3  A    between atoms: C_16  and  N_2 
REMARK    4  A    between atoms: C_3  and  N_9 
REMARK    5  A    between atoms: C_8  and  C_3 
REMARK    6  A    between atoms: N_9  and  C_20 
REMARK    7  A    between atoms: C_23  and  C_14 
ROOT
ATOM      1  N   UNL d   1       0.322  -6.722  -1.008  0.00  0.00    -0.281 N 
ATOM      2  C   UNL d   1      -0.083  -6.688   1.344  0.00  0.00     0.139 A 
ATOM      3  C   UNL d   1       1.501  -7.046  -0.409  0.00  0.00     0.230 A 
ATOM      4  C   UNL d   1      -0.659  -6.497  -0.074  0.00  0.00     0.259 A 
ATOM      5  C   UNL d   1       1.384  -6.996   1.072  0.00  0.00     0.148 A 
ATOM      6  O   UNL d   1       2.572  -7.324  -0.929  0.00  0.00    -0.273 OA
ATOM      7  O   UNL d   1      -1.807  -6.137  -0.317  0.00  0.00    -0.270 OA
ENDROOT
BRANCH   2   8
ATOM      8  N   UNL d   1      -0.248  -5.429   2.098  0.00  0.00    -0.369 N 
ATOM      9  H   UNL d   1      -0.710  -4.688   1.575  0.00  0.00     0.161 HD
BRANCH   8  10
ATOM     10  C   UNL d   1       0.532  -5.032   3.173  0.00  0.00     0.029 A 
ATOM     11  C   UNL d   1       0.671  -3.665   3.442  0.00  0.00     0.031 A 
ATOM     12  C   UNL d   1       1.462  -3.213   4.503  0.00  0.00     0.027 A 
ATOM     13  C   UNL d   1       2.139  -4.136   5.306  0.00  0.00     0.074 A 
ATOM     14  C   UNL d   1       2.002  -5.500   5.071  0.00  0.00     0.027 A 
ATOM     15  C   UNL d   1       1.195  -5.936   4.016  0.00  0.00     0.031 A 
BRANCH  13  16
ATOM     16  S   UNL d   1       3.029  -3.571   6.734  0.00  0.00     0.243 S 
ATOM     17  O   UNL d   1       2.525  -2.260   7.060  0.00  0.00    -0.206 OA
ATOM     18  O   UNL d   1       3.000  -4.632   7.724  0.00  0.00    -0.206 OA
BRANCH  16  19
ATOM     19  N   UNL d   1       4.648  -3.417   6.210  0.00  0.00    -0.202 NA
ATOM     20  C   UNL d   1       4.923  -2.605   4.986  0.00  0.00     0.134 C 
ATOM     21  C   UNL d   1       4.822  -1.106   5.273  0.00  0.00     0.183 C 
ATOM     22  O   UNL d   1       5.751  -0.724   6.298  0.00  0.00    -0.389 OA
ATOM     23  C   UNL d   1       5.509  -1.446   7.516  0.00  0.00     0.183 C 
ATOM     24  C   UNL d   1       5.584  -2.968   7.301  0.00  0.00     0.134 C 
ENDBRANCH  16  19
ENDBRANCH  13  16
ENDBRANCH   8  10
ENDBRANCH   2   8
BRANCH   2  25
ATOM     25  C   UNL d   1      -0.809  -7.835   2.022  0.00  0.00     0.015 C 
ATOM     26  C   UNL d   1      -1.839  -7.729   2.881  0.00  0.00     0.010 C 
BRANCH  26  27
ATOM     27  C   UNL d   1      -2.461  -8.856   3.592  0.00  0.00    -0.036 A 
ATOM     28  C   UNL d   1      -1.729  -9.974   4.014  0.00  0.00     0.011 A 
ATOM     29  C   UNL d   1      -2.339 -10.986   4.762  0.00  0.00     0.001 A 
ATOM     30  C   UNL d   1      -3.685 -10.886   5.104  0.00  0.00     0.000 A 
ATOM     31  C   UNL d   1      -4.423  -9.776   4.697  0.00  0.00     0.001 A 
ATOM     32  C   UNL d   1      -3.813  -8.766   3.948  0.00  0.00     0.011 A 
ENDBRANCH  26  27
ENDBRANCH   2  25
BRANCH   1  33
ATOM     33  C   UNL d   1       0.081  -6.493  -2.444  0.00  0.00     0.096 C 
ATOM     34  C   UNL d   1       0.336  -7.706  -3.345  0.00  0.00     0.026 C 
ATOM     35  C   UNL d   1       1.803  -7.974  -3.656  0.00  0.00     0.002 C 
ATOM     36  C   UNL d   1       2.604  -6.726  -4.026  0.00  0.00     0.000 C 
ATOM     37  C   UNL d   1       2.285  -5.455  -3.239  0.00  0.00     0.002 C 
ATOM     38  C   UNL d   1       0.796  -5.251  -2.991  0.00  0.00     0.026 C 
ENDBRANCH   1  33
TORSDOF 7
