REMARK  3 active torsions:
REMARK  status: ('A' for Active; 'I' for Inactive)
REMARK    1  A    between atoms: C_7  and  C_1 
REMARK    2  A    between atoms: C_9  and  C_4 
REMARK    3  A    between atoms: N_8  and  C_7 
ROOT
ATOM      1  C   UNL d   1      -0.066  -1.030  -0.063  0.00  0.00     0.020 A 
ATOM      2  N   UNL d   1      -1.625   0.656  -0.108  0.00  0.00    -0.260 N 
ATOM      3  HN  UNL d   1      -2.507   1.169  -0.117  1.00  0.00     0.195 HD
ATOM      4  C   UNL d   1      -1.476  -0.673  -0.053  0.00  0.00     0.075 A 
ATOM      5  O   UNL d   1      -0.374   1.192  -0.151  0.00  0.00    -0.242 OA
ATOM      6  C   UNL d   1       0.563   0.211  -0.122  0.00  0.00     0.082 A 
ATOM      7  C   UNL d   1       1.939   0.749  -0.145  0.00  0.00     0.079 C 
ENDROOT
BRANCH   1   8
ATOM      8  C   UNL d   1       0.435  -2.448   0.023  0.00  0.00     0.160 C 
BRANCH   8   9
ATOM      9  N   UNL d   1       1.875  -2.694  -0.006  0.00  0.00    -0.408 N 
ATOM     10  C   UNL d   1       2.587  -2.317   1.203  0.00  0.00     0.117 C 
ATOM     11  C   UNL d   1       4.112  -2.402   1.123  0.00  0.00     0.019 C 
ATOM     12  C   UNL d   1       4.657  -1.920  -0.213  0.00  0.00     0.003 C 
ATOM     13  C   UNL d   1       4.000  -2.714  -1.329  0.00  0.00     0.019 C 
ATOM     14  C   UNL d   1       2.488  -2.532  -1.316  0.00  0.00     0.117 C 
ENDBRANCH   8   9
ENDBRANCH   1   8
BRANCH   4  15
ATOM     15  C   UNL d   1      -2.675  -1.520   0.049  0.00  0.00    -0.007 A 
ATOM     16  C   UNL d   1      -2.770  -2.770  -0.574  0.00  0.00     0.014 A 
ATOM     17  C   UNL d   1      -3.914  -3.561  -0.429  0.00  0.00     0.001 A 
ATOM     18  C   UNL d   1      -4.997  -3.096   0.313  0.00  0.00     0.000 A 
ATOM     19  C   UNL d   1      -4.939  -1.837   0.904  0.00  0.00     0.001 A 
ATOM     20  C   UNL d   1      -3.786  -1.058   0.776  0.00  0.00     0.014 A 
ENDBRANCH   4  15
TORSDOF 3
