REMARK  1 active torsions:
REMARK  status: ('A' for Active; 'I' for Inactive)
REMARK    1  A    between atoms: C_5  and  O_7 
ROOT
ATOM      1  C   UNL d   1       0.004  -0.726   0.254  0.00  0.00    -0.008 C 
ATOM      2  C   UNL d   1       1.274  -1.500  -0.131  0.00  0.00     0.036 C 
ATOM      3  C   UNL d   1       0.029   0.687  -0.358  0.00  0.00    -0.010 C 
ATOM      4  C   UNL d   1       1.274   1.446   0.131  0.00  0.00     0.007 C 
ATOM      5  C   UNL d   1       2.549  -0.759   0.278  0.00  0.00     0.118 C 
ATOM      6  C   UNL d   1       2.562   0.693  -0.207  0.00  0.00     0.032 C 
ATOM      7  C   UNL d   1      -1.258  -1.471  -0.184  0.00  0.00     0.005 C 
ATOM      8  C   UNL d   1      -1.244   1.479  -0.033  0.00  0.00     0.005 C 
ATOM      9  C   UNL d   1      -2.496  -0.725   0.301  0.00  0.00     0.000 C 
ATOM     10  C   UNL d   1      -2.543   0.701  -0.232  0.00  0.00     0.000 C 
ENDROOT
BRANCH   5  11
ATOM     11  O   UNL d   1       2.707  -0.803   1.696  0.00  0.00    -0.396 OA
ATOM     12  H   UNL d   1       1.983  -0.301   2.106  0.00  0.00     0.210 HD
ENDBRANCH   5  11
TORSDOF 1
