REMARK  0 active torsions:
REMARK  status: ('A' for Active; 'I' for Inactive)
ROOT
ATOM      1  C   UNL d   1       0.460   0.522   0.024  0.00  0.00     0.114 A 
ATOM      2  C   UNL d   1      -0.939   0.728   0.032  0.00  0.00     0.090 A 
ATOM      3  N   UNL d   1      -1.435   1.990   0.052  0.00  0.00    -0.354 N 
ATOM      4  HN  UNL d   1      -0.832   2.813   0.070  1.00  0.00     0.166 HD
ATOM      5  C   UNL d   1       1.027  -0.818   0.013  0.00  0.00     0.087 A 
ATOM      6  C   UNL d   1      -1.743  -0.441   0.021  0.00  0.00     0.062 A 
ATOM      7  N   UNL d   1      -3.080  -0.315   0.013  0.00  0.00    -0.356 N 
ATOM      8  HN  UNL d   1      -3.687  -1.135  -0.006  1.00  0.00     0.166 HD
ATOM      9  N   UNL d   1       1.480   1.395   0.022  0.00  0.00    -0.237 N 
ATOM     10  HN  UNL d   1       1.415   2.413   0.029  1.00  0.00     0.197 HD
ATOM     11  O   UNL d   1       2.636   0.636   0.009  0.00  0.00    -0.156 OA
ATOM     12  N   UNL d   1       2.359  -0.721   0.007  0.00  0.00    -0.239 N 
ATOM     13  HN  UNL d   1       3.033  -1.487   0.001  1.00  0.00     0.197 HD
ATOM     14  C   UNL d   1       0.228  -1.976   0.011  0.00  0.00     0.036 A 
ATOM     15  C   UNL d   1      -2.786   2.084   0.046  0.00  0.00     0.032 A 
ATOM     16  C   UNL d   1      -1.161  -1.726   0.013  0.00  0.00     0.034 A 
ATOM     17  C   UNL d   1      -3.598   0.947   0.030  0.00  0.00     0.032 A 
ATOM     18  C   UNL d   1      -3.365   3.468   0.140  0.00  0.00     0.059 C 
ATOM     19  C   UNL d   1      -5.096   1.052  -0.056  0.00  0.00     0.059 C 
ATOM     20  C   UNL d   1      -5.652   2.422   0.324  0.00  0.00     0.006 C 
ATOM     21  C   UNL d   1      -4.829   3.551  -0.286  0.00  0.00     0.006 C 
ENDROOT
TORSDOF 0
