REMARK  4 active torsions:
REMARK  status: ('A' for Active; 'I' for Inactive)
REMARK    1  A    between atoms: C_9  and  C_1 
REMARK    2  A    between atoms: C_8  and  C_3 
REMARK    3  A    between atoms: O_26  and  C_9 
REMARK    4  A    between atoms: C_11  and  C_10 
ROOT
ATOM      1  C   UNL d   1       2.094  -1.332  -0.008  0.00  0.00     0.052 A 
ATOM      2  C   UNL d   1      -0.324  -0.501   0.034  0.00  0.00     0.023 A 
ATOM      3  C   UNL d   1       0.603  -1.705  -0.085  0.00  0.00     0.098 A 
ATOM      4  C   UNL d   1       0.162   0.758   0.071  0.00  0.00     0.021 A 
ATOM      5  C   UNL d   1       2.483  -0.035   0.082  0.00  0.00     0.018 A 
ATOM      6  N   UNL d   1       1.526   0.969   0.101  0.00  0.00    -0.362 N 
ATOM      7  C   UNL d   1      -1.801  -0.699   0.032  0.00  0.00     0.159 C 
ATOM      8  C   UNL d   1      -2.151   1.708  -0.449  0.00  0.00     0.056 C 
ATOM      9  C   UNL d   1      -0.713   1.994   0.020  0.00  0.00     0.069 C 
ATOM     10  C   UNL d   1      -2.679   0.500   0.320  0.00  0.00     0.095 C 
ATOM     11  O   UNL d   1      -2.306  -1.797  -0.204  0.00  0.00    -0.293 OA
ATOM     12  C   UNL d   1       3.904   0.474   0.138  0.00  0.00     0.069 C 
ATOM     13  H   UNL d   1       1.857   1.930   0.105  0.00  0.00     0.165 HD
ENDROOT
BRANCH   3  14
ATOM     14  C   UNL d   1       0.234  -2.832   0.884  0.00  0.00    -0.044 A 
ATOM     15  C   UNL d   1      -0.144  -4.082   0.348  0.00  0.00     0.018 A 
ATOM     16  C   UNL d   1      -0.464  -5.111   1.210  0.00  0.00    -0.022 A 
ATOM     17  C   UNL d   1      -0.800  -6.517   0.906  0.00  0.00     0.068 C 
ATOM     18  C   UNL d   1      -0.428  -4.925   2.580  0.00  0.00     0.075 A 
ATOM     19  C   UNL d   1      -1.298  -6.944   2.287  0.00  0.00     0.180 C 
ATOM     20  O   UNL d   1      -0.758  -6.048   3.291  0.00  0.00    -0.350 OA
ATOM     21  C   UNL d   1      -0.065  -3.717   3.142  0.00  0.00     0.038 A 
ATOM     22  C   UNL d   1       0.271  -2.662   2.285  0.00  0.00     0.011 A 
ENDBRANCH   3  14
BRANCH   1  23
ATOM     23  C   UNL d   1       3.078  -2.449  -0.033  0.00  0.00     0.291 C 
ATOM     24  O   UNL d   1       4.127  -2.465   0.593  0.00  0.00    -0.260 OA
BRANCH  23  25
ATOM     25  O   UNL d   1       2.625  -3.447  -0.832  0.00  0.00    -0.323 OA
ATOM     26  C   UNL d   1       3.356  -4.675  -0.767  0.00  0.00     0.213 C 
ENDBRANCH  23  25
ENDBRANCH   1  23
BRANCH   8  27
ATOM     27  C   UNL d   1      -2.237   1.521  -1.941  0.00  0.00     0.057 A 
ATOM     28  O   UNL d   1      -1.803   2.568  -2.704  0.00  0.00    -0.327 OA
ATOM     29  C   UNL d   1      -1.933   2.197  -4.003  0.00  0.00     0.142 A 
ATOM     30  C   UNL d   1      -2.456   0.930  -4.095  0.00  0.00     0.027 A 
ATOM     31  C   UNL d   1      -2.669   0.499  -2.765  0.00  0.00     0.035 A 
ENDBRANCH   8  27
TORSDOF 4
