REMARK  6 active torsions:
REMARK  status: ('A' for Active; 'I' for Inactive)
REMARK    1  A    between atoms: C_2  and  C_1 
REMARK       I    between atoms: N_4  and  C_2 
REMARK    2  A    between atoms: C_3  and  N_5 
REMARK    3  A    between atoms: N_7  and  C_3 
REMARK    4  A    between atoms: N_5  and  N_4 
REMARK    5  A    between atoms: O_16  and  C_6 
REMARK    6  A    between atoms: C_12  and  N_7 
ROOT
ATOM      1  C   UNL d   1      -1.469   2.312  -0.032  0.00  0.00     0.272 C 
ATOM      2  N   UNL d   1      -2.823   2.393   0.211  0.00  0.00    -0.264 N 
ATOM      3  O   UNL d   1      -0.977   1.701  -0.977  0.00  0.00    -0.266 OA
ATOM      4  H   UNL d   1      -3.230   2.968   0.944  0.00  0.00     0.190 HD
ENDROOT
BRANCH   2   5
ATOM      5  N   UNL d   1      -3.710   1.578  -0.519  0.00  0.00    -0.273 N 
ATOM      6  H   UNL d   1      -3.247   0.853  -1.066  0.00  0.00     0.189 HD
BRANCH   5   7
ATOM      7  C   UNL d   1      -4.946   1.307   0.013  0.00  0.00     0.191 C 
ATOM      8  S   UNL d   1      -5.617   2.140   1.311  0.00  0.00    -0.039 SA
BRANCH   7   9
ATOM      9  N   UNL d   1      -5.651   0.255  -0.487  0.00  0.00    -0.332 N 
ATOM     10  H   UNL d   1      -6.402  -0.034   0.133  0.00  0.00     0.168 HD
BRANCH   9  11
ATOM     11  C   UNL d   1      -5.560  -0.456  -1.695  0.00  0.00     0.034 A 
ATOM     12  C   UNL d   1      -6.188  -1.709  -1.737  0.00  0.00     0.031 A 
ATOM     13  C   UNL d   1      -6.194  -2.465  -2.911  0.00  0.00     0.026 A 
ATOM     14  C   UNL d   1      -5.597  -1.956  -4.060  0.00  0.00     0.034 A 
ATOM     15  C   UNL d   1      -4.987  -0.703  -4.038  0.00  0.00     0.026 A 
ATOM     16 CL   UNL d   1      -5.632  -2.870  -5.517  0.00  0.00    -0.084 Cl
ATOM     17  C   UNL d   1      -4.966   0.048  -2.855  0.00  0.00     0.031 A 
ENDBRANCH   9  11
ENDBRANCH   7   9
ENDBRANCH   5   7
ENDBRANCH   2   5
BRANCH   1  18
ATOM     18  C   UNL d   1      -0.594   3.059   0.905  0.00  0.00     0.067 A 
ATOM     19  C   UNL d   1       0.578   3.658   0.428  0.00  0.00     0.081 A 
ATOM     20  C   UNL d   1       1.389   4.396   1.285  0.00  0.00     0.038 A 
ATOM     21  C   UNL d   1       1.061   4.501   2.639  0.00  0.00     0.009 A 
ATOM     22  C   UNL d   1      -0.079   3.864   3.147  0.00  0.00    -0.061 A 
ATOM     23  C   UNL d   1      -0.909   3.149   2.271  0.00  0.00     0.026 A 
ATOM     24  C   UNL d   1      -0.382   3.941   4.615  0.00  0.00     0.048 C 
BRANCH  19  25
ATOM     25  O   UNL d   1       0.988   3.561  -0.874  0.00  0.00    -0.360 OA
ATOM     26  H   UNL d   1       0.469   2.845  -1.303  0.00  0.00     0.217 HD
ENDBRANCH  19  25
ENDBRANCH   1  18
TORSDOF 6
