REMARK  8 active torsions:
REMARK  status: ('A' for Active; 'I' for Inactive)
REMARK    1  A    between atoms: N_4  and  S_1 
REMARK    2  A    between atoms: C_12  and  S_1 
REMARK    3  A    between atoms: C_7  and  C_2 
REMARK    4  A    between atoms: C_3  and  O_8 
REMARK    5  A    between atoms: C_5  and  N_4 
REMARK    6  A    between atoms: C_6  and  C_11 
REMARK    7  A    between atoms: O_26  and  C_7 
REMARK    8  A    between atoms: O_8  and  C_10 
ROOT
ATOM      1  C   UNL d   1       0.684   1.705   2.071  0.00  0.00     0.077 A 
ATOM      2  C   UNL d   1       1.927   1.417   2.655  0.00  0.00     0.103 A 
ATOM      3  C   UNL d   1       0.072   3.025   4.027  0.00  0.00     0.050 A 
ATOM      4  C   UNL d   1      -0.239   2.499   2.762  0.00  0.00     0.049 A 
ATOM      5  C   UNL d   1       2.207   1.874   3.947  0.00  0.00     0.040 A 
ATOM      6  C   UNL d   1       1.299   2.695   4.614  0.00  0.00     0.019 A 
ENDROOT
BRANCH   1   7
ATOM      7  N   UNL d   1       0.371   1.217   0.763  0.00  0.00    -0.278 N 
ATOM      8  H   UNL d   1       0.905   0.408   0.439  0.00  0.00     0.179 HD
BRANCH   7   9
ATOM      9  S   UNL d   1       0.069   2.315  -0.484  0.00  0.00     0.263 S 
ATOM     10  O   UNL d   1      -1.087   3.119  -0.151  0.00  0.00    -0.200 OA
ATOM     11  O   UNL d   1       0.131   1.562  -1.719  0.00  0.00    -0.200 OA
BRANCH   9  12
ATOM     12  C   UNL d   1       1.501   3.372  -0.430  0.00  0.00     0.080 A 
ATOM     13  C   UNL d   1       2.673   2.970  -1.078  0.00  0.00     0.027 A 
ATOM     14  C   UNL d   1       3.807   3.780  -1.005  0.00  0.00     0.025 A 
ATOM     15  C   UNL d   1       3.759   4.981  -0.296  0.00  0.00     0.034 A 
ATOM     16  C   UNL d   1       2.579   5.395   0.326  0.00  0.00     0.025 A 
ATOM     17 CL   UNL d   1       5.176   5.946  -0.160  0.00  0.00    -0.084 Cl
ATOM     18  C   UNL d   1       1.439   4.593   0.251  0.00  0.00     0.027 A 
ENDBRANCH   9  12
ENDBRANCH   7   9
ENDBRANCH   1   7
BRANCH   2  19
ATOM     19  O   UNL d   1       2.851   0.665   1.951  0.00  0.00    -0.307 OA
BRANCH  19  20
ATOM     20  C   UNL d   1       4.175   0.993   1.984  0.00  0.00     0.099 A 
ATOM     21  C   UNL d   1       5.180   0.048   1.852  0.00  0.00     0.114 A 
ATOM     22  S   UNL d   1       6.735   0.793   1.968  0.00  0.00    -0.093 SA
ATOM     23  C   UNL d   1       6.071   2.345   2.171  0.00  0.00     0.053 A 
ATOM     24  C   UNL d   1       4.699   2.320   2.125  0.00  0.00     0.046 A 
BRANCH  21  25
ATOM     25  C   UNL d   1       5.157  -1.395   1.677  0.00  0.00     0.302 C 
ATOM     26  O   UNL d   1       6.134  -2.107   1.480  0.00  0.00    -0.259 OA
BRANCH  25  27
ATOM     27  O   UNL d   1       3.886  -1.882   1.789  0.00  0.00    -0.322 OA
ATOM     28  C   UNL d   1       3.820  -3.309   1.713  0.00  0.00     0.213 C 
ENDBRANCH  25  27
ENDBRANCH  21  25
ENDBRANCH  19  20
ENDBRANCH   2  19
BRANCH   3  29
ATOM     29  C   UNL d   1      -0.874   3.958   4.746  0.00  0.00     0.417 C 
ATOM     30  F   UNL d   1      -2.099   4.056   4.165  0.00  0.00    -0.166 F 
ATOM     31  F   UNL d   1      -1.095   3.581   6.035  0.00  0.00    -0.166 F 
ATOM     32  F   UNL d   1      -0.383   5.226   4.806  0.00  0.00    -0.166 F 
ENDBRANCH   3  29
TORSDOF 8
