REMARK  1 active torsions:
REMARK  status: ('A' for Active; 'I' for Inactive)
REMARK    1  A    between atoms: C_8  and  N_5 
ROOT
ATOM      1  C   UNL d   1       0.914   0.754   0.049  0.00  0.00     0.141 C 
ATOM      2  N   UNL d   1      -0.116   1.007   0.784  0.00  0.00    -0.370 N 
ATOM      3  HN  UNL d   1      -0.239   1.859   1.331  1.00  0.00     0.161 HD
ATOM      4  S   UNL d   1       0.967  -0.839  -0.690  0.00  0.00    -0.088 SA
ATOM      5  N   UNL d   1       1.996   1.532  -0.230  0.00  0.00    -0.337 N 
ATOM      6  C   UNL d   1      -1.087  -0.095   0.729  0.00  0.00     0.137 C 
ATOM      7  C   UNL d   1      -0.388  -1.400   0.370  0.00  0.00     0.069 C 
ATOM      8  C   UNL d   1       0.167  -2.125   1.589  0.00  0.00     0.023 C 
ATOM      9  H   UNL d   1       2.692   1.089  -0.812  0.00  0.00     0.168 HD
ENDROOT
BRANCH   5  10
ATOM     10  C   UNL d   1       2.071   2.938  -0.205  0.00  0.00     0.034 A 
ATOM     11  C   UNL d   1       1.003   3.763   0.162  0.00  0.00     0.029 A 
ATOM     12  C   UNL d   1       1.130   5.155   0.176  0.00  0.00     0.002 A 
ATOM     13  C   UNL d   1       2.342   5.747  -0.156  0.00  0.00     0.000 A 
ATOM     14  C   UNL d   1       3.431   4.946  -0.485  0.00  0.00     0.002 A 
ATOM     15  C   UNL d   1       3.298   3.554  -0.502  0.00  0.00     0.029 A 
ENDBRANCH   5  10
TORSDOF 1
