REMARK  4 active torsions:
REMARK  status: ('A' for Active; 'I' for Inactive)
REMARK    1  A    between atoms: N_3  and  C_1 
REMARK    2  A    between atoms: N_4  and  C_1 
REMARK    3  A    between atoms: N_2  and  C_6 
REMARK    4  A    between atoms: C_15  and  N_4 
ROOT
ATOM      1  C   UNL d   1      -4.183   0.986  -1.206  0.00  0.00     0.030 A 
ATOM      2  C   UNL d   1      -3.511   1.229  -0.007  0.00  0.00     0.031 A 
ATOM      3  C   UNL d   1      -3.393   0.616  -2.308  0.00  0.00     0.031 A 
ATOM      4  C   UNL d   1      -1.358   0.683  -0.995  0.00  0.00     0.034 A 
ATOM      5  C   UNL d   1      -2.008   0.448  -2.206  0.00  0.00     0.032 A 
ATOM      6  C   UNL d   1      -2.122   1.076   0.102  0.00  0.00     0.032 A 
ENDROOT
BRANCH   4   7
ATOM      7  N   UNL d   1       0.019   0.412  -0.904  0.00  0.00    -0.333 N 
ATOM      8  H   UNL d   1       0.422  -0.103  -1.678  0.00  0.00     0.168 HD
BRANCH   7   9
ATOM      9  C   UNL d   1       0.977   1.022  -0.104  0.00  0.00     0.174 C 
ATOM     10  S   UNL d   1       0.890   2.622   0.407  0.00  0.00    -0.041 SA
BRANCH   9  11
ATOM     11  N   UNL d   1       2.077   0.182   0.144  0.00  0.00    -0.357 N 
ATOM     12  C   UNL d   1       1.941  -1.286   0.227  0.00  0.00     0.135 C 
ATOM     13  C   UNL d   1       2.342  -1.853   1.596  0.00  0.00     0.093 C 
ATOM     14  S   UNL d   1       4.063  -1.456   2.039  0.00  0.00    -0.166 SA
ATOM     15  C   UNL d   1       3.953   0.349   1.811  0.00  0.00     0.093 C 
ATOM     16  C   UNL d   1       3.434   0.698   0.417  0.00  0.00     0.135 C 
ENDBRANCH   9  11
ENDBRANCH   7   9
ENDBRANCH   4   7
BRANCH   1  17
ATOM     17  N   UNL d   1      -5.554   1.104  -1.345  0.00  0.00    -0.376 N 
ATOM     18  C   UNL d   1      -6.375   1.987  -0.500  0.00  0.00     0.154 C 
ATOM     19  C   UNL d   1      -7.273   1.175   0.458  0.00  0.00     0.136 C 
ATOM     20  C   UNL d   1      -8.262   2.088   1.172  0.00  0.00     0.041 C 
ATOM     21  O   UNL d   1      -8.046   0.190  -0.258  0.00  0.00    -0.378 OA
ATOM     22  C   UNL d   1      -7.179  -0.726  -0.952  0.00  0.00     0.136 C 
ATOM     23  C   UNL d   1      -6.310   0.016  -1.992  0.00  0.00     0.154 C 
ATOM     24  C   UNL d   1      -8.059  -1.770  -1.625  0.00  0.00     0.041 C 
ENDBRANCH   1  17
TORSDOF 4
