REMARK  4 active torsions:
REMARK  status: ('A' for Active; 'I' for Inactive)
REMARK    1  A    between atoms: N_2  and  C_1 
REMARK    2  A    between atoms: C_3  and  N_2 
REMARK    3  A    between atoms: C_5  and  C_14 
REMARK    4  A    between atoms: C_14  and  N_7 
ROOT
ATOM      1  C   UNL d   1       1.218  -0.015  -0.150  0.00  0.00     0.172 C 
ATOM      2  S   UNL d   1       2.807  -0.273   0.309  0.00  0.00    -0.041 SA
ATOM      3  N   UNL d   1       0.522  -1.093  -0.616  0.00  0.00    -0.361 N 
ATOM      4  H   UNL d   1       1.115  -1.902  -0.774  0.00  0.00     0.162 HD
ENDROOT
BRANCH   1   5
ATOM      5  N   UNL d   1       0.500   1.159  -0.062  0.00  0.00    -0.333 N 
ATOM      6  H   UNL d   1      -0.332   1.041   0.503  0.00  0.00     0.168 HD
BRANCH   5   7
ATOM      7  C   UNL d   1       1.075   2.455  -0.012  0.00  0.00     0.040 C 
ATOM      8  C   UNL d   1       2.000   2.909  -0.969  0.00  0.00    -0.035 C 
ATOM      9  C   UNL d   1       2.630   4.149  -0.763  0.00  0.00     0.015 C 
ATOM     10  C   UNL d   1       2.339   2.160  -2.228  0.00  0.00     0.050 C 
ATOM     11  C   UNL d   1       2.308   4.959   0.329  0.00  0.00    -0.061 C 
ATOM     12  C   UNL d   1       1.294   4.551   1.199  0.00  0.00     0.009 C 
ATOM     13  C   UNL d   1       3.083   6.220   0.572  0.00  0.00     0.048 C 
ATOM     14  C   UNL d   1       0.671   3.310   1.020  0.00  0.00     0.030 C 
ENDBRANCH   5   7
ENDBRANCH   1   5
BRANCH   3  15
ATOM     15  C   UNL d   1      -0.704  -1.038  -1.390  0.00  0.00     0.187 C 
BRANCH  15  16
ATOM     16  C   UNL d   1      -1.146  -2.423  -1.683  0.00  0.00     0.070 A 
ATOM     17  O   UNL d   1      -1.199  -2.784  -2.998  0.00  0.00    -0.325 OA
ATOM     18  C   UNL d   1      -1.615  -4.075  -3.041  0.00  0.00     0.142 A 
ATOM     19  C   UNL d   1      -1.830  -4.554  -1.770  0.00  0.00     0.027 A 
ATOM     20  C   UNL d   1      -1.526  -3.488  -0.890  0.00  0.00     0.036 A 
ENDBRANCH  15  16
ENDBRANCH   3  15
TORSDOF 4
