REMARK  4 active torsions:
REMARK  status: ('A' for Active; 'I' for Inactive)
REMARK    1  A    between atoms: C_4  and  C_1 
REMARK    2  A    between atoms: C_12  and  C_2 
REMARK    3  A    between atoms: C_14  and  N_3 
REMARK    4  A    between atoms: C_15  and  N_5 
ROOT
ATOM      1  C   UNL d   1      -0.232   1.280  -0.005  0.00  0.00     0.061 A 
ATOM      2  C   UNL d   1       1.084   0.862  -0.107  0.00  0.00     0.155 A 
ATOM      3  N   UNL d   1       1.051  -0.533  -0.066  0.00  0.00    -0.249 N 
ATOM      4  N   UNL d   1      -0.235  -0.970  -0.024  0.00  0.00    -0.303 N 
ATOM      5  HN  UNL d   1      -0.551  -1.939  -0.041  1.00  0.00     0.186 HD
ATOM      6  C   UNL d   1      -0.993   0.110   0.042  0.00  0.00     0.125 A 
ENDROOT
BRANCH   1   7
ATOM      7  C   UNL d   1      -0.751   2.669   0.052  0.00  0.00     0.152 C 
ATOM      8  N   UNL d   1      -1.895   3.106   0.705  0.00  0.00    -0.224 N 
ATOM      9  N   UNL d   1      -2.230   4.310   0.191  0.00  0.00     0.001 NA
ATOM     10  N   UNL d   1      -1.199   4.679  -0.557  0.00  0.00    -0.007 NA
ATOM     11  N   UNL d   1      -0.262   3.676  -0.636  0.00  0.00    -0.269 N 
ATOM     12  HN  UNL d   1       0.631   3.708  -1.128  1.00  0.00     0.185 HD
BRANCH   8  13
ATOM     13  C   UNL d   1      -2.575   2.545   1.810  0.00  0.00     0.056 A 
ATOM     14  C   UNL d   1      -1.887   1.749   2.740  0.00  0.00     0.031 A 
ATOM     15  C   UNL d   1      -2.563   1.202   3.830  0.00  0.00     0.002 A 
ATOM     16  C   UNL d   1      -3.925   1.441   3.994  0.00  0.00     0.000 A 
ATOM     17  C   UNL d   1      -4.609   2.246   3.082  0.00  0.00     0.002 A 
ATOM     18  C   UNL d   1      -3.935   2.817   1.999  0.00  0.00     0.031 A 
ENDBRANCH   8  13
ENDBRANCH   1   7
BRANCH   2  19
ATOM     19  C   UNL d   1       2.318   1.661  -0.069  0.00  0.00     0.435 C 
ATOM     20  F   UNL d   1       2.115   2.921   0.389  0.00  0.00    -0.165 F 
ATOM     21  F   UNL d   1       3.247   1.125   0.762  0.00  0.00    -0.165 F 
ATOM     22  F   UNL d   1       2.887   1.778  -1.292  0.00  0.00    -0.165 F 
ENDBRANCH   2  19
BRANCH   3  23
ATOM     23  C   UNL d   1       2.098  -1.512  -0.093  0.00  0.00     0.078 A 
ATOM     24  C   UNL d   1       1.944  -2.787   0.501  0.00  0.00     0.062 A 
ATOM     25 CL   UNL d   1       0.588  -3.298   1.457  0.00  0.00    -0.082 Cl
ATOM     26  C   UNL d   1       2.985  -3.728   0.435  0.00  0.00     0.026 A 
ATOM     27  C   UNL d   1       4.185  -3.420  -0.197  0.00  0.00     0.002 A 
ATOM     28  C   UNL d   1       4.346  -2.174  -0.787  0.00  0.00     0.002 A 
ATOM     29  C   UNL d   1       3.309  -1.236  -0.751  0.00  0.00     0.033 A 
ENDBRANCH   3  23
TORSDOF 4
