REMARK  3 active torsions:
REMARK  status: ('A' for Active; 'I' for Inactive)
REMARK    1  A    between atoms: O_11  and  N_4 
REMARK    2  A    between atoms: C_10  and  C_6 
REMARK    3  A    between atoms: O_13  and  N_8 
ROOT
ATOM      1  C   UNL d   1      -2.347   0.892   0.435  0.00  0.00     0.084 A 
ATOM      2  N   UNL d   1      -3.686   1.209   0.348  0.00  0.00    -0.337 N 
ATOM      3  HN  UNL d   1      -4.090   2.023  -0.115  1.00  0.00     0.167 HD
ATOM      4  N   UNL d   1      -3.449  -0.699   1.434  0.00  0.00    -0.209 N 
ATOM      5  C   UNL d   1      -2.194  -0.318   1.083  0.00  0.00     0.071 A 
ATOM      6  C   UNL d   1      -4.348   0.249   0.985  0.00  0.00     0.144 A 
ATOM      7  C   UNL d   1      -1.172   1.616  -0.053  0.00  0.00     0.060 C 
ATOM      8  N   UNL d   1      -1.130   2.841  -0.486  0.00  0.00    -0.271 N 
ATOM      9  HN  UNL d   1      -0.284   3.281  -0.846  1.00  0.00     0.194 HD
ATOM     10  C   UNL d   1      -0.932  -1.044   1.344  0.00  0.00     0.062 C 
ATOM     11  C   UNL d   1       0.135   0.816  -0.043  0.00  0.00     0.062 C 
ATOM     12  C   UNL d   1       0.247  -0.065   1.212  0.00  0.00     0.012 C 
ENDROOT
BRANCH   6  13
ATOM     13  C   UNL d   1      -5.806   0.188   1.151  0.00  0.00     0.010 A 
ATOM     14  C   UNL d   1      -6.637   0.773   0.186  0.00  0.00     0.015 A 
ATOM     15  C   UNL d   1      -8.031   0.732   0.313  0.00  0.00     0.001 A 
ATOM     16  C   UNL d   1      -8.610   0.114   1.422  0.00  0.00     0.000 A 
ATOM     17  C   UNL d   1      -7.798  -0.455   2.400  0.00  0.00     0.001 A 
ATOM     18  C   UNL d   1      -6.406  -0.415   2.267  0.00  0.00     0.015 A 
ENDBRANCH   6  13
BRANCH   4  19
ATOM     19  O   UNL d   1      -3.732  -1.884   2.103  0.00  0.00    -0.281 OA
ATOM     20  H   UNL d   1      -3.461  -2.517   1.417  0.00  0.00     0.245 HD
ENDBRANCH   4  19
BRANCH   8  21
ATOM     21  O   UNL d   1      -2.362   3.492  -0.408  0.00  0.00    -0.290 OA
ATOM     22  H   UNL d   1      -2.150   4.393  -0.708  0.00  0.00     0.244 HD
ENDBRANCH   8  21
TORSDOF 3
