REMARK  6 active torsions:
REMARK  status: ('A' for Active; 'I' for Inactive)
REMARK    1  A    between atoms: C_3  and  N_1 
REMARK    2  A    between atoms: S_12  and  C_2 
REMARK    3  A    between atoms: C_11  and  C_8 
REMARK    4  A    between atoms: C_17  and  C_11 
REMARK    5  A    between atoms: C_15  and  C_17 
REMARK    6  A    between atoms: O_23  and  C_16 
ROOT
ATOM      1  N   UNL d   1      -0.162  -1.258  -0.167  0.00  0.00    -0.279 N 
ATOM      2  C   UNL d   1       1.017  -0.584  -0.450  0.00  0.00     0.164 C 
ATOM      3  N   UNL d   1       0.840   0.711  -0.342  0.00  0.00    -0.278 N 
ATOM      4  HN  UNL d   1       1.563   1.425  -0.421  1.00  0.00     0.189 HD
ATOM      5  N   UNL d   1      -0.485   0.930  -0.105  0.00  0.00    -0.286 N 
ATOM      6  HN  UNL d   1      -0.922   1.842   0.027  1.00  0.00     0.188 HD
ATOM      7  C   UNL d   1      -1.108  -0.233  -0.074  0.00  0.00     0.105 C 
ENDROOT
BRANCH   7   8
ATOM      8  C   UNL d   1      -2.589  -0.393   0.104  0.00  0.00     0.083 C 
BRANCH   8   9
ATOM      9  C   UNL d   1      -3.305   0.962   0.233  0.00  0.00     0.046 C 
BRANCH   9  10
ATOM     10  C   UNL d   1      -4.821   0.944   0.278  0.00  0.00    -0.058 A 
ATOM     11  C   UNL d   1      -5.591  -0.226   0.296  0.00  0.00     0.010 A 
ATOM     12  C   UNL d   1      -6.988  -0.158   0.328  0.00  0.00     0.037 A 
ATOM     13  C   UNL d   1      -7.624   1.076   0.347  0.00  0.00     0.065 A 
ATOM     14  C   UNL d   1      -6.885   2.252   0.333  0.00  0.00     0.037 A 
ATOM     15  C   UNL d   1      -5.490   2.182   0.299  0.00  0.00     0.010 A 
BRANCH  13  16
ATOM     16  O   UNL d   1      -8.987   1.091   0.379  0.00  0.00    -0.361 OA
ATOM     17  H   UNL d   1      -9.285   2.014   0.406  0.00  0.00     0.217 HD
ENDBRANCH  13  16
ENDBRANCH   9  10
ENDBRANCH   8   9
ENDBRANCH   7   8
BRANCH   1  18
ATOM     18  C   UNL d   1      -0.375  -2.667  -0.067  0.00  0.00     0.050 A 
ATOM     19  C   UNL d   1       0.452  -3.509   0.720  0.00  0.00    -0.013 A 
ATOM     20  C   UNL d   1       0.227  -4.904   0.656  0.00  0.00     0.042 A 
ATOM     21  C   UNL d   1       1.520  -2.999   1.660  0.00  0.00     0.052 C 
ATOM     22 CL   UNL d   1       1.239  -6.035   1.491  0.00  0.00    -0.084 Cl
ATOM     23  C   UNL d   1      -0.825  -5.437  -0.092  0.00  0.00     0.024 A 
ATOM     24  C   UNL d   1      -1.662  -4.596  -0.813  0.00  0.00     0.004 A 
ATOM     25  C   UNL d   1      -1.427  -3.222  -0.817  0.00  0.00     0.031 A 
ENDBRANCH   1  18
BRANCH   2  26
ATOM     26  S   UNL d   1       2.473  -1.284  -1.084  0.00  0.00    -0.105 SA
ATOM     27  H   UNL d   1       2.049  -2.537  -1.289  0.00  0.00     0.110 HD
ENDBRANCH   2  26
TORSDOF 6
