REMARK  5 active torsions:
REMARK  status: ('A' for Active; 'I' for Inactive)
REMARK    1  A    between atoms: C_12  and  C_3 
REMARK    2  A    between atoms: O_13  and  C_6 
REMARK    3  A    between atoms: C_11  and  C_7 
REMARK    4  A    between atoms: O_19  and  C_12 
REMARK    5  A    between atoms: C_18  and  O_13 
ROOT
ATOM      1  C   UNL d   1      -0.289  -0.744   0.013  0.00  0.00     0.069 A 
ATOM      2  C   UNL d   1      -0.209   0.695  -0.005  0.00  0.00     0.033 A 
ATOM      3  C   UNL d   1      -1.585  -1.214  -0.016  0.00  0.00     0.107 A 
ATOM      4  N   UNL d   1       0.825  -1.523   0.044  0.00  0.00    -0.350 N 
ATOM      5  HN  UNL d   1       0.793  -2.542   0.026  1.00  0.00     0.166 HD
ATOM      6  C   UNL d   1       0.974   1.440   0.012  0.00  0.00     0.091 A 
ATOM      7  C   UNL d   1       1.998  -0.807   0.104  0.00  0.00     0.119 A 
ATOM      8  S   UNL d   1      -2.697   0.111  -0.053  0.00  0.00    -0.093 SA
ATOM      9  C   UNL d   1       2.097   0.613   0.130  0.00  0.00     0.072 A 
ATOM     10  C   UNL d   1      -1.450   1.283  -0.042  0.00  0.00     0.067 A 
ENDROOT
BRANCH   6  11
ATOM     11  O   UNL d   1       0.984   2.810  -0.035  0.00  0.00    -0.310 OA
BRANCH  11  12
ATOM     12  C   UNL d   1       2.040   3.453  -0.642  0.00  0.00     0.076 A 
ATOM     13  C   UNL d   1       2.720   2.960  -1.762  0.00  0.00     0.039 A 
ATOM     14  C   UNL d   1       3.820   3.651  -2.272  0.00  0.00     0.026 A 
ATOM     15  C   UNL d   1       4.200   4.865  -1.702  0.00  0.00     0.034 A 
ATOM     16  C   UNL d   1       3.478   5.400  -0.637  0.00  0.00     0.026 A 
ATOM     17 CL   UNL d   1       5.567   5.706  -2.321  0.00  0.00    -0.084 Cl
ATOM     18  C   UNL d   1       2.396   4.693  -0.107  0.00  0.00     0.039 A 
ENDBRANCH  11  12
ENDBRANCH   6  11
BRANCH   7  19
ATOM     19  C   UNL d   1       3.321  -1.575   0.085  0.00  0.00     0.432 C 
ATOM     20  F   UNL d   1       3.192  -2.929   0.031  0.00  0.00    -0.165 F 
ATOM     21  F   UNL d   1       4.094  -1.232  -0.990  0.00  0.00    -0.165 F 
ATOM     22  F   UNL d   1       4.090  -1.312   1.181  0.00  0.00    -0.165 F 
ENDBRANCH   7  19
BRANCH   3  23
ATOM     23  C   UNL d   1      -2.132  -2.556  -0.018  0.00  0.00     0.302 C 
ATOM     24  O   UNL d   1      -3.323  -2.842  -0.036  0.00  0.00    -0.259 OA
BRANCH  23  25
ATOM     25  O   UNL d   1      -1.140  -3.494   0.006  0.00  0.00    -0.322 OA
ATOM     26  C   UNL d   1      -1.608  -4.842   0.007  0.00  0.00     0.213 C 
ENDBRANCH  23  25
ENDBRANCH   3  23
TORSDOF 5
