REMARK  1 active torsions:
REMARK  status: ('A' for Active; 'I' for Inactive)
REMARK    1  A    between atoms: C_9  and  N_8 
ROOT
ATOM      1  C   UNL d   1       1.591   0.094   0.033  0.00  0.00     0.161 A 
ATOM      2  S   UNL d   1       0.239   0.991  -0.547  0.00  0.00    -0.039 SA
ATOM      3  N   UNL d   1       1.260  -1.098   0.493  0.00  0.00    -0.279 N 
ATOM      4  HN  UNL d   1       1.933  -1.756   0.886  1.00  0.00     0.189 HD
ATOM      5  N   UNL d   1      -0.088  -1.362   0.387  0.00  0.00    -0.296 N 
ATOM      6  HN  UNL d   1      -0.527  -2.227   0.703  1.00  0.00     0.187 HD
ATOM      7  C   UNL d   1      -0.742  -0.366  -0.170  0.00  0.00     0.066 A 
ATOM      8  N   UNL d   1       2.840   0.610  -0.021  0.00  0.00    -0.365 N 
ATOM      9  C   UNL d   1      -2.194  -0.388  -0.476  0.00  0.00     0.078 C 
ATOM     10  H   UNL d   1       2.972   1.522  -0.443  0.00  0.00     0.162 HD
ENDROOT
BRANCH   8  11
ATOM     11  C   UNL d   1       3.990  -0.284   0.021  0.00  0.00     0.075 C 
ATOM     12  C   UNL d   1       5.115   0.298  -0.836  0.00  0.00     0.032 C 
ATOM     13  C   UNL d   1       4.452  -0.461   1.463  0.00  0.00     0.032 C 
ENDBRANCH   8  11
TORSDOF 1
