REMARK  7 active torsions:
REMARK  status: ('A' for Active; 'I' for Inactive)
REMARK       I    between atoms: C_2  and  N_1 
REMARK    1  A    between atoms: C_4  and  N_1 
REMARK    2  A    between atoms: C_8  and  N_1 
REMARK    3  A    between atoms: C_10  and  C_2 
REMARK    4  A    between atoms: C_3  and  C_4 
REMARK    5  A    between atoms: C_7  and  C_12 
REMARK    6  A    between atoms: O_13  and  C_7 
REMARK    7  A    between atoms: C_12  and  C_10 
ROOT
ATOM      1  N   UNL d   1       1.082  -0.111  -0.095  0.00  0.00    -0.313 N 
ATOM      2  C   UNL d   1       0.399  -1.345  -0.030  0.00  0.00     0.225 C 
ATOM      3  O   UNL d   1       0.952  -2.444   0.050  0.00  0.00    -0.273 OA
ENDROOT
BRANCH   1   4
ATOM      4  C   UNL d   1       0.359   1.191   0.013  0.00  0.00     0.093 C 
ATOM      5  C   UNL d   1       0.938   2.396  -0.736  0.00  0.00     0.033 C 
BRANCH   4   6
ATOM      6  C   UNL d   1       0.019   1.597   1.441  0.00  0.00     0.009 A 
ATOM      7  C   UNL d   1       1.084   1.871   2.476  0.00  0.00     0.007 A 
ATOM      8  C   UNL d   1       0.145   0.711   2.660  0.00  0.00     0.007 A 
ENDBRANCH   4   6
ENDBRANCH   1   4
BRANCH   1   9
ATOM      9  C   UNL d   1       2.514  -0.113   0.004  0.00  0.00     0.037 A 
ATOM     10  C   UNL d   1       3.299   0.521  -0.966  0.00  0.00     0.030 A 
ATOM     11  C   UNL d   1       4.688   0.598  -0.836  0.00  0.00     0.002 A 
ATOM     12  C   UNL d   1       5.316   0.019   0.262  0.00  0.00     0.000 A 
ATOM     13  C   UNL d   1       4.557  -0.668   1.206  0.00  0.00     0.002 A 
ATOM     14  C   UNL d   1       3.166  -0.751   1.067  0.00  0.00     0.030 A 
ENDBRANCH   1   9
BRANCH   2  15
ATOM     15  C   UNL d   1      -1.120  -1.274  -0.135  0.00  0.00     0.114 C 
BRANCH  15  16
ATOM     16  C   UNL d   1      -1.804  -2.634  -0.171  0.00  0.00     0.119 C 
BRANCH  16  17
ATOM     17  C   UNL d   1      -3.303  -2.446  -0.252  0.00  0.00     0.139 C 
ATOM     18  O   UNL d   1      -3.874  -1.368  -0.249  0.00  0.00    -0.650 OA
BRANCH  17  19
ATOM     19  O   UNL d   1      -3.971  -3.617  -0.332  0.00  0.00    -0.776 OA
ATOM     20  H   UNL d   1      -3.392  -4.402  -0.328  0.00  0.00     0.167 HD
ENDBRANCH  17  19
ENDBRANCH  16  17
ENDBRANCH  15  16
ENDBRANCH   2  15
TORSDOF 7
