REMARK  4 active torsions:
REMARK  status: ('A' for Active; 'I' for Inactive)
REMARK    1  A    between atoms: C_9  and  C_1 
REMARK    2  A    between atoms: O_11  and  C_3 
REMARK    3  A    between atoms: C_13  and  N_5 
REMARK    4  A    between atoms: C_14  and  C_13 
ROOT
ATOM      1  C   UNL d   1      -0.083   1.973  -0.001  0.00  0.00     0.015 A 
ATOM      2  C   UNL d   1      -0.971  -0.272   0.050  0.00  0.00     0.069 A 
ATOM      3  C   UNL d   1      -1.181   1.113   0.046  0.00  0.00     0.099 A 
ATOM      4  C   UNL d   1       0.320  -0.798   0.007  0.00  0.00     0.050 A 
ATOM      5  C   UNL d   1       1.216   1.446  -0.048  0.00  0.00     0.039 A 
ATOM      6  C   UNL d   1       1.409   0.068  -0.043  0.00  0.00     0.036 A 
ATOM      7 CL   UNL d   1      -2.314  -1.355   0.110  0.00  0.00    -0.081 Cl
ATOM      8 CL   UNL d   1       3.006  -0.568  -0.094  0.00  0.00    -0.084 Cl
ENDROOT
BRANCH   1   9
ATOM      9  C   UNL d   1      -0.259   3.441  -0.002  0.00  0.00     0.097 C 
ATOM     10  N   UNL d   1       0.773   4.210  -0.021  0.00  0.00    -0.394 N 
ATOM     11  HN  UNL d   1       1.721   3.834  -0.023  1.00  0.00     0.159 HD
BRANCH  10  12
ATOM     12  C   UNL d   1       0.516   5.652  -0.043  0.00  0.00     0.157 C 
BRANCH  12  13
ATOM     13  C   UNL d   1       1.593   6.404  -0.799  0.00  0.00    -0.041 A 
ATOM     14  C   UNL d   1       1.296   7.630  -1.411  0.00  0.00     0.009 A 
ATOM     15  C   UNL d   1       2.289   8.347  -2.085  0.00  0.00     0.001 A 
ATOM     16  C   UNL d   1       3.591   7.853  -2.146  0.00  0.00     0.000 A 
ATOM     17  C   UNL d   1       3.903   6.644  -1.530  0.00  0.00     0.001 A 
ATOM     18  C   UNL d   1       2.912   5.929  -0.855  0.00  0.00     0.009 A 
ENDBRANCH  12  13
ENDBRANCH  10  12
ENDBRANCH   1   9
BRANCH   3  19
ATOM     19  O   UNL d   1      -2.451   1.627   0.090  0.00  0.00    -0.358 OA
ATOM     20  H   UNL d   1      -3.075   0.876   0.114  0.00  0.00     0.217 HD
ENDBRANCH   3  19
TORSDOF 4
