REMARK  2 active torsions:
REMARK  status: ('A' for Active; 'I' for Inactive)
REMARK    1  A    between atoms: C_2  and  C_1 
REMARK    2  A    between atoms: C_10  and  N_3 
ROOT
ATOM      1  C   UNL d   1      -0.232  -1.921  -0.464  0.00  0.00     0.151 C 
ATOM      2  N   UNL d   1       0.820  -1.139  -0.000  0.00  0.00    -0.224 N 
ATOM      3  N   UNL d   1       0.300   0.027   0.451  0.00  0.00     0.001 NA
ATOM      4  N   UNL d   1      -0.960   0.039   0.043  0.00  0.00    -0.007 NA
ATOM      5  N   UNL d   1      -1.298  -1.147  -0.552  0.00  0.00    -0.269 N 
ATOM      6  HN  UNL d   1      -2.194  -1.386  -0.978  1.00  0.00     0.185 HD
ENDROOT
BRANCH   1   7
ATOM      7  C   UNL d   1      -0.243  -3.377  -0.791  0.00  0.00     0.038 C 
ATOM      8  C   UNL d   1       0.607  -4.423  -0.318  0.00  0.00     0.008 A 
ATOM      9  C   UNL d   1       0.342  -5.541  -1.113  0.00  0.00     0.043 A 
ATOM     10  C   UNL d   1       1.603  -4.537   0.677  0.00  0.00     0.038 A 
ATOM     11  C   UNL d   1       1.115  -6.708  -1.060  0.00  0.00     0.032 A 
ATOM     12  N   UNL d   1      -0.764  -5.242  -1.877  0.00  0.00    -0.364 N 
ATOM     13  C   UNL d   1       2.167  -6.750  -0.139  0.00  0.00     0.026 A 
ATOM     14  C   UNL d   1       2.388  -5.690   0.734  0.00  0.00     0.035 A 
ATOM     15 CL   UNL d   1       3.666  -5.781   1.884  0.00  0.00    -0.084 Cl
ATOM     16  C   UNL d   1      -1.146  -3.943  -1.666  0.00  0.00     0.104 C 
ATOM     17  H   UNL d   1      -1.216  -5.885  -2.513  0.00  0.00     0.165 HD
ENDBRANCH   1   7
BRANCH   2  18
ATOM     18  C   UNL d   1       2.221  -1.351  -0.031  0.00  0.00     0.057 A 
ATOM     19  C   UNL d   1       2.807  -2.170  -1.009  0.00  0.00     0.043 A 
ATOM     20  C   UNL d   1       4.175  -2.482  -0.953  0.00  0.00    -0.024 A 
ATOM     21  C   UNL d   1       4.763  -3.358  -1.885  0.00  0.00     0.012 A 
ATOM     22  C   UNL d   1       4.972  -1.930   0.071  0.00  0.00    -0.026 A 
ATOM     23  C   UNL d   1       6.117  -3.686  -1.800  0.00  0.00     0.001 A 
ATOM     24  C   UNL d   1       6.900  -3.144  -0.786  0.00  0.00     0.001 A 
ATOM     25  C   UNL d   1       6.333  -2.270   0.144  0.00  0.00     0.012 A 
ATOM     26  C   UNL d   1       4.386  -1.052   1.000  0.00  0.00     0.014 A 
ATOM     27  C   UNL d   1       3.022  -0.751   0.943  0.00  0.00     0.032 A 
ENDBRANCH   2  18
TORSDOF 2
