REMARK  1 active torsions:
REMARK  status: ('A' for Active; 'I' for Inactive)
REMARK    1  A    between atoms: C_9  and  C_5 
ROOT
ATOM      1  C   UNL d   1      -0.328   0.005  -0.789  0.00  0.00     0.688 A 
ATOM      2  N   UNL d   1      -1.596   0.041  -1.146  0.00  0.00    -0.189 N 
ATOM      3  HN  UNL d   1      -1.963   0.105  -2.095  1.00  0.00     0.184 HD
ATOM      4  N   UNL d   1      -0.222  -0.063   0.598  0.00  0.00    -0.166 N 
ATOM      5  C   UNL d   1      -2.325  -0.026   0.020  0.00  0.00     0.076 A 
ATOM      6  C   UNL d   1      -1.489  -0.085   1.113  0.00  0.00     0.145 A 
ATOM      7  N   UNL d   1       0.791   0.037  -1.573  0.00  0.00    -0.201 N 
ATOM      8  HN  UNL d   1       0.737   0.082  -2.591  1.00  0.00     0.183 HD
ATOM      9  C   UNL d   1       1.000  -0.090   1.253  0.00  0.00     0.116 A 
ATOM     10  C   UNL d   1       2.128  -0.055   0.530  0.00  0.00     0.036 A 
ATOM     11  C   UNL d   1       1.927   0.009  -0.946  0.00  0.00     0.107 A 
ENDROOT
BRANCH   5  12
ATOM     12  C   UNL d   1      -3.776   0.009   0.060  0.00  0.00    -0.007 A 
ATOM     13  C   UNL d   1      -4.495  -0.574   1.112  0.00  0.00     0.014 A 
ATOM     14  C   UNL d   1      -5.891  -0.508   1.140  0.00  0.00     0.007 A 
ATOM     15  C   UNL d   1      -6.593   0.141   0.118  0.00  0.00    -0.062 A 
ATOM     16  C   UNL d   1      -5.878   0.715  -0.938  0.00  0.00     0.007 A 
ATOM     17  C   UNL d   1      -8.089   0.217   0.171  0.00  0.00     0.048 C 
ATOM     18  C   UNL d   1      -4.482   0.643  -0.969  0.00  0.00     0.014 A 
ENDBRANCH   5  12
TORSDOF 1
