REMARK  4 active torsions:
REMARK  status: ('A' for Active; 'I' for Inactive)
REMARK    1  A    between atoms: C_12  and  N_1 
REMARK    2  A    between atoms: C_11  and  N_3 
REMARK    3  A    between atoms: C_17  and  C_12 
REMARK    4  A    between atoms: O_26  and  C_18 
ROOT
ATOM      1  N   UNL d   1       2.103   0.673   0.041  0.00  0.00    -0.260 N 
ATOM      2  C   UNL d   1       2.135  -0.735   0.164  0.00  0.00     0.338 A 
ATOM      3  N   UNL d   1       0.904  -1.413   0.117  0.00  0.00    -0.247 N 
ATOM      4  C   UNL d   1      -0.270  -0.687   0.053  0.00  0.00     0.150 A 
ATOM      5  C   UNL d   1      -0.241   0.673  -0.028  0.00  0.00     0.147 A 
ATOM      6  C   UNL d   1       0.948   1.445  -0.054  0.00  0.00     0.282 A 
ATOM      7  N   UNL d   1      -1.560  -1.144   0.008  0.00  0.00    -0.336 N 
ATOM      8  HN  UNL d   1      -1.875  -2.114   0.032  1.00  0.00     0.168 HD
ATOM      9  N   UNL d   1      -1.543   1.074  -0.096  0.00  0.00    -0.345 N 
ATOM     10  C   UNL d   1      -2.306  -0.062  -0.074  0.00  0.00     0.182 A 
ATOM     11  O   UNL d   1       3.208  -1.318   0.362  0.00  0.00    -0.246 OA
ATOM     12  O   UNL d   1       0.927   2.671  -0.142  0.00  0.00    -0.265 OA
ATOM     13  H   UNL d   1      -1.873   2.029  -0.158  0.00  0.00     0.167 HD
ENDROOT
BRANCH   1  14
ATOM     14  C   UNL d   1       3.381   1.374   0.058  0.00  0.00     0.175 C 
BRANCH  14  15
ATOM     15  C   UNL d   1       4.027   1.411  -1.311  0.00  0.00    -0.040 A 
ATOM     16  C   UNL d   1       3.751   2.454  -2.205  0.00  0.00     0.011 A 
ATOM     17  C   UNL d   1       4.296   2.451  -3.495  0.00  0.00     0.037 A 
ATOM     18  C   UNL d   1       5.117   1.404  -3.910  0.00  0.00     0.068 A 
ATOM     19  C   UNL d   1       5.413   0.375  -3.015  0.00  0.00     0.037 A 
ATOM     20  C   UNL d   1       4.875   0.377  -1.727  0.00  0.00     0.011 A 
BRANCH  18  21
ATOM     21  O   UNL d   1       5.686   1.264  -5.146  0.00  0.00    -0.356 OA
ATOM     22  C   UNL d   1       5.315   2.217  -6.133  0.00  0.00     0.210 C 
ENDBRANCH  18  21
ENDBRANCH  14  15
ENDBRANCH   1  14
BRANCH   3  23
ATOM     23  C   UNL d   1       0.836  -2.835   0.155  0.00  0.00     0.045 A 
ATOM     24  C   UNL d   1      -0.072  -3.505   0.985  0.00  0.00     0.031 A 
ATOM     25  C   UNL d   1      -0.061  -4.901   1.076  0.00  0.00     0.009 A 
ATOM     26  C   UNL d   1       0.834  -5.658   0.312  0.00  0.00    -0.062 A 
ATOM     27  C   UNL d   1       1.716  -4.999  -0.547  0.00  0.00     0.009 A 
ATOM     28  C   UNL d   1       0.849  -7.153   0.438  0.00  0.00     0.048 C 
ATOM     29  C   UNL d   1       1.726  -3.602  -0.613  0.00  0.00     0.031 A 
ENDBRANCH   3  23
TORSDOF 4
