REMARK  4 active torsions:
REMARK  status: ('A' for Active; 'I' for Inactive)
REMARK    1  A    between atoms: C_7  and  N_1 
REMARK    2  A    between atoms: C_8  and  C_3 
REMARK    3  A    between atoms: C_13  and  C_6 
REMARK    4  A    between atoms: O_14  and  C_9 
ROOT
ATOM      1  N   UNL d   1       1.010   0.180   0.553  0.00  0.00    -0.364 N 
ATOM      2  HN  UNL d   1       0.600   0.843   1.211  1.00  0.00     0.165 HD
ATOM      3  C   UNL d   1       0.269  -0.657  -0.104  0.00  0.00     0.102 C 
ENDROOT
BRANCH   1   4
ATOM      4  C   UNL d   1       2.409   0.142   0.326  0.00  0.00     0.049 A 
ATOM      5  C   UNL d   1       3.176   1.314   0.240  0.00  0.00     0.038 A 
ATOM      6  C   UNL d   1       4.575   1.256   0.119  0.00  0.00     0.029 A 
ATOM      7 BR   UNL d   1       2.364   3.030   0.323  0.00  0.00    -0.049 Br
ATOM      8  C   UNL d   1       5.247   0.024   0.086  0.00  0.00    -0.053 A 
ATOM      9  C   UNL d   1       4.483  -1.144   0.169  0.00  0.00     0.010 A 
ATOM     10  C   UNL d   1       3.092  -1.082   0.298  0.00  0.00     0.031 A 
BRANCH   8  11
ATOM     11  C   UNL d   1       6.768  -0.007   0.061  0.00  0.00     0.010 C 
ATOM     12  C   UNL d   1       7.304   0.006   1.496  0.00  0.00     0.015 C 
ATOM     13  C   UNL d   1       7.364  -1.191  -0.710  0.00  0.00     0.015 C 
ENDBRANCH   8  11
ENDBRANCH   1   4
BRANCH   3  14
ATOM     14  C   UNL d   1      -1.180  -0.789   0.153  0.00  0.00     0.012 A 
ATOM     15  C   UNL d   1      -1.879   0.089   0.986  0.00  0.00     0.077 A 
ATOM     16  C   UNL d   1      -3.238  -0.104   1.222  0.00  0.00     0.037 A 
ATOM     17  C   UNL d   1      -3.902  -1.186   0.635  0.00  0.00     0.003 A 
ATOM     18  C   UNL d   1      -3.206  -2.070  -0.189  0.00  0.00     0.001 A 
ATOM     19  C   UNL d   1      -1.846  -1.871  -0.435  0.00  0.00     0.015 A 
BRANCH  15  20
ATOM     20  O   UNL d   1      -1.291   1.157   1.606  0.00  0.00    -0.360 OA
ATOM     21  H   UNL d   1      -0.332   1.123   1.395  0.00  0.00     0.217 HD
ENDBRANCH  15  20
ENDBRANCH   3  14
TORSDOF 4
