REMARK  0 active torsions:
REMARK  status: ('A' for Active; 'I' for Inactive)
ROOT
ATOM      1  C   UNL d   1       0.043  -0.800  -0.002  0.00  0.00     0.055 A 
ATOM      2  C   UNL d   1       2.571  -0.614  -0.002  0.00  0.00     0.117 A 
ATOM      3  C   UNL d   1       1.371  -1.478  -0.002  0.00  0.00     0.207 A 
ATOM      4  C   UNL d   1       0.048   0.605  -0.003  0.00  0.00     0.090 A 
ATOM      5  C   UNL d   1      -1.194  -1.480  -0.000  0.00  0.00    -0.044 A 
ATOM      6  O   UNL d   1       1.195   1.365  -0.005  0.00  0.00    -0.320 OA
ATOM      7  C   UNL d   1       2.397   0.710  -0.003  0.00  0.00     0.169 A 
ATOM      8  C   UNL d   1       3.866  -1.192   0.001  0.00  0.00     0.105 C 
ATOM      9  N   UNL d   1       4.950  -1.609   0.003  0.00  0.00    -0.191 NA
ATOM     10  C   UNL d   1      -1.143   1.336  -0.003  0.00  0.00     0.045 A 
ATOM     11  C   UNL d   1      -2.385  -0.719   0.000  0.00  0.00     0.014 A 
ATOM     12  O   UNL d   1       1.500  -2.694  -0.002  0.00  0.00    -0.286 OA
ATOM     13  C   UNL d   1      -2.372   0.678  -0.001  0.00  0.00    -0.059 A 
ATOM     14  C   UNL d   1      -1.388  -2.973   0.002  0.00  0.00     0.049 C 
ATOM     15  C   UNL d   1      -3.652   1.462  -0.001  0.00  0.00     0.048 C 
ENDROOT
TORSDOF 0
