REMARK  8 active torsions:
REMARK  status: ('A' for Active; 'I' for Inactive)
REMARK    1  A    between atoms: C_4  and  C_1 
REMARK    2  A    between atoms: C_10  and  CA_2 
REMARK    3  A    between atoms: C_3  and  N_5 
REMARK       I    between atoms: N_5  and  C_4 
REMARK    4  A    between atoms: C_11  and  C_8 
REMARK    5  A    between atoms: OXT_21  and  C_10 
REMARK    6  A    between atoms: C_17  and  C_11 
REMARK    7  A    between atoms: O_22  and  C_17 
REMARK    8  A    between atoms: C_25  and  O_22 
ROOT
ATOM      1  C   UNL d   1      -1.952  -4.496  -0.521  0.00  0.00     0.276 C 
ATOM      2  N   UNL d   1      -1.016  -3.747   0.154  0.00  0.00    -0.302 N 
ATOM      3  O   UNL d   1      -1.857  -5.654  -0.900  0.00  0.00    -0.266 OA
ATOM      4  H   UNL d   1      -1.268  -2.813   0.453  0.00  0.00     0.171 HD
ENDROOT
BRANCH   1   5
ATOM      5  C   UNL d   1      -3.169  -3.712  -0.871  0.00  0.00     0.135 A 
ATOM      6  CA  UNL d   1      -4.403  -4.303  -1.092  0.00  0.00     0.139 A 
ATOM      7  N   UNL d   1      -5.450  -3.604  -1.633  0.00  0.00    -0.357 N 
ATOM      8  C   UNL d   1      -5.199  -2.311  -1.938  0.00  0.00     0.105 A 
ATOM      9  HN  UNL d   1      -6.361  -4.032  -1.795  1.00  0.00     0.165 HD
ATOM     10  C   UNL d   1      -3.978  -1.710  -1.677  0.00  0.00     0.105 A 
ATOM     11  N   UNL d   1      -2.940  -2.383  -1.130  0.00  0.00    -0.358 N 
ATOM     12  HN  UNL d   1      -2.048  -1.934  -0.924  1.00  0.00     0.165 HD
BRANCH   6  13
ATOM     13  C   UNL d   1      -4.700  -5.658  -0.582  0.00  0.00     0.196 C 
ATOM     14  O   UNL d   1      -4.365  -6.092   0.504  0.00  0.00    -0.645 OA
BRANCH  13  15
ATOM     15  OXT UNL d   1      -5.481  -6.364  -1.424  0.00  0.00    -0.772 OA
ATOM     16  HXT UNL d   1      -5.638  -7.210  -0.957  0.00  0.00     0.167 HD
ENDBRANCH  13  15
ENDBRANCH   6  13
ENDBRANCH   1   5
BRANCH   2  17
ATOM     17  C   UNL d   1       0.308  -4.040   0.330  0.00  0.00     0.151 A 
ATOM     18  N   UNL d   1       1.095  -3.229   0.997  0.00  0.00    -0.339 N 
ATOM     19  C   UNL d   1       2.413  -3.675   0.939  0.00  0.00     0.027 A 
ATOM     20  HN  UNL d   1       0.785  -2.391   1.488  1.00  0.00     0.168 HD
ATOM     21  C   UNL d   1       2.583  -4.814   0.174  0.00  0.00     0.078 A 
ATOM     22  S   UNL d   1       1.066  -5.379  -0.392  0.00  0.00    -0.064 SA
BRANCH  19  23
ATOM     23  C   UNL d   1       3.430  -2.832   1.641  0.00  0.00     0.168 C 
BRANCH  23  24
ATOM     24  C   UNL d   1       4.755  -3.482   1.956  0.00  0.00     0.264 C 
ATOM     25  O   UNL d   1       5.080  -4.641   1.746  0.00  0.00    -0.265 OA
BRANCH  24  26
ATOM     26  O   UNL d   1       5.547  -2.554   2.576  0.00  0.00    -0.322 OA
BRANCH  26  27
ATOM     27  C   UNL d   1       6.768  -3.044   3.148  0.00  0.00     0.174 C 
ATOM     28  C   UNL d   1       6.495  -3.495   4.571  0.00  0.00     0.034 C 
ENDBRANCH  26  27
ENDBRANCH  24  26
ENDBRANCH  23  24
ENDBRANCH  19  23
ENDBRANCH   2  17
TORSDOF 8
