REMARK  4 active torsions:
REMARK  status: ('A' for Active; 'I' for Inactive)
REMARK    1  A    between atoms: C_2  and  C_1 
REMARK       I    between atoms: N_3  and  C_1 
REMARK    2  A    between atoms: C_6  and  N_3 
REMARK    3  A    between atoms: O_10  and  C_4 
REMARK    4  A    between atoms: N_9  and  C_8 
ROOT
ATOM      1  C   UNL d   1       0.959   0.058  -0.093  0.00  0.00     0.259 C 
ATOM      2  N   UNL d   1       0.251  -0.650  -1.047  0.00  0.00    -0.323 N 
ATOM      3  O   UNL d   1       2.132  -0.122   0.230  0.00  0.00    -0.267 OA
ATOM      4  H   UNL d   1      -0.657  -0.296  -1.316  0.00  0.00     0.169 HD
ENDROOT
BRANCH   2   5
ATOM      5  C   UNL d   1       0.689  -1.793  -1.755  0.00  0.00     0.036 A 
ATOM      6  C   UNL d   1       1.924  -2.416  -1.543  0.00  0.00     0.052 A 
ATOM      7  C   UNL d   1       2.307  -3.543  -2.281  0.00  0.00     0.008 A 
ATOM      8  C   UNL d   1       1.390  -4.112  -3.164  0.00  0.00     0.023 A 
ATOM      9  C   UNL d   1       0.155  -3.503  -3.390  0.00  0.00     0.004 A 
ATOM     10  C   UNL d   1      -0.189  -2.341  -2.697  0.00  0.00     0.029 A 
BRANCH   7  11
ATOM     11  N   UNL d   1       3.494  -4.219  -1.965  0.00  0.00    -0.303 NA
ATOM     12  H   UNL d   1       4.205  -3.613  -1.563  0.00  0.00     0.124 HD
ATOM     13  H   UNL d   1       3.857  -4.787  -2.722  0.00  0.00     0.124 HD
ENDBRANCH   7  11
ENDBRANCH   2   5
BRANCH   1  14
ATOM     14  C   UNL d   1       0.243   1.188   0.569  0.00  0.00     0.065 A 
ATOM     15  C   UNL d   1       0.988   2.255   1.099  0.00  0.00     0.081 A 
ATOM     16  C   UNL d   1       0.353   3.332   1.712  0.00  0.00     0.037 A 
ATOM     17  C   UNL d   1      -1.036   3.345   1.828  0.00  0.00     0.003 A 
ATOM     18  C   UNL d   1      -1.787   2.277   1.336  0.00  0.00     0.001 A 
ATOM     19  C   UNL d   1      -1.153   1.199   0.711  0.00  0.00     0.020 A 
BRANCH  15  20
ATOM     20  O   UNL d   1       2.357   2.307   1.058  0.00  0.00    -0.360 OA
ATOM     21  H   UNL d   1       2.680   1.419   0.783  0.00  0.00     0.217 HD
ENDBRANCH  15  20
ENDBRANCH   1  14
TORSDOF 4
