REMARK  1 active torsions:
REMARK  status: ('A' for Active; 'I' for Inactive)
REMARK    1  A    between atoms: C_10  and  C_4 
ROOT
ATOM      1  C   UNL d   1      -0.455  -0.387  -0.021  0.00  0.00     0.112 A 
ATOM      2  N   UNL d   1       1.597   0.925   0.044  0.00  0.00    -0.322 N 
ATOM      3  C   UNL d   1       0.220   0.945   0.008  0.00  0.00     0.266 A 
ATOM      4  C   UNL d   1       2.354  -0.219   0.033  0.00  0.00     0.045 A 
ATOM      5  C   UNL d   1       0.307  -1.496  -0.041  0.00  0.00     0.030 A 
ATOM      6  C   UNL d   1       1.752  -1.418  -0.019  0.00  0.00     0.032 A 
ATOM      7  C   UNL d   1      -1.873  -0.454  -0.015  0.00  0.00     0.105 C 
ATOM      8  N   UNL d   1      -3.027  -0.575  -0.004  0.00  0.00    -0.191 NA
ATOM      9  O   UNL d   1      -0.401   2.001   0.003  0.00  0.00    -0.267 OA
ATOM     10  H   UNL d   1       2.052   1.830   0.076  0.00  0.00     0.169 HD
ENDROOT
BRANCH   4  11
ATOM     11  C   UNL d   1       3.811  -0.088   0.085  0.00  0.00    -0.007 A 
ATOM     12  C   UNL d   1       4.556   0.023  -1.090  0.00  0.00     0.030 A 
ATOM     13  C   UNL d   1       5.931   0.143  -0.984  0.00  0.00     0.088 A 
ATOM     14  N   UNL d   1       6.594   0.157   0.192  0.00  0.00    -0.375 N 
ATOM     15  C   UNL d   1       5.853   0.046   1.314  0.00  0.00     0.088 A 
ATOM     16  HN  UNL d   1       7.610   0.246   0.230  1.00  0.00     0.164 HD
ATOM     17  C   UNL d   1       4.473  -0.076   1.313  0.00  0.00     0.030 A 
ENDBRANCH   4  11
TORSDOF 1
