REMARK  4 active torsions:
REMARK  status: ('A' for Active; 'I' for Inactive)
REMARK    1  A    between atoms: N_9  and  C_1 
REMARK    2  A    between atoms: C_14  and  N_4 
REMARK    3  A    between atoms: S_5  and  N_7 
REMARK    4  A    between atoms: C_10  and  S_5 
REMARK       I    between atoms: N_7  and  C_8 
REMARK       I    between atoms: C_8  and  N_9 
ROOT
ATOM      1  N   UNL d   1       1.683  -3.228   0.768  0.00  0.00    -0.232 N 
ATOM      2  C   UNL d   1       0.349  -3.322   0.424  0.00  0.00     0.334 C 
ATOM      3  N   UNL d   1      -0.437  -2.193   0.398  0.00  0.00    -0.302 N 
ATOM      4  O   UNL d   1      -0.182  -4.391   0.142  0.00  0.00    -0.246 OA
ATOM      5  H   UNL d   1       2.099  -2.335   1.025  0.00  0.00     0.183 HD
ATOM      6  H   UNL d   1      -1.375  -2.435   0.107  0.00  0.00     0.171 HD
ENDROOT
BRANCH   3   7
ATOM      7  C   UNL d   1      -0.178  -0.863   0.612  0.00  0.00     0.131 A 
ATOM      8  C   UNL d   1       1.120  -0.230   0.973  0.00  0.00     0.296 A 
ATOM      9  N   UNL d   1       0.946   1.151   0.931  0.00  0.00    -0.217 N 
ATOM     10  O   UNL d   1       2.141  -0.850   1.236  0.00  0.00    -0.264 OA
ATOM     11  N   UNL d   1      -0.434   1.419   0.696  0.00  0.00    -0.289 N 
ATOM     12  C   UNL d   1      -1.034   0.170   0.453  0.00  0.00     0.057 A 
ATOM     13  C   UNL d   1      -0.826   2.659   0.034  0.00  0.00     0.178 C 
ATOM     14  C   UNL d   1      -2.464   0.018   0.034  0.00  0.00     0.072 C 
BRANCH   9  15
ATOM     15  C   UNL d   1       2.011   2.059   0.722  0.00  0.00     0.060 A 
ATOM     16  C   UNL d   1       3.161   1.633   0.040  0.00  0.00     0.031 A 
ATOM     17  C   UNL d   1       4.247   2.483  -0.170  0.00  0.00     0.002 A 
ATOM     18  C   UNL d   1       4.200   3.784   0.314  0.00  0.00     0.000 A 
ATOM     19  C   UNL d   1       3.075   4.223   1.011  0.00  0.00     0.002 A 
ATOM     20  C   UNL d   1       1.987   3.365   1.218  0.00  0.00     0.031 A 
ENDBRANCH   9  15
ENDBRANCH   3   7
BRANCH   1  21
ATOM     21  S   UNL d   1       2.835  -4.407   0.662  0.00  0.00     0.266 S 
ATOM     22  O   UNL d   1       2.621  -5.204  -0.526  0.00  0.00    -0.200 OA
ATOM     23  O   UNL d   1       4.109  -3.752   0.880  0.00  0.00    -0.200 OA
BRANCH  21  24
ATOM     24  C   UNL d   1       2.515  -5.408   2.092  0.00  0.00     0.080 A 
ATOM     25  C   UNL d   1       1.763  -6.575   1.961  0.00  0.00     0.026 A 
ATOM     26  C   UNL d   1       1.615  -7.423   3.058  0.00  0.00     0.008 A 
ATOM     27  C   UNL d   1       2.220  -7.113   4.286  0.00  0.00    -0.062 A 
ATOM     28  C   UNL d   1       2.962  -5.931   4.407  0.00  0.00     0.008 A 
ATOM     29  C   UNL d   1       2.103  -8.071   5.435  0.00  0.00     0.048 C 
ATOM     30  C   UNL d   1       3.115  -5.079   3.312  0.00  0.00     0.026 A 
ENDBRANCH  21  24
ENDBRANCH   1  21
TORSDOF 4
