REMARK  9 active torsions:
REMARK  status: ('A' for Active; 'I' for Inactive)
REMARK    1  A    between atoms: N_2  and  S_1 
REMARK    2  A    between atoms: C_11  and  S_1 
REMARK    3  A    between atoms: N_10  and  C_4 
REMARK    4  A    between atoms: S_12  and  C_4 
REMARK    5  A    between atoms: C_5  and  C_15 
REMARK    6  A    between atoms: C_13  and  C_6 
REMARK    7  A    between atoms: C_16  and  N_10 
REMARK    8  A    between atoms: C_15  and  S_12 
REMARK    9  A    between atoms: O_23  and  C_14 
ROOT
ATOM      1  N   UNL d   1       0.857  -1.257  -1.618  0.00  0.00    -0.260 N 
ATOM      2  HN  UNL d   1       0.423  -2.150  -1.851  1.00  0.00     0.181 HD
ATOM      3  C   UNL d   1       0.833  -0.322  -2.496  0.00  0.00     0.154 C 
ENDROOT
BRANCH   3   4
ATOM      4  N   UNL d   1       1.325   0.962  -2.432  0.00  0.00    -0.336 N 
ATOM      5  H   UNL d   1       1.542   1.291  -1.494  0.00  0.00     0.168 HD
BRANCH   4   6
ATOM      6  C   UNL d   1       1.962   1.751  -3.419  0.00  0.00     0.036 A 
ATOM      7  C   UNL d   1       2.183   3.111  -3.142  0.00  0.00     0.071 A 
ATOM      8  C   UNL d   1       2.780   3.948  -4.086  0.00  0.00     0.118 A 
ATOM      9  F   UNL d   1       3.000   5.234  -3.780  0.00  0.00    -0.206 F 
ATOM     10  C   UNL d   1       3.152   3.474  -5.335  0.00  0.00     0.042 A 
ATOM     11  C   UNL d   1       2.925   2.138  -5.641  0.00  0.00     0.005 A 
ATOM     12  C   UNL d   1       2.338   1.289  -4.690  0.00  0.00     0.029 A 
ENDBRANCH   4   6
ENDBRANCH   3   4
BRANCH   3  13
ATOM     13  S   UNL d   1      -0.063  -0.795  -3.951  0.00  0.00    -0.088 SA
BRANCH  13  14
ATOM     14  C   UNL d   1      -1.264  -1.980  -3.277  0.00  0.00     0.123 C 
BRANCH  14  15
ATOM     15  C   UNL d   1      -2.362  -1.386  -2.421  0.00  0.00    -0.014 A 
ATOM     16  C   UNL d   1      -2.517  -1.858  -1.096  0.00  0.00     0.026 A 
ATOM     17  C   UNL d   1      -3.525  -1.364  -0.252  0.00  0.00     0.010 A 
ATOM     18  C   UNL d   1      -4.390  -0.374  -0.714  0.00  0.00     0.018 A 
ATOM     19  C   UNL d   1      -4.244   0.107  -2.015  0.00  0.00     0.038 A 
ATOM     20  C   UNL d   1      -3.258  -0.402  -2.870  0.00  0.00     0.075 A 
BRANCH  17  21
ATOM     21  C   UNL d   1      -3.619  -1.859   1.146  0.00  0.00     0.155 C 
ATOM     22  O   UNL d   1      -2.592  -2.089   1.776  0.00  0.00    -0.293 OA
ATOM     23  C   UNL d   1      -4.970  -2.088   1.769  0.00  0.00     0.096 C 
ENDBRANCH  17  21
BRANCH  20  24
ATOM     24  O   UNL d   1      -3.179   0.232  -4.080  0.00  0.00    -0.355 OA
ATOM     25  C   UNL d   1      -3.357  -0.610  -5.214  0.00  0.00     0.210 C 
ENDBRANCH  20  24
ENDBRANCH  14  15
ENDBRANCH  13  14
ENDBRANCH   3  13
BRANCH   1  26
ATOM     26  S   UNL d   1       1.534  -1.094  -0.175  0.00  0.00     0.264 S 
ATOM     27  O   UNL d   1       0.899   0.011   0.509  0.00  0.00    -0.200 OA
ATOM     28  O   UNL d   1       2.975  -1.138  -0.310  0.00  0.00    -0.200 OA
BRANCH  26  29
ATOM     29  C   UNL d   1       1.041  -2.623   0.599  0.00  0.00     0.079 A 
ATOM     30  C   UNL d   1       1.244  -3.817  -0.107  0.00  0.00     0.025 A 
ATOM     31  C   UNL d   1       0.735  -5.015   0.395  0.00  0.00     0.002 A 
ATOM     32  C   UNL d   1       0.031  -5.019   1.597  0.00  0.00     0.000 A 
ATOM     33  C   UNL d   1      -0.153  -3.830   2.304  0.00  0.00     0.002 A 
ATOM     34  C   UNL d   1       0.351  -2.624   1.808  0.00  0.00     0.025 A 
ENDBRANCH  26  29
ENDBRANCH   1  26
TORSDOF 9
