REMARK  1 active torsions:
REMARK  status: ('A' for Active; 'I' for Inactive)
REMARK    1  A    between atoms: O_13  and  C_10 
ROOT
ATOM      1  C   UNL d   1       0.748  -0.344   0.000  0.00  0.00    -0.011 A 
ATOM      2  C   UNL d   1       1.431   0.903   0.003  0.00  0.00    -0.004 A 
ATOM      3  C   UNL d   1       2.848   0.922   0.003  0.00  0.00     0.058 A 
ATOM      4  C   UNL d   1      -0.694  -0.370  -0.000  0.00  0.00    -0.015 A 
ATOM      5  N   UNL d   1       4.197   3.142   0.006  0.00  0.00    -0.191 NA
ATOM      6  C   UNL d   1       3.587   2.153   0.004  0.00  0.00     0.100 C 
ATOM      7  C   UNL d   1       0.673   2.089   0.004  0.00  0.00     0.014 A 
ATOM      8  C   UNL d   1       1.545  -1.517  -0.001  0.00  0.00     0.050 A 
ATOM      9  C   UNL d   1       3.590  -0.263   0.001  0.00  0.00     0.060 A 
ATOM     10  C   UNL d   1       2.942  -1.487  -0.000  0.00  0.00     0.070 A 
ATOM     11  C   UNL d   1      -1.408   0.854   0.000  0.00  0.00    -0.025 A 
ATOM     12  C   UNL d   1      -0.717   2.064   0.002  0.00  0.00     0.013 A 
ATOM     13  C   UNL d   1      -1.474  -1.556  -0.000  0.00  0.00     0.013 A 
ATOM     14  C   UNL d   1      -2.812   0.868  -0.001  0.00  0.00     0.012 A 
ATOM     15  C   UNL d   1      -2.872  -1.531   0.001  0.00  0.00     0.001 A 
ATOM     16  C   UNL d   1      -3.542  -0.317  -0.000  0.00  0.00     0.001 A 
ENDROOT
BRANCH  10  17
ATOM     17  O   UNL d   1       3.550  -2.712  -0.001  0.00  0.00    -0.356 OA
ATOM     18  C   UNL d   1       4.973  -2.711  -0.000  0.00  0.00     0.210 C 
ENDBRANCH  10  17
TORSDOF 1
