REMARK  6 active torsions:
REMARK  status: ('A' for Active; 'I' for Inactive)
REMARK    1  A    between atoms: N_2  and  S_1 
REMARK    2  A    between atoms: C_3  and  S_1 
REMARK    3  A    between atoms: C_8  and  N_2 
REMARK    4  A    between atoms: C_13  and  N_2 
REMARK    5  A    between atoms: C_14  and  C_8 
REMARK    6  A    between atoms: C_11  and  C_13 
ROOT
ATOM      1  N   UNL d   1       2.905   2.717   2.868  0.00  0.00    -0.197 NA
ATOM      2  C   UNL d   1       2.642   1.586   2.882  0.00  0.00     0.060 C 
ATOM      3  C   UNL d   1       2.337   0.151   2.886  0.00  0.00     0.139 C 
ENDROOT
BRANCH   3   4
ATOM      4  C   UNL d   1       0.869  -0.133   2.557  0.00  0.00     0.122 C 
BRANCH   4   5
ATOM      5  N   UNL d   1       0.384   0.516   1.290  0.00  0.00    -0.201 NA
BRANCH   5   6
ATOM      6  S   UNL d   1       0.929  -0.250  -0.156  0.00  0.00     0.243 S 
ATOM      7  O   UNL d   1      -0.116  -1.144  -0.602  0.00  0.00    -0.206 OA
ATOM      8  O   UNL d   1       2.274  -0.733   0.055  0.00  0.00    -0.206 OA
BRANCH   6   9
ATOM      9  C   UNL d   1       1.074   1.081  -1.325  0.00  0.00     0.074 A 
ATOM     10  C   UNL d   1       1.927   2.155  -1.035  0.00  0.00     0.028 A 
ATOM     11  C   UNL d   1       2.177   3.119  -2.013  0.00  0.00     0.044 A 
ATOM     12  C   UNL d   1       1.579   3.000  -3.264  0.00  0.00     0.116 A 
ATOM     13  C   UNL d   1       0.720   1.944  -3.554  0.00  0.00     0.044 A 
ATOM     14  F   UNL d   1       1.850   3.906  -4.213  0.00  0.00    -0.206 F 
ATOM     15  C   UNL d   1       0.461   0.976  -2.579  0.00  0.00     0.028 A 
ENDBRANCH   6   9
ENDBRANCH   5   6
BRANCH   5  16
ATOM     16  C   UNL d   1      -1.099   0.758   1.270  0.00  0.00     0.146 C 
BRANCH  16  17
ATOM     17  C   UNL d   1      -1.665   1.440   2.499  0.00  0.00    -0.044 A 
ATOM     18  C   UNL d   1      -1.345   2.772   2.794  0.00  0.00     0.008 A 
ATOM     19  C   UNL d   1      -1.840   3.376   3.951  0.00  0.00     0.001 A 
ATOM     20  C   UNL d   1      -2.652   2.658   4.829  0.00  0.00     0.000 A 
ATOM     21  C   UNL d   1      -2.981   1.335   4.547  0.00  0.00     0.001 A 
ATOM     22  C   UNL d   1      -2.494   0.730   3.386  0.00  0.00     0.008 A 
ENDBRANCH  16  17
ENDBRANCH   5  16
ENDBRANCH   4   5
ENDBRANCH   3   4
TORSDOF 6
