REMARK  5 active torsions:
REMARK  status: ('A' for Active; 'I' for Inactive)
REMARK    1  A    between atoms: C_11  and  N_3 
REMARK    2  A    between atoms: C_7  and  C_4 
REMARK    3  A    between atoms: C_13  and  C_5 
REMARK    4  A    between atoms: C_17  and  N_8 
REMARK    5  A    between atoms: C_10  and  C_17 
ROOT
ATOM      1  N   UNL d   1       0.924  -0.647   0.196  0.00  0.00    -0.292 N 
ATOM      2  HN  UNL d   1       1.730  -1.250   0.361  1.00  0.00     0.187 HD
ATOM      3  N   UNL d   1      -0.370  -1.029   0.057  0.00  0.00    -0.266 N 
ATOM      4  C   UNL d   1      -0.407   1.186  -0.035  0.00  0.00     0.025 A 
ATOM      5  C   UNL d   1       0.923   0.690   0.071  0.00  0.00     0.071 A 
ATOM      6  C   UNL d   1      -1.198   0.058  -0.064  0.00  0.00     0.132 A 
ENDROOT
BRANCH   4   7
ATOM      7  C   UNL d   1      -0.870   2.550  -0.115  0.00  0.00     0.098 C 
ATOM      8  N   UNL d   1      -2.031   2.783  -0.624  0.00  0.00    -0.392 N 
ATOM      9  HN  UNL d   1      -2.657   2.048  -0.954  1.00  0.00     0.159 HD
BRANCH   8  10
ATOM     10  C   UNL d   1      -2.361   4.212  -0.680  0.00  0.00     0.183 C 
BRANCH  10  11
ATOM     11  C   UNL d   1      -1.697   4.877  -1.834  0.00  0.00     0.070 A 
ATOM     12  O   UNL d   1      -0.479   5.446  -1.595  0.00  0.00    -0.325 OA
ATOM     13  C   UNL d   1      -0.069   6.008  -2.760  0.00  0.00     0.142 A 
ATOM     14  C   UNL d   1      -1.002   5.803  -3.751  0.00  0.00     0.027 A 
ATOM     15  C   UNL d   1      -2.053   5.065  -3.154  0.00  0.00     0.036 A 
ENDBRANCH  10  11
ENDBRANCH   8  10
ENDBRANCH   4   7
BRANCH   5  16
ATOM     16  C   UNL d   1       2.184   1.437   0.015  0.00  0.00    -0.007 A 
ATOM     17  C   UNL d   1       3.292   1.026   0.770  0.00  0.00     0.014 A 
ATOM     18  C   UNL d   1       4.506   1.713   0.685  0.00  0.00     0.001 A 
ATOM     19  C   UNL d   1       4.627   2.818  -0.157  0.00  0.00     0.000 A 
ATOM     20  C   UNL d   1       3.537   3.234  -0.915  0.00  0.00     0.001 A 
ATOM     21  C   UNL d   1       2.325   2.544  -0.836  0.00  0.00     0.014 A 
ENDBRANCH   5  16
BRANCH   3  22
ATOM     22  C   UNL d   1      -0.734  -2.407   0.043  0.00  0.00     0.056 A 
ATOM     23  C   UNL d   1       0.253  -3.388   0.220  0.00  0.00     0.031 A 
ATOM     24  C   UNL d   1      -0.090  -4.743   0.201  0.00  0.00     0.002 A 
ATOM     25  C   UNL d   1      -1.414  -5.127   0.002  0.00  0.00     0.000 A 
ATOM     26  C   UNL d   1      -2.400  -4.158  -0.179  0.00  0.00     0.002 A 
ATOM     27  C   UNL d   1      -2.065  -2.801  -0.157  0.00  0.00     0.031 A 
ENDBRANCH   3  22
TORSDOF 5
