REMARK  2 active torsions:
REMARK  status: ('A' for Active; 'I' for Inactive)
REMARK    1  A    between atoms: C_7  and  C_1 
REMARK    2  A    between atoms: N_8  and  C_2 
ROOT
ATOM      1  C   UNL d   1      -0.123  -1.316   0.019  0.00  0.00     0.089 A 
ATOM      2  C   UNL d   1       1.041  -0.716   0.501  0.00  0.00     0.110 A 
ATOM      3  N   UNL d   1      -0.638   0.820  -0.487  0.00  0.00    -0.059 NA
ATOM      4  N   UNL d   1      -1.042  -0.436  -0.553  0.00  0.00    -0.289 N 
ATOM      5  HN  UNL d   1      -1.924  -0.728  -0.973  1.00  0.00     0.183 HD
ATOM      6  S   UNL d   1       0.847   0.984   0.252  0.00  0.00     0.019 SA
ENDROOT
BRANCH   1   7
ATOM      7  C   UNL d   1      -0.410  -2.748   0.041  0.00  0.00    -0.006 A 
ATOM      8  C   UNL d   1      -0.014  -3.571   1.105  0.00  0.00     0.014 A 
ATOM      9  C   UNL d   1      -0.304  -4.939   1.094  0.00  0.00     0.001 A 
ATOM     10  C   UNL d   1      -1.009  -5.495   0.030  0.00  0.00     0.000 A 
ATOM     11  C   UNL d   1      -1.432  -4.686  -1.022  0.00  0.00     0.001 A 
ATOM     12  C   UNL d   1      -1.136  -3.320  -1.016  0.00  0.00     0.014 A 
ENDBRANCH   1   7
BRANCH   2  13
ATOM     13  N   UNL d   1       2.165  -1.242   1.053  0.00  0.00    -0.391 N 
ATOM     14  H   UNL d   1       2.400  -2.212   0.858  0.00  0.00     0.157 HD
ATOM     15  H   UNL d   1       2.987  -0.648   1.132  0.00  0.00     0.157 HD
ENDBRANCH   2  13
TORSDOF 2
