REMARK  3 active torsions:
REMARK  status: ('A' for Active; 'I' for Inactive)
REMARK    1  A    between atoms: C_4  and  N_1 
REMARK    2  A    between atoms: C_3  and  C_2 
REMARK       I    between atoms: N_5  and  C_3 
REMARK    3  A    between atoms: C_10  and  N_5 
ROOT
ATOM      1  C   UNL d   1       0.553   0.830  -2.165  0.00  0.00     0.065 A 
ATOM      2  C   UNL d   1      -0.300   0.046  -1.382  0.00  0.00     0.118 A 
ATOM      3  C   UNL d   1       0.248   2.191  -2.327  0.00  0.00     0.020 A 
ATOM      4  C   UNL d   1      -1.430   0.593  -0.755  0.00  0.00     0.037 A 
ATOM      5  C   UNL d   1      -0.885   2.740  -1.717  0.00  0.00     0.001 A 
ATOM      6  C   UNL d   1      -1.716   1.946  -0.924  0.00  0.00     0.002 A 
ENDROOT
BRANCH   1   7
ATOM      7  C   UNL d   1       1.826   0.288  -2.703  0.00  0.00     0.254 C 
ATOM      8  N   UNL d   1       2.234   0.781  -3.922  0.00  0.00    -0.353 N 
ATOM      9  H   UNL d   1       1.587   1.336  -4.467  0.00  0.00     0.163 HD
ATOM     10  O   UNL d   1       2.453  -0.522  -2.034  0.00  0.00    -0.268 OA
BRANCH   8  11
ATOM     11  C   UNL d   1       3.474   0.386  -4.586  0.00  0.00     0.076 C 
ATOM     12  C   UNL d   1       4.712   0.687  -3.743  0.00  0.00     0.032 C 
ATOM     13  C   UNL d   1       3.447  -1.071  -5.039  0.00  0.00     0.032 C 
ENDBRANCH   8  11
ENDBRANCH   1   7
BRANCH   2  14
ATOM     14  N   UNL d   1      -0.101  -1.385  -1.271  0.00  0.00    -0.115 N 
ATOM     15  O   UNL d   1      -0.153  -2.039  -2.323  0.00  0.00    -0.532 OA
ATOM     16  O   UNL d   1      -0.021  -1.856  -0.128  0.00  0.00    -0.532 OA
ENDBRANCH   2  14
TORSDOF 3
