REMARK  3 active torsions:
REMARK  status: ('A' for Active; 'I' for Inactive)
REMARK    1  A    between atoms: N_2  and  C_1 
REMARK    2  A    between atoms: N_3  and  C_1 
REMARK    3  A    between atoms: C_6  and  N_3 
ROOT
ATOM      1  N   UNL d   1       0.202   0.214   1.182  0.00  0.00    -0.333 N 
ATOM      2  H   UNL d   1       0.599   1.112   1.425  0.00  0.00     0.168 HD
ENDROOT
BRANCH   1   3
ATOM      3  C   UNL d   1       1.150  -0.781   0.986  0.00  0.00     0.174 C 
ATOM      4  S   UNL d   1       1.057  -2.292   1.725  0.00  0.00    -0.041 SA
BRANCH   3   5
ATOM      5  N   UNL d   1       2.241  -0.337   0.202  0.00  0.00    -0.357 N 
ATOM      6  C   UNL d   1       2.028   0.655  -0.875  0.00  0.00     0.135 C 
ATOM      7  C   UNL d   1       3.161   1.672  -0.996  0.00  0.00     0.093 C 
ATOM      8  S   UNL d   1       4.753   0.879  -1.375  0.00  0.00    -0.166 SA
ATOM      9  C   UNL d   1       4.745  -0.336  -0.021  0.00  0.00     0.093 C 
ATOM     10  C   UNL d   1       3.457  -1.160   0.025  0.00  0.00     0.135 C 
ENDBRANCH   3   5
ENDBRANCH   1   3
BRANCH   1  11
ATOM     11  C   UNL d   1      -1.195   0.086   1.348  0.00  0.00     0.034 A 
ATOM     12  C   UNL d   1      -1.875   1.114   2.013  0.00  0.00     0.037 A 
ATOM     13  C   UNL d   1      -3.255   1.032   2.134  0.00  0.00    -0.050 A 
ATOM     14  C   UNL d   1      -4.186   2.000   2.795  0.00  0.00     0.039 C 
ATOM     15  C   UNL d   1      -3.966  -0.025   1.560  0.00  0.00    -0.052 A 
ATOM     16  C   UNL d   1      -5.475   1.168   2.892  0.00  0.00     0.009 C 
ATOM     17  C   UNL d   1      -5.440   0.161   1.736  0.00  0.00     0.039 C 
ATOM     18  C   UNL d   1      -3.312  -1.034   0.877  0.00  0.00     0.010 A 
ATOM     19  C   UNL d   1      -1.918  -0.976   0.780  0.00  0.00     0.030 A 
ENDBRANCH   1  11
TORSDOF 3
