REMARK  2 active torsions:
REMARK  status: ('A' for Active; 'I' for Inactive)
REMARK    1  A    between atoms: C_6  and  N_1 
REMARK    2  A    between atoms: N_12  and  C_3 
ROOT
ATOM      1  N   UNL d   1      -0.640   1.245  -0.002  0.00  0.00    -0.251 N 
ATOM      2  C   UNL d   1      -1.398   0.068   0.119  0.00  0.00     0.335 A 
ATOM      3  C   UNL d   1       0.756   1.214  -0.116  0.00  0.00     0.094 A 
ATOM      4  N   UNL d   1      -0.690  -1.101   0.174  0.00  0.00    -0.275 N 
ATOM      5  C   UNL d   1       1.391   0.032  -0.113  0.00  0.00     0.117 A 
ATOM      6  C   UNL d   1       0.650  -1.225   0.013  0.00  0.00     0.252 A 
ATOM      7  O   UNL d   1      -2.627   0.008   0.121  0.00  0.00    -0.246 OA
ATOM      8  O   UNL d   1       1.226  -2.305  -0.025  0.00  0.00    -0.268 OA
ATOM      9  H   UNL d   1      -1.232  -1.950   0.224  0.00  0.00     0.173 HD
ENDROOT
BRANCH   1  10
ATOM     10  C   UNL d   1      -1.375   2.475  -0.038  0.00  0.00     0.084 A 
ATOM     11  C   UNL d   1      -2.254   2.812   1.004  0.00  0.00     0.146 A 
ATOM     12  C   UNL d   1      -2.945   4.019   1.003  0.00  0.00     0.086 A 
ATOM     13  F   UNL d   1      -2.372   2.012   2.075  0.00  0.00    -0.204 F 
ATOM     14  C   UNL d   1      -2.770   4.892  -0.061  0.00  0.00     0.119 A 
ATOM     15  C   UNL d   1      -1.913   4.583  -1.114  0.00  0.00     0.045 A 
ATOM     16  F   UNL d   1      -3.423   6.061  -0.068  0.00  0.00    -0.206 F 
ATOM     17  C   UNL d   1      -1.208   3.377  -1.100  0.00  0.00     0.036 A 
ENDBRANCH   1  10
BRANCH   3  18
ATOM     18  N   UNL d   1       1.515   2.375  -0.181  0.00  0.00    -0.288 NA
ATOM     19  H   UNL d   1       1.088   3.142   0.334  0.00  0.00     0.125 HD
ATOM     20  H   UNL d   1       2.488   2.250   0.089  0.00  0.00     0.125 HD
ENDBRANCH   3  18
TORSDOF 2
