REMARK  2 active torsions:
REMARK  status: ('A' for Active; 'I' for Inactive)
REMARK    1  A    between atoms: N_6  and  C_1 
REMARK    2  A    between atoms: N_5  and  C_2 
ROOT
ATOM      1  C   UNL d   1      -0.749  -1.541   0.006  0.00  0.00     0.116 C 
ATOM      2  C   UNL d   1       0.624  -1.674   0.042  0.00  0.00     0.116 C 
ATOM      3  C   UNL d   1       0.808  -0.197   0.088  0.00  0.00     0.252 C 
ATOM      4  C   UNL d   1      -0.651  -0.060  -0.101  0.00  0.00     0.252 C 
ATOM      5  O   UNL d   1       1.698   0.618   0.170  0.00  0.00    -0.281 OA
ATOM      6  O   UNL d   1      -1.375   0.898  -0.215  0.00  0.00    -0.281 OA
ENDROOT
BRANCH   1   7
ATOM      7  N   UNL d   1      -1.829  -2.307   0.012  0.00  0.00    -0.372 N 
ATOM      8  C   UNL d   1      -1.868  -3.626   0.662  0.00  0.00     0.149 C 
ATOM      9  C   UNL d   1      -3.081  -3.721   1.600  0.00  0.00     0.187 C 
ATOM     10  O   UNL d   1      -4.306  -3.431   0.912  0.00  0.00    -0.388 OA
ATOM     11  C   UNL d   1      -4.268  -2.096   0.381  0.00  0.00     0.187 C 
ATOM     12  C   UNL d   1      -3.110  -1.920  -0.611  0.00  0.00     0.149 C 
ENDBRANCH   1   7
BRANCH   2  13
ATOM     13  N   UNL d   1       1.536  -2.636   0.042  0.00  0.00    -0.376 N 
ATOM     14  C   UNL d   1       2.982  -2.384   0.098  0.00  0.00     0.123 C 
ATOM     15  C   UNL d   1       3.578  -3.412  -0.855  0.00  0.00     0.021 C 
ATOM     16  C   UNL d   1       2.652  -4.601  -0.701  0.00  0.00     0.021 C 
ATOM     17  C   UNL d   1       1.278  -3.964  -0.529  0.00  0.00     0.123 C 
ENDBRANCH   2  13
TORSDOF 2
