REMARK  7 active torsions:
REMARK  status: ('A' for Active; 'I' for Inactive)
REMARK    1  A    between atoms: N_2  and  S_1 
REMARK    2  A    between atoms: C_4  and  S_1 
REMARK    3  A    between atoms: C_10  and  N_2 
REMARK    4  A    between atoms: C_3  and  O_8 
REMARK    5  A    between atoms: O_8  and  C_15 
REMARK    6  A    between atoms: O_9  and  C_16 
REMARK    7  A    between atoms: C_17  and  O_9 
ROOT
ATOM      1  C   UNL d   1       0.697  -2.507   0.813  0.00  0.00     0.042 A 
ATOM      2  C   UNL d   1       1.507  -5.163   0.532  0.00  0.00     0.076 A 
ATOM      3  C   UNL d   1       2.026  -2.792   0.512  0.00  0.00     0.033 A 
ATOM      4  C   UNL d   1      -0.217  -3.541   1.015  0.00  0.00     0.033 A 
ATOM      5  C   UNL d   1       2.438  -4.125   0.404  0.00  0.00     0.039 A 
ATOM      6  C   UNL d   1       0.185  -4.868   0.868  0.00  0.00     0.039 A 
ENDROOT
BRANCH   1   7
ATOM      7  N   UNL d   1       0.242  -1.178   0.968  0.00  0.00    -0.281 N 
ATOM      8  H   UNL d   1       0.499  -0.650   1.800  0.00  0.00     0.179 HD
BRANCH   7   9
ATOM      9  S   UNL d   1      -0.162  -0.249  -0.367  0.00  0.00     0.263 S 
ATOM     10  O   UNL d   1       0.909  -0.325  -1.342  0.00  0.00    -0.200 OA
ATOM     11  O   UNL d   1      -0.604   1.031   0.144  0.00  0.00    -0.200 OA
BRANCH   9  12
ATOM     12  C   UNL d   1      -1.579  -1.093  -1.030  0.00  0.00     0.081 A 
ATOM     13  C   UNL d   1      -1.385  -2.059  -2.021  0.00  0.00     0.049 A 
ATOM     14  C   UNL d   1      -2.488  -2.715  -2.557  0.00  0.00     0.035 A 
ATOM     15 CL   UNL d   1      -2.257  -3.921  -3.761  0.00  0.00    -0.084 Cl
ATOM     16  C   UNL d   1      -3.777  -2.404  -2.123  0.00  0.00     0.024 A 
ATOM     17  C   UNL d   1      -3.967  -1.426  -1.142  0.00  0.00     0.003 A 
ATOM     18  C   UNL d   1      -2.867  -0.764  -0.592  0.00  0.00     0.025 A 
ENDBRANCH   9  12
ENDBRANCH   7   9
ENDBRANCH   1   7
BRANCH   2  19
ATOM     19  O   UNL d   1       1.814  -6.500   0.411  0.00  0.00    -0.311 OA
BRANCH  19  20
ATOM     20  C   UNL d   1       2.726  -6.910  -0.536  0.00  0.00     0.076 A 
ATOM     21  C   UNL d   1       3.396  -8.104  -0.268  0.00  0.00     0.040 A 
ATOM     22  C   UNL d   1       4.342  -8.593  -1.174  0.00  0.00     0.040 A 
ATOM     23  C   UNL d   1       4.621  -7.900  -2.357  0.00  0.00     0.078 A 
ATOM     24  C   UNL d   1       3.966  -6.698  -2.608  0.00  0.00     0.040 A 
ATOM     25  C   UNL d   1       2.981  -6.237  -1.732  0.00  0.00     0.040 A 
BRANCH  23  26
ATOM     26  O   UNL d   1       5.573  -8.462  -3.148  0.00  0.00    -0.255 OA
BRANCH  26  27
ATOM     27  C   UNL d   1       5.505  -8.283  -4.559  0.00  0.00     0.530 C 
ATOM     28  F   UNL d   1       4.419  -7.610  -4.992  0.00  0.00    -0.144 F 
ATOM     29  F   UNL d   1       6.611  -7.629  -4.975  0.00  0.00    -0.144 F 
ATOM     30  F   UNL d   1       5.491  -9.502  -5.145  0.00  0.00    -0.144 F 
ENDBRANCH  26  27
ENDBRANCH  23  26
ENDBRANCH  19  20
ENDBRANCH   2  19
TORSDOF 7
