REMARK  7 active torsions:
REMARK  status: ('A' for Active; 'I' for Inactive)
REMARK    1  A    between atoms: C_2  and  C_1 
REMARK       I    between atoms: N_4  and  C_2 
REMARK       I    between atoms: C_3  and  N_7 
REMARK       I    between atoms: N_8  and  C_3 
REMARK    2  A    between atoms: N_7  and  N_4 
REMARK    3  A    between atoms: C_5  and  C_14 
REMARK    4  A    between atoms: C_18  and  C_6 
REMARK    5  A    between atoms: C_16  and  N_8 
REMARK    6  A    between atoms: C_21  and  C_18 
REMARK    7  A    between atoms: C_22  and  C_21 
ROOT
ATOM      1  C   UNL d   1       3.081   2.203  -0.150  0.00  0.00     0.271 C 
ATOM      2  N   UNL d   1       2.716   3.428   0.374  0.00  0.00    -0.262 N 
ATOM      3  O   UNL d   1       4.152   2.015  -0.721  0.00  0.00    -0.266 OA
ATOM      4  H   UNL d   1       1.966   3.543   1.058  0.00  0.00     0.190 HD
ENDROOT
BRANCH   1   5
ATOM      5  C   UNL d   1       2.108   1.087  -0.011  0.00  0.00     0.050 A 
ATOM      6  C   UNL d   1       0.719   1.269   0.035  0.00  0.00     0.040 A 
ATOM      7  C   UNL d   1      -0.114   0.146   0.067  0.00  0.00     0.034 A 
ATOM      8  C   UNL d   1       0.469  -1.114   0.063  0.00  0.00     0.108 A 
ATOM      9  N   UNL d   1       1.805  -1.326   0.032  0.00  0.00    -0.373 N 
ATOM     10  C   UNL d   1       2.591  -0.219  -0.018  0.00  0.00     0.104 A 
ATOM     11  HN  UNL d   1       2.201  -2.266   0.045  1.00  0.00     0.164 HD
BRANCH   7  12
ATOM     12  C   UNL d   1      -1.542   0.250   0.074  0.00  0.00    -0.066 C 
ATOM     13  C   UNL d   1      -2.737   0.205   0.069  0.00  0.00    -0.101 C 
BRANCH  13  14
ATOM     14  C   UNL d   1      -4.201   0.037   0.050  0.00  0.00     0.094 C 
BRANCH  14  15
ATOM     15  C   UNL d   1      -4.665  -0.539  -1.288  0.00  0.00     0.012 C 
BRANCH  15  16
ATOM     16  C   UNL d   1      -6.179  -0.739  -1.304  0.00  0.00    -0.004 C 
ATOM     17  C   UNL d   1      -6.658  -1.302  -2.632  0.00  0.00     0.005 C 
ENDBRANCH  15  16
ENDBRANCH  14  15
ENDBRANCH  13  14
ENDBRANCH   7  12
ENDBRANCH   1   5
BRANCH   2  18
ATOM     18  N   UNL d   1       3.635   4.513   0.305  0.00  0.00    -0.248 N 
ATOM     19  C   UNL d   1       3.205   5.707   0.878  0.00  0.00     0.339 C 
ATOM     20  N   UNL d   1       4.158   6.706   0.813  0.00  0.00    -0.308 N 
ATOM     21  O   UNL d   1       2.099   5.771   1.410  0.00  0.00    -0.245 OA
ATOM     22  H   UNL d   1       5.051   6.455   0.414  0.00  0.00     0.170 HD
ATOM     23  H   UNL d   1       4.153   4.557  -0.569  0.00  0.00     0.192 HD
BRANCH  20  24
ATOM     24  C   UNL d   1       4.024   8.039   1.283  0.00  0.00     0.036 A 
ATOM     25  C   UNL d   1       2.857   8.532   1.872  0.00  0.00     0.029 A 
ATOM     26  C   UNL d   1       2.734   9.883   2.211  0.00  0.00     0.002 A 
ATOM     27  C   UNL d   1       3.791  10.759   1.991  0.00  0.00     0.000 A 
ATOM     28  C   UNL d   1       4.985  10.274   1.466  0.00  0.00     0.002 A 
ATOM     29  C   UNL d   1       5.104   8.920   1.117  0.00  0.00     0.029 A 
ENDBRANCH  20  24
ENDBRANCH   2  18
TORSDOF 7
