REMARK  4 active torsions:
REMARK  status: ('A' for Active; 'I' for Inactive)
REMARK    1  A    between atoms: C_7  and  C_1 
REMARK    2  A    between atoms: C_6  and  C_17 
REMARK    3  A    between atoms: C_18  and  C_10 
REMARK    4  A    between atoms: C_11  and  C_13 
ROOT
ATOM      1  C   UNL d   1      -0.229  -0.536  -0.921  0.00  0.00     0.087 A 
ATOM      2  N   UNL d   1       0.697   0.357  -1.200  0.00  0.00    -0.349 N 
ATOM      3  HN  UNL d   1       0.960   0.646  -2.142  1.00  0.00     0.166 HD
ATOM      4  C   UNL d   1       1.267   0.850  -0.033  0.00  0.00     0.050 A 
ATOM      5  S   UNL d   1      -0.500  -0.791   0.764  0.00  0.00    -0.081 SA
ATOM      6  C   UNL d   1       0.720   0.350   1.132  0.00  0.00     0.082 A 
ENDROOT
BRANCH   4   7
ATOM      7  C   UNL d   1       2.396   1.771  -0.068  0.00  0.00    -0.009 A 
ATOM      8  C   UNL d   1       2.620   2.709   0.948  0.00  0.00     0.014 A 
ATOM      9  C   UNL d   1       3.733   3.558   0.903  0.00  0.00     0.016 A 
ATOM     10  C   UNL d   1       4.646   3.486  -0.159  0.00  0.00     0.010 A 
ATOM     11  C   UNL d   1       4.417   2.553  -1.179  0.00  0.00     0.016 A 
ATOM     12  C   UNL d   1       3.301   1.708  -1.136  0.00  0.00     0.014 A 
BRANCH  10  13
ATOM     13  C   UNL d   1       5.812   4.365  -0.210  0.00  0.00     0.137 A 
ATOM     14  N   UNL d   1       6.712   4.344  -1.255  0.00  0.00    -0.323 N 
ATOM     15  C   UNL d   1       7.570   5.269  -0.907  0.00  0.00     0.144 A 
ATOM     16  HN  UNL d   1       6.709   3.756  -2.089  1.00  0.00     0.169 HD
ATOM     17  C   UNL d   1       8.780   5.749  -1.601  0.00  0.00     0.100 C 
ATOM     18  O   UNL d   1       7.279   5.864   0.283  0.00  0.00    -0.223 OA
ATOM     19  N   UNL d   1       6.111   5.262   0.744  0.00  0.00    -0.242 N 
ATOM     20  HN  UNL d   1       5.601   5.457   1.606  1.00  0.00     0.196 HD
ENDBRANCH  10  13
ENDBRANCH   4   7
BRANCH   1  21
ATOM     21  C   UNL d   1      -0.974  -1.308  -1.923  0.00  0.00     0.028 A 
ATOM     22  C   UNL d   1      -0.387  -1.835  -3.087  0.00  0.00     0.063 A 
ATOM     23  C   UNL d   1      -1.207  -2.531  -4.001  0.00  0.00     0.034 A 
ATOM     24  C   UNL d   1      -2.550  -2.703  -3.723  0.00  0.00     0.088 A 
ATOM     25  N   UNL d   1      -3.137  -2.221  -2.615  0.00  0.00    -0.374 N 
ATOM     26  C   UNL d   1      -2.345  -1.534  -1.755  0.00  0.00     0.102 A 
ATOM     27  HN  UNL d   1      -4.129  -2.366  -2.429  1.00  0.00     0.164 HD
BRANCH  22  28
ATOM     28  C   UNL d   1       1.073  -1.699  -3.447  0.00  0.00     0.418 C 
ATOM     29  F   UNL d   1       1.936  -1.511  -2.417  0.00  0.00    -0.166 F 
ATOM     30  F   UNL d   1       1.533  -2.831  -4.067  0.00  0.00    -0.166 F 
ATOM     31  F   UNL d   1       1.295  -0.695  -4.340  0.00  0.00    -0.166 F 
ENDBRANCH  22  28
ENDBRANCH   1  21
TORSDOF 4
