REMARK  7 active torsions:
REMARK  status: ('A' for Active; 'I' for Inactive)
REMARK    1  A    between atoms: C_9  and  C_1 
REMARK    2  A    between atoms: O_16  and  C_2 
REMARK    3  A    between atoms: O_18  and  C_3 
REMARK    4  A    between atoms: O_19  and  C_5 
REMARK    5  A    between atoms: C_20  and  N_7 
REMARK    6  A    between atoms: C_13  and  C_21 
REMARK    7  A    between atoms: C_21  and  C_20 
ROOT
ATOM      1  N   UNL d   1      -3.317  -2.445  -0.044  0.00  0.00    -0.398 N 
ATOM      2  HN  UNL d   1      -3.868  -1.588  -0.066  1.00  0.00     0.158 HD
ATOM      3  C   UNL d   1      -2.026  -2.449  -0.053  0.00  0.00     0.097 C 
ENDROOT
BRANCH   1   4
ATOM      4  C   UNL d   1      -3.924  -3.784  -0.000  0.00  0.00     0.123 C 
BRANCH   4   5
ATOM      5  C   UNL d   1      -5.443  -3.604   0.009  0.00  0.00     0.058 C 
BRANCH   5   6
ATOM      6  C   UNL d   1      -6.193  -4.912   0.004  0.00  0.00    -0.054 A 
ATOM      7  C   UNL d   1      -6.535  -5.523  -1.213  0.00  0.00     0.046 A 
ATOM      8  C   UNL d   1      -7.269  -6.720  -1.255  0.00  0.00     0.102 A 
ATOM      9  C   UNL d   1      -7.637  -7.328  -0.042  0.00  0.00     0.101 A 
ATOM     10  C   UNL d   1      -7.298  -6.714   1.172  0.00  0.00     0.040 A 
ATOM     11  C   UNL d   1      -6.576  -5.521   1.199  0.00  0.00     0.010 A 
BRANCH   8  12
ATOM     12  O   UNL d   1      -7.682  -7.306  -2.421  0.00  0.00    -0.353 OA
ATOM     13  C   UNL d   1      -7.341  -6.670  -3.646  0.00  0.00     0.210 C 
ENDBRANCH   8  12
BRANCH   9  14
ATOM     14  O   UNL d   1      -8.374  -8.473   0.125  0.00  0.00    -0.353 OA
ATOM     15  C   UNL d   1      -8.219  -9.485  -0.862  0.00  0.00     0.210 C 
ENDBRANCH   9  14
ENDBRANCH   5   6
ENDBRANCH   4   5
ENDBRANCH   1   4
BRANCH   3  16
ATOM     16  C   UNL d   1      -1.274  -1.177  -0.098  0.00  0.00     0.014 A 
ATOM     17  C   UNL d   1      -1.930   0.062  -0.134  0.00  0.00     0.077 A 
ATOM     18  C   UNL d   1      -1.201   1.248  -0.176  0.00  0.00     0.039 A 
ATOM     19  C   UNL d   1       0.193   1.200  -0.183  0.00  0.00     0.026 A 
ATOM     20  C   UNL d   1       0.846  -0.033  -0.147  0.00  0.00     0.035 A 
ATOM     21  C   UNL d   1       0.122  -1.226  -0.105  0.00  0.00     0.039 A 
ATOM     22 CL   UNL d   1       2.566  -0.084  -0.156  0.00  0.00    -0.084 Cl
BRANCH  17  23
ATOM     23  O   UNL d   1      -3.293   0.180  -0.130  0.00  0.00    -0.360 OA
ATOM     24  H   UNL d   1      -3.659  -0.736  -0.094  0.00  0.00     0.217 HD
ENDBRANCH  17  23
ENDBRANCH   3  16
TORSDOF 7
