REMARK  7 active torsions:
REMARK  status: ('A' for Active; 'I' for Inactive)
REMARK    1  A    between atoms: N_3  and  C_1 
REMARK    2  A    between atoms: C_2  and  N_3 
REMARK    3  A    between atoms: C_16  and  N_7 
REMARK    4  A    between atoms: N_11  and  C_17 
REMARK    5  A    between atoms: C_15  and  N_11 
REMARK    6  A    between atoms: C_14  and  C_16 
REMARK    7  A    between atoms: C_17  and  C_14 
ROOT
ATOM      1  C   UNL d   1       0.962  -0.284  -0.264  0.00  0.00     0.172 C 
ATOM      2  S   UNL d   1       0.304   0.462  -1.607  0.00  0.00    -0.041 SA
ATOM      3  N   UNL d   1       2.324  -0.355  -0.210  0.00  0.00    -0.367 N 
ATOM      4  H   UNL d   1       2.793   0.069  -1.006  0.00  0.00     0.161 HD
ENDROOT
BRANCH   3   5
ATOM      5  C   UNL d   1       3.138  -0.867   0.873  0.00  0.00     0.123 C 
BRANCH   5   6
ATOM      6  C   UNL d   1       4.628  -0.644   0.634  0.00  0.00     0.050 C 
BRANCH   6   7
ATOM      7  C   UNL d   1       5.414  -1.340   1.744  0.00  0.00     0.271 C 
BRANCH   7   8
ATOM      8  N   UNL d   1       6.852  -1.217   1.530  0.00  0.00     0.088 N 
ATOM      9  H   UNL d   1       7.114  -0.233   1.493  0.00  0.00     0.316 HD
BRANCH   8  10
ATOM     10  C   UNL d   1       7.641  -1.892   2.579  0.00  0.00     0.220 C 
ATOM     11  C   UNL d   1       9.137  -1.637   2.326  0.00  0.00     0.035 C 
ATOM     12  C   UNL d   1       9.642  -2.319   1.051  0.00  0.00     0.002 C 
ATOM     13  C   UNL d   1       9.323  -3.813   1.039  0.00  0.00     0.000 C 
ATOM     14  C   UNL d   1       7.857  -4.103   1.341  0.00  0.00     0.002 C 
ATOM     15  C   UNL d   1       7.413  -3.415   2.632  0.00  0.00     0.035 C 
ENDBRANCH   8  10
ENDBRANCH   7   8
ENDBRANCH   6   7
ENDBRANCH   5   6
ENDBRANCH   3   5
BRANCH   1  16
ATOM     16  N   UNL d   1       0.300  -0.884   0.785  0.00  0.00    -0.332 N 
ATOM     17  H   UNL d   1       0.720  -1.756   1.085  0.00  0.00     0.168 HD
BRANCH  16  18
ATOM     18  C   UNL d   1      -1.077  -0.762   1.106  0.00  0.00     0.057 A 
ATOM     19  C   UNL d   1      -1.735   0.470   1.026  0.00  0.00     0.055 A 
ATOM     20  C   UNL d   1      -3.103   0.552   1.282  0.00  0.00     0.036 A 
ATOM     21 CL   UNL d   1      -3.903   2.070   1.154  0.00  0.00    -0.084 Cl
ATOM     22  C   UNL d   1      -3.826  -0.583   1.641  0.00  0.00     0.026 A 
ATOM     23  C   UNL d   1      -3.166  -1.804   1.792  0.00  0.00     0.028 A 
ATOM     24  C   UNL d   1      -1.792  -1.888   1.549  0.00  0.00     0.060 A 
ATOM     25 CL   UNL d   1      -1.012  -3.417   1.758  0.00  0.00    -0.082 Cl
ENDBRANCH  16  18
ENDBRANCH   1  16
TORSDOF 7
