REMARK  5 active torsions:
REMARK  status: ('A' for Active; 'I' for Inactive)
REMARK    1  A    between atoms: C_11  and  N_2 
REMARK    2  A    between atoms: O_9  and  C_5 
REMARK    3  A    between atoms: N_10  and  C_7 
REMARK    4  A    between atoms: C_12  and  C_11 
REMARK    5  A    between atoms: C_13  and  C_12 
ROOT
ATOM      1  C   UNL d   1      -0.470  -0.299  -1.020  0.00  0.00     0.181 A 
ATOM      2  N   UNL d   1      -1.275   0.232   0.026  0.00  0.00    -0.304 N 
ATOM      3  N   UNL d   1       0.901  -0.175  -0.937  0.00  0.00    -0.324 N 
ATOM      4  HN  UNL d   1       1.486  -0.553  -1.682  1.00  0.00     0.169 HD
ATOM      5  C   UNL d   1      -0.645   0.828   1.113  0.00  0.00     0.147 A 
ATOM      6  C   UNL d   1       0.675   0.965   1.183  0.00  0.00     0.098 A 
ATOM      7  C   UNL d   1       1.453   0.412   0.072  0.00  0.00     0.083 A 
ATOM      8  S   UNL d   1      -1.079  -1.116  -2.377  0.00  0.00    -0.040 SA
ENDROOT
BRANCH   2   9
ATOM      9  C   UNL d   1      -2.754   0.117  -0.007  0.00  0.00     0.133 C 
BRANCH   9  10
ATOM     10  C   UNL d   1      -3.541   1.436   0.014  0.00  0.00     0.020 C 
BRANCH  10  11
ATOM     11  C   UNL d   1      -3.269   2.349  -1.180  0.00  0.00    -0.003 C 
ATOM     12  C   UNL d   1      -4.094   3.625  -1.073  0.00  0.00     0.005 C 
ENDBRANCH  10  11
ENDBRANCH   9  10
ENDBRANCH   2   9
BRANCH   5  13
ATOM     13  O   UNL d   1      -1.389   1.281   2.180  0.00  0.00    -0.346 OA
ATOM     14  H   UNL d   1      -2.177   0.726   2.255  0.00  0.00     0.219 HD
ENDBRANCH   5  13
BRANCH   7  15
ATOM     15  N   UNL d   1       2.818   0.478   0.089  0.00  0.00    -0.288 NA
ATOM     16  H   UNL d   1       3.272   0.450   0.994  0.00  0.00     0.125 HD
ATOM     17  H   UNL d   1       3.239  -0.148  -0.591  0.00  0.00     0.125 HD
ENDBRANCH   7  15
TORSDOF 5
