REMARK  4 active torsions:
REMARK  status: ('A' for Active; 'I' for Inactive)
REMARK    1  A    between atoms: C_3  and  C_1 
REMARK       I    between atoms: C_2  and  N_5 
REMARK    2  A    between atoms: C_6  and  C_2 
REMARK    3  A    between atoms: C_12  and  C_3 
REMARK    4  A    between atoms: N_5  and  C_4 
ROOT
ATOM      1  C   UNL d   1       1.353   1.106  -0.370  0.00  0.00     0.043 A 
ATOM      2  C   UNL d   1       2.271   0.067  -0.121  0.00  0.00     0.049 A 
ATOM      3  C   UNL d   1      -0.030   0.837  -0.292  0.00  0.00     0.041 A 
ATOM      4  C   UNL d   1       1.780  -1.222   0.156  0.00  0.00     0.032 A 
ATOM      5  C   UNL d   1      -0.489  -0.436   0.035  0.00  0.00     0.035 A 
ATOM      6  C   UNL d   1       0.410  -1.470   0.249  0.00  0.00     0.026 A 
ATOM      7 CL   UNL d   1      -2.179  -0.738   0.129  0.00  0.00    -0.084 Cl
ENDROOT
BRANCH   2   8
ATOM      8  N   UNL d   1       3.675   0.163  -0.138  0.00  0.00    -0.320 N 
ATOM      9  C   UNL d   1       4.456   1.252   0.198  0.00  0.00     0.279 C 
ATOM     10  O   UNL d   1       4.028   2.295   0.688  0.00  0.00    -0.265 OA
ATOM     11  H   UNL d   1       4.205  -0.695  -0.251  0.00  0.00     0.169 HD
BRANCH   9  12
ATOM     12  C   UNL d   1       5.874   0.977   0.028  0.00  0.00     0.142 A 
ATOM     13  O   UNL d   1       6.264  -0.292  -0.338  0.00  0.00    -0.317 OA
ATOM     14  C   UNL d   1       7.620  -0.293  -0.409  0.00  0.00     0.143 A 
ATOM     15  C   UNL d   1       8.119   0.948  -0.095  0.00  0.00     0.027 A 
ATOM     16  C   UNL d   1       6.997   1.766   0.189  0.00  0.00     0.045 A 
ENDBRANCH   9  12
ENDBRANCH   2   8
BRANCH   1  17
ATOM     17  C   UNL d   1       1.742   2.414  -0.975  0.00  0.00     0.194 C 
ATOM     18  O   UNL d   1       2.582   2.430  -1.873  0.00  0.00    -0.287 OA
BRANCH  17  19
ATOM     19  C   UNL d   1       0.990   3.661  -0.648  0.00  0.00     0.015 A 
ATOM     20  C   UNL d   1       0.762   4.584  -1.676  0.00  0.00     0.015 A 
ATOM     21  C   UNL d   1      -0.041   5.704  -1.450  0.00  0.00     0.001 A 
ATOM     22  C   UNL d   1      -0.610   5.910  -0.194  0.00  0.00     0.000 A 
ATOM     23  C   UNL d   1      -0.356   5.013   0.845  0.00  0.00     0.001 A 
ATOM     24  C   UNL d   1       0.451   3.893   0.624  0.00  0.00     0.015 A 
ENDBRANCH  17  19
ENDBRANCH   1  17
TORSDOF 4
