REMARK  2 active torsions:
REMARK  status: ('A' for Active; 'I' for Inactive)
REMARK    1  A    between atoms: C_2  and  C_1 
REMARK       I    between atoms: N_5  and  C_2 
REMARK    2  A    between atoms: C_11  and  N_5 
ROOT
ATOM      1  C   UNL d   1       2.864   2.822  -0.958  0.00  0.00     0.104 A 
ATOM      2  C   UNL d   1       1.473   2.740  -0.974  0.00  0.00     0.069 A 
ATOM      3  C   UNL d   1       3.506   3.704  -0.090  0.00  0.00     0.102 A 
ATOM      4  C   UNL d   1       0.701   3.494  -0.085  0.00  0.00     0.037 A 
ATOM      5  O   UNL d   1       3.533   1.992  -1.820  0.00  0.00    -0.346 OA
ATOM      6  O   UNL d   1       4.870   3.817  -0.010  0.00  0.00    -0.346 OA
ATOM      7  C   UNL d   1       2.748   4.503   0.762  0.00  0.00     0.042 A 
ATOM      8  C   UNL d   1       1.348   4.406   0.759  0.00  0.00     0.032 A 
ATOM      9  C   UNL d   1       4.884   1.805  -1.393  0.00  0.00     0.202 C 
ATOM     10  C   UNL d   1       5.530   3.147  -1.093  0.00  0.00     0.202 C 
ENDROOT
BRANCH   4  11
ATOM     11  N   UNL d   1      -0.704   3.359   0.017  0.00  0.00    -0.321 N 
ATOM     12  C   UNL d   1      -1.451   2.300  -0.487  0.00  0.00     0.281 C 
ATOM     13  O   UNL d   1      -0.977   1.323  -1.063  0.00  0.00    -0.265 OA
ATOM     14  H   UNL d   1      -1.195   4.022   0.602  0.00  0.00     0.169 HD
BRANCH  12  15
ATOM     15  C   UNL d   1      -2.873   2.378  -0.260  0.00  0.00     0.167 A 
ATOM     16  O   UNL d   1      -3.425   3.455   0.369  0.00  0.00    -0.233 OA
ATOM     17  N   UNL d   1      -4.800   3.284   0.449  0.00  0.00    -0.272 N 
ATOM     18  C   UNL d   1      -5.046   2.107  -0.133  0.00  0.00     0.117 A 
ATOM     19  HN  UNL d   1      -5.479   3.922   0.864  1.00  0.00     0.194 HD
ATOM     20  C   UNL d   1      -3.875   1.492  -0.590  0.00  0.00     0.064 A 
ENDBRANCH  12  15
ENDBRANCH   4  11
TORSDOF 2
