REMARK  8 active torsions:
REMARK  status: ('A' for Active; 'I' for Inactive)
REMARK    1  A    between atoms: C_2  and  C_1 
REMARK       I    between atoms: N_4  and  C_1 
REMARK    2  A    between atoms: C_10  and  N_4 
REMARK    3  A    between atoms: O_9  and  C_13 
REMARK    4  A    between atoms: C_12  and  O_9 
REMARK    5  A    between atoms: C_11  and  C_10 
REMARK    6  A    between atoms: C_13  and  C_11 
REMARK    7  A    between atoms: O_19  and  C_11 
REMARK    8  A    between atoms: O_20  and  C_14 
ROOT
ATOM      1  C   UNL d   1      -1.730  -2.133  -1.590  0.00  0.00     0.160 C 
ENDROOT
BRANCH   1   2
ATOM      2  C   UNL d   1      -1.195  -1.913  -3.014  0.00  0.00     0.156 C 
BRANCH   2   3
ATOM      3  N   UNL d   1      -1.605  -0.636  -3.571  0.00  0.00    -0.354 N 
ATOM      4  C   UNL d   1      -2.759  -0.466  -4.306  0.00  0.00     0.258 C 
ATOM      5  O   UNL d   1      -3.487  -1.423  -4.578  0.00  0.00    -0.267 OA
ATOM      6  H   UNL d   1      -1.123   0.198  -3.262  0.00  0.00     0.162 HD
BRANCH   4   7
ATOM      7  C   UNL d   1      -3.045   0.896  -4.739  0.00  0.00     0.072 A 
ATOM      8  S   UNL d   1      -2.099   2.240  -4.245  0.00  0.00    -0.097 SA
ATOM      9  C   UNL d   1      -3.083   3.345  -5.103  0.00  0.00     0.050 A 
ATOM     10  C   UNL d   1      -4.098   2.710  -5.781  0.00  0.00     0.009 A 
ATOM     11  C   UNL d   1      -4.074   1.300  -5.577  0.00  0.00     0.025 A 
ENDBRANCH   4   7
ENDBRANCH   2   3
ENDBRANCH   1   2
BRANCH   1  12
ATOM     12  C   UNL d   1      -1.229  -3.462  -1.000  0.00  0.00     0.209 C 
BRANCH  12  13
ATOM     13  O   UNL d   1       0.205  -3.434  -0.942  0.00  0.00    -0.349 OA
BRANCH  13  14
ATOM     14  C   UNL d   1       0.831  -4.582  -0.534  0.00  0.00     0.069 A 
ATOM     15  C   UNL d   1       0.198  -5.737  -0.074  0.00  0.00     0.039 A 
ATOM     16  C   UNL d   1       0.952  -6.859   0.298  0.00  0.00     0.039 A 
ATOM     17  C   UNL d   1       2.343  -6.835   0.221  0.00  0.00     0.068 A 
ATOM     18  C   UNL d   1       2.977  -5.674  -0.224  0.00  0.00     0.039 A 
ATOM     19  C   UNL d   1       2.224  -4.554  -0.600  0.00  0.00     0.039 A 
BRANCH  17  20
ATOM     20  O   UNL d   1       3.182  -7.865   0.551  0.00  0.00    -0.356 OA
ATOM     21  C   UNL d   1       2.568  -9.079   0.967  0.00  0.00     0.210 C 
ENDBRANCH  17  20
ENDBRANCH  13  14
ENDBRANCH  12  13
ENDBRANCH   1  12
BRANCH   1  22
ATOM     22  O   UNL d   1      -1.302  -1.048  -0.748  0.00  0.00    -0.392 OA
ATOM     23  H   UNL d   1      -0.338  -1.147  -0.641  0.00  0.00     0.210 HD
ENDBRANCH   1  22
TORSDOF 8
