REMARK  4 active torsions:
REMARK  status: ('A' for Active; 'I' for Inactive)
REMARK    1  A    between atoms: C_2  and  C_1 
REMARK    2  A    between atoms: C_3  and  C_1 
REMARK    3  A    between atoms: O_8  and  C_1 
REMARK    4  A    between atoms: O_9  and  C_3 
ROOT
ATOM      1  C   UNL d   1       1.071  -0.063  -0.047  0.00  0.00     0.237 C 
ATOM      2  C   UNL d   1       2.597  -0.098   0.012  0.00  0.00     0.067 C 
ENDROOT
BRANCH   1   3
ATOM      3  C   UNL d   1       0.518   1.356  -0.262  0.00  0.00     0.428 C 
ATOM      4  F   UNL d   1      -0.271   1.461  -1.354  0.00  0.00    -0.167 F 
ATOM      5  F   UNL d   1      -0.220   1.773   0.794  0.00  0.00    -0.167 F 
ATOM      6  F   UNL d   1       1.517   2.258  -0.426  0.00  0.00    -0.167 F 
ENDBRANCH   1   3
BRANCH   1   7
ATOM      7  C   UNL d   1       0.496  -0.936  -1.155  0.00  0.00     0.185 C 
ATOM      8  O   UNL d   1      -0.536  -1.581  -0.993  0.00  0.00    -0.648 OA
BRANCH   7   9
ATOM      9  O   UNL d   1       1.158  -0.969  -2.330  0.00  0.00    -0.774 OA
ATOM     10  H   UNL d   1       1.974  -0.443  -2.424  0.00  0.00     0.167 HD
ENDBRANCH   7   9
ENDBRANCH   1   7
BRANCH   1  11
ATOM     11  O   UNL d   1       0.635  -0.635   1.216  0.00  0.00    -0.372 OA
ATOM     12  H   UNL d   1      -0.317  -0.847   1.114  0.00  0.00     0.211 HD
ENDBRANCH   1  11
TORSDOF 4
