REMARK  4 active torsions:
REMARK  status: ('A' for Active; 'I' for Inactive)
REMARK    1  A    between atoms: S_10  and  C_1 
REMARK    2  A    between atoms: N_4  and  C_8 
REMARK    3  A    between atoms: C_14  and  S_10 
REMARK    4  A    between atoms: C_15  and  C_14 
ROOT
ATOM      1  S   UNL d   1      -3.984   0.285   0.094  0.00  0.00    -0.082 SA
ENDROOT
BRANCH   1   2
ATOM      2  C   UNL d   1      -2.264  -0.002   0.130  0.00  0.00     0.188 A 
ATOM      3  N   UNL d   1      -1.717  -1.204   0.143  0.00  0.00    -0.329 N 
ATOM      4  C   UNL d   1      -0.367  -0.953   0.163  0.00  0.00     0.068 A 
ATOM      5  HN  UNL d   1      -2.187  -2.109   0.138  1.00  0.00     0.168 HD
ATOM      6  C   UNL d   1       0.732  -1.820   0.180  0.00  0.00     0.032 A 
ATOM      7  C   UNL d   1      -0.141   0.413   0.164  0.00  0.00     0.105 A 
ATOM      8  C   UNL d   1       2.021  -1.264   0.195  0.00  0.00     0.002 A 
ATOM      9  C   UNL d   1       2.208   0.124   0.195  0.00  0.00     0.003 A 
ATOM     10  C   UNL d   1       1.119   1.006   0.180  0.00  0.00     0.040 A 
ATOM     11  O   UNL d   1      -1.356   1.031   0.144  0.00  0.00    -0.285 OA
ENDBRANCH   1   2
BRANCH   1  12
ATOM     12  C   UNL d   1      -4.623  -1.415   0.061  0.00  0.00     0.121 C 
BRANCH  12  13
ATOM     13  C   UNL d   1      -6.138  -1.442  -0.009  0.00  0.00    -0.048 A 
ATOM     14  C   UNL d   1      -6.795  -1.448  -1.251  0.00  0.00     0.010 A 
ATOM     15  C   UNL d   1      -8.192  -1.445  -1.325  0.00  0.00     0.036 A 
ATOM     16  C   UNL d   1      -8.946  -1.434  -0.145  0.00  0.00     0.102 A 
ATOM     17  C   UNL d   1      -8.309  -1.434   1.102  0.00  0.00     0.036 A 
ATOM     18  C   UNL d   1      -6.912  -1.437   1.165  0.00  0.00     0.010 A 
BRANCH  16  19
ATOM     19  N   UNL d   1     -10.413  -1.414  -0.216  0.00  0.00    -0.116 N 
ATOM     20  O   UNL d   1     -10.936  -1.413  -1.340  0.00  0.00    -0.532 OA
ATOM     21  O   UNL d   1     -11.044  -1.399   0.851  0.00  0.00    -0.532 OA
ENDBRANCH  16  19
ENDBRANCH  12  13
ENDBRANCH   1  12
TORSDOF 4
