REMARK  1 active torsions:
REMARK  status: ('A' for Active; 'I' for Inactive)
REMARK    1  A    between atoms: C_4  and  C_1 
ROOT
ATOM      1  C   UNL d   1       2.293   0.096  -0.293  0.00  0.00     0.178 C 
ATOM      2  N   UNL d   1       1.533  -1.102   0.129  0.00  0.00    -0.270 NA
ATOM      3  N   UNL d   1       1.456   1.306  -0.073  0.00  0.00    -0.270 NA
ATOM      4  C   UNL d   1       0.200  -0.642   0.083  0.00  0.00     0.031 A 
ATOM      5  C   UNL d   1       0.153   0.745  -0.012  0.00  0.00     0.031 A 
ATOM      6  C   UNL d   1      -0.952  -1.393   0.190  0.00  0.00     0.025 A 
ATOM      7  C   UNL d   1      -1.041   1.433   0.023  0.00  0.00     0.025 A 
ATOM      8  C   UNL d   1      -2.176  -0.716   0.178  0.00  0.00     0.002 A 
ATOM      9  C   UNL d   1      -2.220   0.687   0.099  0.00  0.00     0.002 A 
ATOM     10  H   UNL d   1       1.668  -1.886  -0.500  0.00  0.00     0.129 HD
ATOM     11  H   UNL d   1       1.661   1.674   0.852  0.00  0.00     0.129 HD
ENDROOT
BRANCH   1  12
ATOM     12  C   UNL d   1       2.790   0.004  -1.727  0.00  0.00     0.015 A 
ATOM     13  S   UNL d   1       4.468  -0.002  -2.077  0.00  0.00    -0.103 SA
ATOM     14  C   UNL d   1       4.184  -0.091  -3.761  0.00  0.00     0.050 A 
ATOM     15  C   UNL d   1       2.839  -0.132  -4.059  0.00  0.00     0.008 A 
ATOM     16  C   UNL d   1       2.037  -0.080  -2.887  0.00  0.00     0.018 A 
ENDBRANCH   1  12
TORSDOF 1
