REMARK  1 active torsions:
REMARK  status: ('A' for Active; 'I' for Inactive)
REMARK    1  A    between atoms: N_7  and  C_1 
ROOT
ATOM      1  C   UNL d   1      -0.218  -1.210  -0.123  0.00  0.00     0.700 C 
ATOM      2  N   UNL d   1      -1.158  -0.263  -0.358  0.00  0.00    -0.139 N 
ATOM      3  N   UNL d   1       0.991  -0.733  -0.137  0.00  0.00    -0.126 N 
ATOM      4  HN  UNL d   1       1.862  -1.250  -0.013  1.00  0.00     0.206 HD
ATOM      5  C   UNL d   1      -0.505   0.936  -0.384  0.00  0.00     0.355 C 
ATOM      6  N   UNL d   1       0.847   0.615  -0.353  0.00  0.00    -0.232 N 
ATOM      7  O   UNL d   1      -1.028   2.039  -0.346  0.00  0.00    -0.244 OA
ATOM      8  C   UNL d   1       1.906   1.541  -0.064  0.00  0.00     0.183 C 
ATOM      9  H   UNL d   1      -2.145  -0.355  -0.222  0.00  0.00     0.189 HD
ENDROOT
BRANCH   1  10
ATOM     10  N   UNL d   1      -0.606  -2.504   0.151  0.00  0.00    -0.208 N 
ATOM     11  C   UNL d   1      -1.472  -3.194  -0.837  0.00  0.00     0.098 C 
ATOM     12  C   UNL d   1      -2.308  -4.277  -0.149  0.00  0.00     0.025 C 
ATOM     13  C   UNL d   1      -0.655  -3.749  -2.009  0.00  0.00     0.033 C 
ATOM     14  C   UNL d   1      -1.452  -5.243   0.660  0.00  0.00     0.004 C 
ATOM     15  C   UNL d   1      -0.579  -4.473   1.639  0.00  0.00     0.025 C 
ATOM     16  C   UNL d   1       0.278  -3.397   0.948  0.00  0.00     0.098 C 
ATOM     17  C   UNL d   1       1.050  -2.663   2.055  0.00  0.00     0.033 C 
ENDBRANCH   1  10
TORSDOF 1
