REMARK  5 active torsions:
REMARK  status: ('A' for Active; 'I' for Inactive)
REMARK    1  A    between atoms: C_13  and  C_4 
REMARK    2  A    between atoms: C_10  and  C_18 
REMARK    3  A    between atoms: O_16  and  C_10 
REMARK    4  A    between atoms: S_12  and  C_13 
REMARK    5  A    between atoms: C_18  and  S_12 
ROOT
ATOM      1  S   UNL d   1      -1.734  -1.483   0.018  0.00  0.00     0.198 S 
ATOM      2  C   UNL d   1      -2.565   0.039   0.014  0.00  0.00     0.123 A 
ATOM      3  C   UNL d   1      -0.164  -0.718   0.002  0.00  0.00     0.074 A 
ATOM      4  C   UNL d   1      -1.724   1.091  -0.025  0.00  0.00    -0.026 A 
ATOM      5  C   UNL d   1      -0.309   0.670  -0.010  0.00  0.00    -0.005 A 
ATOM      6  O   UNL d   1      -1.896  -2.137   1.297  0.00  0.00    -0.218 OA
ATOM      7  O   UNL d   1      -1.914  -2.160  -1.246  0.00  0.00    -0.218 OA
ATOM      8  C   UNL d   1       1.054  -1.378   0.009  0.00  0.00     0.026 A 
ATOM      9  C   UNL d   1       0.841   1.449  -0.011  0.00  0.00     0.037 A 
ATOM     10  C   UNL d   1       2.092   0.812  -0.003  0.00  0.00     0.035 A 
ATOM     11  C   UNL d   1       2.202  -0.588   0.005  0.00  0.00     0.025 A 
ATOM     12 CL   UNL d   1       3.526   1.767   0.000  0.00  0.00    -0.084 Cl
ENDROOT
BRANCH   4  13
ATOM     13  C   UNL d   1      -2.156   2.524  -0.072  0.00  0.00     0.114 C 
BRANCH  13  14
ATOM     14  S   UNL d   1      -2.271   3.028  -1.823  0.00  0.00    -0.155 SA
BRANCH  14  15
ATOM     15  C   UNL d   1      -2.873   4.734  -1.631  0.00  0.00     0.185 C 
BRANCH  15  16
ATOM     16  C   UNL d   1      -1.872   5.589  -0.897  0.00  0.00     0.267 C 
ATOM     17  O   UNL d   1      -1.864   5.740   0.319  0.00  0.00    -0.264 OA
BRANCH  16  18
ATOM     18  O   UNL d   1      -0.960   6.121  -1.758  0.00  0.00    -0.326 OA
ATOM     19  C   UNL d   1       0.066   6.886  -1.125  0.00  0.00     0.213 C 
ENDBRANCH  16  18
ENDBRANCH  15  16
ENDBRANCH  14  15
ENDBRANCH  13  14
ENDBRANCH   4  13
TORSDOF 5
