REMARK  7 active torsions:
REMARK  status: ('A' for Active; 'I' for Inactive)
REMARK    1  A    between atoms: C_2  and  N_1 
REMARK    2  A    between atoms: C_8  and  C_2 
REMARK    3  A    between atoms: C_9  and  C_2 
REMARK    4  A    between atoms: C_3  and  C_6 
REMARK       I    between atoms: N_12  and  C_3 
REMARK    5  A    between atoms: C_6  and  C_14 
REMARK    6  A    between atoms: O_15  and  C_13 
REMARK    7  A    between atoms: C_14  and  O_15 
ROOT
ATOM      1  N   UNL d   1       1.358   0.056   0.230  0.00  0.00     0.102 N 
ATOM      2  C   UNL d   1       0.626   1.255  -0.215  0.00  0.00     0.276 C 
ATOM      3  C   UNL d   1       0.631  -1.173  -0.139  0.00  0.00     0.276 C 
ATOM      4  C   UNL d   1      -0.812   1.290   0.308  0.00  0.00     0.062 C 
ATOM      5  C   UNL d   1      -0.809  -1.177   0.382  0.00  0.00     0.062 C 
ATOM      6  C   UNL d   1      -1.579   0.043  -0.130  0.00  0.00     0.124 C 
ENDROOT
BRANCH   1   7
ATOM      7  C   UNL d   1       2.782   0.018  -0.246  0.00  0.00     0.289 C 
BRANCH   7   8
ATOM      8  C   UNL d   1       2.909   0.041  -1.787  0.00  0.00    -0.021 A 
ATOM      9  C   UNL d   1       2.905   1.253  -2.499  0.00  0.00     0.010 A 
ATOM     10  C   UNL d   1       3.090   1.280  -3.880  0.00  0.00     0.001 A 
ATOM     11  C   UNL d   1       3.247   0.086  -4.576  0.00  0.00     0.000 A 
ATOM     12  C   UNL d   1       3.216  -1.129  -3.894  0.00  0.00     0.001 A 
ATOM     13  C   UNL d   1       3.054  -1.158  -2.505  0.00  0.00     0.010 A 
ENDBRANCH   7   8
BRANCH   7  14
ATOM     14  C   UNL d   1       3.714   1.048   0.447  0.00  0.00    -0.021 C 
ATOM     15  C   UNL d   1       3.413   1.601   1.702  0.00  0.00     0.010 C 
ATOM     16  C   UNL d   1       4.212   2.610   2.253  0.00  0.00     0.001 C 
ATOM     17  C   UNL d   1       5.338   3.070   1.571  0.00  0.00     0.000 C 
ATOM     18  C   UNL d   1       5.705   2.476   0.372  0.00  0.00     0.001 C 
ATOM     19  C   UNL d   1       4.923   1.450  -0.162  0.00  0.00     0.010 C 
ENDBRANCH   7  14
ENDBRANCH   1   7
BRANCH   6  20
ATOM     20  O   UNL d   1      -1.708   0.061  -1.565  0.00  0.00    -0.385 OA
BRANCH  20  21
ATOM     21  C   UNL d   1      -2.560  -0.973  -2.065  0.00  0.00     0.177 C 
BRANCH  21  22
ATOM     22  C   UNL d   1      -2.668  -0.888  -3.582  0.00  0.00     0.129 C 
BRANCH  22  23
ATOM     23  C   UNL d   1      -3.497  -2.046  -4.096  0.00  0.00     0.217 C 
ATOM     24  O   UNL d   1      -4.008  -2.905  -3.388  0.00  0.00    -0.274 OA
ATOM     25  N   UNL d   1      -3.649  -2.086  -5.451  0.00  0.00    -0.370 N 
ATOM     26  H   UNL d   1      -3.217  -1.424  -6.077  0.00  0.00     0.159 HD
ATOM     27  H   UNL d   1      -4.180  -2.854  -5.838  0.00  0.00     0.159 HD
ENDBRANCH  22  23
ENDBRANCH  21  22
ENDBRANCH  20  21
ENDBRANCH   6  20
TORSDOF 7
