REMARK  7 active torsions:
REMARK  status: ('A' for Active; 'I' for Inactive)
REMARK    1  A    between atoms: C_2  and  C_1 
REMARK       I    between atoms: N_3  and  C_1 
REMARK    2  A    between atoms: C_11  and  N_3 
REMARK       I    between atoms: C_4  and  N_8 
REMARK    3  A    between atoms: C_5  and  C_4 
REMARK    4  A    between atoms: C_6  and  C_7 
REMARK    5  A    between atoms: O_16  and  C_6 
REMARK    6  A    between atoms: N_8  and  C_13 
REMARK    7  A    between atoms: O_17  and  C_9 
ROOT
ATOM      1  C   UNL d   1      -1.145  -0.147   1.207  0.00  0.00     0.037 A 
ATOM      2  C   UNL d   1      -1.781  -0.610   0.052  0.00  0.00     0.059 A 
ATOM      3  C   UNL d   1      -3.086  -1.113   0.075  0.00  0.00     0.037 A 
ATOM      4  C   UNL d   1      -3.194  -0.578   2.432  0.00  0.00     0.004 A 
ATOM      5  C   UNL d   1      -1.866  -0.136   2.403  0.00  0.00     0.029 A 
ATOM      6  C   UNL d   1      -3.804  -1.061   1.271  0.00  0.00     0.029 A 
ENDROOT
BRANCH   1   7
ATOM      7  N   UNL d   1       0.198   0.306   1.224  0.00  0.00    -0.323 N 
ATOM      8  C   UNL d   1       1.088   0.261   0.161  0.00  0.00     0.259 C 
ATOM      9  O   UNL d   1       0.878  -0.224  -0.948  0.00  0.00    -0.267 OA
ATOM     10  H   UNL d   1       0.553   0.594   2.125  0.00  0.00     0.169 HD
BRANCH   8  11
ATOM     11  C   UNL d   1       2.455   0.805   0.380  0.00  0.00     0.065 A 
ATOM     12  C   UNL d   1       3.511   0.338  -0.424  0.00  0.00     0.081 A 
ATOM     13  C   UNL d   1       4.798   0.847  -0.280  0.00  0.00     0.037 A 
ATOM     14  C   UNL d   1       5.044   1.847   0.658  0.00  0.00     0.003 A 
ATOM     15  C   UNL d   1       4.004   2.332   1.452  0.00  0.00     0.001 A 
ATOM     16  C   UNL d   1       2.710   1.816   1.316  0.00  0.00     0.020 A 
BRANCH  12  17
ATOM     17  O   UNL d   1       3.353  -0.621  -1.392  0.00  0.00    -0.360 OA
ATOM     18  H   UNL d   1       2.386  -0.749  -1.529  0.00  0.00     0.217 HD
ENDBRANCH  12  17
ENDBRANCH   8  11
ENDBRANCH   1   7
BRANCH   3  19
ATOM     19  N   UNL d   1      -3.702  -1.690  -1.063  0.00  0.00    -0.324 N 
ATOM     20  C   UNL d   1      -3.032  -2.115  -2.194  0.00  0.00     0.245 C 
ATOM     21  O   UNL d   1      -1.823  -2.091  -2.391  0.00  0.00    -0.268 OA
ATOM     22  H   UNL d   1      -4.683  -1.917  -0.977  0.00  0.00     0.169 HD
BRANCH  20  23
ATOM     23  C   UNL d   1      -3.921  -2.707  -3.221  0.00  0.00     0.081 C 
ATOM     24  C   UNL d   1      -3.330  -3.222  -4.312  0.00  0.00     0.086 C 
BRANCH  24  25
ATOM     25  C   UNL d   1      -4.142  -3.826  -5.372  0.00  0.00     0.165 C 
ATOM     26  O   UNL d   1      -5.355  -3.931  -5.327  0.00  0.00    -0.647 OA
BRANCH  25  27
ATOM     27  O   UNL d   1      -3.392  -4.255  -6.405  0.00  0.00    -0.773 OA
ATOM     28  H   UNL d   1      -2.433  -4.103  -6.320  0.00  0.00     0.167 HD
ENDBRANCH  25  27
ENDBRANCH  24  25
ENDBRANCH  20  23
ENDBRANCH   3  19
TORSDOF 7
