REMARK  4 active torsions:
REMARK  status: ('A' for Active; 'I' for Inactive)
REMARK    1  A    between atoms: C_6  and  C_1 
REMARK    2  A    between atoms: S_2  and  N_5 
REMARK    3  A    between atoms: C_12  and  S_2 
REMARK    4  A    between atoms: N_5  and  N_8 
REMARK       I    between atoms: N_8  and  C_6 
ROOT
ATOM      1  C   UNL d   1       1.961  -2.558  -0.202  0.00  0.00     0.272 C 
ATOM      2  N   UNL d   1       1.314  -3.750   0.043  0.00  0.00    -0.256 N 
ATOM      3  O   UNL d   1       1.359  -1.488  -0.080  0.00  0.00    -0.266 OA
ATOM      4  H   UNL d   1       1.791  -4.631   0.204  0.00  0.00     0.191 HD
ENDROOT
BRANCH   2   5
ATOM      5  N   UNL d   1      -0.091  -3.679   0.431  0.00  0.00    -0.220 N 
ATOM      6  H   UNL d   1      -0.534  -2.753   0.428  0.00  0.00     0.200 HD
BRANCH   5   7
ATOM      7  S   UNL d   1      -0.670  -4.774   1.580  0.00  0.00     0.276 S 
ATOM      8  O   UNL d   1      -2.091  -4.578   1.723  0.00  0.00    -0.199 OA
ATOM      9  O   UNL d   1      -0.079  -6.060   1.264  0.00  0.00    -0.199 OA
BRANCH   7  10
ATOM     10  C   UNL d   1       0.123  -4.149   3.043  0.00  0.00     0.081 A 
ATOM     11  C   UNL d   1      -0.224  -2.876   3.507  0.00  0.00     0.025 A 
ATOM     12  C   UNL d   1       0.430  -2.353   4.621  0.00  0.00     0.002 A 
ATOM     13  C   UNL d   1       1.415  -3.102   5.267  0.00  0.00     0.000 A 
ATOM     14  C   UNL d   1       1.747  -4.378   4.807  0.00  0.00     0.002 A 
ATOM     15  C   UNL d   1       1.100  -4.909   3.691  0.00  0.00     0.025 A 
ENDBRANCH   7  10
ENDBRANCH   5   7
ENDBRANCH   2   5
BRANCH   1  16
ATOM     16  C   UNL d   1       3.387  -2.612  -0.539  0.00  0.00     0.051 A 
ATOM     17  C   UNL d   1       4.217  -3.707  -1.037  0.00  0.00    -0.001 A 
ATOM     18  C   UNL d   1       5.529  -3.271  -1.286  0.00  0.00     0.016 A 
ATOM     19  C   UNL d   1       3.939  -5.072  -1.338  0.00  0.00     0.037 A 
ATOM     20  C   UNL d   1       6.526  -4.120  -1.812  0.00  0.00     0.021 A 
ATOM     21  S   UNL d   1       5.747  -1.615  -0.889  0.00  0.00    -0.100 SA
ATOM     22  C   UNL d   1       6.216  -5.450  -2.080  0.00  0.00     0.025 A 
ATOM     23  C   UNL d   1       4.939  -5.920  -1.836  0.00  0.00     0.035 A 
ATOM     24 CL   UNL d   1       4.568  -7.571  -2.157  0.00  0.00    -0.084 Cl
ATOM     25  C   UNL d   1       4.129  -1.448  -0.423  0.00  0.00     0.068 A 
ENDBRANCH   1  16
TORSDOF 4
