REMARK  4 active torsions:
REMARK  status: ('A' for Active; 'I' for Inactive)
REMARK    1  A    between atoms: C_7  and  N_1 
REMARK    2  A    between atoms: C_2  and  O_3 
REMARK    3  A    between atoms: O_3  and  C_4 
REMARK    4  A    between atoms: C_4  and  C_9 
ROOT
ATOM      1  C   UNL d   1      -2.575  -3.367  -2.831  0.00  0.00     0.298 C 
ATOM      2  O   UNL d   1      -2.529  -4.583  -2.941  0.00  0.00    -0.259 OA
ENDROOT
BRANCH   1   3
ATOM      3  O   UNL d   1      -3.572  -2.526  -3.283  0.00  0.00    -0.271 OA
BRANCH   3   4
ATOM      4  C   UNL d   1      -4.768  -3.173  -3.616  0.00  0.00     0.122 A 
ATOM      5  C   UNL d   1      -5.624  -3.625  -2.605  0.00  0.00     0.070 A 
ATOM      6  C   UNL d   1      -6.871  -4.157  -2.937  0.00  0.00     0.033 A 
ATOM      7 CL   UNL d   1      -5.215  -3.488  -0.932  0.00  0.00    -0.081 Cl
ATOM      8  C   UNL d   1      -7.288  -4.209  -4.274  0.00  0.00    -0.059 A 
ATOM      9  C   UNL d   1      -6.425  -3.751  -5.280  0.00  0.00     0.033 A 
ATOM     10  C   UNL d   1      -8.641  -4.766  -4.607  0.00  0.00     0.048 C 
ATOM     11  C   UNL d   1      -5.171  -3.228  -4.951  0.00  0.00     0.070 A 
ATOM     12 CL   UNL d   1      -4.166  -2.623  -6.217  0.00  0.00    -0.081 Cl
ENDBRANCH   3   4
ENDBRANCH   1   3
BRANCH   1  13
ATOM     13  C   UNL d   1      -1.572  -2.554  -2.082  0.00  0.00     0.040 A 
ATOM     14  C   UNL d   1      -1.620  -1.149  -2.058  0.00  0.00     0.020 A 
ATOM     15  C   UNL d   1      -0.707  -0.421  -1.290  0.00  0.00     0.037 A 
ATOM     16  C   UNL d   1       0.264  -1.100  -0.542  0.00  0.00     0.102 A 
ATOM     17  C   UNL d   1       0.328  -2.500  -0.564  0.00  0.00     0.037 A 
ATOM     18  C   UNL d   1      -0.590  -3.222  -1.335  0.00  0.00     0.020 A 
BRANCH  16  19
ATOM     19  N   UNL d   1       1.214  -0.334   0.276  0.00  0.00    -0.116 N 
ATOM     20  O   UNL d   1       2.047  -0.970   0.937  0.00  0.00    -0.532 OA
ATOM     21  O   UNL d   1       1.125   0.902   0.256  0.00  0.00    -0.532 OA
ENDBRANCH  16  19
ENDBRANCH   1  13
TORSDOF 4
