REMARK  3 active torsions:
REMARK  status: ('A' for Active; 'I' for Inactive)
REMARK    1  A    between atoms: N_2  and  C_1 
REMARK    2  A    between atoms: C_6  and  C_4 
REMARK    3  A    between atoms: C_5  and  N_10 
REMARK       I    between atoms: N_10  and  C_6 
ROOT
ATOM      1  C   UNL d   1      -0.835  -2.479  -0.025  0.00  0.00     0.281 C 
ATOM      2  N   UNL d   1      -2.218  -2.474   0.001  0.00  0.00    -0.306 N 
ATOM      3  O   UNL d   1      -0.125  -3.478  -0.037  0.00  0.00    -0.265 OA
ATOM      4  H   UNL d   1      -2.699  -1.588  -0.022  0.00  0.00     0.170 HD
ENDROOT
BRANCH   1   5
ATOM      5  C   UNL d   1      -0.231  -1.156  -0.024  0.00  0.00     0.146 A 
ATOM      6  O   UNL d   1      -1.002  -0.019  -0.035  0.00  0.00    -0.283 OA
ATOM      7  C   UNL d   1      -0.124   1.028  -0.013  0.00  0.00     0.215 A 
ATOM      8  C   UNL d   1       1.181   0.602   0.013  0.00  0.00     0.066 A 
ATOM      9  C   UNL d   1       1.112  -0.810   0.006  0.00  0.00     0.047 A 
BRANCH   7  10
ATOM     10  N   UNL d   1      -0.685   2.341  -0.017  0.00  0.00    -0.090 N 
ATOM     11  O   UNL d   1       0.120   3.282  -0.029  0.00  0.00    -0.530 OA
ATOM     12  O   UNL d   1      -1.919   2.439  -0.005  0.00  0.00    -0.530 OA
ENDBRANCH   7  10
ENDBRANCH   1   5
BRANCH   2  13
ATOM     13  C   UNL d   1      -2.977  -3.623   0.155  0.00  0.00     0.131 A 
ATOM     14  N   UNL d   1      -2.487  -4.860   0.268  0.00  0.00    -0.245 N 
ATOM     15  O   UNL d   1      -3.558  -5.695   0.486  0.00  0.00    -0.241 OA
ATOM     16  HN  UNL d   1      -1.506  -5.133   0.204  1.00  0.00     0.196 HD
ATOM     17  C   UNL d   1      -4.701  -4.966   0.498  0.00  0.00     0.076 A 
ATOM     18  C   UNL d   1      -4.393  -3.648   0.256  0.00  0.00     0.084 A 
ATOM     19  C   UNL d   1      -5.936  -5.719   0.781  0.00  0.00     0.079 C 
ENDBRANCH   2  13
TORSDOF 3
