REMARK  2 active torsions:
REMARK  status: ('A' for Active; 'I' for Inactive)
REMARK    1  A    between atoms: N_2  and  S_1 
REMARK    2  A    between atoms: C_10  and  S_1 
ROOT
ATOM      1  N   UNL d   1       0.732  -0.719  -1.387  0.00  0.00    -0.189 NA
ATOM      2  N   UNL d   1      -0.722  -3.056  -0.850  0.00  0.00    -0.296 N 
ATOM      3  C   UNL d   1       1.355  -2.041  -1.658  0.00  0.00     0.211 C 
ATOM      4  C   UNL d   1      -0.720  -0.754  -1.743  0.00  0.00     0.211 C 
ATOM      5  C   UNL d   1       0.636  -3.200  -1.000  0.00  0.00     0.238 C 
ATOM      6  C   UNL d   1      -1.471  -1.952  -1.177  0.00  0.00     0.238 C 
ATOM      7  O   UNL d   1      -2.698  -1.983  -1.096  0.00  0.00    -0.272 OA
ATOM      8  O   UNL d   1       1.206  -4.245  -0.697  0.00  0.00    -0.272 OA
ATOM      9  H   UNL d   1      -1.219  -3.842  -0.455  0.00  0.00     0.171 HD
ENDROOT
BRANCH   1  10
ATOM     10  S   UNL d   1       1.001  -0.083   0.180  0.00  0.00     0.244 S 
ATOM     11  O   UNL d   1       0.506  -1.072   1.115  0.00  0.00    -0.206 OA
ATOM     12  O   UNL d   1       0.505   1.276   0.192  0.00  0.00    -0.206 OA
BRANCH  10  13
ATOM     13  C   UNL d   1       2.767  -0.012   0.316  0.00  0.00     0.074 A 
ATOM     14  C   UNL d   1       3.502   0.716  -0.626  0.00  0.00     0.025 A 
ATOM     15  C   UNL d   1       4.896   0.719  -0.551  0.00  0.00     0.002 A 
ATOM     16  C   UNL d   1       5.545   0.008   0.461  0.00  0.00     0.000 A 
ATOM     17  C   UNL d   1       4.805  -0.701   1.409  0.00  0.00     0.002 A 
ATOM     18  C   UNL d   1       3.412  -0.713   1.341  0.00  0.00     0.025 A 
ENDBRANCH  10  13
ENDBRANCH   1  10
TORSDOF 2
