REMARK  4 active torsions:
REMARK  status: ('A' for Active; 'I' for Inactive)
REMARK    1  A    between atoms: C_4  and  C_1 
REMARK       I    between atoms: N_9  and  C_4 
REMARK    2  A    between atoms: C_17  and  C_5 
REMARK       I    between atoms: C_8  and  N_10 
REMARK       I    between atoms: N_19  and  C_8 
REMARK    3  A    between atoms: N_10  and  N_9 
REMARK    4  A    between atoms: C_12  and  C_17 
ROOT
ATOM      1  C   UNL d   1       1.220   0.836   0.002  0.00  0.00     0.109 A 
ATOM      2  N   UNL d   1       1.430  -0.546  -0.047  0.00  0.00    -0.349 N 
ATOM      3  HN  UNL d   1       2.343  -0.996  -0.106  1.00  0.00     0.166 HD
ATOM      4  C   UNL d   1       0.273  -1.182  -0.007  0.00  0.00     0.055 A 
ATOM      5  C   UNL d   1      -0.112   1.207   0.069  0.00  0.00     0.086 A 
ATOM      6  S   UNL d   1      -1.121  -0.173   0.058  0.00  0.00    -0.086 SA
ENDROOT
BRANCH   1   7
ATOM      7  C   UNL d   1       2.322   1.805  -0.003  0.00  0.00     0.287 C 
ATOM      8  N   UNL d   1       3.579   1.230  -0.060  0.00  0.00    -0.261 N 
ATOM      9  H   UNL d   1       3.705   0.221  -0.139  0.00  0.00     0.190 HD
ATOM     10  O   UNL d   1       2.158   3.026   0.040  0.00  0.00    -0.264 OA
BRANCH   8  11
ATOM     11  N   UNL d   1       4.716   2.058  -0.033  0.00  0.00    -0.249 N 
ATOM     12  C   UNL d   1       5.863   1.611  -0.662  0.00  0.00     0.334 C 
ATOM     13  O   UNL d   1       5.977   0.499  -1.167  0.00  0.00    -0.246 OA
ATOM     14  N   UNL d   1       6.858   2.558  -0.620  0.00  0.00    -0.346 N 
ATOM     15  C   UNL d   1       8.181   2.325  -1.150  0.00  0.00     0.151 C 
ATOM     16  H   UNL d   1       6.758   3.287   0.072  0.00  0.00     0.163 HD
ATOM     17  H   UNL d   1       4.505   3.050  -0.117  0.00  0.00     0.192 HD
ENDBRANCH   8  11
ENDBRANCH   1   7
BRANCH   4  18
ATOM     18  C   UNL d   1       0.108  -2.678  -0.023  0.00  0.00     0.103 C 
BRANCH  18  19
ATOM     19  C   UNL d   1       0.066  -3.260   1.365  0.00  0.00    -0.045 A 
ATOM     20  C   UNL d   1      -1.084  -3.461   2.109  0.00  0.00     0.057 A 
ATOM     21  S   UNL d   1      -0.768  -4.122   3.654  0.00  0.00    -0.113 SA
ATOM     22  C   UNL d   1       0.912  -4.162   3.353  0.00  0.00     0.050 A 
ATOM     23  C   UNL d   1       1.223  -3.682   2.100  0.00  0.00     0.015 A 
ENDBRANCH  18  19
ENDBRANCH   4  18
TORSDOF 4
