REMARK  2 active torsions:
REMARK  status: ('A' for Active; 'I' for Inactive)
REMARK    1  A    between atoms: C_10  and  C_1 
REMARK    2  A    between atoms: C_13  and  C_11 
ROOT
ATOM      1  C   UNL d   1       0.927  -1.376   0.022  0.00  0.00     0.144 A 
ATOM      2  N   UNL d   1      -0.246  -0.631   0.025  0.00  0.00    -0.235 N 
ATOM      3  C   UNL d   1      -0.191   0.770   0.047  0.00  0.00     0.129 A 
ATOM      4  N   UNL d   1       0.989   1.461   0.051  0.00  0.00    -0.340 N 
ATOM      5  HN  UNL d   1       1.010   2.480   0.077  1.00  0.00     0.167 HD
ATOM      6  C   UNL d   1       2.115  -0.741   0.027  0.00  0.00     0.067 A 
ATOM      7  N   UNL d   1      -1.530  -1.061   0.014  0.00  0.00    -0.297 N 
ATOM      8  HN  UNL d   1      -1.857  -2.028  -0.001  1.00  0.00     0.187 HD
ATOM      9  C   UNL d   1      -1.494   1.208   0.051  0.00  0.00     0.076 A 
ATOM     10  C   UNL d   1       2.083   0.755   0.018  0.00  0.00     0.046 A 
ATOM     11  C   UNL d   1      -2.280   0.043   0.026  0.00  0.00     0.026 A 
ATOM     12  C   UNL d   1      -3.760  -0.057   0.009  0.00  0.00     0.070 C 
ENDROOT
BRANCH  10  13
ATOM     13  C   UNL d   1       3.403   1.451  -0.011  0.00  0.00    -0.009 A 
ATOM     14  C   UNL d   1       3.539   2.675   0.658  0.00  0.00     0.015 A 
ATOM     15  C   UNL d   1       4.763   3.353   0.646  0.00  0.00     0.024 A 
ATOM     16  C   UNL d   1       5.847   2.813  -0.043  0.00  0.00     0.034 A 
ATOM     17  C   UNL d   1       5.717   1.605  -0.727  0.00  0.00     0.024 A 
ATOM     18 CL   UNL d   1       7.352   3.644  -0.060  0.00  0.00    -0.084 Cl
ATOM     19  C   UNL d   1       4.495   0.926  -0.717  0.00  0.00     0.015 A 
ENDBRANCH  10  13
BRANCH   1  20
ATOM     20  C   UNL d   1       0.850  -2.856   0.022  0.00  0.00     0.434 C 
ATOM     21  F   UNL d   1      -0.381  -3.413   0.002  0.00  0.00    -0.165 F 
ATOM     22  F   UNL d   1       1.516  -3.364  -1.054  0.00  0.00    -0.165 F 
ATOM     23  F   UNL d   1       1.485  -3.366   1.115  0.00  0.00    -0.165 F 
ENDBRANCH   1  20
TORSDOF 2
