REMARK  6 active torsions:
REMARK  status: ('A' for Active; 'I' for Inactive)
REMARK    1  A    between atoms: C_5  and  C_1 
REMARK    2  A    between atoms: C_2  and  N_4 
REMARK    3  A    between atoms: N_6  and  C_2 
REMARK    4  A    between atoms: N_4  and  C_3 
REMARK    5  A    between atoms: O_9  and  C_5 
REMARK    6  A    between atoms: C_10  and  N_6 
ROOT
ATOM      1  N   UNL d   1       1.608  -2.718  -0.806  0.00  0.00    -0.332 N 
ATOM      2  H   UNL d   1       1.268  -3.109  -1.679  0.00  0.00     0.168 HD
ENDROOT
BRANCH   1   3
ATOM      3  C   UNL d   1       2.740  -1.972  -0.974  0.00  0.00     0.176 C 
ATOM      4  S   UNL d   1       2.878  -0.338  -0.608  0.00  0.00    -0.041 SA
BRANCH   3   5
ATOM      5  N   UNL d   1       3.811  -2.550  -1.589  0.00  0.00    -0.333 N 
ATOM      6  H   UNL d   1       4.519  -1.862  -1.820  0.00  0.00     0.168 HD
BRANCH   5   7
ATOM      7  C   UNL d   1       4.233  -3.893  -1.708  0.00  0.00     0.034 A 
ATOM      8  C   UNL d   1       3.535  -5.004  -1.238  0.00  0.00     0.029 A 
ATOM      9  C   UNL d   1       4.101  -6.284  -1.324  0.00  0.00     0.002 A 
ATOM     10  C   UNL d   1       5.370  -6.463  -1.870  0.00  0.00     0.000 A 
ATOM     11  C   UNL d   1       6.073  -5.364  -2.348  0.00  0.00     0.002 A 
ATOM     12  C   UNL d   1       5.504  -4.090  -2.272  0.00  0.00     0.029 A 
ENDBRANCH   5   7
ENDBRANCH   3   5
ENDBRANCH   1   3
BRANCH   1  13
ATOM     13  C   UNL d   1       0.664  -2.575   0.243  0.00  0.00     0.050 A 
ATOM     14  C   UNL d   1      -0.718  -2.711   0.023  0.00  0.00     0.066 A 
ATOM     15  C   UNL d   1      -1.609  -2.757   1.108  0.00  0.00     0.020 A 
ATOM     16  C   UNL d   1      -1.133  -2.620   2.411  0.00  0.00     0.001 A 
ATOM     17  C   UNL d   1       0.228  -2.432   2.634  0.00  0.00     0.002 A 
ATOM     18  C   UNL d   1       1.122  -2.420   1.559  0.00  0.00     0.030 A 
BRANCH  14  19
ATOM     19  C   UNL d   1      -1.327  -2.653  -1.322  0.00  0.00     0.295 C 
ATOM     20  O   UNL d   1      -2.273  -3.335  -1.683  0.00  0.00    -0.259 OA
BRANCH  19  21
ATOM     21  O   UNL d   1      -0.760  -1.624  -1.994  0.00  0.00    -0.322 OA
ATOM     22  C   UNL d   1      -1.436  -1.206  -3.179  0.00  0.00     0.213 C 
ENDBRANCH  19  21
ENDBRANCH  14  19
ENDBRANCH   1  13
TORSDOF 6
