REMARK  5 active torsions:
REMARK  status: ('A' for Active; 'I' for Inactive)
REMARK    1  A    between atoms: C_7  and  C_1 
REMARK    2  A    between atoms: N_5  and  C_7 
REMARK    3  A    between atoms: C_6  and  C_9 
REMARK    4  A    between atoms: O_15  and  C_6 
REMARK    5  A    between atoms: C_18  and  O_15 
ROOT
ATOM      1  N   UNL d   1      -0.755  -3.470  -0.023  0.00  0.00     0.092 N 
ATOM      2  C   UNL d   1       2.041  -4.329   0.217  0.00  0.00     0.089 C 
ATOM      3  C   UNL d   1       1.253  -4.466  -1.089  0.00  0.00     0.045 C 
ATOM      4  C   UNL d   1       1.049  -4.415   1.386  0.00  0.00     0.045 C 
ATOM      5  C   UNL d   1       0.137  -3.425  -1.183  0.00  0.00     0.273 C 
ATOM      6  C   UNL d   1      -0.058  -3.361   1.259  0.00  0.00     0.273 C 
ENDROOT
BRANCH   1   7
ATOM      7  C   UNL d   1      -1.901  -2.550  -0.139  0.00  0.00     0.313 C 
BRANCH   7   8
ATOM      8  C   UNL d   1      -1.529  -1.097  -0.263  0.00  0.00    -0.002 A 
ATOM      9  C   UNL d   1      -1.371  -0.193   0.772  0.00  0.00     0.098 A 
ATOM     10  N   UNL d   1      -1.056   1.028   0.240  0.00  0.00    -0.365 N 
ATOM     11  C   UNL d   1      -1.023   0.960  -1.131  0.00  0.00     0.043 A 
ATOM     12  H   UNL d   1      -0.885   1.870   0.775  0.00  0.00     0.165 HD
ATOM     13  C   UNL d   1      -1.323  -0.357  -1.480  0.00  0.00    -0.000 A 
ATOM     14  C   UNL d   1      -0.754   1.956  -2.079  0.00  0.00     0.030 A 
ATOM     15  C   UNL d   1      -1.357  -0.691  -2.851  0.00  0.00     0.014 A 
ATOM     16  C   UNL d   1      -1.077   0.288  -3.812  0.00  0.00     0.001 A 
ATOM     17  C   UNL d   1      -0.782   1.592  -3.428  0.00  0.00     0.002 A 
ENDBRANCH   7   8
ENDBRANCH   1   7
BRANCH   2  18
ATOM     18  C   UNL d   1       2.856  -3.044   0.322  0.00  0.00     0.263 C 
ATOM     19  O   UNL d   1       3.150  -2.510   1.384  0.00  0.00    -0.265 OA
BRANCH  18  20
ATOM     20  O   UNL d   1       3.240  -2.586  -0.900  0.00  0.00    -0.322 OA
BRANCH  20  21
ATOM     21  C   UNL d   1       3.886  -1.304  -0.911  0.00  0.00     0.174 C 
ATOM     22  C   UNL d   1       2.840  -0.207  -0.988  0.00  0.00     0.034 C 
ENDBRANCH  20  21
ENDBRANCH  18  20
ENDBRANCH   2  18
TORSDOF 5
