REMARK  5 active torsions:
REMARK  status: ('A' for Active; 'I' for Inactive)
REMARK    1  A    between atoms: C_4  and  S_1 
REMARK    2  A    between atoms: C_19  and  S_1 
REMARK    3  A    between atoms: N_18  and  C_5 
REMARK    4  A    between atoms: C_7  and  C_6 
REMARK    5  A    between atoms: C_22  and  C_19 
ROOT
ATOM      1  N   UNL d   1       0.794  -4.115   0.078  0.00  0.00    -0.333 N 
ATOM      2  HN  UNL d   1       1.314  -4.904  -0.307  1.00  0.00     0.168 HD
ATOM      3  C   UNL d   1       0.508  -1.774   0.359  0.00  0.00     0.112 A 
ATOM      4  C   UNL d   1       1.172  -2.850  -0.178  0.00  0.00     0.102 A 
ATOM      5  C   UNL d   1      -0.288  -4.314   0.856  0.00  0.00     0.114 A 
ATOM      6  N   UNL d   1      -1.000  -3.308   1.410  0.00  0.00    -0.352 N 
ATOM      7  HN  UNL d   1      -1.805  -3.489   2.010  1.00  0.00     0.166 HD
ATOM      8  C   UNL d   1      -0.595  -2.053   1.130  0.00  0.00     0.116 A 
ENDROOT
BRANCH   5   9
ATOM      9  C   UNL d   1      -0.736  -5.735   1.162  0.00  0.00     0.220 C 
ATOM     10  O   UNL d   1      -1.038  -6.486  -0.026  0.00  0.00    -0.333 OA
ATOM     11  C   UNL d   1      -0.070  -7.381  -0.390  0.00  0.00     0.103 A 
ATOM     12  C   UNL d   1      -0.309  -8.107  -1.558  0.00  0.00     0.040 A 
ATOM     13  C   UNL d   1       1.103  -7.600   0.332  0.00  0.00     0.102 A 
ATOM     14  C   UNL d   1       0.623  -9.046  -2.005  0.00  0.00     0.003 A 
ATOM     15  C   UNL d   1       1.800  -9.254  -1.287  0.00  0.00     0.003 A 
ATOM     16  C   UNL d   1       2.045  -8.524  -0.123  0.00  0.00     0.039 A 
ATOM     17  O   UNL d   1       1.400  -6.939   1.493  0.00  0.00    -0.345 OA
ATOM     18  C   UNL d   1       0.209  -6.457   2.120  0.00  0.00     0.216 C 
ENDBRANCH   5   9
BRANCH   4  19
ATOM     19  N   UNL d   1       2.319  -2.748  -0.954  0.00  0.00    -0.287 NA
ATOM     20  H   UNL d   1       2.550  -3.684  -1.288  0.00  0.00     0.125 HD
ATOM     21  H   UNL d   1       2.204  -2.088  -1.726  0.00  0.00     0.125 HD
ENDBRANCH   4  19
BRANCH   3  22
ATOM     22  S   UNL d   1       0.944  -0.111   0.045  0.00  0.00     0.180 S 
ATOM     23  O   UNL d   1      -0.250   0.685   0.276  0.00  0.00    -0.222 OA
ATOM     24  O   UNL d   1       1.609  -0.053  -1.248  0.00  0.00    -0.222 OA
BRANCH  22  25
ATOM     25  C   UNL d   1       2.118   0.288   1.331  0.00  0.00     0.145 C 
BRANCH  25  26
ATOM     26  C   UNL d   1       2.597   1.735   1.226  0.00  0.00     0.011 C 
ATOM     27  C   UNL d   1       3.549   2.097   2.356  0.00  0.00     0.006 C 
ENDBRANCH  25  26
ENDBRANCH  22  25
ENDBRANCH   3  22
TORSDOF 5
