REMARK  2 active torsions:
REMARK  status: ('A' for Active; 'I' for Inactive)
REMARK       I    between atoms: N_4  and  C_1 
REMARK       I    between atoms: N_7  and  C_1 
REMARK    1  A    between atoms: N_2  and  N_6 
REMARK    2  A    between atoms: C_9  and  C_8 
ROOT
ATOM      1  N   UNL d   1      -1.187  -1.167   3.013  0.00  0.00    -0.309 N 
ATOM      2  HN  UNL d   1      -1.644  -1.041   3.916  1.00  0.00     0.186 HD
ATOM      3  C   UNL d   1      -1.858  -1.351   1.922  0.00  0.00     0.118 C 
ENDROOT
BRANCH   1   4
ATOM      4  N   UNL d   1       0.170  -1.151   2.878  0.00  0.00    -0.277 N 
ATOM      5  C   UNL d   1       1.000  -1.054   3.955  0.00  0.00     0.163 C 
ATOM      6  N   UNL d   1       0.604  -0.902   5.171  0.00  0.00    -0.375 N 
ATOM      7  N   UNL d   1       2.319  -1.117   3.674  0.00  0.00    -0.273 NA
ATOM      8  H   UNL d   1      -0.425  -0.891   5.087  0.00  0.00     0.158 HD
ATOM      9  HN  UNL d   1       1.170  -0.814   6.015  1.00  0.00     0.158 HD
ATOM     10  H   UNL d   1       2.833  -0.920   4.530  0.00  0.00     0.127 HD
ATOM     11  H   UNL d   1       2.601  -0.466   2.953  0.00  0.00     0.127 HD
ATOM     12  H   UNL d   1       0.598  -1.579   2.063  0.00  0.00     0.189 HD
ENDBRANCH   1   4
BRANCH   3  13
ATOM     13  C   UNL d   1      -3.333  -1.392   1.935  0.00  0.00    -0.019 A 
ATOM     14  C   UNL d   1      -4.034  -1.303   3.144  0.00  0.00     0.014 A 
ATOM     15  C   UNL d   1      -5.429  -1.331   3.144  0.00  0.00     0.024 A 
ATOM     16  C   UNL d   1      -6.118  -1.449   1.938  0.00  0.00     0.034 A 
ATOM     17  C   UNL d   1      -5.424  -1.542   0.731  0.00  0.00     0.024 A 
ATOM     18 CL   UNL d   1      -7.838  -1.476   1.938  0.00  0.00    -0.084 Cl
ATOM     19  C   UNL d   1      -4.025  -1.516   0.726  0.00  0.00     0.014 A 
ENDBRANCH   3  13
TORSDOF 2
