REMARK  9 active torsions:
REMARK  status: ('A' for Active; 'I' for Inactive)
REMARK    1  A    between atoms: N_2  and  S_1 
REMARK    2  A    between atoms: C_4  and  S_1 
REMARK    3  A    between atoms: N_15  and  C_5 
REMARK    4  A    between atoms: S_19  and  C_5 
REMARK    5  A    between atoms: C_6  and  C_8 
REMARK    6  A    between atoms: C_7  and  C_9 
REMARK    7  A    between atoms: C_12  and  N_15 
REMARK    8  A    between atoms: O_29  and  C_16 
REMARK    9  A    between atoms: O_30  and  C_27 
ROOT
ATOM      1  N   UNL d   1       0.449  -0.100   1.604  0.00  0.00    -0.260 N 
ATOM      2  HN  UNL d   1      -0.105   0.628   2.055  1.00  0.00     0.181 HD
ATOM      3  C   UNL d   1       1.028  -0.997   2.322  0.00  0.00     0.154 C 
ENDROOT
BRANCH   3   4
ATOM      4  N   UNL d   1       1.722  -2.120   1.933  0.00  0.00    -0.336 N 
ATOM      5  H   UNL d   1       1.660  -2.336   0.936  0.00  0.00     0.168 HD
BRANCH   4   6
ATOM      6  C   UNL d   1       2.912  -2.643   2.483  0.00  0.00     0.035 A 
ATOM      7  C   UNL d   1       3.145  -4.022   2.365  0.00  0.00     0.045 A 
ATOM      8  C   UNL d   1       4.316  -4.618   2.864  0.00  0.00     0.050 A 
ATOM      9  C   UNL d   1       5.278  -3.805   3.478  0.00  0.00     0.032 A 
ATOM     10  C   UNL d   1       5.085  -2.418   3.584  0.00  0.00     0.050 A 
ATOM     11  C   UNL d   1       3.891  -1.853   3.098  0.00  0.00     0.045 A 
BRANCH   8  12
ATOM     12  C   UNL d   1       4.520  -6.107   2.724  0.00  0.00     0.417 C 
ATOM     13  F   UNL d   1       5.718  -6.540   3.205  0.00  0.00    -0.166 F 
ATOM     14  F   UNL d   1       3.571  -6.828   3.380  0.00  0.00    -0.166 F 
ATOM     15  F   UNL d   1       4.470  -6.515   1.426  0.00  0.00    -0.166 F 
ENDBRANCH   8  12
BRANCH  10  16
ATOM     16  C   UNL d   1       6.145  -1.536   4.204  0.00  0.00     0.417 C 
ATOM     17  F   UNL d   1       7.333  -2.176   4.393  0.00  0.00    -0.166 F 
ATOM     18  F   UNL d   1       6.430  -0.447   3.439  0.00  0.00    -0.166 F 
ATOM     19  F   UNL d   1       5.780  -1.058   5.424  0.00  0.00    -0.166 F 
ENDBRANCH  10  16
ENDBRANCH   4   6
ENDBRANCH   3   4
BRANCH   3  20
ATOM     20  S   UNL d   1       0.783  -0.804   4.076  0.00  0.00    -0.098 SA
ATOM     21  C   UNL d   1      -0.907  -0.161   4.098  0.00  0.00     0.099 C 
ENDBRANCH   3  20
BRANCH   1  22
ATOM     22  S   UNL d   1       0.589  -0.114  -0.003  0.00  0.00     0.267 S 
ATOM     23  O   UNL d   1       0.481  -1.490  -0.454  0.00  0.00    -0.200 OA
ATOM     24  O   UNL d   1       1.751   0.657  -0.388  0.00  0.00    -0.200 OA
BRANCH  22  25
ATOM     25  C   UNL d   1      -0.874   0.744  -0.549  0.00  0.00     0.115 A 
ATOM     26  C   UNL d   1      -1.928  -0.029  -1.068  0.00  0.00     0.065 A 
ATOM     27  C   UNL d   1      -3.077   0.589  -1.567  0.00  0.00     0.069 A 
ATOM     28  C   UNL d   1      -3.179   1.980  -1.514  0.00  0.00     0.039 A 
ATOM     29  C   UNL d   1      -2.132   2.750  -1.000  0.00  0.00     0.041 A 
ATOM     30  C   UNL d   1      -0.974   2.135  -0.513  0.00  0.00     0.091 A 
BRANCH  27  31
ATOM     31  O   UNL d   1      -4.149  -0.047  -2.128  0.00  0.00    -0.356 OA
ATOM     32  C   UNL d   1      -3.993  -1.430  -2.426  0.00  0.00     0.210 C 
ENDBRANCH  27  31
BRANCH  30  33
ATOM     33  O   UNL d   1       0.042   2.978  -0.159  0.00  0.00    -0.354 OA
ATOM     34  C   UNL d   1       0.191   3.126   1.251  0.00  0.00     0.210 C 
ENDBRANCH  30  33
ENDBRANCH  22  25
ENDBRANCH   1  22
TORSDOF 9
