REMARK  3 active torsions:
REMARK  status: ('A' for Active; 'I' for Inactive)
REMARK    1  A    between atoms: N_3  and  C_1 
REMARK    2  A    between atoms: C_7  and  N_3 
REMARK    3  A    between atoms: C_8  and  C_7 
ROOT
ATOM      1  C   UNL d   1      -1.214   0.735  -0.938  0.00  0.00     0.160 C 
ENDROOT
BRANCH   1   2
ATOM      2  N   UNL d   1      -2.292   0.570   0.020  0.00  0.00    -0.363 N 
ATOM      3  H   UNL d   1      -3.106   1.155  -0.105  0.00  0.00     0.162 HD
BRANCH   2   4
ATOM      4  C   UNL d   1      -2.230  -0.189   1.151  0.00  0.00     0.165 C 
ATOM      5  S   UNL d   1      -0.955  -1.119   1.671  0.00  0.00    -0.041 SA
ATOM      6  N   UNL d   1      -3.362  -0.130   1.896  0.00  0.00    -0.376 N 
ATOM      7  H   UNL d   1      -3.419  -0.715   2.723  0.00  0.00     0.158 HD
ATOM      8  H   UNL d   1      -4.217   0.289   1.564  0.00  0.00     0.158 HD
ENDBRANCH   2   4
ENDBRANCH   1   2
BRANCH   1   9
ATOM      9  C   UNL d   1      -1.616   1.647  -2.063  0.00  0.00    -0.038 A 
ATOM     10  C   UNL d   1      -1.412   3.027  -1.970  0.00  0.00     0.025 A 
ATOM     11  C   UNL d   1      -1.803   3.829  -3.031  0.00  0.00     0.088 A 
ATOM     12  N   UNL d   1      -2.384   3.357  -4.154  0.00  0.00    -0.375 N 
ATOM     13  C   UNL d   1      -2.584   2.024  -4.220  0.00  0.00     0.088 A 
ATOM     14  HN  UNL d   1      -2.659   3.977  -4.916  1.00  0.00     0.164 HD
ATOM     15  C   UNL d   1      -2.228   1.140  -3.213  0.00  0.00     0.025 A 
ENDBRANCH   1   9
TORSDOF 3
