REMARK  7 active torsions:
REMARK  status: ('A' for Active; 'I' for Inactive)
REMARK    1  A    between atoms: S_10  and  C_2 
REMARK    2  A    between atoms: C_13  and  C_3 
REMARK    3  A    between atoms: C_8  and  C_11 
REMARK       I    between atoms: C_9  and  N_12 
REMARK    4  A    between atoms: O_16  and  C_9 
REMARK    5  A    between atoms: C_11  and  S_10 
REMARK    6  A    between atoms: N_12  and  C_13 
REMARK    7  A    between atoms: C_18  and  O_16 
ROOT
ATOM      1  N   UNL d   1       0.896   0.249  -0.006  0.00  0.00    -0.318 N 
ATOM      2  C   UNL d   1       0.036   1.306   0.106  0.00  0.00     0.162 C 
ATOM      3  C   UNL d   1       0.095  -0.857  -0.221  0.00  0.00     0.117 C 
ATOM      4  N   UNL d   1      -1.185   0.908  -0.168  0.00  0.00    -0.278 N 
ATOM      5  HN  UNL d   1      -2.013   1.501  -0.214  1.00  0.00     0.189 HD
ATOM      6  N   UNL d   1      -1.149  -0.447  -0.382  0.00  0.00    -0.285 N 
ATOM      7  HN  UNL d   1      -1.946  -1.036  -0.623  1.00  0.00     0.188 HD
ATOM      8  C   UNL d   1       2.332   0.234   0.105  0.00  0.00     0.160 C 
ENDROOT
BRANCH   2   9
ATOM      9  S   UNL d   1       0.472   2.905   0.634  0.00  0.00    -0.088 SA
BRANCH   9  10
ATOM     10  C   UNL d   1      -1.154   3.467   1.234  0.00  0.00     0.126 C 
BRANCH  10  11
ATOM     11  C   UNL d   1      -1.145   4.817   1.909  0.00  0.00     0.012 A 
ATOM     12  C   UNL d   1      -1.518   6.007   1.267  0.00  0.00     0.044 A 
ATOM     13 CL   UNL d   1      -1.902   6.059  -0.416  0.00  0.00    -0.084 Cl
ATOM     14  C   UNL d   1      -1.615   7.211   1.981  0.00  0.00     0.024 A 
ATOM     15  C   UNL d   1      -1.321   7.253   3.344  0.00  0.00     0.005 A 
ATOM     16  C   UNL d   1      -0.911   6.091   3.987  0.00  0.00     0.043 A 
ATOM     17  C   UNL d   1      -0.825   4.896   3.273  0.00  0.00     0.125 A 
ATOM     18  F   UNL d   1      -0.456   3.789   3.933  0.00  0.00    -0.205 F 
ENDBRANCH  10  11
ENDBRANCH   9  10
ENDBRANCH   2   9
BRANCH   3  19
ATOM     19  C   UNL d   1       0.538  -2.276  -0.129  0.00  0.00     0.203 C 
BRANCH  19  20
ATOM     20  N   UNL d   1       0.893  -2.806  -1.423  0.00  0.00    -0.330 N 
ATOM     21  C   UNL d   1       2.169  -3.132  -1.753  0.00  0.00     0.361 C 
ATOM     22  O   UNL d   1       3.146  -2.881  -1.057  0.00  0.00    -0.238 OA
ATOM     23  H   UNL d   1       0.159  -3.099  -2.054  0.00  0.00     0.165 HD
BRANCH  21  24
ATOM     24  O   UNL d   1       2.187  -3.780  -2.941  0.00  0.00    -0.294 OA
BRANCH  24  25
ATOM     25  C   UNL d   1       3.443  -4.253  -3.509  0.00  0.00     0.061 C 
ATOM     26  C   UNL d   1       4.179  -5.206  -2.557  0.00  0.00     0.046 C 
ATOM     27  C   UNL d   1       3.052  -5.016  -4.788  0.00  0.00     0.046 C 
ATOM     28  C   UNL d   1       4.326  -3.063  -3.904  0.00  0.00     0.046 C 
ENDBRANCH  24  25
ENDBRANCH  21  24
ENDBRANCH  19  20
ENDBRANCH   3  19
TORSDOF 7
