REMARK  5 active torsions:
REMARK  status: ('A' for Active; 'I' for Inactive)
REMARK    1  A    between atoms: C_7  and  C_1 
REMARK    2  A    between atoms: C_9  and  N_4 
REMARK    3  A    between atoms: S_11  and  C_5 
REMARK    4  A    between atoms: S_8  and  C_7 
REMARK    5  A    between atoms: C_12  and  S_8 
ROOT
ATOM      1  C   UNL d   1      -0.076   1.053   0.310  0.00  0.00     0.073 A 
ATOM      2  N   UNL d   1       0.965  -0.946   0.697  0.00  0.00    -0.287 N 
ATOM      3  HN  UNL d   1       1.668  -1.639   0.952  1.00  0.00     0.188 HD
ATOM      4  N   UNL d   1      -0.263  -1.173   0.184  0.00  0.00    -0.266 N 
ATOM      5  C   UNL d   1       1.060   0.376   0.800  0.00  0.00     0.101 A 
ATOM      6  C   UNL d   1      -0.915   0.016  -0.080  0.00  0.00     0.135 A 
ENDROOT
BRANCH   1   7
ATOM      7  C   UNL d   1      -0.318   2.488   0.266  0.00  0.00     0.228 C 
ATOM      8  O   UNL d   1       0.196   3.274   1.053  0.00  0.00    -0.279 OA
BRANCH   7   9
ATOM      9  S   UNL d   1      -1.482   2.991  -0.945  0.00  0.00    -0.048 SA
BRANCH   9  10
ATOM     10  C   UNL d   1      -0.891   4.519  -1.652  0.00  0.00     0.008 A 
ATOM     11  C   UNL d   1      -1.408   4.847  -2.917  0.00  0.00     0.021 A 
ATOM     12  C   UNL d   1      -1.123   6.076  -3.522  0.00  0.00     0.025 A 
ATOM     13  C   UNL d   1      -0.309   6.992  -2.867  0.00  0.00     0.034 A 
ATOM     14  C   UNL d   1       0.245   6.674  -1.631  0.00  0.00     0.025 A 
ATOM     15 CL   UNL d   1      -0.012   8.532  -3.573  0.00  0.00    -0.084 Cl
ATOM     16  C   UNL d   1      -0.047   5.443  -1.026  0.00  0.00     0.021 A 
ENDBRANCH   9  10
ENDBRANCH   7   9
ENDBRANCH   1   7
BRANCH   5  17
ATOM     17  S   UNL d   1       2.527   1.063   1.449  0.00  0.00    -0.114 SA
ATOM     18  C   UNL d   1       1.930   1.622   3.062  0.00  0.00     0.097 C 
ENDBRANCH   5  17
BRANCH   4  19
ATOM     19  C   UNL d   1      -0.729  -2.505  -0.004  0.00  0.00     0.056 A 
ATOM     20  C   UNL d   1      -2.034  -2.779  -0.436  0.00  0.00     0.031 A 
ATOM     21  C   UNL d   1      -2.449  -4.106  -0.594  0.00  0.00     0.002 A 
ATOM     22  C   UNL d   1      -1.573  -5.159  -0.330  0.00  0.00     0.000 A 
ATOM     23  C   UNL d   1      -0.276  -4.892   0.098  0.00  0.00     0.002 A 
ATOM     24  C   UNL d   1       0.145  -3.571   0.265  0.00  0.00     0.031 A 
ENDBRANCH   4  19
TORSDOF 5
