REMARK  5 active torsions:
REMARK  status: ('A' for Active; 'I' for Inactive)
REMARK    1  A    between atoms: C_6  and  C_1 
REMARK    2  A    between atoms: C_5  and  C_4 
REMARK       I    between atoms: N_14  and  C_6 
REMARK    3  A    between atoms: C_7  and  C_10 
REMARK    4  A    between atoms: N_17  and  N_14 
REMARK       I    between atoms: C_15  and  N_17 
REMARK    5  A    between atoms: C_25  and  C_15 
ROOT
ATOM      1  C   UNL d   1       1.248   0.827  -0.049  0.00  0.00     0.110 A 
ATOM      2  N   UNL d   1       1.468  -0.552  -0.082  0.00  0.00    -0.344 N 
ATOM      3  HN  UNL d   1       2.387  -0.990  -0.146  1.00  0.00     0.167 HD
ATOM      4  C   UNL d   1       0.324  -1.212  -0.018  0.00  0.00     0.103 A 
ATOM      5  S   UNL d   1      -1.078  -0.202   0.043  0.00  0.00    -0.079 SA
ATOM      6  C   UNL d   1      -0.084   1.187   0.019  0.00  0.00     0.087 A 
ENDROOT
BRANCH   4   7
ATOM      7  C   UNL d   1       0.172  -2.680   0.034  0.00  0.00     0.088 A 
ATOM      8  N   UNL d   1      -0.928  -3.174  -0.609  0.00  0.00    -0.361 N 
ATOM      9  C   UNL d   1      -1.129  -4.513  -0.599  0.00  0.00     0.104 A 
ATOM     10  HN  UNL d   1      -1.581  -2.550  -1.084  1.00  0.00     0.165 HD
ATOM     11  C   UNL d   1      -0.282  -5.414   0.027  0.00  0.00     0.065 A 
ATOM     12  C   UNL d   1       0.840  -4.896   0.680  0.00  0.00     0.043 A 
ATOM     13  C   UNL d   1       1.078  -3.518   0.690  0.00  0.00     0.064 A 
ATOM     14 CL   UNL d   1       2.454  -2.957   1.568  0.00  0.00    -0.082 Cl
BRANCH  11  15
ATOM     15  C   UNL d   1      -0.594  -6.879  -0.007  0.00  0.00     0.418 C 
ATOM     16  F   UNL d   1       0.331  -7.643   0.638  0.00  0.00    -0.166 F 
ATOM     17  F   UNL d   1      -1.789  -7.168   0.577  0.00  0.00    -0.166 F 
ATOM     18  F   UNL d   1      -0.667  -7.367  -1.274  0.00  0.00    -0.166 F 
ENDBRANCH  11  15
ENDBRANCH   4   7
BRANCH   1  19
ATOM     19  C   UNL d   1       2.346   1.794  -0.065  0.00  0.00     0.287 C 
ATOM     20  N   UNL d   1       3.599   1.223  -0.145  0.00  0.00    -0.262 N 
ATOM     21  H   UNL d   1       3.727   0.214  -0.223  0.00  0.00     0.190 HD
ATOM     22  O   UNL d   1       2.176   3.011   0.005  0.00  0.00    -0.264 OA
BRANCH  20  23
ATOM     23  N   UNL d   1       4.729   2.049  -0.114  0.00  0.00    -0.267 N 
ATOM     24  C   UNL d   1       5.903   1.601  -0.689  0.00  0.00     0.239 C 
ATOM     25  O   UNL d   1       6.028   0.475  -1.162  0.00  0.00    -0.271 OA
ATOM     26  H   UNL d   1       4.550   3.042   0.032  0.00  0.00     0.190 HD
BRANCH  24  27
ATOM     27  C   UNL d   1       7.029   2.634  -0.641  0.00  0.00     0.071 C 
ATOM     28  C   UNL d   1       7.434   2.905   0.807  0.00  0.00     0.019 C 
ATOM     29  C   UNL d   1       8.244   2.177  -1.446  0.00  0.00     0.019 C 
ENDBRANCH  24  27
ENDBRANCH  20  23
ENDBRANCH   1  19
TORSDOF 5
