REMARK  7 active torsions:
REMARK  status: ('A' for Active; 'I' for Inactive)
REMARK    1  A    between atoms: C_5  and  C_1 
REMARK    2  A    between atoms: C_2  and  C_4 
REMARK       I    between atoms: C_3  and  N_7 
REMARK    3  A    between atoms: C_6  and  C_3 
REMARK    4  A    between atoms: N_10  and  C_6 
REMARK    5  A    between atoms: N_7  and  C_8 
REMARK    6  A    between atoms: C_26  and  N_10 
REMARK    7  A    between atoms: C_11  and  C_26 
ROOT
ATOM      1  C   UNL d   1       0.566  -0.971   3.100  0.00  0.00     0.050 A 
ATOM      2  C   UNL d   1      -0.275  -1.043   0.806  0.00  0.00     0.050 A 
ATOM      3  C   UNL d   1       0.731  -3.018   1.802  0.00  0.00     0.036 A 
ATOM      4  C   UNL d   1      -0.032  -0.339   1.998  0.00  0.00     0.032 A 
ATOM      5  C   UNL d   1       0.110  -2.391   0.720  0.00  0.00     0.045 A 
ATOM      6  C   UNL d   1       0.901  -2.330   3.004  0.00  0.00     0.045 A 
ENDROOT
BRANCH   3   7
ATOM      7  N   UNL d   1       1.233  -4.323   1.722  0.00  0.00    -0.321 N 
ATOM      8  C   UNL d   1       2.054  -4.852   0.750  0.00  0.00     0.283 C 
ATOM      9  O   UNL d   1       2.423  -6.026   0.803  0.00  0.00    -0.265 OA
ATOM     10  H   UNL d   1       1.298  -4.858   2.582  0.00  0.00     0.169 HD
BRANCH   8  11
ATOM     11  C   UNL d   1       2.582  -4.007  -0.407  0.00  0.00     0.165 C 
ATOM     12  S   UNL d   1       3.581  -2.717  -0.049  0.00  0.00    -0.055 SA
BRANCH  11  13
ATOM     13  N   UNL d   1       2.263  -4.491  -1.657  0.00  0.00    -0.370 N 
ATOM     14  H   UNL d   1       1.787  -5.389  -1.709  0.00  0.00     0.161 HD
BRANCH  13  15
ATOM     15  C   UNL d   1       2.656  -3.892  -2.919  0.00  0.00     0.185 C 
BRANCH  15  16
ATOM     16  C   UNL d   1       2.299  -4.800  -4.037  0.00  0.00     0.070 A 
ATOM     17  O   UNL d   1       1.088  -5.428  -3.968  0.00  0.00    -0.325 OA
ATOM     18  C   UNL d   1       0.972  -6.190  -5.083  0.00  0.00     0.142 A 
ATOM     19  C   UNL d   1       2.090  -6.063  -5.874  0.00  0.00     0.027 A 
ATOM     20  C   UNL d   1       2.949  -5.165  -5.198  0.00  0.00     0.036 A 
ENDBRANCH  15  16
ENDBRANCH  13  15
ENDBRANCH  11  13
ENDBRANCH   8  11
ENDBRANCH   3   7
BRANCH   2  21
ATOM     21  C   UNL d   1      -0.928  -0.370  -0.378  0.00  0.00     0.417 C 
ATOM     22  F   UNL d   1      -0.957   0.988  -0.279  0.00  0.00    -0.166 F 
ATOM     23  F   UNL d   1      -2.220  -0.761  -0.547  0.00  0.00    -0.166 F 
ATOM     24  F   UNL d   1      -0.295  -0.646  -1.552  0.00  0.00    -0.166 F 
ENDBRANCH   2  21
BRANCH   1  25
ATOM     25  C   UNL d   1       0.917  -0.208   4.356  0.00  0.00     0.417 C 
ATOM     26  F   UNL d   1       0.587   1.111   4.301  0.00  0.00    -0.166 F 
ATOM     27  F   UNL d   1       0.295  -0.709   5.458  0.00  0.00    -0.166 F 
ATOM     28  F   UNL d   1       2.251  -0.250   4.627  0.00  0.00    -0.166 F 
ENDBRANCH   1  25
TORSDOF 7
