REMARK  3 active torsions:
REMARK  status: ('A' for Active; 'I' for Inactive)
REMARK    1  A    between atoms: N_2  and  C_1 
REMARK    2  A    between atoms: N_4  and  N_2 
REMARK       I    between atoms: C_3  and  N_4 
REMARK    3  A    between atoms: C_8  and  C_3 
ROOT
ATOM      1  N   UNL d   1      -0.165   2.115  -0.347  0.00  0.00    -0.200 NA
ATOM      2  H   UNL d   1       0.701   2.673  -0.407  0.00  0.00     0.153 HD
ENDROOT
BRANCH   1   3
ATOM      3  C   UNL d   1       0.077   0.870   0.313  0.00  0.00     0.071 A 
ATOM      4  C   UNL d   1      -0.931   0.010   0.806  0.00  0.00     0.058 A 
ATOM      5 CL   UNL d   1      -2.624   0.400   0.777  0.00  0.00    -0.082 Cl
ATOM      6  C   UNL d   1      -0.618  -1.257   1.325  0.00  0.00     0.026 A 
ATOM      7  C   UNL d   1       0.696  -1.714   1.340  0.00  0.00     0.003 A 
ATOM      8  C   UNL d   1       1.707  -0.903   0.839  0.00  0.00     0.026 A 
ATOM      9  C   UNL d   1       1.400   0.366   0.328  0.00  0.00     0.058 A 
ATOM     10 CL   UNL d   1       2.717   1.313  -0.285  0.00  0.00    -0.082 Cl
ENDBRANCH   1   3
BRANCH   1  11
ATOM     11  N   UNL d   1      -1.205   2.885   0.193  0.00  0.00    -0.286 N 
ATOM     12  C   UNL d   1      -1.080   4.268   0.146  0.00  0.00     0.236 C 
ATOM     13  O   UNL d   1      -0.012   4.807  -0.150  0.00  0.00    -0.272 OA
ATOM     14  H   UNL d   1      -2.122   2.446   0.204  0.00  0.00     0.184 HD
BRANCH  12  15
ATOM     15  C   UNL d   1      -2.401   5.008   0.518  0.00  0.00     0.079 C 
ATOM     16  C   UNL d   1      -3.057   5.906  -0.562  0.00  0.00     0.014 C 
ATOM     17  C   UNL d   1      -3.430   6.889   0.565  0.00  0.00     0.002 C 
ATOM     18  C   UNL d   1      -2.268   6.291   1.380  0.00  0.00     0.014 C 
ENDBRANCH  12  15
ENDBRANCH   1  11
TORSDOF 3
