REMARK  3 active torsions:
REMARK  status: ('A' for Active; 'I' for Inactive)
REMARK    1  A    between atoms: C_9  and  N_3 
REMARK    2  A    between atoms: C_16  and  C_6 
REMARK    3  A    between atoms: O_17  and  C_16 
ROOT
ATOM      1  C   UNL d   1      -0.503  -1.040  -0.100  0.00  0.00     0.141 C 
ATOM      2  N   UNL d   1      -0.988   0.123   0.430  0.00  0.00    -0.359 N 
ATOM      3  N   UNL d   1      -1.280  -1.978  -0.532  0.00  0.00    -0.337 N 
ATOM      4  HN  UNL d   1      -2.287  -1.816  -0.513  1.00  0.00     0.168 HD
ATOM      5  S   UNL d   1       1.248  -1.042   0.012  0.00  0.00    -0.092 SA
ATOM      6  C   UNL d   1      -0.082   0.868   1.315  0.00  0.00     0.058 C 
ATOM      7  C   UNL d   1       1.163  -0.021   1.518  0.00  0.00     0.115 C 
ATOM      8  C   UNL d   1      -0.796   1.124   2.647  0.00  0.00     0.041 C 
ATOM      9  H   UNL d   1      -1.977   0.094   0.659  0.00  0.00     0.162 HD
ENDROOT
BRANCH   3  10
ATOM     10  C   UNL d   1      -0.817  -3.207  -1.027  0.00  0.00     0.035 A 
ATOM     11  C   UNL d   1       0.050  -4.046  -0.320  0.00  0.00     0.055 A 
ATOM     12  C   UNL d   1       0.461  -5.271  -0.857  0.00  0.00     0.058 A 
ATOM     13 CL   UNL d   1       1.601  -6.202   0.051  0.00  0.00    -0.082 Cl
ATOM     14  C   UNL d   1      -0.049  -5.701  -2.085  0.00  0.00     0.055 A 
ATOM     15  C   UNL d   1      -0.965  -4.900  -2.768  0.00  0.00     0.028 A 
ATOM     16 CL   UNL d   1       0.398  -7.208  -2.799  0.00  0.00    -0.083 Cl
ATOM     17  C   UNL d   1      -1.341  -3.662  -2.241  0.00  0.00     0.031 A 
ENDBRANCH   3  10
BRANCH   6  18
ATOM     18  C   UNL d   1       0.320   2.204   0.644  0.00  0.00     0.195 C 
BRANCH  18  19
ATOM     19  O   UNL d   1      -0.820   3.021   0.393  0.00  0.00    -0.398 OA
ATOM     20  H   UNL d   1      -1.380   2.508  -0.221  0.00  0.00     0.209 HD
ENDBRANCH  18  19
ENDBRANCH   6  18
TORSDOF 3
