REMARK  3 active torsions:
REMARK  status: ('A' for Active; 'I' for Inactive)
REMARK    1  A    between atoms: N_8  and  C_1 
REMARK    2  A    between atoms: N_4  and  N_8 
REMARK    3  A    between atoms: C_14  and  C_9 
ROOT
ATOM      1  N   UNL d   1       0.063  -2.371  -0.223  0.00  0.00    -0.203 NA
ATOM      2  H   UNL d   1       0.513  -2.402   0.697  0.00  0.00     0.153 HD
ENDROOT
BRANCH   1   3
ATOM      3  N   UNL d   1      -1.179  -2.927  -0.275  0.00  0.00    -0.327 N 
ATOM      4  C   UNL d   1      -1.202  -4.190   0.003  0.00  0.00     0.113 C 
ATOM      5  HN  UNL d   1      -2.016  -2.395  -0.512  1.00  0.00     0.180 HD
BRANCH   4   6
ATOM      6  C   UNL d   1      -2.445  -4.983  -0.064  0.00  0.00    -0.020 A 
ATOM      7  C   UNL d   1      -3.660  -4.383  -0.407  0.00  0.00     0.013 A 
ATOM      8  C   UNL d   1      -4.817  -5.161  -0.497  0.00  0.00     0.001 A 
ATOM      9  C   UNL d   1      -4.757  -6.532  -0.245  0.00  0.00     0.000 A 
ATOM     10  C   UNL d   1      -3.543  -7.129   0.098  0.00  0.00     0.001 A 
ATOM     11  C   UNL d   1      -2.384  -6.355   0.192  0.00  0.00     0.013 A 
ENDBRANCH   4   6
ENDBRANCH   1   3
BRANCH   1  12
ATOM     12  C   UNL d   1       0.195  -1.077  -0.807  0.00  0.00     0.073 A 
ATOM     13  C   UNL d   1       0.977  -0.104  -0.155  0.00  0.00     0.073 A 
ATOM     14 CL   UNL d   1       1.706  -0.415   1.381  0.00  0.00    -0.081 Cl
ATOM     15  C   UNL d   1       1.155   1.143  -0.743  0.00  0.00     0.113 A 
ATOM     16  N   UNL d   1       0.626   1.497  -1.935  0.00  0.00    -0.372 N 
ATOM     17  C   UNL d   1      -0.115   0.552  -2.558  0.00  0.00     0.113 A 
ATOM     18  HN  UNL d   1       0.776   2.420  -2.340  1.00  0.00     0.164 HD
ATOM     19  C   UNL d   1      -0.357  -0.726  -2.055  0.00  0.00     0.073 A 
ATOM     20 CL   UNL d   1      -1.269  -1.802  -3.055  0.00  0.00    -0.081 Cl
ENDBRANCH   1  12
TORSDOF 3
