REMARK  5 active torsions:
REMARK  status: ('A' for Active; 'I' for Inactive)
REMARK    1  A    between atoms: C_4  and  C_1 
REMARK       I    between atoms: N_9  and  C_4 
REMARK    2  A    between atoms: C_18  and  C_5 
REMARK       I    between atoms: C_8  and  N_10 
REMARK       I    between atoms: N_12  and  C_8 
REMARK    3  A    between atoms: N_10  and  N_9 
REMARK    4  A    between atoms: C_20  and  N_12 
REMARK    5  A    between atoms: C_13  and  C_18 
ROOT
ATOM      1  C   UNL d   1       2.315   1.756   0.106  0.00  0.00     0.287 C 
ATOM      2  N   UNL d   1       2.022   3.059   0.460  0.00  0.00    -0.261 N 
ATOM      3  O   UNL d   1       3.455   1.350  -0.096  0.00  0.00    -0.264 OA
ATOM      4  H   UNL d   1       1.099   3.272   0.841  0.00  0.00     0.190 HD
ENDROOT
BRANCH   2   5
ATOM      5  N   UNL d   1       3.070   3.938   0.797  0.00  0.00    -0.248 N 
ATOM      6  C   UNL d   1       2.823   4.886   1.774  0.00  0.00     0.339 C 
ATOM      7  N   UNL d   1       3.904   5.718   1.989  0.00  0.00    -0.308 N 
ATOM      8  O   UNL d   1       1.746   4.910   2.363  0.00  0.00    -0.245 OA
ATOM      9  H   UNL d   1       4.677   5.629   1.347  0.00  0.00     0.170 HD
ATOM     10  H   UNL d   1       3.826   4.014   0.127  0.00  0.00     0.192 HD
BRANCH   7  11
ATOM     11  C   UNL d   1       4.042   6.676   3.016  0.00  0.00     0.036 A 
ATOM     12  C   UNL d   1       3.113   6.838   4.049  0.00  0.00     0.031 A 
ATOM     13  C   UNL d   1       3.334   7.762   5.075  0.00  0.00     0.026 A 
ATOM     14  C   UNL d   1       4.486   8.539   5.073  0.00  0.00     0.034 A 
ATOM     15  C   UNL d   1       5.414   8.409   4.043  0.00  0.00     0.026 A 
ATOM     16 CL   UNL d   1       4.767   9.656   6.350  0.00  0.00    -0.084 Cl
ATOM     17  C   UNL d   1       5.193   7.479   3.018  0.00  0.00     0.031 A 
ENDBRANCH   7  11
ENDBRANCH   2   5
BRANCH   1  18
ATOM     18  C   UNL d   1       1.122   0.911  -0.038  0.00  0.00     0.109 A 
ATOM     19  N   UNL d   1      -0.175   1.428   0.069  0.00  0.00    -0.349 N 
ATOM     20  C   UNL d   1      -1.063   0.484  -0.183  0.00  0.00     0.055 A 
ATOM     21  HN  UNL d   1      -0.401   2.394   0.307  1.00  0.00     0.166 HD
ATOM     22  S   UNL d   1      -0.406  -1.077  -0.497  0.00  0.00    -0.086 SA
ATOM     23  C   UNL d   1       1.172  -0.439  -0.331  0.00  0.00     0.086 A 
BRANCH  20  24
ATOM     24  C   UNL d   1      -2.549   0.707  -0.279  0.00  0.00     0.103 C 
BRANCH  24  25
ATOM     25  C   UNL d   1      -3.293   0.397   0.992  0.00  0.00    -0.045 A 
ATOM     26  C   UNL d   1      -4.281  -0.565   1.114  0.00  0.00     0.057 A 
ATOM     27  S   UNL d   1      -4.958  -0.628   2.684  0.00  0.00    -0.113 SA
ATOM     28  C   UNL d   1      -3.944   0.632   3.230  0.00  0.00     0.050 A 
ATOM     29  C   UNL d   1      -3.107   1.089   2.236  0.00  0.00     0.015 A 
ENDBRANCH  24  25
ENDBRANCH  20  24
ENDBRANCH   1  18
TORSDOF 5
