REMARK  5 active torsions:
REMARK  status: ('A' for Active; 'I' for Inactive)
REMARK    1  A    between atoms: C_2  and  S_1 
REMARK    2  A    between atoms: C_12  and  S_1 
REMARK    3  A    between atoms: C_4  and  C_2 
REMARK    4  A    between atoms: N_3  and  C_5 
REMARK    5  A    between atoms: C_15  and  C_12 
ROOT
ATOM      1  C   UNL d   1       0.324   1.496   0.566  0.00  0.00     0.250 C 
ATOM      2  C   UNL d   1       0.902   1.854   1.862  0.00  0.00     0.084 C 
ATOM      3  N   UNL d   1       1.383   2.160   2.872  0.00  0.00    -0.196 NA
ENDROOT
BRANCH   1   4
ATOM      4  S   UNL d   1       1.138  -0.023   0.027  0.00  0.00     0.165 S 
ATOM      5  O   UNL d   1       0.713  -0.271  -1.341  0.00  0.00    -0.226 OA
ATOM      6  O   UNL d   1       0.976  -1.060   1.032  0.00  0.00    -0.226 OA
BRANCH   4   7
ATOM      7  C   UNL d   1       2.889   0.368  -0.043  0.00  0.00     0.142 C 
BRANCH   7   8
ATOM      8  C   UNL d   1       3.690  -0.861  -0.466  0.00  0.00     0.010 C 
ATOM      9  C   UNL d   1       5.180  -0.579  -0.538  0.00  0.00     0.006 C 
ENDBRANCH   7   8
ENDBRANCH   4   7
ENDBRANCH   1   4
BRANCH   1  10
ATOM     10  C   UNL d   1      -1.190   1.270   0.600  0.00  0.00     0.007 A 
ATOM     11  C   UNL d   1      -2.136   1.970  -0.192  0.00  0.00     0.111 A 
ATOM     12  C   UNL d   1      -3.506   1.628  -0.158  0.00  0.00     0.037 A 
ATOM     13  C   UNL d   1      -3.961   0.605   0.668  0.00  0.00     0.002 A 
ATOM     14  C   UNL d   1      -3.063  -0.060   1.489  0.00  0.00     0.001 A 
ATOM     15  C   UNL d   1      -1.708   0.278   1.467  0.00  0.00     0.012 A 
BRANCH  11  16
ATOM     16  N   UNL d   1      -1.782   3.120  -1.042  0.00  0.00    -0.115 N 
ATOM     17  O   UNL d   1      -0.776   3.772  -0.735  0.00  0.00    -0.532 OA
ATOM     18  O   UNL d   1      -2.530   3.392  -1.990  0.00  0.00    -0.532 OA
ENDBRANCH  11  16
ENDBRANCH   1  10
TORSDOF 5
