REMARK  11 active torsions:
REMARK  status: ('A' for Active; 'I' for Inactive)
REMARK    1  A    between atoms: C_13  and  C_1 
REMARK    2  A    between atoms: N_12  and  C_2 
REMARK    3  A    between atoms: C_6  and  C_3 
REMARK    4  A    between atoms: C_7  and  C_3 
REMARK       I    between atoms: N_9  and  C_6 
REMARK       I    between atoms: N_10  and  C_7 
REMARK       I    between atoms: C_14  and  N_9 
REMARK       I    between atoms: C_15  and  N_10 
REMARK    5  A    between atoms: C_11  and  N_12 
REMARK    6  A    between atoms: O_23  and  C_13 
REMARK    7  A    between atoms: O_22  and  C_14 
REMARK    8  A    between atoms: O_21  and  C_15 
REMARK    9  A    between atoms: C_27  and  O_21 
REMARK   10  A    between atoms: C_26  and  O_22 
REMARK   11  A    between atoms: C_28  and  O_23 
ROOT
ATOM      1  C   UNL d   1       4.535  -3.008   0.004  0.00  0.00     0.115 C 
ATOM      2  C   UNL d   1       3.366  -2.329   0.047  0.00  0.00     0.111 C 
ENDROOT
BRANCH   1   3
ATOM      3  C   UNL d   1       4.609  -4.511  -0.065  0.00  0.00     0.266 C 
ATOM      4  N   UNL d   1       3.400  -5.145  -0.306  0.00  0.00    -0.269 N 
ATOM      5  C   UNL d   1       3.012  -6.453  -0.163  0.00  0.00     0.367 C 
ATOM      6  H   UNL d   1       2.590  -4.552  -0.428  0.00  0.00     0.174 HD
ATOM      7  O   UNL d   1       1.850  -6.780  -0.408  0.00  0.00    -0.238 OA
ATOM      8  O   UNL d   1       5.702  -5.066  -0.025  0.00  0.00    -0.267 OA
BRANCH   5   9
ATOM      9  O   UNL d   1       3.959  -7.286   0.331  0.00  0.00    -0.304 OA
BRANCH   9  10
ATOM     10  C   UNL d   1       3.480  -8.582   0.733  0.00  0.00     0.176 C 
ATOM     11  C   UNL d   1       2.958  -8.505   2.158  0.00  0.00     0.034 C 
ENDBRANCH   9  10
ENDBRANCH   5   9
ENDBRANCH   1   3
BRANCH   1  12
ATOM     12  C   UNL d   1       5.762  -2.122   0.003  0.00  0.00     0.266 C 
ATOM     13  N   UNL d   1       6.988  -2.733  -0.044  0.00  0.00    -0.269 N 
ATOM     14  C   UNL d   1       8.155  -2.067  -0.310  0.00  0.00     0.367 C 
ATOM     15  H   UNL d   1       7.052  -3.747  -0.017  0.00  0.00     0.174 HD
ATOM     16  O   UNL d   1       8.285  -0.883  -0.596  0.00  0.00    -0.238 OA
ATOM     17  O   UNL d   1       5.622  -0.900   0.075  0.00  0.00    -0.267 OA
BRANCH  14  18
ATOM     18  O   UNL d   1       9.191  -2.953  -0.301  0.00  0.00    -0.304 OA
BRANCH  18  19
ATOM     19  C   UNL d   1      10.419  -2.474  -0.882  0.00  0.00     0.176 C 
ATOM     20  C   UNL d   1      10.393  -2.813  -2.361  0.00  0.00     0.034 C 
ENDBRANCH  18  19
ENDBRANCH  14  18
ENDBRANCH   1  12
BRANCH   2  21
ATOM     21  N   UNL d   1       2.052  -2.786   0.023  0.00  0.00    -0.358 N 
ATOM     22  H   UNL d   1       1.554  -2.378  -0.781  0.00  0.00     0.166 HD
BRANCH  21  23
ATOM     23  C   UNL d   1       1.221  -2.880   1.123  0.00  0.00     0.091 A 
ATOM     24  C   UNL d   1      -0.171  -3.033   1.109  0.00  0.00     0.080 A 
ATOM     25  C   UNL d   1      -0.710  -3.175   2.461  0.00  0.00    -0.030 A 
ATOM     26  C   UNL d   1       0.291  -3.103   3.416  0.00  0.00    -0.012 A 
ATOM     27  C   UNL d   1      -2.148  -3.411   2.830  0.00  0.00     0.050 C 
ATOM     28  C   UNL d   1       0.179  -3.216   4.903  0.00  0.00     0.057 C 
ATOM     29  S   UNL d   1       1.828  -2.880   2.728  0.00  0.00    -0.076 SA
BRANCH  24  30
ATOM     30  C   UNL d   1      -0.969  -3.122  -0.127  0.00  0.00     0.296 C 
ATOM     31  O   UNL d   1      -2.170  -3.369  -0.151  0.00  0.00    -0.259 OA
BRANCH  30  32
ATOM     32  O   UNL d   1      -0.220  -2.986  -1.266  0.00  0.00    -0.318 OA
BRANCH  32  33
ATOM     33  C   UNL d   1      -0.791  -3.603  -2.430  0.00  0.00     0.174 C 
ATOM     34  C   UNL d   1      -0.413  -5.073  -2.410  0.00  0.00     0.034 C 
ENDBRANCH  32  33
ENDBRANCH  30  32
ENDBRANCH  24  30
ENDBRANCH  21  23
ENDBRANCH   2  21
TORSDOF 11
