REMARK  5 active torsions:
REMARK  status: ('A' for Active; 'I' for Inactive)
REMARK    1  A    between atoms: C_11  and  N_1 
REMARK    2  A    between atoms: C_7  and  C_2 
REMARK    3  A    between atoms: C_10  and  C_8 
REMARK    4  A    between atoms: N_13  and  C_9 
REMARK    5  A    between atoms: C_12  and  N_13 
ROOT
ATOM      1  C   UNL d   1       2.385  -1.270   0.191  0.00  0.00     0.068 C 
ATOM      2  C   UNL d   1       2.663  -2.576   0.284  0.00  0.00     0.092 C 
ENDROOT
BRANCH   1   3
ATOM      3  C   UNL d   1       1.071  -0.755   0.327  0.00  0.00     0.139 C 
ATOM      4  N   UNL d   1       0.727   0.506  -0.165  0.00  0.00    -0.225 N 
ATOM      5  N   UNL d   1      -0.436   0.874   0.425  0.00  0.00     0.001 NA
ATOM      6  N   UNL d   1      -0.867  -0.192   1.081  0.00  0.00    -0.007 NA
ATOM      7  N   UNL d   1       0.047  -1.211   1.021  0.00  0.00    -0.270 N 
ATOM      8  HN  UNL d   1      -0.046  -2.140   1.433  1.00  0.00     0.185 HD
BRANCH   4   9
ATOM      9  C   UNL d   1       1.378   1.351  -1.102  0.00  0.00     0.056 A 
ATOM     10  C   UNL d   1       2.219   0.820  -2.092  0.00  0.00     0.031 A 
ATOM     11  C   UNL d   1       2.903   1.672  -2.960  0.00  0.00     0.002 A 
ATOM     12  C   UNL d   1       2.748   3.052  -2.851  0.00  0.00     0.000 A 
ATOM     13  C   UNL d   1       1.876   3.583  -1.901  0.00  0.00     0.002 A 
ATOM     14  C   UNL d   1       1.174   2.736  -1.039  0.00  0.00     0.031 A 
ENDBRANCH   4   9
ENDBRANCH   1   3
BRANCH   2  15
ATOM     15  N   UNL d   1       3.942  -3.080   0.217  0.00  0.00    -0.365 N 
ATOM     16  H   UNL d   1       4.136  -3.636  -0.623  0.00  0.00     0.165 HD
BRANCH  15  17
ATOM     17  C   UNL d   1       4.654  -3.606   1.334  0.00  0.00     0.045 A 
ATOM     18  C   UNL d   1       5.862  -4.328   1.173  0.00  0.00     0.036 A 
ATOM     19  C   UNL d   1       6.613  -4.705   2.303  0.00  0.00     0.017 A 
ATOM     20  C   UNL d   1       6.171  -4.388   3.588  0.00  0.00     0.001 A 
ATOM     21  C   UNL d   1       4.987  -3.686   3.757  0.00  0.00     0.002 A 
ATOM     22  C   UNL d   1       4.246  -3.287   2.644  0.00  0.00     0.030 A 
BRANCH  18  23
ATOM     23  C   UNL d   1       6.356  -4.717  -0.188  0.00  0.00     0.158 C 
ATOM     24  O   UNL d   1       5.955  -4.129  -1.193  0.00  0.00    -0.293 OA
ATOM     25  C   UNL d   1       7.326  -5.866  -0.309  0.00  0.00     0.097 C 
ENDBRANCH  18  23
ENDBRANCH  15  17
ENDBRANCH   2  15
TORSDOF 5
