REMARK  2 active torsions:
REMARK  status: ('A' for Active; 'I' for Inactive)
REMARK    1  A    between atoms: C_5  and  C_8 
REMARK       I    between atoms: N_9  and  C_5 
REMARK    2  A    between atoms: C_14  and  N_9 
ROOT
ATOM      1  C   UNL d   1      -3.896   1.044   0.321  0.00  0.00     0.256 C 
ATOM      2  N   UNL d   1      -4.065   2.387   0.023  0.00  0.00    -0.323 N 
ATOM      3  O   UNL d   1      -4.785   0.284   0.696  0.00  0.00    -0.267 OA
ATOM      4  H   UNL d   1      -3.294   2.889  -0.391  0.00  0.00     0.169 HD
ENDROOT
BRANCH   1   5
ATOM      5  C   UNL d   1      -2.521   0.463   0.168  0.00  0.00     0.034 A 
ATOM      6  C   UNL d   1      -1.367   1.236  -0.032  0.00  0.00     0.049 A 
ATOM      7  C   UNL d   1      -0.107   0.600  -0.132  0.00  0.00     0.064 A 
ATOM      8  N   UNL d   1       1.116   1.232  -0.333  0.00  0.00    -0.292 N 
ATOM      9  C   UNL d   1      -0.035  -0.790  -0.015  0.00  0.00     0.047 A 
ATOM     10  N   UNL d   1       2.118   0.370  -0.378  0.00  0.00    -0.061 NA
ATOM     11  HN  UNL d   1       1.226   2.241  -0.433  1.00  0.00     0.183 HD
ATOM     12  S   UNL d   1       1.626  -1.214  -0.174  0.00  0.00     0.002 SA
ATOM     13  C   UNL d   1      -1.166  -1.584   0.197  0.00  0.00     0.023 A 
ATOM     14  C   UNL d   1      -2.401  -0.933   0.283  0.00  0.00     0.018 A 
ENDBRANCH   1   5
BRANCH   2  15
ATOM     15  C   UNL d   1      -5.240   3.151   0.224  0.00  0.00     0.035 A 
ATOM     16  C   UNL d   1      -6.409   2.647   0.803  0.00  0.00     0.031 A 
ATOM     17  C   UNL d   1      -7.521   3.472   1.011  0.00  0.00     0.026 A 
ATOM     18  C   UNL d   1      -7.471   4.810   0.638  0.00  0.00     0.034 A 
ATOM     19  C   UNL d   1      -6.320   5.328   0.051  0.00  0.00     0.026 A 
ATOM     20 CL   UNL d   1      -8.830   5.827   0.913  0.00  0.00    -0.084 Cl
ATOM     21  C   UNL d   1      -5.209   4.500  -0.156  0.00  0.00     0.031 A 
ENDBRANCH   2  15
TORSDOF 2
