REMARK  6 active torsions:
REMARK  status: ('A' for Active; 'I' for Inactive)
REMARK    1  A    between atoms: C_3  and  C_1 
REMARK       I    between atoms: N_4  and  C_1 
REMARK    2  A    between atoms: C_2  and  N_5 
REMARK    3  A    between atoms: N_14  and  C_2 
REMARK    4  A    between atoms: N_5  and  N_4 
REMARK    5  A    between atoms: C_18  and  N_14 
REMARK    6  A    between atoms: C_16  and  C_18 
ROOT
ATOM      1  C   UNL d   1       0.898   0.212  -0.098  0.00  0.00     0.270 C 
ATOM      2  N   UNL d   1       0.057   0.232  -1.192  0.00  0.00    -0.264 N 
ATOM      3  O   UNL d   1       2.083   0.511  -0.130  0.00  0.00    -0.266 OA
ATOM      4  H   UNL d   1      -0.844  -0.244  -1.194  0.00  0.00     0.190 HD
ENDROOT
BRANCH   1   5
ATOM      5  C   UNL d   1       0.235  -0.205   1.167  0.00  0.00     0.034 A 
ATOM      6  C   UNL d   1       0.927  -0.963   2.116  0.00  0.00     0.030 A 
ATOM      7  C   UNL d   1       0.281  -1.363   3.304  0.00  0.00    -0.009 A 
ATOM      8  C   UNL d   1       0.921  -2.144   4.277  0.00  0.00     0.015 A 
ATOM      9  C   UNL d   1      -1.058  -0.985   3.549  0.00  0.00     0.042 A 
ATOM     10  C   UNL d   1       0.233  -2.516   5.428  0.00  0.00     0.018 A 
ATOM     11  C   UNL d   1      -1.075  -2.093   5.570  0.00  0.00     0.088 A 
ATOM     12  N   UNL d   1      -1.722  -1.339   4.660  0.00  0.00    -0.365 N 
ATOM     13  HN  UNL d   1      -2.688  -1.047   4.811  1.00  0.00     0.165 HD
ATOM     14  C   UNL d   1      -1.712  -0.211   2.604  0.00  0.00     0.031 A 
ATOM     15  C   UNL d   1      -1.084   0.185   1.423  0.00  0.00     0.019 A 
ENDBRANCH   1   5
BRANCH   2  16
ATOM     16  N   UNL d   1       0.519   0.683  -2.428  0.00  0.00    -0.274 N 
ATOM     17  H   UNL d   1       1.452   1.093  -2.417  0.00  0.00     0.189 HD
BRANCH  16  18
ATOM     18  C   UNL d   1       0.043   0.117  -3.603  0.00  0.00     0.186 C 
ATOM     19  S   UNL d   1      -1.024  -1.175  -3.654  0.00  0.00    -0.040 SA
BRANCH  18  20
ATOM     20  N   UNL d   1       0.541   0.785  -4.701  0.00  0.00    -0.363 N 
ATOM     21  H   UNL d   1       0.818   1.742  -4.521  0.00  0.00     0.162 HD
BRANCH  20  22
ATOM     22  C   UNL d   1       0.247   0.484  -6.090  0.00  0.00     0.148 C 
BRANCH  22  23
ATOM     23  C   UNL d   1       1.404   0.992  -6.891  0.00  0.00    -0.018 C 
ATOM     24  C   UNL d   1       1.312   1.839  -7.923  0.00  0.00     0.008 C 
ENDBRANCH  22  23
ENDBRANCH  20  22
ENDBRANCH  18  20
ENDBRANCH  16  18
ENDBRANCH   2  16
TORSDOF 6
