REMARK  4 active torsions:
REMARK  status: ('A' for Active; 'I' for Inactive)
REMARK    1  A    between atoms: C_5  and  C_1 
REMARK    2  A    between atoms: C_6  and  C_2 
REMARK    3  A    between atoms: O_9  and  C_5 
REMARK    4  A    between atoms: C_12  and  O_9 
ROOT
ATOM      1  C   UNL d   1      -0.169  -1.091   0.210  0.00  0.00     0.100 A 
ATOM      2  C   UNL d   1      -1.492  -0.609   0.448  0.00  0.00     0.085 A 
ATOM      3  N   UNL d   1      -1.473   0.707   0.717  0.00  0.00    -0.259 N 
ATOM      4  HN  UNL d   1      -2.278   1.303   0.907  1.00  0.00     0.195 HD
ATOM      5  O   UNL d   1      -0.153   1.093   0.686  0.00  0.00    -0.241 OA
ATOM      6  C   UNL d   1       0.624   0.025   0.377  0.00  0.00     0.091 A 
ATOM      7  C   UNL d   1       2.072   0.291   0.250  0.00  0.00     0.080 C 
ENDROOT
BRANCH   1   8
ATOM      8  C   UNL d   1       0.323  -2.387  -0.203  0.00  0.00     0.303 C 
ATOM      9  O   UNL d   1       1.515  -2.665  -0.254  0.00  0.00    -0.259 OA
BRANCH   8  10
ATOM     10  O   UNL d   1      -0.699  -3.224  -0.634  0.00  0.00    -0.275 OA
BRANCH  10  11
ATOM     11  C   UNL d   1      -0.355  -4.069  -1.695  0.00  0.00     0.079 A 
ATOM     12  C   UNL d   1      -0.703  -5.414  -1.603  0.00  0.00     0.039 A 
ATOM     13  C   UNL d   1      -0.503  -6.246  -2.707  0.00  0.00     0.021 A 
ATOM     14  C   UNL d   1       0.029  -5.720  -3.888  0.00  0.00     0.006 A 
ATOM     15  C   UNL d   1       0.376  -4.370  -3.972  0.00  0.00     0.021 A 
ATOM     16  I   UNL d   1       0.272  -6.942  -5.552  0.00  0.00    -0.045 I 
ATOM     17  C   UNL d   1       0.175  -3.539  -2.874  0.00  0.00     0.039 A 
ENDBRANCH  10  11
ENDBRANCH   8  10
ENDBRANCH   1   8
BRANCH   2  18
ATOM     18  C   UNL d   1      -2.776  -1.304   0.386  0.00  0.00     0.015 A 
ATOM     19  C   UNL d   1      -3.115  -2.359   1.246  0.00  0.00     0.046 A 
ATOM     20 CL   UNL d   1      -2.040  -2.943   2.470  0.00  0.00    -0.083 Cl
ATOM     21  C   UNL d   1      -4.372  -2.969   1.151  0.00  0.00     0.025 A 
ATOM     22  C   UNL d   1      -5.302  -2.526   0.209  0.00  0.00     0.002 A 
ATOM     23  C   UNL d   1      -4.979  -1.474  -0.643  0.00  0.00     0.001 A 
ATOM     24  C   UNL d   1      -3.725  -0.866  -0.555  0.00  0.00     0.015 A 
ENDBRANCH   2  18
TORSDOF 4
