REMARK  5 active torsions:
REMARK  status: ('A' for Active; 'I' for Inactive)
REMARK    1  A    between atoms: O_5  and  C_1 
REMARK    2  A    between atoms: O_12  and  C_2 
REMARK    3  A    between atoms: C_11  and  O_5 
REMARK    4  A    between atoms: C_8  and  C_11 
REMARK    5  A    between atoms: O_14  and  C_8 
ROOT
ATOM      1  C   UNL d   1      -0.818   1.177  -0.041  0.00  0.00     0.126 A 
ATOM      2  C   UNL d   1      -1.464  -0.067  -0.070  0.00  0.00     0.119 A 
ATOM      3  N   UNL d   1       1.333   0.040   0.004  0.00  0.00    -0.366 N 
ATOM      4  HN  UNL d   1       2.352   0.077   0.030  1.00  0.00     0.165 HD
ATOM      5  C   UNL d   1      -0.707  -1.243  -0.068  0.00  0.00     0.062 A 
ATOM      6  C   UNL d   1       0.586   1.173   0.002  0.00  0.00     0.041 A 
ATOM      7  C   UNL d   1       0.673  -1.139  -0.030  0.00  0.00     0.110 A 
ATOM      8 BR   UNL d   1      -1.496  -2.963  -0.060  0.00  0.00    -0.047 Br
ATOM      9  C   UNL d   1       1.363   2.459   0.024  0.00  0.00     0.071 C 
ENDROOT
BRANCH   1  10
ATOM     10  O   UNL d   1      -1.411   2.412   0.003  0.00  0.00    -0.336 OA
BRANCH  10  11
ATOM     11  C   UNL d   1      -2.645   2.596  -0.696  0.00  0.00     0.285 C 
BRANCH  11  12
ATOM     12  C   UNL d   1      -2.756   4.032  -1.183  0.00  0.00     0.164 C 
ATOM     13  O   UNL d   1      -3.732   4.485  -1.763  0.00  0.00    -0.648 OA
BRANCH  12  14
ATOM     14  O   UNL d   1      -1.662   4.792  -0.899  0.00  0.00    -0.775 OA
ATOM     15  H   UNL d   1      -1.000   4.258  -0.412  0.00  0.00     0.167 HD
ENDBRANCH  12  14
ENDBRANCH  11  12
ENDBRANCH  10  11
ENDBRANCH   1  10
BRANCH   2  16
ATOM     16  O   UNL d   1      -2.825  -0.185  -0.077  0.00  0.00    -0.357 OA
ATOM     17  H   UNL d   1      -3.199   0.473   0.530  0.00  0.00     0.218 HD
ENDBRANCH   2  16
TORSDOF 5
