REMARK  7 active torsions:
REMARK  status: ('A' for Active; 'I' for Inactive)
REMARK    1  A    between atoms: C_8  and  C_2 
REMARK    2  A    between atoms: S_11  and  C_5 
REMARK    3  A    between atoms: C_9  and  C_17 
REMARK    4  A    between atoms: C_22  and  C_10 
REMARK    5  A    between atoms: C_19  and  S_11 
REMARK    6  A    between atoms: C_12  and  C_19 
REMARK       I    between atoms: N_16  and  C_12 
REMARK    7  A    between atoms: C_23  and  N_16 
ROOT
ATOM      1  N   UNL d   1       0.975   0.131   0.165  0.00  0.00    -0.315 N 
ATOM      2  C   UNL d   1       0.068   1.111  -0.199  0.00  0.00     0.135 C 
ATOM      3  N   UNL d   1      -1.122   0.540  -0.311  0.00  0.00    -0.283 N 
ATOM      4  HN  UNL d   1      -1.983   1.014  -0.584  1.00  0.00     0.188 HD
ATOM      5  C   UNL d   1       0.231  -1.003   0.369  0.00  0.00     0.163 C 
ATOM      6  N   UNL d   1      -1.008  -0.788  -0.001  0.00  0.00    -0.278 N 
ATOM      7  HN  UNL d   1      -1.751  -1.485  -0.049  1.00  0.00     0.189 HD
ATOM      8  C   UNL d   1       2.405   0.237   0.302  0.00  0.00     0.160 C 
ENDROOT
BRANCH   2   9
ATOM      9  C   UNL d   1       0.316   2.543  -0.373  0.00  0.00     0.026 A 
ATOM     10  C   UNL d   1      -0.600   3.482   0.127  0.00  0.00     0.038 A 
ATOM     11  C   UNL d   1      -0.358   4.851  -0.026  0.00  0.00     0.034 A 
ATOM     12  C   UNL d   1       0.809   5.233  -0.676  0.00  0.00     0.108 A 
ATOM     13  N   UNL d   1       1.708   4.363  -1.192  0.00  0.00    -0.373 N 
ATOM     14  C   UNL d   1       1.426   3.046  -1.047  0.00  0.00     0.102 A 
ATOM     15  HN  UNL d   1       2.554   4.682  -1.664  1.00  0.00     0.164 HD
BRANCH  11  16
ATOM     16  C   UNL d   1      -1.281   5.838   0.442  0.00  0.00    -0.060 C 
ATOM     17  C   UNL d   1      -2.031   6.711   0.787  0.00  0.00    -0.061 C 
BRANCH  17  18
ATOM     18  C   UNL d   1      -2.891   7.783   1.161  0.00  0.00     0.018 A 
ATOM     19  C   UNL d   1      -3.044   8.884   0.310  0.00  0.00     0.020 A 
ATOM     20  C   UNL d   1      -3.876   9.944   0.676  0.00  0.00     0.001 A 
ATOM     21  C   UNL d   1      -4.559   9.905   1.891  0.00  0.00     0.000 A 
ATOM     22  C   UNL d   1      -4.414   8.808   2.740  0.00  0.00     0.001 A 
ATOM     23  C   UNL d   1      -3.582   7.747   2.376  0.00  0.00     0.020 A 
ENDBRANCH  17  18
ENDBRANCH  11  16
ENDBRANCH   2   9
BRANCH   5  24
ATOM     24  S   UNL d   1       0.856  -2.449   1.074  0.00  0.00    -0.083 SA
BRANCH  24  25
ATOM     25  C   UNL d   1      -0.566  -3.566   1.046  0.00  0.00     0.185 C 
BRANCH  25  26
ATOM     26  C   UNL d   1      -1.611  -3.231   2.102  0.00  0.00     0.231 C 
ATOM     27  N   UNL d   1      -2.497  -2.244   1.710  0.00  0.00    -0.327 N 
ATOM     28  H   UNL d   1      -2.293  -1.772   0.828  0.00  0.00     0.169 HD
ATOM     29  O   UNL d   1      -1.655  -3.867   3.153  0.00  0.00    -0.272 OA
BRANCH  27  30
ATOM     30  C   UNL d   1      -3.651  -1.798   2.379  0.00  0.00     0.034 A 
ATOM     31  C   UNL d   1      -4.002  -2.192   3.670  0.00  0.00     0.029 A 
ATOM     32  C   UNL d   1      -5.207  -1.766   4.235  0.00  0.00     0.002 A 
ATOM     33  C   UNL d   1      -6.071  -0.946   3.512  0.00  0.00     0.000 A 
ATOM     34  C   UNL d   1      -5.714  -0.520   2.236  0.00  0.00     0.002 A 
ATOM     35  C   UNL d   1      -4.501  -0.932   1.678  0.00  0.00     0.029 A 
ENDBRANCH  27  30
ENDBRANCH  25  26
ENDBRANCH  24  25
ENDBRANCH   5  24
TORSDOF 7
