REMARK  6 active torsions:
REMARK  status: ('A' for Active; 'I' for Inactive)
REMARK    1  A    between atoms: N_2  and  S_1 
REMARK    2  A    between atoms: C_11  and  S_1 
REMARK    3  A    between atoms: C_3  and  N_2 
REMARK    4  A    between atoms: C_4  and  C_12 
REMARK    5  A    between atoms: O_27  and  C_10 
REMARK    6  A    between atoms: N_13  and  C_25 
ROOT
ATOM      1  C   UNL d   1       0.326  -0.177   1.550  0.00  0.00     0.075 A 
ATOM      2  C   UNL d   1       0.221  -1.435   2.147  0.00  0.00     0.027 A 
ATOM      3  C   UNL d   1       0.066   0.975   2.294  0.00  0.00     0.027 A 
ATOM      4  C   UNL d   1      -0.510  -0.399   4.229  0.00  0.00     0.032 A 
ATOM      5  C   UNL d   1      -0.190  -1.540   3.480  0.00  0.00     0.031 A 
ATOM      6  C   UNL d   1      -0.352   0.856   3.625  0.00  0.00     0.031 A 
ENDROOT
BRANCH   1   7
ATOM      7  S   UNL d   1       0.945  -0.047  -0.113  0.00  0.00     0.248 S 
ATOM      8  O   UNL d   1       1.498   1.285  -0.252  0.00  0.00    -0.205 OA
ATOM      9  O   UNL d   1       1.772  -1.205  -0.379  0.00  0.00    -0.205 OA
BRANCH   7  10
ATOM     10  N   UNL d   1      -0.424  -0.065  -1.068  0.00  0.00    -0.151 NA
ATOM     11  H   UNL d   1      -0.286   0.546  -1.867  0.00  0.00     0.149 HD
BRANCH  10  12
ATOM     12  C   UNL d   1      -0.837  -1.331  -1.469  0.00  0.00     0.171 A 
ATOM     13  N   UNL d   1      -1.550  -2.057  -0.605  0.00  0.00    -0.336 N 
ATOM     14  C   UNL d   1      -1.992  -3.243  -1.071  0.00  0.00     0.009 A 
ATOM     15  HN  UNL d   1      -1.748  -1.736   0.343  1.00  0.00     0.168 HD
ATOM     16  C   UNL d   1      -2.864  -4.063  -0.168  0.00  0.00     0.068 C 
ATOM     17  C   UNL d   1      -1.688  -3.702  -2.341  0.00  0.00     0.049 A 
ATOM     18  C   UNL d   1      -0.924  -2.870  -3.139  0.00  0.00     0.009 A 
ATOM     19  N   UNL d   1      -0.512  -1.656  -2.723  0.00  0.00    -0.336 N 
ATOM     20  C   UNL d   1      -0.537  -3.301  -4.522  0.00  0.00     0.068 C 
ATOM     21  HN  UNL d   1       0.015  -1.025  -3.328  1.00  0.00     0.168 HD
ENDBRANCH  10  12
ENDBRANCH   7  10
ENDBRANCH   1   7
BRANCH   4  22
ATOM     22  N   UNL d   1      -0.939  -0.429   5.571  0.00  0.00    -0.365 N 
ATOM     23  C   UNL d   1      -1.706  -1.396   5.966  0.00  0.00     0.102 C 
ATOM     24  HN  UNL d   1      -0.650   0.300   6.223  1.00  0.00     0.165 HD
BRANCH  23  25
ATOM     25  C   UNL d   1      -2.240  -1.462   7.344  0.00  0.00     0.016 A 
ATOM     26  C   UNL d   1      -2.984  -2.575   7.750  0.00  0.00     0.099 A 
ATOM     27  C   UNL d   1      -3.527  -2.616   9.040  0.00  0.00     0.069 A 
ATOM     28 CL   UNL d   1      -4.453  -3.980   9.551  0.00  0.00    -0.081 Cl
ATOM     29  C   UNL d   1      -3.335  -1.556   9.924  0.00  0.00     0.050 A 
ATOM     30  C   UNL d   1      -2.589  -0.453   9.513  0.00  0.00     0.036 A 
ATOM     31  C   UNL d   1      -2.037  -0.399   8.232  0.00  0.00     0.039 A 
ATOM     32 CL   UNL d   1      -2.360   0.863  10.598  0.00  0.00    -0.084 Cl
BRANCH  26  33
ATOM     33  O   UNL d   1      -3.178  -3.619   6.883  0.00  0.00    -0.358 OA
ATOM     34  H   UNL d   1      -3.710  -4.295   7.345  0.00  0.00     0.217 HD
ENDBRANCH  26  33
ENDBRANCH  23  25
ENDBRANCH   4  22
TORSDOF 6
