REMARK  3 active torsions:
REMARK  status: ('A' for Active; 'I' for Inactive)
REMARK    1  A    between atoms: N_4  and  C_8 
REMARK    2  A    between atoms: S_11  and  C_6 
REMARK    3  A    between atoms: C_16  and  S_11 
ROOT
ATOM      1  S   UNL d   1      -1.519  -1.821  -0.047  0.00  0.00     0.177 S 
ATOM      2  C   UNL d   1      -0.114  -0.796   0.037  0.00  0.00     0.069 A 
ATOM      3  C   UNL d   1      -2.720  -0.510   0.097  0.00  0.00     0.166 A 
ATOM      4  C   UNL d   1      -0.466   0.549   0.122  0.00  0.00    -0.021 A 
ATOM      5  C   UNL d   1      -1.957   0.827   0.132  0.00  0.00     0.101 A 
ATOM      6  C   UNL d   1       1.192  -1.261  -0.005  0.00  0.00     0.060 A 
ATOM      7  C   UNL d   1       2.207  -0.302   0.022  0.00  0.00     0.104 A 
ATOM      8  O   UNL d   1      -1.565  -2.371  -1.385  0.00  0.00    -0.223 OA
ATOM      9  O   UNL d   1      -1.538  -2.634   1.149  0.00  0.00    -0.223 OA
ATOM     10  C   UNL d   1       0.558   1.497   0.131  0.00  0.00     0.012 A 
ATOM     11  C   UNL d   1       1.896   1.073   0.085  0.00  0.00     0.037 A 
ENDROOT
BRANCH   5  12
ATOM     12  S   UNL d   1      -2.438   1.821   1.607  0.00  0.00    -0.119 SA
BRANCH  12  13
ATOM     13  C   UNL d   1      -4.184   2.068   1.315  0.00  0.00     0.001 A 
ATOM     14  C   UNL d   1      -5.108   1.561   2.238  0.00  0.00     0.020 A 
ATOM     15  C   UNL d   1      -6.480   1.763   2.054  0.00  0.00     0.025 A 
ATOM     16  C   UNL d   1      -6.931   2.485   0.952  0.00  0.00     0.034 A 
ATOM     17  C   UNL d   1      -6.020   3.008   0.035  0.00  0.00     0.025 A 
ATOM     18 CL   UNL d   1      -8.616   2.743   0.728  0.00  0.00    -0.084 Cl
ATOM     19  C   UNL d   1      -4.648   2.801   0.218  0.00  0.00     0.020 A 
ENDBRANCH  12  13
ENDBRANCH   5  12
BRANCH   7  20
ATOM     20  N   UNL d   1       3.611  -0.733  -0.024  0.00  0.00    -0.116 N 
ATOM     21  O   UNL d   1       3.839  -1.949  -0.074  0.00  0.00    -0.532 OA
ATOM     22  O   UNL d   1       4.482   0.149  -0.014  0.00  0.00    -0.532 OA
ENDBRANCH   7  20
TORSDOF 3
