REMARK  3 active torsions:
REMARK  status: ('A' for Active; 'I' for Inactive)
REMARK    1  A    between atoms: S_16  and  C_3 
REMARK    2  A    between atoms: C_14  and  C_19 
REMARK       I    between atoms: N_15  and  C_14 
REMARK    3  A    between atoms: C_19  and  S_16 
ROOT
ATOM      1  N   UNL d   1       1.508   0.427  -0.801  0.00  0.00    -0.120 N 
ATOM      2  C   UNL d   1       2.241  -0.609  -0.247  0.00  0.00     0.720 A 
ATOM      3  C   UNL d   1       1.964   1.559  -0.162  0.00  0.00     0.183 A 
ATOM      4  N   UNL d   1       3.016  -0.128   0.705  0.00  0.00    -0.128 N 
ATOM      5  HN  UNL d   1       3.639  -0.674   1.300  1.00  0.00     0.205 HD
ATOM      6  N   UNL d   1       2.103  -1.887  -0.688  0.00  0.00    -0.130 N 
ATOM      7  HN  UNL d   1       2.656  -2.622  -0.246  1.00  0.00     0.205 HD
ATOM      8  N   UNL d   1       2.844   1.230   0.758  0.00  0.00    -0.265 N 
ATOM      9  HN  UNL d   1       3.314   1.871   1.397  1.00  0.00     0.189 HD
ATOM     10  N   UNL d   1       1.319  -2.195  -1.619  0.00  0.00    -0.284 N 
ATOM     11  HN  UNL d   1       1.268  -3.157  -1.954  1.00  0.00     0.187 HD
ATOM     12  C   UNL d   1       0.562   0.156  -1.806  0.00  0.00     0.087 A 
ATOM     13  C   UNL d   1       0.511  -1.191  -2.195  0.00  0.00     0.077 A 
ATOM     14  C   UNL d   1      -0.288   1.097  -2.386  0.00  0.00     0.034 A 
ATOM     15  C   UNL d   1      -0.388  -1.571  -3.200  0.00  0.00     0.040 A 
ATOM     16  C   UNL d   1      -1.186   0.695  -3.380  0.00  0.00     0.009 A 
ATOM     17  C   UNL d   1      -1.240  -0.637  -3.800  0.00  0.00    -0.060 A 
ATOM     18  C   UNL d   1      -2.194  -1.073  -4.873  0.00  0.00     0.048 C 
ENDROOT
BRANCH   3  19
ATOM     19  S   UNL d   1       1.530   3.198  -0.506  0.00  0.00    -0.082 SA
BRANCH  19  20
ATOM     20  C   UNL d   1       3.043   4.057   0.034  0.00  0.00     0.185 C 
BRANCH  20  21
ATOM     21  C   UNL d   1       2.958   5.519  -0.374  0.00  0.00     0.229 C 
ATOM     22  N   UNL d   1       2.396   6.431   0.504  0.00  0.00    -0.347 N 
ATOM     23  C   UNL d   1       2.280   7.838   0.109  0.00  0.00     0.152 C 
ATOM     24  C   UNL d   1       1.697   6.126   1.757  0.00  0.00     0.152 C 
ATOM     25  C   UNL d   1       0.806   8.253   0.070  0.00  0.00     0.187 C 
ATOM     26  O   UNL d   1       0.173   8.005   1.339  0.00  0.00    -0.388 OA
ATOM     27  C   UNL d   1       0.242   6.611   1.683  0.00  0.00     0.187 C 
ATOM     28  O   UNL d   1       3.381   5.866  -1.481  0.00  0.00    -0.273 OA
ENDBRANCH  20  21
ENDBRANCH  19  20
ENDBRANCH   3  19
TORSDOF 3
