REMARK  4 active torsions:
REMARK  status: ('A' for Active; 'I' for Inactive)
REMARK    1  A    between atoms: C_5  and  C_1 
REMARK    2  A    between atoms: C_9  and  C_4 
REMARK       I    between atoms: N_10  and  C_5 
REMARK       I    between atoms: C_8  and  N_11 
REMARK       I    between atoms: N_12  and  C_8 
REMARK    3  A    between atoms: N_11  and  N_10 
REMARK    4  A    between atoms: C_18  and  N_12 
ROOT
ATOM      1  C   UNL d   1       2.192   1.689   0.254  0.00  0.00     0.287 C 
ATOM      2  N   UNL d   1       2.061   3.032   0.544  0.00  0.00    -0.261 N 
ATOM      3  O   UNL d   1       1.442   1.093  -0.517  0.00  0.00    -0.264 OA
ATOM      4  H   UNL d   1       2.835   3.532   0.986  0.00  0.00     0.190 HD
ENDROOT
BRANCH   1   5
ATOM      5  C   UNL d   1       3.286   1.016   0.969  0.00  0.00     0.110 A 
ATOM      6  N   UNL d   1       4.079   1.651   1.938  0.00  0.00    -0.345 N 
ATOM      7  C   UNL d   1       4.957   0.800   2.447  0.00  0.00     0.086 A 
ATOM      8  HN  UNL d   1       3.992   2.630   2.210  1.00  0.00     0.167 HD
ATOM      9  S   UNL d   1       4.869  -0.797   1.796  0.00  0.00    -0.081 SA
ATOM     10  C   UNL d   1       3.592  -0.317   0.774  0.00  0.00     0.087 A 
BRANCH   7  11
ATOM     11  C   UNL d   1       5.895   1.096   3.542  0.00  0.00     0.013 A 
ATOM     12  C   UNL d   1       7.131   0.461   3.682  0.00  0.00     0.101 A 
ATOM     13  N   UNL d   1       8.001   0.670   4.704  0.00  0.00    -0.374 N 
ATOM     14  C   UNL d   1       7.630   1.566   5.640  0.00  0.00     0.087 A 
ATOM     15  HN  UNL d   1       8.891   0.175   4.759  1.00  0.00     0.164 HD
ATOM     16  C   UNL d   1       6.438   2.268   5.594  0.00  0.00     0.018 A 
ATOM     17  C   UNL d   1       5.567   2.032   4.528  0.00  0.00     0.017 A 
ENDBRANCH   7  11
ENDBRANCH   1   5
BRANCH   2  18
ATOM     18  N   UNL d   1       1.135   3.808  -0.197  0.00  0.00    -0.248 N 
ATOM     19  C   UNL d   1       1.437   5.154  -0.359  0.00  0.00     0.339 C 
ATOM     20  N   UNL d   1       0.439   5.832  -1.031  0.00  0.00    -0.308 N 
ATOM     21  O   UNL d   1       2.495   5.609   0.059  0.00  0.00    -0.245 OA
ATOM     22  H   UNL d   1      -0.319   5.277  -1.401  0.00  0.00     0.170 HD
ATOM     23  H   UNL d   1       0.167   3.523  -0.096  0.00  0.00     0.192 HD
BRANCH  20  24
ATOM     24  C   UNL d   1       0.395   7.221  -1.308  0.00  0.00     0.036 A 
ATOM     25  C   UNL d   1       1.389   8.117  -0.907  0.00  0.00     0.029 A 
ATOM     26  C   UNL d   1       1.266   9.487  -1.161  0.00  0.00     0.002 A 
ATOM     27  C   UNL d   1       0.148   9.978  -1.827  0.00  0.00     0.000 A 
ATOM     28  C   UNL d   1      -0.838   9.095  -2.258  0.00  0.00     0.002 A 
ATOM     29  C   UNL d   1      -0.715   7.723  -2.004  0.00  0.00     0.029 A 
ENDBRANCH  20  24
ENDBRANCH   2  18
TORSDOF 4
