REMARK  4 active torsions:
REMARK  status: ('A' for Active; 'I' for Inactive)
REMARK       I    between atoms: N_3  and  C_1 
REMARK    1  A    between atoms: C_8  and  C_1 
REMARK    2  A    between atoms: C_5  and  N_2 
REMARK    3  A    between atoms: C_9  and  N_3 
REMARK    4  A    between atoms: C_4  and  C_5 
ROOT
ATOM      1  N   UNL d   1       1.282  -5.361  -0.259  0.00  0.00     0.092 N 
ATOM      2  C   UNL d   1       1.233  -2.451  -0.037  0.00  0.00     0.088 C 
ATOM      3  C   UNL d   1       1.239  -3.147  -1.405  0.00  0.00     0.055 C 
ATOM      4  C   UNL d   1       1.052  -3.351   1.195  0.00  0.00     0.055 C 
ATOM      5  C   UNL d   1       0.774  -4.602  -1.416  0.00  0.00     0.275 C 
ATOM      6  C   UNL d   1       0.640  -4.804   0.939  0.00  0.00     0.275 C 
ENDROOT
BRANCH   1   7
ATOM      7  C   UNL d   1       0.935  -6.795  -0.439  0.00  0.00     0.311 C 
BRANCH   7   8
ATOM      8  C   UNL d   1       1.474  -7.752   0.622  0.00  0.00    -0.019 A 
ATOM      9  C   UNL d   1       0.633  -8.525   1.482  0.00  0.00    -0.018 A 
ATOM     10  C   UNL d   1       1.232  -9.489   2.340  0.00  0.00    -0.025 A 
ATOM     11  C   UNL d   1      -0.777  -8.403   1.548  0.00  0.00     0.013 A 
ATOM     12  C   UNL d   1       0.438 -10.282   3.188  0.00  0.00     0.012 A 
ATOM     13  C   UNL d   1       2.624  -9.654   2.346  0.00  0.00     0.012 A 
ATOM     14  C   UNL d   1      -0.946 -10.133   3.222  0.00  0.00     0.001 A 
ATOM     15  C   UNL d   1      -1.552  -9.192   2.405  0.00  0.00     0.001 A 
ATOM     16  C   UNL d   1       3.440  -8.869   1.539  0.00  0.00     0.002 A 
ATOM     17  C   UNL d   1       2.871  -7.927   0.687  0.00  0.00     0.010 A 
ENDBRANCH   7   8
ENDBRANCH   1   7
BRANCH   2  18
ATOM     18  N   UNL d   1       0.453  -1.198   0.004  0.00  0.00    -0.352 N 
ATOM     19  C   UNL d   1      -0.917  -1.102  -0.120  0.00  0.00     0.252 C 
ATOM     20  O   UNL d   1      -1.638  -2.081  -0.286  0.00  0.00    -0.268 OA
ATOM     21  H   UNL d   1       0.988  -0.343  -0.017  0.00  0.00     0.163 HD
BRANCH  19  22
ATOM     22  C   UNL d   1      -1.511   0.284  -0.083  0.00  0.00     0.032 A 
ATOM     23  C   UNL d   1      -2.752   0.495  -0.706  0.00  0.00     0.017 A 
ATOM     24  C   UNL d   1      -3.363   1.759  -0.681  0.00  0.00     0.001 A 
ATOM     25  C   UNL d   1      -2.745   2.821  -0.027  0.00  0.00     0.000 A 
ATOM     26  C   UNL d   1      -1.518   2.624   0.602  0.00  0.00     0.001 A 
ATOM     27  C   UNL d   1      -0.901   1.363   0.576  0.00  0.00     0.017 A 
ENDBRANCH  19  22
ENDBRANCH   2  18
TORSDOF 4
