REMARK  8 active torsions:
REMARK  status: ('A' for Active; 'I' for Inactive)
REMARK    1  A    between atoms: N_3  and  S_1 
REMARK    2  A    between atoms: C_6  and  S_1 
REMARK    3  A    between atoms: C_2  and  N_3 
REMARK    4  A    between atoms: C_4  and  C_11 
REMARK    5  A    between atoms: N_7  and  C_5 
REMARK    6  A    between atoms: C_9  and  C_10 
REMARK    7  A    between atoms: O_21  and  C_9 
REMARK    8  A    between atoms: C_27  and  O_21 
ROOT
ATOM      1  C   UNL d   1       0.945   2.025   1.859  0.00  0.00     0.050 A 
ATOM      2  C   UNL d   1       2.255   1.806   2.359  0.00  0.00     0.052 A 
ATOM      3  C   UNL d   1       0.009   2.774   2.590  0.00  0.00     0.044 A 
ATOM      4  C   UNL d   1       0.360   3.352   3.816  0.00  0.00     0.041 A 
ATOM      5  C   UNL d   1       2.554   2.368   3.617  0.00  0.00     0.032 A 
ATOM      6  C   UNL d   1       1.633   3.133   4.336  0.00  0.00     0.020 A 
ENDROOT
BRANCH   1   7
ATOM      7  N   UNL d   1       0.531   1.504   0.582  0.00  0.00    -0.179 NA
ATOM      8  H   UNL d   1      -0.096   2.125   0.074  0.00  0.00     0.146 HD
BRANCH   7   9
ATOM      9  S   UNL d   1      -0.005  -0.101   0.494  0.00  0.00     0.245 S 
ATOM     10  O   UNL d   1       0.525  -0.901   1.574  0.00  0.00    -0.206 OA
ATOM     11  O   UNL d   1       0.128  -0.510  -0.891  0.00  0.00    -0.206 OA
BRANCH   9  12
ATOM     12  C   UNL d   1      -1.753   0.114   0.784  0.00  0.00     0.075 A 
ATOM     13  C   UNL d   1      -2.250   0.018   2.087  0.00  0.00     0.041 A 
ATOM     14  C   UNL d   1      -3.613   0.238   2.335  0.00  0.00     0.049 A 
ATOM     15  C   UNL d   1      -4.464   0.525   1.253  0.00  0.00     0.016 A 
ATOM     16  C   UNL d   1      -3.969   0.578  -0.053  0.00  0.00     0.002 A 
ATOM     17  C   UNL d   1      -2.611   0.368  -0.292  0.00  0.00     0.025 A 
BRANCH  14  18
ATOM     18  C   UNL d   1      -4.165   0.184   3.739  0.00  0.00     0.417 C 
ATOM     19  F   UNL d   1      -3.225  -0.116   4.678  0.00  0.00    -0.166 F 
ATOM     20  F   UNL d   1      -4.716   1.366   4.125  0.00  0.00    -0.166 F 
ATOM     21  F   UNL d   1      -5.144  -0.751   3.878  0.00  0.00    -0.166 F 
ENDBRANCH  14  18
ENDBRANCH   9  12
ENDBRANCH   7   9
ENDBRANCH   1   7
BRANCH   2  22
ATOM     22  N   UNL d   1       3.279   1.176   1.665  0.00  0.00    -0.379 N 
ATOM     23  C   UNL d   1       3.387   1.213   0.207  0.00  0.00     0.123 C 
ATOM     24  C   UNL d   1       4.829   1.548  -0.181  0.00  0.00     0.020 C 
ATOM     25  C   UNL d   1       5.835   0.621   0.497  0.00  0.00     0.003 C 
ATOM     26  C   UNL d   1       5.622   0.601   2.009  0.00  0.00     0.020 C 
ATOM     27  C   UNL d   1       4.176   0.237   2.346  0.00  0.00     0.123 C 
ENDBRANCH   2  22
BRANCH   4  28
ATOM     28  C   UNL d   1      -0.621   4.245   4.485  0.00  0.00     0.293 C 
ATOM     29  O   UNL d   1      -1.743   4.438   4.052  0.00  0.00    -0.259 OA
BRANCH  28  30
ATOM     30  O   UNL d   1      -0.069   4.832   5.575  0.00  0.00    -0.318 OA
BRANCH  30  31
ATOM     31  C   UNL d   1      -0.871   5.830   6.223  0.00  0.00     0.174 C 
ATOM     32  C   UNL d   1      -1.868   5.187   7.168  0.00  0.00     0.034 C 
ENDBRANCH  30  31
ENDBRANCH  28  30
ENDBRANCH   4  28
TORSDOF 8
