REMARK  5 active torsions:
REMARK  status: ('A' for Active; 'I' for Inactive)
REMARK    1  A    between atoms: C_2  and  S_1 
REMARK    2  A    between atoms: N_4  and  S_1 
REMARK    3  A    between atoms: C_13  and  N_6 
REMARK    4  A    between atoms: C_16  and  C_13 
REMARK    5  A    between atoms: C_17  and  C_13 
ROOT
ATOM      1  N   UNL d   1       0.589  -0.599  -1.170  0.00  0.00    -0.203 NA
ATOM      2  N   UNL d   1      -1.434  -2.692  -0.458  0.00  0.00     0.104 N 
ATOM      3  C   UNL d   1      -0.874  -0.339  -1.284  0.00  0.00     0.138 C 
ATOM      4  C   UNL d   1       0.886  -2.053  -1.334  0.00  0.00     0.138 C 
ATOM      5  C   UNL d   1      -1.673  -1.235  -0.313  0.00  0.00     0.289 C 
ATOM      6  C   UNL d   1       0.039  -2.915  -0.375  0.00  0.00     0.289 C 
ENDROOT
BRANCH   2   7
ATOM      7  C   UNL d   1      -2.034  -3.283  -1.691  0.00  0.00     0.289 C 
BRANCH   7   8
ATOM      8  C   UNL d   1      -1.813  -4.799  -1.747  0.00  0.00    -0.021 A 
ATOM      9  C   UNL d   1      -2.297  -5.638  -0.727  0.00  0.00     0.010 A 
ATOM     10  C   UNL d   1      -2.096  -7.015  -0.782  0.00  0.00     0.001 A 
ATOM     11  C   UNL d   1      -1.399  -7.577  -1.849  0.00  0.00     0.000 A 
ATOM     12  C   UNL d   1      -0.893  -6.758  -2.857  0.00  0.00     0.001 A 
ATOM     13  C   UNL d   1      -1.100  -5.378  -2.810  0.00  0.00     0.010 A 
ENDBRANCH   7   8
BRANCH   7  14
ATOM     14  C   UNL d   1      -3.528  -2.970  -1.901  0.00  0.00    -0.021 A 
ATOM     15  C   UNL d   1      -4.024  -2.805  -3.207  0.00  0.00     0.010 A 
ATOM     16  C   UNL d   1      -5.369  -2.496  -3.432  0.00  0.00     0.001 A 
ATOM     17  C   UNL d   1      -6.242  -2.353  -2.356  0.00  0.00     0.000 A 
ATOM     18  C   UNL d   1      -5.779  -2.548  -1.057  0.00  0.00     0.001 A 
ATOM     19  C   UNL d   1      -4.438  -2.871  -0.833  0.00  0.00     0.010 A 
ENDBRANCH   7  14
ENDBRANCH   2   7
BRANCH   1  20
ATOM     20  S   UNL d   1       1.383   0.177   0.125  0.00  0.00     0.250 S 
ATOM     21  O   UNL d   1       0.445   0.390   1.204  0.00  0.00    -0.205 OA
ATOM     22  O   UNL d   1       2.658  -0.464   0.350  0.00  0.00    -0.205 OA
BRANCH  20  23
ATOM     23  C   UNL d   1       1.796   1.823  -0.409  0.00  0.00     0.116 A 
ATOM     24  S   UNL d   1       2.855   1.941  -1.751  0.00  0.00    -0.070 SA
ATOM     25  C   UNL d   1       2.857   3.632  -1.664  0.00  0.00     0.052 A 
ATOM     26 BR   UNL d   1       3.853   4.714  -2.823  0.00  0.00    -0.043 Br
ATOM     27  C   UNL d   1       2.058   4.129  -0.665  0.00  0.00     0.028 A 
ATOM     28  C   UNL d   1       1.439   3.073   0.067  0.00  0.00     0.034 A 
ENDBRANCH  20  23
ENDBRANCH   1  20
TORSDOF 5
