REMARK  7 active torsions:
REMARK  status: ('A' for Active; 'I' for Inactive)
REMARK    1  A    between atoms: C_3  and  C_1 
REMARK    2  A    between atoms: C_6  and  C_2 
REMARK       I    between atoms: N_15  and  C_3 
REMARK    3  A    between atoms: O_19  and  C_8 
REMARK    4  A    between atoms: O_20  and  C_9 
REMARK    5  A    between atoms: C_21  and  N_15 
REMARK    6  A    between atoms: C_17  and  C_22 
REMARK    7  A    between atoms: C_22  and  C_21 
ROOT
ATOM      1  C   UNL d   1       0.955   0.026   0.028  0.00  0.00     0.114 C 
ATOM      2  C   UNL d   1       2.300   0.057   0.126  0.00  0.00     0.058 C 
ATOM      3  C   UNL d   1       0.086   0.570   1.009  0.00  0.00     0.105 C 
ATOM      4  N   UNL d   1      -0.698   0.978   1.763  0.00  0.00    -0.191 NA
ENDROOT
BRANCH   1   5
ATOM      5  C   UNL d   1       0.347  -0.600  -1.195  0.00  0.00     0.262 C 
ATOM      6  O   UNL d   1       1.039  -1.060  -2.098  0.00  0.00    -0.267 OA
ATOM      7  N   UNL d   1      -1.034  -0.632  -1.226  0.00  0.00    -0.356 N 
ATOM      8  H   UNL d   1      -1.584  -0.247  -0.466  0.00  0.00     0.162 HD
BRANCH   7   9
ATOM      9  C   UNL d   1      -1.758  -1.241  -2.328  0.00  0.00     0.127 C 
BRANCH   9  10
ATOM     10  C   UNL d   1      -3.275  -1.185  -2.113  0.00  0.00     0.058 C 
BRANCH  10  11
ATOM     11  C   UNL d   1      -4.053  -1.764  -3.269  0.00  0.00    -0.054 A 
ATOM     12  C   UNL d   1      -4.948  -0.964  -4.002  0.00  0.00     0.046 A 
ATOM     13  C   UNL d   1      -5.675  -1.484  -5.086  0.00  0.00     0.102 A 
ATOM     14  C   UNL d   1      -5.478  -2.826  -5.451  0.00  0.00     0.101 A 
ATOM     15  C   UNL d   1      -4.617  -3.632  -4.697  0.00  0.00     0.040 A 
ATOM     16  C   UNL d   1      -3.912  -3.110  -3.615  0.00  0.00     0.010 A 
BRANCH  13  17
ATOM     17  O   UNL d   1      -6.593  -0.760  -5.799  0.00  0.00    -0.353 OA
ATOM     18  C   UNL d   1      -6.847   0.581  -5.406  0.00  0.00     0.210 C 
ENDBRANCH  13  17
BRANCH  14  19
ATOM     19  O   UNL d   1      -6.094  -3.504  -6.473  0.00  0.00    -0.353 OA
ATOM     20  C   UNL d   1      -6.376  -2.754  -7.649  0.00  0.00     0.210 C 
ENDBRANCH  14  19
ENDBRANCH  10  11
ENDBRANCH   9  10
ENDBRANCH   7   9
ENDBRANCH   1   5
BRANCH   2  21
ATOM     21  C   UNL d   1       2.987   0.582   1.254  0.00  0.00     0.033 A 
ATOM     22  N   UNL d   1       4.193   1.218   1.054  0.00  0.00    -0.366 N 
ATOM     23  C   UNL d   1       4.670   1.694   2.249  0.00  0.00     0.088 A 
ATOM     24  H   UNL d   1       4.648   1.351   0.161  0.00  0.00     0.165 HD
ATOM     25  C   UNL d   1       3.790   1.325   3.238  0.00  0.00     0.019 A 
ATOM     26  C   UNL d   1       2.741   0.610   2.616  0.00  0.00     0.031 A 
ENDBRANCH   2  21
TORSDOF 7
