REMARK  6 active torsions:
REMARK  status: ('A' for Active; 'I' for Inactive)
REMARK    1  A    between atoms: C_2  and  C_1 
REMARK       I    between atoms: N_6  and  C_2 
REMARK    2  A    between atoms: C_3  and  C_13 
REMARK    3  A    between atoms: C_16  and  C_4 
REMARK    4  A    between atoms: C_5  and  N_7 
REMARK    5  A    between atoms: N_14  and  C_5 
REMARK    6  A    between atoms: N_7  and  N_6 
ROOT
ATOM      1  C   UNL d   1       4.205   0.905   0.409  0.00  0.00     0.050 A 
ATOM      2  N   UNL d   1       3.739  -1.339  -0.439  0.00  0.00    -0.373 N 
ATOM      3  HN  UNL d   1       4.080  -2.241  -0.771  1.00  0.00     0.164 HD
ATOM      4  C   UNL d   1       2.819   1.149   0.442  0.00  0.00     0.040 A 
ATOM      5  C   UNL d   1       1.916   0.157   0.047  0.00  0.00     0.034 A 
ATOM      6  C   UNL d   1       4.594  -0.366  -0.009  0.00  0.00     0.104 A 
ATOM      7  C   UNL d   1       2.420  -1.053  -0.405  0.00  0.00     0.108 A 
ENDROOT
BRANCH   1   8
ATOM      8  C   UNL d   1       5.131   2.019   0.832  0.00  0.00     0.271 C 
ATOM      9  N   UNL d   1       6.503   1.818   0.830  0.00  0.00    -0.264 N 
ATOM     10  H   UNL d   1       6.940   0.988   0.445  0.00  0.00     0.190 HD
ATOM     11  O   UNL d   1       4.641   3.100   1.166  0.00  0.00    -0.266 OA
BRANCH   9  12
ATOM     12  N   UNL d   1       7.416   2.863   1.205  0.00  0.00    -0.274 N 
ATOM     13  H   UNL d   1       6.982   3.674   1.645  0.00  0.00     0.189 HD
BRANCH  12  14
ATOM     14  C   UNL d   1       8.661   2.549   1.759  0.00  0.00     0.186 C 
ATOM     15  S   UNL d   1       9.187   0.991   2.064  0.00  0.00    -0.040 SA
BRANCH  14  16
ATOM     16  N   UNL d   1       9.375   3.709   2.013  0.00  0.00    -0.370 N 
ATOM     17  C   UNL d   1      10.699   3.845   2.596  0.00  0.00     0.148 C 
ATOM     18  H   UNL d   1       8.990   4.562   1.629  0.00  0.00     0.161 HD
ENDBRANCH  14  16
ENDBRANCH  12  14
ENDBRANCH   9  12
ENDBRANCH   1   8
BRANCH   5  19
ATOM     19  C   UNL d   1       0.495   0.320   0.110  0.00  0.00    -0.060 C 
ATOM     20  C   UNL d   1      -0.689   0.291   0.120  0.00  0.00    -0.061 C 
BRANCH  20  21
ATOM     21  C   UNL d   1      -2.118   0.147   0.081  0.00  0.00     0.018 A 
ATOM     22  C   UNL d   1      -2.716  -1.050   0.484  0.00  0.00     0.020 A 
ATOM     23  C   UNL d   1      -4.103  -1.192   0.421  0.00  0.00     0.001 A 
ATOM     24  C   UNL d   1      -4.889  -0.139  -0.049  0.00  0.00     0.000 A 
ATOM     25  C   UNL d   1      -4.291   1.053  -0.458  0.00  0.00     0.001 A 
ATOM     26  C   UNL d   1      -2.905   1.196  -0.395  0.00  0.00     0.020 A 
ENDBRANCH  20  21
ENDBRANCH   5  19
TORSDOF 6
