REMARK  5 active torsions:
REMARK  status: ('A' for Active; 'I' for Inactive)
REMARK    1  A    between atoms: O_3  and  C_1 
REMARK    2  A    between atoms: C_10  and  C_2 
REMARK    3  A    between atoms: C_5  and  O_3 
REMARK    4  A    between atoms: C_4  and  C_7 
REMARK    5  A    between atoms: C_8  and  C_5 
ROOT
ATOM      1  O   UNL d   1      -2.398  -1.993   0.358  0.00  0.00    -0.272 OA
ENDROOT
BRANCH   1   2
ATOM      2  C   UNL d   1      -1.136  -1.326   0.422  0.00  0.00     0.115 A 
ATOM      3  C   UNL d   1      -0.021  -2.166   0.222  0.00  0.00     0.047 A 
ATOM      4  C   UNL d   1       1.251  -1.613   0.004  0.00  0.00     0.042 A 
ATOM      5  C   UNL d   1       1.423  -0.235   0.051  0.00  0.00     0.036 A 
ATOM      6  C   UNL d   1       0.347   0.592   0.352  0.00  0.00     0.050 A 
ATOM      7 CL   UNL d   1       2.969   0.446  -0.254  0.00  0.00    -0.084 Cl
ATOM      8  C   UNL d   1      -0.935   0.055   0.543  0.00  0.00     0.070 A 
ATOM      9 CL   UNL d   1      -2.153   1.193   0.964  0.00  0.00    -0.081 Cl
BRANCH   3  10
ATOM     10  C   UNL d   1      -0.101  -3.646   0.186  0.00  0.00     0.158 C 
ATOM     11  O   UNL d   1       0.581  -4.255  -0.639  0.00  0.00    -0.293 OA
ATOM     12  C   UNL d   1      -0.916  -4.385   1.218  0.00  0.00     0.097 C 
ENDBRANCH   3  10
ENDBRANCH   1   2
BRANCH   1  13
ATOM     13  C   UNL d   1      -3.650  -1.459   0.098  0.00  0.00     0.298 C 
ATOM     14  O   UNL d   1      -4.302  -0.760   0.858  0.00  0.00    -0.259 OA
BRANCH  13  15
ATOM     15  C   UNL d   1      -4.180  -1.972  -1.204  0.00  0.00     0.040 A 
ATOM     16  C   UNL d   1      -3.544  -2.999  -1.923  0.00  0.00     0.033 A 
ATOM     17  C   UNL d   1      -4.040  -3.410  -3.172  0.00  0.00     0.048 A 
ATOM     18  C   UNL d   1      -5.200  -2.803  -3.684  0.00  0.00     0.016 A 
ATOM     19  C   UNL d   1      -5.846  -1.802  -2.961  0.00  0.00     0.002 A 
ATOM     20  C   UNL d   1      -5.338  -1.385  -1.730  0.00  0.00     0.017 A 
BRANCH  17  21
ATOM     21  C   UNL d   1      -3.320  -4.466  -3.982  0.00  0.00     0.417 C 
ATOM     22  F   UNL d   1      -2.239  -4.989  -3.345  0.00  0.00    -0.166 F 
ATOM     23  F   UNL d   1      -4.120  -5.523  -4.295  0.00  0.00    -0.166 F 
ATOM     24  F   UNL d   1      -2.860  -3.978  -5.165  0.00  0.00    -0.166 F 
ENDBRANCH  17  21
ENDBRANCH  13  15
ENDBRANCH   1  13
TORSDOF 5
