REMARK  6 active torsions:
REMARK  status: ('A' for Active; 'I' for Inactive)
REMARK    1  A    between atoms: C_3  and  S_1 
REMARK    2  A    between atoms: N_11  and  S_1 
REMARK    3  A    between atoms: C_2  and  C_12 
REMARK    4  A    between atoms: N_7  and  C_6 
REMARK    5  A    between atoms: C_17  and  C_8 
REMARK    6  A    between atoms: C_12  and  N_11 
ROOT
ATOM      1  N   UNL d   1       0.329   1.532   0.369  0.00  0.00    -0.311 N 
ATOM      2  H   UNL d   1      -0.305   1.863  -0.359  0.00  0.00     0.172 HD
ENDROOT
BRANCH   1   3
ATOM      3  S   UNL d   1       0.869  -0.028   0.126  0.00  0.00     0.261 S 
ATOM      4  O   UNL d   1      -0.209  -0.729  -0.528  0.00  0.00    -0.200 OA
ATOM      5  O   UNL d   1       2.180   0.029  -0.465  0.00  0.00    -0.200 OA
BRANCH   3   6
ATOM      6  C   UNL d   1       0.987  -0.663   1.771  0.00  0.00     0.112 A 
ATOM      7  C   UNL d   1       2.193  -0.746   2.467  0.00  0.00     0.126 A 
ATOM      8  C   UNL d   1       2.236  -1.200   3.792  0.00  0.00     0.038 A 
ATOM      9  C   UNL d   1       1.057  -1.600   4.417  0.00  0.00     0.003 A 
ATOM     10  C   UNL d   1      -0.150  -1.561   3.718  0.00  0.00     0.002 A 
ATOM     11  C   UNL d   1      -0.187  -1.103   2.398  0.00  0.00     0.028 A 
BRANCH   7  12
ATOM     12  N   UNL d   1       3.451  -0.306   1.902  0.00  0.00    -0.114 N 
ATOM     13  O   UNL d   1       3.639   0.917   1.859  0.00  0.00    -0.532 OA
ATOM     14  O   UNL d   1       4.273  -1.186   1.620  0.00  0.00    -0.532 OA
ENDBRANCH   7  12
ENDBRANCH   3   6
ENDBRANCH   1   3
BRANCH   1  15
ATOM     15  C   UNL d   1       1.129   2.487   1.113  0.00  0.00     0.176 C 
BRANCH  15  16
ATOM     16  C   UNL d   1       0.463   3.816   1.235  0.00  0.00     0.021 A 
ATOM     17  C   UNL d   1      -0.915   4.226   1.175  0.00  0.00     0.075 A 
ATOM     18  N   UNL d   1      -1.010   5.559   1.314  0.00  0.00    -0.260 N 
ATOM     19  O   UNL d   1       0.261   6.027   1.536  0.00  0.00    -0.242 OA
ATOM     20  HN  UNL d   1      -1.863   6.116   1.264  1.00  0.00     0.195 HD
ATOM     21  C   UNL d   1       1.134   4.994   1.512  0.00  0.00     0.083 A 
ATOM     22  C   UNL d   1       2.546   5.324   1.794  0.00  0.00     0.079 C 
BRANCH  17  23
ATOM     23  C   UNL d   1      -2.132   3.433   0.975  0.00  0.00    -0.007 A 
ATOM     24  C   UNL d   1      -3.172   3.929   0.175  0.00  0.00     0.014 A 
ATOM     25  C   UNL d   1      -4.313   3.160  -0.068  0.00  0.00     0.001 A 
ATOM     26  C   UNL d   1      -4.421   1.882   0.475  0.00  0.00     0.000 A 
ATOM     27  C   UNL d   1      -3.410   1.388   1.294  0.00  0.00     0.001 A 
ATOM     28  C   UNL d   1      -2.286   2.172   1.566  0.00  0.00     0.014 A 
ENDBRANCH  17  23
ENDBRANCH  15  16
ENDBRANCH   1  15
TORSDOF 6
