REMARK  2 active torsions:
REMARK  status: ('A' for Active; 'I' for Inactive)
REMARK       I    between atoms: N_2  and  C_1 
REMARK       I    between atoms: N_3  and  C_1 
REMARK    1  A    between atoms: C_5  and  N_2 
REMARK    2  A    between atoms: C_12  and  N_3 
ROOT
ATOM      1  C   UNL d   1       1.039   0.122  -0.004  0.00  0.00     0.325 C 
ATOM      2  N   UNL d   1       0.445  -1.130   0.035  0.00  0.00    -0.309 N 
ATOM      3  N   UNL d   1       0.147   1.101  -0.414  0.00  0.00    -0.309 N 
ATOM      4  O   UNL d   1       2.210   0.345   0.276  0.00  0.00    -0.247 OA
ATOM      5  H   UNL d   1      -0.410  -1.235  -0.488  0.00  0.00     0.170 HD
ATOM      6  H   UNL d   1      -0.828   0.925  -0.222  0.00  0.00     0.170 HD
ENDROOT
BRANCH   2   7
ATOM      7  C   UNL d   1       1.093  -2.321   0.446  0.00  0.00     0.037 A 
ATOM      8  C   UNL d   1       2.291  -2.329   1.163  0.00  0.00     0.043 A 
ATOM      9  C   UNL d   1       2.931  -3.531   1.501  0.00  0.00    -0.007 A 
ATOM     10  C   UNL d   1       4.152  -3.529   2.186  0.00  0.00     0.015 A 
ATOM     11  C   UNL d   1       2.360  -4.767   1.149  0.00  0.00     0.042 A 
ATOM     12  C   UNL d   1       4.766  -4.734   2.499  0.00  0.00     0.018 A 
ATOM     13  C   UNL d   1       4.131  -5.899   2.116  0.00  0.00     0.088 A 
ATOM     14  N   UNL d   1       2.950  -5.938   1.455  0.00  0.00    -0.365 N 
ATOM     15  HN  UNL d   1       2.521  -6.827   1.196  1.00  0.00     0.165 HD
ATOM     16  C   UNL d   1       1.150  -4.747   0.466  0.00  0.00     0.033 A 
ATOM     17  C   UNL d   1       0.512  -3.546   0.116  0.00  0.00     0.032 A 
ENDBRANCH   2   7
BRANCH   3  18
ATOM     18  C   UNL d   1       0.510   2.425  -0.756  0.00  0.00     0.036 A 
ATOM     19  C   UNL d   1       1.821   2.789  -1.091  0.00  0.00     0.031 A 
ATOM     20  C   UNL d   1       2.137   4.107  -1.425  0.00  0.00     0.026 A 
ATOM     21  C   UNL d   1       1.140   5.072  -1.439  0.00  0.00     0.034 A 
ATOM     22  C   UNL d   1      -0.174   4.726  -1.125  0.00  0.00     0.026 A 
ATOM     23 CL   UNL d   1       1.526   6.696  -1.854  0.00  0.00    -0.084 Cl
ATOM     24  C   UNL d   1      -0.490   3.403  -0.790  0.00  0.00     0.031 A 
ENDBRANCH   3  18
TORSDOF 2
