REMARK  7 active torsions:
REMARK  status: ('A' for Active; 'I' for Inactive)
REMARK       I    between atoms: C_2  and  N_1 
REMARK       I    between atoms: N_7  and  C_2 
REMARK    1  A    between atoms: C_5  and  C_3 
REMARK    2  A    between atoms: C_6  and  C_5 
REMARK       I    between atoms: N_9  and  C_6 
REMARK    3  A    between atoms: C_13  and  N_7 
REMARK    4  A    between atoms: C_14  and  N_9 
REMARK    5  A    between atoms: O_15  and  C_17 
REMARK    6  A    between atoms: C_20  and  O_15 
REMARK    7  A    between atoms: C_30  and  C_20 
ROOT
ATOM      1  N   UNL d   1      -1.437  -1.078   0.367  0.00  0.00    -0.318 N 
ATOM      2  C   UNL d   1      -2.280  -1.933   1.069  0.00  0.00     0.323 C 
ATOM      3  C   UNL d   1       0.052  -1.213   0.448  0.00  0.00     0.189 C 
ATOM      4  C   UNL d   1       0.654   0.015   1.192  0.00  0.00     0.241 C 
ATOM      5  N   UNL d   1      -3.629  -1.724   0.913  0.00  0.00    -0.309 N 
ATOM      6  N   UNL d   1       0.070   1.240   0.943  0.00  0.00    -0.358 N 
ATOM      7  O   UNL d   1      -1.832  -2.862   1.732  0.00  0.00    -0.247 OA
ATOM      8  O   UNL d   1       1.701  -0.007   1.826  0.00  0.00    -0.271 OA
ATOM      9  C   UNL d   1      -1.837   0.201  -0.253  0.00  0.00     0.148 C 
ATOM     10  C   UNL d   1      -1.325   1.372   0.589  0.00  0.00     0.142 C 
ATOM     11  H   UNL d   1      -3.931  -0.972   0.325  0.00  0.00     0.170 HD
ATOM     12  H   UNL d   1       0.519   1.995   1.449  0.00  0.00     0.162 HD
ENDROOT
BRANCH   3  13
ATOM     13  C   UNL d   1       0.715  -2.494   0.983  0.00  0.00     0.138 C 
BRANCH  13  14
ATOM     14  C   UNL d   1       0.653  -3.652   0.008  0.00  0.00     0.224 C 
ATOM     15  N   UNL d   1      -0.336  -4.577   0.287  0.00  0.00    -0.327 N 
ATOM     16  H   UNL d   1      -1.054  -4.266   0.944  0.00  0.00     0.169 HD
ATOM     17  O   UNL d   1       1.431  -3.697  -0.942  0.00  0.00    -0.273 OA
BRANCH  15  18
ATOM     18  C   UNL d   1      -0.565  -5.788  -0.400  0.00  0.00     0.034 A 
ATOM     19  C   UNL d   1       0.404  -6.405  -1.200  0.00  0.00     0.032 A 
ATOM     20  C   UNL d   1       0.101  -7.566  -1.917  0.00  0.00     0.044 A 
ATOM     21  C   UNL d   1      -1.171  -8.114  -1.827  0.00  0.00     0.116 A 
ATOM     22  C   UNL d   1      -2.131  -7.547  -0.998  0.00  0.00     0.044 A 
ATOM     23  F   UNL d   1      -1.475  -9.201  -2.549  0.00  0.00    -0.206 F 
ATOM     24  C   UNL d   1      -1.823  -6.392  -0.271  0.00  0.00     0.032 A 
ENDBRANCH  15  18
ENDBRANCH  13  14
ENDBRANCH   3  13
BRANCH   5  25
ATOM     25  C   UNL d   1      -4.678  -2.573   1.337  0.00  0.00     0.036 A 
ATOM     26  C   UNL d   1      -4.499  -3.772   2.029  0.00  0.00     0.032 A 
ATOM     27  C   UNL d   1      -5.587  -4.614   2.281  0.00  0.00     0.039 A 
ATOM     28  C   UNL d   1      -6.871  -4.256   1.880  0.00  0.00     0.069 A 
ATOM     29  C   UNL d   1      -7.065  -3.037   1.232  0.00  0.00     0.039 A 
ATOM     30  C   UNL d   1      -5.976  -2.199   0.971  0.00  0.00     0.032 A 
BRANCH  28  31
ATOM     31  O   UNL d   1      -7.842  -5.174   2.161  0.00  0.00    -0.347 OA
BRANCH  31  32
ATOM     32  C   UNL d   1      -9.185  -4.707   2.070  0.00  0.00     0.214 C 
BRANCH  32  33
ATOM     33  C   UNL d   1     -10.093  -5.718   2.720  0.00  0.00    -0.034 A 
ATOM     34  C   UNL d   1     -10.717  -5.424   3.941  0.00  0.00     0.009 A 
ATOM     35  C   UNL d   1     -11.567  -6.352   4.540  0.00  0.00     0.001 A 
ATOM     36  C   UNL d   1     -11.797  -7.583   3.930  0.00  0.00     0.000 A 
ATOM     37  C   UNL d   1     -11.173  -7.891   2.722  0.00  0.00     0.001 A 
ATOM     38  C   UNL d   1     -10.322  -6.964   2.120  0.00  0.00     0.009 A 
ENDBRANCH  32  33
ENDBRANCH  31  32
ENDBRANCH  28  31
ENDBRANCH   5  25
TORSDOF 7
