REMARK  4 active torsions:
REMARK  status: ('A' for Active; 'I' for Inactive)
REMARK    1  A    between atoms: C_8  and  C_4 
REMARK    2  A    between atoms: O_17  and  C_5 
REMARK    3  A    between atoms: O_18  and  C_6 
REMARK    4  A    between atoms: O_19  and  C_7 
ROOT
ATOM      1  C   UNL d   1      -5.895  -0.748  -0.324  0.00  0.00     0.135 A 
ATOM      2  C   UNL d   1      -5.390  -1.531   0.745  0.00  0.00     0.105 A 
ATOM      3  C   UNL d   1      -4.988  -0.281  -1.305  0.00  0.00     0.105 A 
ATOM      4  C   UNL d   1      -3.125  -1.292  -0.110  0.00  0.00    -0.029 A 
ATOM      5  C   UNL d   1      -4.013  -1.798   0.831  0.00  0.00     0.051 A 
ATOM      6  C   UNL d   1      -3.616  -0.548  -1.174  0.00  0.00     0.051 A 
ENDROOT
BRANCH   4   7
ATOM      7  C   UNL d   1      -1.704  -1.603   0.008  0.00  0.00     0.039 C 
ATOM      8  C   UNL d   1      -1.107  -2.678  -0.517  0.00  0.00     0.058 C 
ATOM      9  C   UNL d   1      -1.779  -3.743  -1.377  0.00  0.00     0.174 C 
ATOM     10  N   UNL d   1       0.257  -3.008  -0.298  0.00  0.00    -0.280 NA
ATOM     11  C   UNL d   1      -0.788  -4.850  -1.725  0.00  0.00     0.064 C 
ATOM     12  O   UNL d   1      -2.950  -3.746  -1.749  0.00  0.00    -0.291 OA
ATOM     13  C   UNL d   1       0.386  -4.179  -2.464  0.00  0.00     0.027 C 
ATOM     14  C   UNL d   1      -0.292  -5.415  -0.380  0.00  0.00     0.027 C 
ATOM     15  C   UNL d   1       1.031  -3.099  -1.569  0.00  0.00     0.096 C 
ATOM     16  C   UNL d   1       0.411  -4.305   0.432  0.00  0.00     0.096 C 
ENDBRANCH   4   7
BRANCH   2  17
ATOM     17  O   UNL d   1      -6.256  -2.106   1.648  0.00  0.00    -0.353 OA
ATOM     18  C   UNL d   1      -5.746  -2.260   2.973  0.00  0.00     0.210 C 
ENDBRANCH   2  17
BRANCH   3  19
ATOM     19  O   UNL d   1      -5.222   0.409  -2.466  0.00  0.00    -0.353 OA
ATOM     20  C   UNL d   1      -6.487   0.968  -2.762  0.00  0.00     0.210 C 
ENDBRANCH   3  19
BRANCH   1  21
ATOM     21  O   UNL d   1      -7.206  -0.402  -0.506  0.00  0.00    -0.351 OA
ATOM     22  C   UNL d   1      -8.159  -0.551   0.535  0.00  0.00     0.210 C 
ENDBRANCH   1  21
TORSDOF 4
