REMARK  4 active torsions:
REMARK  status: ('A' for Active; 'I' for Inactive)
REMARK    1  A    between atoms: N_8  and  C_3 
REMARK    2  A    between atoms: N_9  and  C_4 
REMARK    3  A    between atoms: C_10  and  N_8 
REMARK    4  A    between atoms: O_16  and  C_11 
ROOT
ATOM      1  N   UNL d   1       0.095   1.013   0.779  0.00  0.00    -0.020 N 
ATOM      2  HN  UNL d   1      -0.263   1.922   1.072  1.00  0.00     0.203 HD
ATOM      3  C   UNL d   1       1.293   0.733   0.170  0.00  0.00     0.712 A 
ATOM      4  C   UNL d   1      -0.479  -0.151   0.899  0.00  0.00     0.705 A 
ATOM      5  N   UNL d   1       1.481  -0.566  -0.093  0.00  0.00    -0.117 N 
ATOM      6  HN  UNL d   1       2.272  -1.024  -0.547  1.00  0.00     0.206 HD
ATOM      7  N   UNL d   1       0.355  -1.107   0.400  0.00  0.00    -0.118 N 
ATOM      8  H   UNL d   1       0.219  -2.108   0.362  0.00  0.00     0.206 HD
ENDROOT
BRANCH   3   9
ATOM      9  N   UNL d   1       2.149   1.705  -0.196  0.00  0.00    -0.190 N 
ATOM     10  H   UNL d   1       2.927   1.399  -0.763  0.00  0.00     0.184 HD
BRANCH   9  11
ATOM     11  C   UNL d   1       2.094   3.096   0.010  0.00  0.00     0.049 A 
ATOM     12  C   UNL d   1       1.355   3.679   1.045  0.00  0.00     0.033 A 
ATOM     13  C   UNL d   1       1.214   5.067   1.150  0.00  0.00     0.039 A 
ATOM     14  C   UNL d   1       1.797   5.900   0.200  0.00  0.00     0.068 A 
ATOM     15  C   UNL d   1       2.571   5.339  -0.814  0.00  0.00     0.039 A 
ATOM     16  C   UNL d   1       2.713   3.950  -0.913  0.00  0.00     0.033 A 
BRANCH  14  17
ATOM     17  O   UNL d   1       1.690   7.263   0.178  0.00  0.00    -0.356 OA
ATOM     18  C   UNL d   1       0.522   7.789   0.804  0.00  0.00     0.210 C 
ENDBRANCH  14  17
ENDBRANCH   9  11
ENDBRANCH   3   9
BRANCH   4  19
ATOM     19  N   UNL d   1      -1.690  -0.420   1.413  0.00  0.00    -0.233 N 
ATOM     20  H   UNL d   1      -2.273   0.400   1.573  0.00  0.00     0.174 HD
ATOM     21  H   UNL d   1      -2.226  -1.217   1.090  0.00  0.00     0.174 HD
ENDBRANCH   4  19
TORSDOF 4
