REMARK  4 active torsions:
REMARK  status: ('A' for Active; 'I' for Inactive)
REMARK    1  A    between atoms: C_8  and  C_1 
REMARK    2  A    between atoms: N_2  and  C_7 
REMARK    3  A    between atoms: N_15  and  N_9 
REMARK    4  A    between atoms: C_19  and  N_15 
ROOT
ATOM      1  C   UNL d   1       4.007   0.086   0.068  0.00  0.00     0.126 C 
ATOM      2  N   UNL d   1       4.637   1.206   0.223  0.00  0.00    -0.310 N 
ATOM      3  HN  UNL d   1       4.140   2.083   0.378  1.00  0.00     0.186 HD
ENDROOT
BRANCH   2   4
ATOM      4  N   UNL d   1       6.002   1.156   0.167  0.00  0.00    -0.301 N 
ATOM      5  H   UNL d   1       6.426   0.552  -0.537  0.00  0.00     0.187 HD
BRANCH   4   6
ATOM      6  C   UNL d   1       6.644   2.415   0.267  0.00  0.00     0.048 A 
ATOM      7  C   UNL d   1       6.081   3.451   1.033  0.00  0.00     0.033 A 
ATOM      8  C   UNL d   1       6.700   4.699   1.132  0.00  0.00     0.038 A 
ATOM      9  C   UNL d   1       7.904   4.920   0.463  0.00  0.00     0.103 A 
ATOM     10  C   UNL d   1       8.504   3.892  -0.277  0.00  0.00     0.038 A 
ATOM     11  C   UNL d   1       7.880   2.639  -0.356  0.00  0.00     0.033 A 
BRANCH   9  12
ATOM     12  N   UNL d   1       8.536   6.242   0.532  0.00  0.00    -0.116 N 
ATOM     13  O   UNL d   1       7.967   7.127   1.185  0.00  0.00    -0.532 OA
ATOM     14  O   UNL d   1       9.608   6.397  -0.078  0.00  0.00    -0.532 OA
ENDBRANCH   9  12
ENDBRANCH   4   6
ENDBRANCH   2   4
BRANCH   1  15
ATOM     15  C   UNL d   1       2.558   0.045   0.065  0.00  0.00     0.029 A 
ATOM     16  S   UNL d   1       1.817  -1.219  -0.810  0.00  0.00    -0.088 SA
ATOM     17  C   UNL d   1       0.234  -0.660  -0.457  0.00  0.00     0.016 A 
ATOM     18  C   UNL d   1      -0.981  -1.235  -0.887  0.00  0.00     0.021 A 
ATOM     19  C   UNL d   1       0.265   0.479   0.348  0.00  0.00    -0.010 A 
ATOM     20  C   UNL d   1      -2.187  -0.652  -0.491  0.00  0.00     0.025 A 
ATOM     21  C   UNL d   1      -2.183   0.476   0.314  0.00  0.00     0.035 A 
ATOM     22  C   UNL d   1      -0.980   1.046   0.738  0.00  0.00     0.037 A 
ATOM     23 CL   UNL d   1      -3.676   1.185   0.794  0.00  0.00    -0.084 Cl
ATOM     24  C   UNL d   1       1.627   0.889   0.653  0.00  0.00    -0.032 A 
ATOM     25  C   UNL d   1       1.934   2.073   1.519  0.00  0.00     0.050 C 
ENDBRANCH   1  15
TORSDOF 4
