REMARK  5 active torsions:
REMARK  status: ('A' for Active; 'I' for Inactive)
REMARK       I    between atoms: N_2  and  C_1 
REMARK       I    between atoms: N_3  and  C_1 
REMARK    1  A    between atoms: C_5  and  N_2 
REMARK    2  A    between atoms: C_8  and  N_3 
REMARK    3  A    between atoms: S_10  and  C_7 
REMARK    4  A    between atoms: C_9  and  C_8 
REMARK    5  A    between atoms: O_16  and  C_11 
ROOT
ATOM      1  C   UNL d   1       0.846   0.023  -0.087  0.00  0.00     0.320 C 
ATOM      2  N   UNL d   1       2.217  -0.124  -0.203  0.00  0.00    -0.309 N 
ATOM      3  N   UNL d   1       0.158  -0.874  -0.871  0.00  0.00    -0.339 N 
ATOM      4  O   UNL d   1       0.261   0.835   0.613  0.00  0.00    -0.247 OA
ATOM      5  H   UNL d   1       2.555  -0.719  -0.942  0.00  0.00     0.170 HD
ATOM      6  H   UNL d   1       0.652  -1.492  -1.490  0.00  0.00     0.164 HD
ENDROOT
BRANCH   2   7
ATOM      7  C   UNL d   1       3.190   0.614   0.517  0.00  0.00     0.037 A 
ATOM      8  C   UNL d   1       2.868   1.361   1.654  0.00  0.00     0.048 A 
ATOM      9  C   UNL d   1       3.826   2.100   2.353  0.00  0.00     0.002 A 
ATOM     10  C   UNL d   1       5.142   2.091   1.886  0.00  0.00     0.018 A 
ATOM     11  C   UNL d   1       5.489   1.337   0.759  0.00  0.00     0.004 A 
ATOM     12  C   UNL d   1       4.518   0.588   0.085  0.00  0.00     0.029 A 
BRANCH   9  13
ATOM     13  S   UNL d   1       3.460   3.051   3.827  0.00  0.00    -0.134 SA
ATOM     14  C   UNL d   1       1.681   2.758   4.075  0.00  0.00     0.095 C 
ENDBRANCH   9  13
ENDBRANCH   2   7
BRANCH   3  15
ATOM     15  C   UNL d   1      -1.291  -0.911  -0.884  0.00  0.00     0.162 C 
BRANCH  15  16
ATOM     16  C   UNL d   1      -1.809  -2.244  -0.405  0.00  0.00    -0.040 A 
ATOM     17  C   UNL d   1      -1.569  -2.664   0.912  0.00  0.00     0.011 A 
ATOM     18  C   UNL d   1      -2.026  -3.907   1.364  0.00  0.00     0.037 A 
ATOM     19  C   UNL d   1      -2.737  -4.744   0.506  0.00  0.00     0.068 A 
ATOM     20  C   UNL d   1      -3.022  -4.313  -0.791  0.00  0.00     0.037 A 
ATOM     21  C   UNL d   1      -2.555  -3.077  -1.249  0.00  0.00     0.011 A 
BRANCH  19  22
ATOM     22  O   UNL d   1      -3.239  -5.972   0.840  0.00  0.00    -0.356 OA
ATOM     23  C   UNL d   1      -2.490  -6.694   1.813  0.00  0.00     0.210 C 
ENDBRANCH  19  22
ENDBRANCH  15  16
ENDBRANCH   3  15
TORSDOF 5
