REMARK  7 active torsions:
REMARK  status: ('A' for Active; 'I' for Inactive)
REMARK    1  A    between atoms: C_11  and  N_1 
REMARK    2  A    between atoms: S_9  and  C_2 
REMARK    3  A    between atoms: C_7  and  C_10 
REMARK    4  A    between atoms: C_10  and  S_9 
REMARK    5  A    between atoms: O_16  and  C_17 
REMARK    6  A    between atoms: C_20  and  O_16 
REMARK    7  A    between atoms: C_23  and  C_20 
ROOT
ATOM      1  N   UNL d   1      -0.499   1.023  -0.085  0.00  0.00    -0.286 N 
ATOM      2  C   UNL d   1      -1.248  -0.071   0.310  0.00  0.00     0.167 A 
ATOM      3  N   UNL d   1      -0.559  -1.178   0.136  0.00  0.00    -0.279 N 
ATOM      4  HN  UNL d   1      -0.858  -2.119   0.390  1.00  0.00     0.189 HD
ATOM      5  N   UNL d   1       0.638  -0.838  -0.452  0.00  0.00    -0.294 N 
ATOM      6  HN  UNL d   1       1.386  -1.481  -0.711  1.00  0.00     0.187 HD
ATOM      7  C   UNL d   1       0.642   0.467  -0.618  0.00  0.00     0.207 A 
ENDROOT
BRANCH   1   8
ATOM      8  C   UNL d   1      -0.787   2.409  -0.001  0.00  0.00     0.042 A 
ATOM      9  C   UNL d   1      -1.562   2.920   1.050  0.00  0.00     0.033 A 
ATOM     10  C   UNL d   1      -1.850   4.284   1.113  0.00  0.00     0.039 A 
ATOM     11  C   UNL d   1      -1.348   5.150   0.146  0.00  0.00     0.069 A 
ATOM     12  C   UNL d   1      -0.595   4.639  -0.913  0.00  0.00     0.039 A 
ATOM     13  C   UNL d   1      -0.289   3.278  -0.976  0.00  0.00     0.033 A 
BRANCH  11  14
ATOM     14  O   UNL d   1      -1.640   6.474   0.332  0.00  0.00    -0.347 OA
BRANCH  14  15
ATOM     15  C   UNL d   1      -0.722   7.370  -0.299  0.00  0.00     0.214 C 
BRANCH  15  16
ATOM     16  C   UNL d   1      -0.747   8.733   0.345  0.00  0.00    -0.034 A 
ATOM     17  C   UNL d   1       0.445   9.466   0.431  0.00  0.00     0.009 A 
ATOM     18  C   UNL d   1       0.452  10.750   0.977  0.00  0.00     0.001 A 
ATOM     19  C   UNL d   1      -0.736  11.315   1.435  0.00  0.00     0.000 A 
ATOM     20  C   UNL d   1      -1.928  10.596   1.346  0.00  0.00     0.001 A 
ATOM     21  C   UNL d   1      -1.939   9.313   0.799  0.00  0.00     0.009 A 
ENDBRANCH  15  16
ENDBRANCH  14  15
ENDBRANCH  11  14
ENDBRANCH   1   8
BRANCH   2  22
ATOM     22  S   UNL d   1      -2.936   0.017   0.690  0.00  0.00    -0.087 SA
BRANCH  22  23
ATOM     23  C   UNL d   1      -3.307  -1.656   1.268  0.00  0.00     0.126 C 
BRANCH  23  24
ATOM     24  C   UNL d   1      -4.731  -1.720   1.760  0.00  0.00     0.012 A 
ATOM     25  C   UNL d   1      -5.001  -1.430   3.104  0.00  0.00     0.125 A 
ATOM     26  F   UNL d   1      -3.994  -1.114   3.932  0.00  0.00    -0.205 F 
ATOM     27  C   UNL d   1      -6.296  -1.443   3.618  0.00  0.00     0.043 A 
ATOM     28  C   UNL d   1      -7.365  -1.747   2.783  0.00  0.00     0.005 A 
ATOM     29  C   UNL d   1      -7.130  -2.015   1.435  0.00  0.00     0.024 A 
ATOM     30  C   UNL d   1      -5.825  -1.993   0.924  0.00  0.00     0.044 A 
ATOM     31 CL   UNL d   1      -5.631  -2.294  -0.766  0.00  0.00    -0.084 Cl
ENDBRANCH  23  24
ENDBRANCH  22  23
ENDBRANCH   2  22
TORSDOF 7
