REMARK  3 active torsions:
REMARK  status: ('A' for Active; 'I' for Inactive)
REMARK    1  A    between atoms: N_2  and  C_1 
REMARK       I    between atoms: N_4  and  C_7 
REMARK    2  A    between atoms: C_6  and  N_4 
REMARK    3  A    between atoms: C_7  and  C_5 
ROOT
ATOM      1  N   UNL d   1      -2.159  -2.471  -0.184  0.00  0.00    -0.302 N 
ATOM      2  C   UNL d   1      -0.804  -2.446   0.109  0.00  0.00     0.281 C 
ATOM      3  O   UNL d   1      -0.120  -3.436   0.347  0.00  0.00    -0.265 OA
ATOM      4  H   UNL d   1      -2.569  -1.610  -0.521  0.00  0.00     0.171 HD
ENDROOT
BRANCH   2   5
ATOM      5  C   UNL d   1      -0.207  -1.124   0.046  0.00  0.00     0.146 A 
ATOM      6  O   UNL d   1      -0.996  -0.009  -0.100  0.00  0.00    -0.283 OA
ATOM      7  C   UNL d   1      -0.146   1.058  -0.086  0.00  0.00     0.215 A 
ATOM      8  C   UNL d   1       1.165   0.666   0.040  0.00  0.00     0.066 A 
ATOM      9  C   UNL d   1       1.124  -0.746   0.128  0.00  0.00     0.047 A 
BRANCH   7  10
ATOM     10  N   UNL d   1      -0.738   2.354  -0.190  0.00  0.00    -0.090 N 
ATOM     11  O   UNL d   1       0.043   3.316  -0.182  0.00  0.00    -0.530 OA
ATOM     12  O   UNL d   1      -1.970   2.417  -0.278  0.00  0.00    -0.530 OA
ENDBRANCH   7  10
ENDBRANCH   2   5
BRANCH   1  13
ATOM     13  C   UNL d   1      -3.046  -3.508  -0.139  0.00  0.00     0.142 C 
ATOM     14  N   UNL d   1      -4.223  -3.355  -0.642  0.00  0.00    -0.370 N 
ATOM     15  C   UNL d   1      -4.998  -4.602  -0.445  0.00  0.00     0.132 C 
ATOM     16  HN  UNL d   1      -4.564  -2.512  -1.103  1.00  0.00     0.161 HD
ATOM     17  C   UNL d   1      -4.059  -5.782  -0.244  0.00  0.00     0.102 C 
ATOM     18  S   UNL d   1      -2.656  -5.030   0.586  0.00  0.00    -0.092 SA
ENDBRANCH   1  13
TORSDOF 3
