REMARK  2 active torsions:
REMARK  status: ('A' for Active; 'I' for Inactive)
REMARK       I    between atoms: N_2  and  C_1 
REMARK    1  A    between atoms: C_6  and  C_1 
REMARK    2  A    between atoms: C_7  and  N_2 
ROOT
ATOM      1  C   UNL d   1       4.230  -4.311   0.729  0.00  0.00    -0.078 C 
ATOM      2  C   UNL d   1       5.392  -4.451   0.987  0.00  0.00     0.018 C 
ATOM      3  C   UNL d   1       1.031  -2.549  -0.036  0.00  0.00     0.036 A 
ATOM      4  C   UNL d   1       2.861  -4.096   0.366  0.00  0.00     0.019 A 
ATOM      5  C   UNL d   1       2.330  -2.805   0.413  0.00  0.00     0.050 A 
ATOM      6  C   UNL d   1       0.759  -4.921  -0.480  0.00  0.00     0.004 A 
ATOM      7  C   UNL d   1       0.235  -3.623  -0.449  0.00  0.00     0.029 A 
ATOM      8  C   UNL d   1       2.077  -5.155  -0.086  0.00  0.00     0.021 A 
ENDROOT
BRANCH   3   9
ATOM      9  N   UNL d   1       0.489  -1.244  -0.122  0.00  0.00    -0.323 N 
ATOM     10  C   UNL d   1       1.234  -0.074  -0.117  0.00  0.00     0.256 C 
ATOM     11  O   UNL d   1       2.458   0.003  -0.081  0.00  0.00    -0.267 OA
ATOM     12  H   UNL d   1      -0.484  -1.175  -0.392  0.00  0.00     0.169 HD
BRANCH  10  13
ATOM     13  C   UNL d   1       0.475   1.200  -0.226  0.00  0.00     0.032 A 
ATOM     14  C   UNL d   1      -0.790   1.373   0.346  0.00  0.00     0.017 A 
ATOM     15  C   UNL d   1      -1.403   2.629   0.301  0.00  0.00     0.001 A 
ATOM     16  C   UNL d   1      -0.759   3.706  -0.312  0.00  0.00     0.000 A 
ATOM     17  C   UNL d   1       0.494   3.533  -0.895  0.00  0.00     0.001 A 
ATOM     18  C   UNL d   1       1.109   2.283  -0.851  0.00  0.00     0.017 A 
ENDBRANCH  10  13
ENDBRANCH   3   9
TORSDOF 2
