REMARK  3 active torsions:
REMARK  status: ('A' for Active; 'I' for Inactive)
REMARK    1  A    between atoms: C_5  and  C_1 
REMARK    2  A    between atoms: O_8  and  C_2 
REMARK    3  A    between atoms: C_13  and  O_8 
ROOT
ATOM      1  C   UNL d   1      -1.142  -2.938  -0.178  0.00  0.00     0.229 A 
ATOM      2  N   UNL d   1      -0.797  -1.774   0.393  0.00  0.00    -0.318 N 
ATOM      3  HN  UNL d   1      -1.497  -1.144   0.784  1.00  0.00     0.169 HD
ATOM      4  C   UNL d   1       0.527  -1.474   0.424  0.00  0.00     0.120 A 
ATOM      5  N   UNL d   1      -0.282  -3.799  -0.754  0.00  0.00    -0.332 N 
ATOM      6  HN  UNL d   1      -0.604  -4.651  -1.212  1.00  0.00     0.168 HD
ATOM      7  C   UNL d   1       1.483  -2.325  -0.107  0.00  0.00     0.051 A 
ATOM      8  C   UNL d   1       1.019  -3.477  -0.695  0.00  0.00     0.094 A 
ENDROOT
BRANCH   1   9
ATOM      9  O   UNL d   1      -2.497  -3.229  -0.166  0.00  0.00    -0.279 OA
BRANCH   9  10
ATOM     10  C   UNL d   1      -2.870  -4.551  -0.083  0.00  0.00     0.079 A 
ATOM     11  C   UNL d   1      -2.205  -5.494   0.708  0.00  0.00     0.039 A 
ATOM     12  C   UNL d   1      -2.647  -6.817   0.746  0.00  0.00     0.021 A 
ATOM     13  C   UNL d   1      -3.781  -7.189   0.023  0.00  0.00     0.006 A 
ATOM     14  C   UNL d   1      -4.478  -6.243  -0.729  0.00  0.00     0.021 A 
ATOM     15  I   UNL d   1      -4.431  -9.162   0.068  0.00  0.00    -0.045 I 
ATOM     16  C   UNL d   1      -4.024  -4.921  -0.777  0.00  0.00     0.039 A 
ENDBRANCH   9  10
ENDBRANCH   1   9
BRANCH   4  17
ATOM     17  C   UNL d   1       0.989  -0.177   1.070  0.00  0.00     0.432 C 
ATOM     18  F   UNL d   1      -0.017   0.618   1.525  0.00  0.00    -0.165 F 
ATOM     19  F   UNL d   1       1.717   0.596   0.212  0.00  0.00    -0.165 F 
ATOM     20  F   UNL d   1       1.806  -0.397   2.141  0.00  0.00    -0.165 F 
ENDBRANCH   4  17
TORSDOF 3
