REMARK  7 active torsions:
REMARK  status: ('A' for Active; 'I' for Inactive)
REMARK    1  A    between atoms: N_4  and  C_1 
REMARK    2  A    between atoms: N_5  and  C_1 
REMARK       I    between atoms: C_2  and  N_3 
REMARK    3  A    between atoms: C_7  and  C_2 
REMARK    4  A    between atoms: N_3  and  N_4 
REMARK    5  A    between atoms: C_14  and  N_5 
REMARK    6  A    between atoms: C_16  and  C_8 
REMARK    7  A    between atoms: O_21  and  C_15 
ROOT
ATOM      1  N   UNL d   1       0.273   1.295  -0.498  0.00  0.00    -0.273 N 
ATOM      2  H   UNL d   1      -0.711   1.433  -0.270  0.00  0.00     0.189 HD
ENDROOT
BRANCH   1   3
ATOM      3  N   UNL d   1       0.849   2.254  -1.331  0.00  0.00    -0.264 N 
ATOM      4  C   UNL d   1      -0.019   2.981  -2.139  0.00  0.00     0.270 C 
ATOM      5  O   UNL d   1      -1.240   2.868  -2.076  0.00  0.00    -0.266 OA
ATOM      6  H   UNL d   1       1.823   2.116  -1.585  0.00  0.00     0.190 HD
BRANCH   4   7
ATOM      7  C   UNL d   1       0.615   3.894  -3.120  0.00  0.00     0.033 A 
ATOM      8  C   UNL d   1      -0.048   4.166  -4.319  0.00  0.00     0.020 A 
ATOM      9  C   UNL d   1       0.522   5.032  -5.266  0.00  0.00     0.038 A 
ATOM     10  C   UNL d   1       1.752   5.638  -5.002  0.00  0.00     0.068 A 
ATOM     11  C   UNL d   1       2.399   5.379  -3.791  0.00  0.00     0.038 A 
ATOM     12  C   UNL d   1       1.839   4.514  -2.847  0.00  0.00     0.020 A 
BRANCH  10  13
ATOM     13  O   UNL d   1       2.424   6.497  -5.826  0.00  0.00    -0.356 OA
ATOM     14  C   UNL d   1       1.833   6.782  -7.086  0.00  0.00     0.210 C 
ENDBRANCH  10  13
ENDBRANCH   4   7
ENDBRANCH   1   3
BRANCH   1  15
ATOM     15  C   UNL d   1       0.943   0.187  -0.042  0.00  0.00     0.191 C 
ATOM     16  S   UNL d   1       2.605   0.027  -0.002  0.00  0.00    -0.039 SA
BRANCH  15  17
ATOM     17  N   UNL d   1       0.140  -0.810   0.466  0.00  0.00    -0.332 N 
ATOM     18  H   UNL d   1       0.589  -1.452   1.108  0.00  0.00     0.168 HD
BRANCH  17  19
ATOM     19  C   UNL d   1      -1.107  -1.226  -0.054  0.00  0.00     0.034 A 
ATOM     20  C   UNL d   1      -1.507  -0.930  -1.360  0.00  0.00     0.030 A 
ATOM     21  C   UNL d   1      -2.709  -1.426  -1.867  0.00  0.00     0.010 A 
ATOM     22  C   UNL d   1      -3.551  -2.218  -1.077  0.00  0.00    -0.055 A 
ATOM     23  C   UNL d   1      -3.147  -2.510   0.234  0.00  0.00     0.010 A 
ATOM     24  C   UNL d   1      -1.925  -2.036   0.735  0.00  0.00     0.030 A 
BRANCH  22  25
ATOM     25  C   UNL d   1      -4.858  -2.766  -1.624  0.00  0.00     0.010 C 
ATOM     26  C   UNL d   1      -5.796  -1.648  -2.088  0.00  0.00     0.015 C 
ATOM     27  C   UNL d   1      -4.614  -3.766  -2.759  0.00  0.00     0.015 C 
ENDBRANCH  22  25
ENDBRANCH  17  19
ENDBRANCH  15  17
ENDBRANCH   1  15
TORSDOF 7
