REMARK  4 active torsions:
REMARK  status: ('A' for Active; 'I' for Inactive)
REMARK    1  A    between atoms: N_6  and  C_1 
REMARK    2  A    between atoms: C_2  and  C_3 
REMARK       I    between atoms: C_9  and  N_6 
REMARK       I    between atoms: N_14  and  C_9 
REMARK    3  A    between atoms: C_20  and  N_14 
REMARK    4  A    between atoms: C_15  and  C_16 
ROOT
ATOM      1  C   UNL d   1      -0.616   1.258  -0.049  0.00  0.00     0.091 C 
ATOM      2  C   UNL d   1       0.760   1.477  -0.097  0.00  0.00     0.038 C 
ATOM      3  S   UNL d   1      -0.986  -0.393   0.096  0.00  0.00    -0.083 SA
ATOM      4  C   UNL d   1       1.487   0.281   0.291  0.00  0.00    -0.040 C 
ATOM      5  C   UNL d   1       0.639  -0.811   0.339  0.00  0.00     0.059 C 
ATOM      6  C   UNL d   1       2.937   0.156   0.637  0.00  0.00     0.049 C 
ENDROOT
BRANCH   1   7
ATOM      7  N   UNL d   1      -1.621   2.207  -0.122  0.00  0.00    -0.302 N 
ATOM      8  C   UNL d   1      -2.982   2.179  -0.093  0.00  0.00     0.325 C 
ATOM      9  N   UNL d   1      -3.605   0.984   0.058  0.00  0.00    -0.309 N 
ATOM     10  O   UNL d   1      -3.545   3.269  -0.214  0.00  0.00    -0.247 OA
ATOM     11  H   UNL d   1      -3.003   0.210   0.302  0.00  0.00     0.170 HD
ATOM     12  H   UNL d   1      -1.312   3.167  -0.217  0.00  0.00     0.171 HD
BRANCH   9  13
ATOM     13  C   UNL d   1      -4.964   0.686  -0.145  0.00  0.00     0.036 A 
ATOM     14  C   UNL d   1      -5.897   1.604  -0.619  0.00  0.00     0.030 A 
ATOM     15  C   UNL d   1      -7.188   1.188  -0.964  0.00  0.00     0.010 A 
ATOM     16  C   UNL d   1      -7.584  -0.156  -0.847  0.00  0.00    -0.051 A 
ATOM     17  C   UNL d   1      -6.664  -1.046  -0.273  0.00  0.00     0.010 A 
ATOM     18  C   UNL d   1      -5.370  -0.632   0.067  0.00  0.00     0.030 A 
BRANCH  16  19
ATOM     19  C   UNL d   1      -8.938  -0.612  -1.415  0.00  0.00    -0.024 C 
ATOM     20  C   UNL d   1      -9.199  -2.125  -1.248  0.00  0.00     0.019 C 
ATOM     21  C   UNL d   1     -10.098   0.140  -0.732  0.00  0.00     0.019 C 
ATOM     22  C   UNL d   1      -8.964  -0.312  -2.932  0.00  0.00     0.019 C 
ENDBRANCH  16  19
ENDBRANCH   9  13
ENDBRANCH   1   7
BRANCH   2  23
ATOM     23  C   UNL d   1       1.401   2.808  -0.497  0.00  0.00     0.089 A 
ATOM     24  N   UNL d   1       2.705   2.949  -0.616  0.00  0.00    -0.349 N 
ATOM     25  C   UNL d   1       3.023   4.194  -1.145  0.00  0.00     0.050 A 
ATOM     26  HN  UNL d   1       3.390   2.239  -0.355  1.00  0.00     0.166 HD
ATOM     27  C   UNL d   1       4.317   4.663  -1.455  0.00  0.00     0.031 A 
ATOM     28  C   UNL d   1       1.939   5.025  -1.388  0.00  0.00     0.033 A 
ATOM     29  C   UNL d   1       4.479   5.940  -2.004  0.00  0.00     0.002 A 
ATOM     30  C   UNL d   1       3.373   6.754  -2.241  0.00  0.00     0.002 A 
ATOM     31  C   UNL d   1       2.085   6.315  -1.935  0.00  0.00     0.021 A 
ATOM     32  S   UNL d   1       0.505   4.215  -0.934  0.00  0.00    -0.069 SA
ENDBRANCH   2  23
TORSDOF 4
