REMARK  3 active torsions:
REMARK  status: ('A' for Active; 'I' for Inactive)
REMARK    1  A    between atoms: C_7  and  C_1 
REMARK    2  A    between atoms: C_9  and  C_5 
REMARK       I    between atoms: N_10  and  C_7 
REMARK    3  A    between atoms: N_11  and  N_10 
ROOT
ATOM      1  C   UNL d   1      -0.350   1.177  -0.057  0.00  0.00     0.119 A 
ATOM      2  N   UNL d   1      -1.121   0.073  -0.107  0.00  0.00    -0.295 N 
ATOM      3  HN  UNL d   1      -2.138   0.019  -0.154  1.00  0.00     0.187 HD
ATOM      4  C   UNL d   1       1.024   0.831  -0.015  0.00  0.00     0.068 A 
ATOM      5  C   UNL d   1       1.077  -0.549  -0.035  0.00  0.00     0.060 A 
ATOM      6  N   UNL d   1      -0.236  -0.941  -0.082  0.00  0.00    -0.299 N 
ATOM      7  H   UNL d   1      -0.594  -1.890  -0.077  0.00  0.00     0.187 HD
ENDROOT
BRANCH   1   8
ATOM      8  C   UNL d   1      -0.915   2.533  -0.031  0.00  0.00     0.283 C 
ATOM      9  O   UNL d   1      -0.228   3.551   0.051  0.00  0.00    -0.265 OA
ATOM     10  N   UNL d   1      -2.304   2.556  -0.092  0.00  0.00    -0.288 N 
ATOM     11  H   UNL d   1      -2.778   1.662  -0.235  0.00  0.00     0.183 HD
BRANCH  10  12
ATOM     12  N   UNL d   1      -3.015   3.777  -0.109  0.00  0.00    -0.247 NA
ATOM     13  H   UNL d   1      -2.317   4.529  -0.197  0.00  0.00     0.143 HD
ATOM     14  H   UNL d   1      -3.417   3.916   0.822  0.00  0.00     0.143 HD
ENDBRANCH  10  12
ENDBRANCH   1   8
BRANCH   5  15
ATOM     15  C   UNL d   1       2.207  -1.474   0.020  0.00  0.00    -0.008 A 
ATOM     16  C   UNL d   1       3.373  -1.120   0.715  0.00  0.00     0.014 A 
ATOM     17  C   UNL d   1       4.463  -1.993   0.779  0.00  0.00     0.001 A 
ATOM     18  C   UNL d   1       4.401  -3.231   0.144  0.00  0.00     0.000 A 
ATOM     19  C   UNL d   1       3.253  -3.595  -0.556  0.00  0.00     0.001 A 
ATOM     20  C   UNL d   1       2.162  -2.722  -0.618  0.00  0.00     0.014 A 
ENDBRANCH   5  15
TORSDOF 3
