REMARK  3 active torsions:
REMARK  status: ('A' for Active; 'I' for Inactive)
REMARK    1  A    between atoms: C_7  and  C_1 
REMARK       I    between atoms: N_12  and  C_7 
REMARK    2  A    between atoms: N_9  and  N_12 
REMARK    3  A    between atoms: C_18  and  C_16 
ROOT
ATOM      1  C   UNL d   1       1.959  -2.509   0.071  0.00  0.00     0.289 C 
ATOM      2  N   UNL d   1       1.063  -3.558  -0.100  0.00  0.00    -0.265 N 
ATOM      3  O   UNL d   1       3.164  -2.678   0.252  0.00  0.00    -0.264 OA
ATOM      4  H   UNL d   1       0.066  -3.387  -0.131  0.00  0.00     0.190 HD
ENDROOT
BRANCH   1   5
ATOM      5  C   UNL d   1       1.357  -1.194   0.037  0.00  0.00     0.132 A 
ATOM      6  N   UNL d   1       1.827  -0.087   0.729  0.00  0.00    -0.302 N 
ATOM      7  C   UNL d   1       0.954   0.962   0.450  0.00  0.00     0.112 A 
ATOM      8  C   UNL d   1       2.934   0.065   1.571  0.00  0.00     0.099 A 
ATOM      9  C   UNL d   1       1.200   2.214   1.082  0.00  0.00     0.049 A 
ATOM     10  N   UNL d   1       0.025   0.605  -0.407  0.00  0.00    -0.344 N 
ATOM     11  C   UNL d   1       2.263   2.359   1.894  0.00  0.00     0.005 A 
ATOM     12  C   UNL d   1       3.175   1.256   2.146  0.00  0.00     0.018 A 
ATOM     13  C   UNL d   1       0.291  -0.705  -0.715  0.00  0.00     0.040 A 
ATOM     14  HN  UNL d   1      -0.736   1.182  -0.768  1.00  0.00     0.167 HD
ATOM     15  C   UNL d   1      -0.501  -1.361  -1.785  0.00  0.00     0.071 C 
ENDBRANCH   1   5
BRANCH   2  16
ATOM     16  N   UNL d   1       1.531  -4.821  -0.310  0.00  0.00    -0.308 N 
ATOM     17  C   UNL d   1       0.648  -5.742  -0.518  0.00  0.00     0.118 C 
ATOM     18  HN  UNL d   1       2.529  -5.029  -0.302  1.00  0.00     0.186 HD
BRANCH  17  19
ATOM     19  C   UNL d   1       1.058  -7.117  -0.878  0.00  0.00    -0.019 A 
ATOM     20  C   UNL d   1       2.413  -7.460  -0.919  0.00  0.00     0.013 A 
ATOM     21  C   UNL d   1       2.799  -8.724  -1.361  0.00  0.00     0.001 A 
ATOM     22  C   UNL d   1       1.832  -9.646  -1.758  0.00  0.00     0.000 A 
ATOM     23  C   UNL d   1       0.477  -9.314  -1.695  0.00  0.00     0.001 A 
ATOM     24  C   UNL d   1       0.085  -8.048  -1.250  0.00  0.00     0.013 A 
ENDBRANCH  17  19
ENDBRANCH   2  16
TORSDOF 3
