REMARK  4 active torsions:
REMARK  status: ('A' for Active; 'I' for Inactive)
REMARK    1  A    between atoms: C_2  and  S_1 
REMARK    2  A    between atoms: N_8  and  S_1 
REMARK       I    between atoms: C_3  and  N_4 
REMARK    3  A    between atoms: C_7  and  C_3 
REMARK    4  A    between atoms: N_4  and  C_5 
ROOT
ATOM      1  C   UNL d   1       0.542   1.545   0.796  0.00  0.00     0.081 A 
ATOM      2  C   UNL d   1       0.591   3.974   0.827  0.00  0.00     0.042 A 
ATOM      3  C   UNL d   1       1.097   2.753   0.369  0.00  0.00     0.055 A 
ATOM      4  C   UNL d   1      -0.542   3.971   1.672  0.00  0.00    -0.035 A 
ATOM      5  C   UNL d   1      -0.530   1.531   1.683  0.00  0.00     0.026 A 
ATOM      6  C   UNL d   1      -1.062   2.740   2.123  0.00  0.00     0.010 A 
ATOM      7  C   UNL d   1      -1.208   5.223   2.181  0.00  0.00     0.050 C 
ENDROOT
BRANCH   2   8
ATOM      8  N   UNL d   1       1.177   5.200   0.435  0.00  0.00    -0.322 N 
ATOM      9  C   UNL d   1       2.426   5.375  -0.151  0.00  0.00     0.256 C 
ATOM     10  O   UNL d   1       3.264   4.504  -0.358  0.00  0.00    -0.267 OA
ATOM     11  H   UNL d   1       0.631   6.029   0.612  0.00  0.00     0.169 HD
BRANCH   9  12
ATOM     12  C   UNL d   1       2.751   6.772  -0.558  0.00  0.00     0.032 A 
ATOM     13  C   UNL d   1       2.277   7.879   0.154  0.00  0.00     0.024 A 
ATOM     14  C   UNL d   1       2.514   9.184  -0.306  0.00  0.00    -0.055 A 
ATOM     15  C   UNL d   1       1.903  10.339   0.440  0.00  0.00     0.049 C 
ATOM     16  C   UNL d   1       3.295   9.381  -1.462  0.00  0.00    -0.056 A 
ATOM     17  C   UNL d   1       3.816   8.266  -2.138  0.00  0.00     0.008 A 
ATOM     18  C   UNL d   1       3.568  10.761  -1.996  0.00  0.00     0.049 C 
ATOM     19  C   UNL d   1       3.542   6.971  -1.693  0.00  0.00     0.017 A 
ENDBRANCH   9  12
ENDBRANCH   2   8
BRANCH   1  20
ATOM     20  S   UNL d   1       1.158   0.016   0.120  0.00  0.00     0.260 S 
ATOM     21  O   UNL d   1       1.738   0.306  -1.174  0.00  0.00    -0.200 OA
ATOM     22  O   UNL d   1       0.104  -0.964   0.259  0.00  0.00    -0.200 OA
BRANCH  20  23
ATOM     23  N   UNL d   1       2.410  -0.401   1.197  0.00  0.00    -0.315 N 
ATOM     24  C   UNL d   1       3.610   0.456   1.173  0.00  0.00     0.162 C 
ATOM     25  C   UNL d   1       2.005  -0.800   2.553  0.00  0.00     0.162 C 
ENDBRANCH  20  23
ENDBRANCH   1  20
TORSDOF 4
