REMARK  4 active torsions:
REMARK  status: ('A' for Active; 'I' for Inactive)
REMARK    1  A    between atoms: C_3  and  C_1 
REMARK    2  A    between atoms: O_12  and  C_3 
REMARK    3  A    between atoms: N_9  and  O_12 
REMARK    4  A    between atoms: C_15  and  C_13 
ROOT
ATOM      1  N   UNL d   1      -9.192   8.893  -0.515  0.00  0.00    -0.191 NA
ATOM      2  C   UNL d   1      -8.486   7.978  -0.405  0.00  0.00     0.099 C 
ATOM      3  C   UNL d   1      -7.616   6.842  -0.274  0.00  0.00     0.044 A 
ATOM      4  C   UNL d   1      -5.920   4.613  -0.057  0.00  0.00    -0.019 A 
ATOM      5  C   UNL d   1      -6.238   6.988  -0.457  0.00  0.00     0.023 A 
ATOM      6  C   UNL d   1      -8.141   5.579   0.033  0.00  0.00     0.023 A 
ATOM      7  C   UNL d   1      -5.393   5.878  -0.349  0.00  0.00     0.014 A 
ATOM      8  C   UNL d   1      -7.295   4.464   0.141  0.00  0.00     0.014 A 
ENDROOT
BRANCH   4   9
ATOM      9  C   UNL d   1      -5.025   3.433   0.027  0.00  0.00     0.126 C 
ATOM     10  N   UNL d   1      -3.756   3.563  -0.184  0.00  0.00    -0.268 N 
ATOM     11  HN  UNL d   1      -3.303   4.448  -0.411  1.00  0.00     0.194 HD
BRANCH  10  12
ATOM     12  O   UNL d   1      -3.071   2.330  -0.065  0.00  0.00    -0.195 OA
BRANCH  12  13
ATOM     13  C   UNL d   1      -1.725   2.546  -0.314  0.00  0.00     0.322 C 
ATOM     14  O   UNL d   1      -1.234   3.638  -0.602  0.00  0.00    -0.257 OA
BRANCH  13  15
ATOM     15  C   UNL d   1      -0.925   1.334  -0.203  0.00  0.00     0.082 A 
ATOM     16  S   UNL d   1      -1.556  -0.202   0.198  0.00  0.00    -0.095 SA
ATOM     17  C   UNL d   1      -0.014  -0.943   0.095  0.00  0.00     0.057 A 
ATOM     18  C   UNL d   1       0.987  -0.052  -0.240  0.00  0.00    -0.054 A 
ATOM     19  C   UNL d   1       0.445   1.262  -0.405  0.00  0.00     0.032 A 
ATOM     20  C   UNL d   1       2.429  -0.399  -0.408  0.00  0.00     0.048 C 
ENDBRANCH  13  15
ENDBRANCH  12  13
ENDBRANCH  10  12
ENDBRANCH   4   9
TORSDOF 4
