REMARK  5 active torsions:
REMARK  status: ('A' for Active; 'I' for Inactive)
REMARK    1  A    between atoms: C_7  and  C_1 
REMARK    2  A    between atoms: C_10  and  C_2 
REMARK    3  A    between atoms: N_6  and  C_7 
REMARK    4  A    between atoms: C_9  and  C_11 
REMARK    5  A    between atoms: O_23  and  C_12 
ROOT
ATOM      1  C   UNL d   1       2.148   1.777   0.109  0.00  0.00     0.315 C 
ENDROOT
BRANCH   1   2
ATOM      2  N   UNL d   1       3.502   1.161   0.132  0.00  0.00     0.092 N 
ATOM      3  C   UNL d   1       3.670   0.469  -1.172  0.00  0.00     0.273 C 
ATOM      4  C   UNL d   1       4.874  -0.477  -1.280  0.00  0.00     0.040 C 
ATOM      5  C   UNL d   1       4.978  -1.470  -0.104  0.00  0.00     0.025 C 
ATOM      6  C   UNL d   1       4.943  -0.600   1.161  0.00  0.00     0.040 C 
ATOM      7  C   UNL d   1       3.648   0.205   1.242  0.00  0.00     0.273 C 
BRANCH   5   8
ATOM      8  C   UNL d   1       3.987  -2.640  -0.064  0.00  0.00    -0.021 A 
ATOM      9  C   UNL d   1       3.970  -3.565   1.002  0.00  0.00     0.074 A 
ATOM     10  C   UNL d   1       3.003  -4.578   1.081  0.00  0.00     0.037 A 
ATOM     11  C   UNL d   1       2.062  -4.731   0.070  0.00  0.00     0.003 A 
ATOM     12  C   UNL d   1       2.089  -3.873  -1.022  0.00  0.00     0.001 A 
ATOM     13  C   UNL d   1       3.045  -2.851  -1.090  0.00  0.00     0.010 A 
BRANCH   9  14
ATOM     14  O   UNL d   1       4.815  -3.501   2.079  0.00  0.00    -0.355 OA
ATOM     15  C   UNL d   1       6.160  -3.845   1.752  0.00  0.00     0.210 C 
ENDBRANCH   9  14
ENDBRANCH   5   8
ENDBRANCH   1   2
BRANCH   1  16
ATOM     16  C   UNL d   1       1.794   2.738   1.209  0.00  0.00     0.016 A 
ATOM     17  C   UNL d   1       0.726   3.713   1.158  0.00  0.00     0.067 A 
ATOM     18  N   UNL d   1       0.641   4.401   2.309  0.00  0.00    -0.300 N 
ATOM     19  N   UNL d   1       1.591   3.881   3.085  0.00  0.00    -0.311 N 
ATOM     20  HN  UNL d   1      -0.007   5.154   2.538  1.00  0.00     0.187 HD
ATOM     21  C   UNL d   1       2.317   2.907   2.477  0.00  0.00     0.118 A 
ATOM     22  H   UNL d   1       1.688   4.238   4.029  0.00  0.00     0.186 HD
BRANCH  17  23
ATOM     23  C   UNL d   1      -0.216   4.029   0.077  0.00  0.00    -0.007 A 
ATOM     24  C   UNL d   1      -0.817   3.028  -0.701  0.00  0.00     0.017 A 
ATOM     25  C   UNL d   1      -1.743   3.364  -1.695  0.00  0.00     0.043 A 
ATOM     26  C   UNL d   1      -2.080   4.697  -1.901  0.00  0.00     0.116 A 
ATOM     27  C   UNL d   1      -1.508   5.704  -1.137  0.00  0.00     0.043 A 
ATOM     28  F   UNL d   1      -2.981   5.012  -2.841  0.00  0.00    -0.206 F 
ATOM     29  C   UNL d   1      -0.578   5.369  -0.151  0.00  0.00     0.017 A 
ENDBRANCH  17  23
ENDBRANCH   1  16
TORSDOF 5
