REMARK  2 active torsions:
REMARK  status: ('A' for Active; 'I' for Inactive)
REMARK       I    between atoms: N_3  and  C_1 
REMARK       I    between atoms: N_6  and  C_1 
REMARK    1  A    between atoms: C_2  and  N_4 
REMARK    2  A    between atoms: C_18  and  N_6 
ROOT
ATOM      1  C   UNL d   1      -0.922  -4.146  -3.294  0.00  0.00     0.141 A 
ATOM      2  C   UNL d   1      -1.456  -4.173  -4.600  0.00  0.00     0.158 A 
ATOM      3  C   UNL d   1      -1.278  -3.096  -5.530  0.00  0.00     0.121 C 
ATOM      4  N   UNL d   1      -1.145  -2.198  -6.260  0.00  0.00    -0.190 NA
ATOM      5  N   UNL d   1      -1.038  -5.264  -2.531  0.00  0.00    -0.349 N 
ATOM      6  HN  UNL d   1      -0.647  -5.300  -1.589  1.00  0.00     0.167 HD
ATOM      7  N   UNL d   1      -2.122  -5.246  -5.130  0.00  0.00    -0.353 N 
ATOM      8  HN  UNL d   1      -2.513  -5.233  -6.072  1.00  0.00     0.166 HD
ATOM      9  C   UNL d   1      -1.686  -6.331  -3.057  0.00  0.00     0.106 A 
ATOM     10  C   UNL d   1      -2.225  -6.320  -4.326  0.00  0.00     0.106 A 
ENDROOT
BRANCH   1  11
ATOM     11  N   UNL d   1      -0.276  -3.071  -2.719  0.00  0.00    -0.362 N 
ATOM     12  C   UNL d   1      -0.715  -1.681  -2.889  0.00  0.00     0.144 C 
ATOM     13  C   UNL d   1      -0.989  -1.002  -1.531  0.00  0.00     0.147 C 
ATOM     14  N   UNL d   1       0.130  -1.169  -0.598  0.00  0.00    -0.331 N 
ATOM     15  C   UNL d   1       0.812  -0.197   0.125  0.00  0.00     0.323 C 
ATOM     16  C   UNL d   1       0.499  -2.581  -0.395  0.00  0.00     0.147 C 
ATOM     17  N   UNL d   1       0.431   1.105  -0.111  0.00  0.00    -0.309 N 
ATOM     18  O   UNL d   1       1.712  -0.517   0.898  0.00  0.00    -0.247 OA
ATOM     19  H   UNL d   1      -0.351   1.261  -0.718  0.00  0.00     0.170 HD
ATOM     20  C   UNL d   1       0.787  -3.301  -1.724  0.00  0.00     0.144 C 
BRANCH  17  21
ATOM     21  C   UNL d   1       1.038   2.285   0.380  0.00  0.00     0.036 A 
ATOM     22  C   UNL d   1       2.124   2.304   1.259  0.00  0.00     0.031 A 
ATOM     23  C   UNL d   1       2.712   3.516   1.642  0.00  0.00     0.026 A 
ATOM     24  C   UNL d   1       2.214   4.717   1.150  0.00  0.00     0.034 A 
ATOM     25  C   UNL d   1       1.115   4.720   0.297  0.00  0.00     0.026 A 
ATOM     26 CL   UNL d   1       2.966   6.201   1.587  0.00  0.00    -0.084 Cl
ATOM     27  C   UNL d   1       0.526   3.508  -0.081  0.00  0.00     0.031 A 
ENDBRANCH  17  21
ENDBRANCH   1  11
TORSDOF 2
