REMARK  5 active torsions:
REMARK  status: ('A' for Active; 'I' for Inactive)
REMARK    1  A    between atoms: C_2  and  N_1 
REMARK       I    between atoms: C_3  and  N_1 
REMARK    2  A    between atoms: N_4  and  C_2 
REMARK    3  A    between atoms: C_7  and  C_3 
REMARK    4  A    between atoms: C_8  and  N_4 
REMARK    5  A    between atoms: O_11  and  C_10 
ROOT
ATOM      1  C   UNL d   1       0.449   0.598   0.816  0.00  0.00     0.179 C 
ATOM      2  S   UNL d   1      -0.596  -0.616   1.279  0.00  0.00    -0.040 SA
ENDROOT
BRANCH   1   3
ATOM      3  N   UNL d   1       1.098   0.735  -0.402  0.00  0.00    -0.299 N 
ATOM      4  C   UNL d   1       1.241  -0.177  -1.442  0.00  0.00     0.257 C 
ATOM      5  O   UNL d   1       1.188  -1.394  -1.297  0.00  0.00    -0.267 OA
ATOM      6  H   UNL d   1       1.372   1.688  -0.576  0.00  0.00     0.171 HD
BRANCH   4   7
ATOM      7  C   UNL d   1       1.623   0.376  -2.784  0.00  0.00     0.032 A 
ATOM      8  C   UNL d   1       1.616   1.743  -3.096  0.00  0.00     0.017 A 
ATOM      9  C   UNL d   1       1.966   2.177  -4.383  0.00  0.00     0.001 A 
ATOM     10  C   UNL d   1       2.319   1.253  -5.364  0.00  0.00     0.000 A 
ATOM     11  C   UNL d   1       2.322  -0.110  -5.066  0.00  0.00     0.001 A 
ATOM     12  C   UNL d   1       1.975  -0.543  -3.787  0.00  0.00     0.017 A 
ENDBRANCH   4   7
ENDBRANCH   1   3
BRANCH   1  13
ATOM     13  N   UNL d   1       0.635   1.658   1.678  0.00  0.00    -0.333 N 
ATOM     14  H   UNL d   1      -0.067   1.728   2.410  0.00  0.00     0.168 HD
BRANCH  13  15
ATOM     15  C   UNL d   1       1.814   2.405   1.895  0.00  0.00     0.036 A 
ATOM     16  C   UNL d   1       3.073   1.967   1.462  0.00  0.00     0.066 A 
ATOM     17  C   UNL d   1       4.226   2.679   1.795  0.00  0.00     0.070 A 
ATOM     18  C   UNL d   1       4.111   3.856   2.535  0.00  0.00     0.037 A 
ATOM     19  C   UNL d   1       2.862   4.303   2.967  0.00  0.00     0.005 A 
ATOM     20  C   UNL d   1       1.716   3.568   2.662  0.00  0.00     0.029 A 
BRANCH  17  21
ATOM     21  O   UNL d   1       5.507   2.316   1.481  0.00  0.00    -0.356 OA
ATOM     22  C   UNL d   1       5.688   1.043   0.868  0.00  0.00     0.210 C 
ENDBRANCH  17  21
ENDBRANCH  13  15
ENDBRANCH   1  13
TORSDOF 5
