REMARK  3 active torsions:
REMARK  status: ('A' for Active; 'I' for Inactive)
REMARK    1  A    between atoms: C_5  and  C_1 
REMARK    2  A    between atoms: C_3  and  C_2 
REMARK    3  A    between atoms: O_15  and  C_5 
ROOT
ATOM      1  C   UNL d   1       0.415   0.589   0.002  0.00  0.00     0.143 C 
ATOM      2  C   UNL d   1      -0.423  -0.475   0.001  0.00  0.00     0.105 C 
ATOM      3  C   UNL d   1       1.835   0.456  -0.049  0.00  0.00     0.107 C 
ATOM      4  C   UNL d   1      -1.849  -0.331  -0.036  0.00  0.00     0.104 C 
ATOM      5  N   UNL d   1       2.990   0.358  -0.102  0.00  0.00    -0.191 NA
ATOM      6  N   UNL d   1      -3.006  -0.289  -0.097  0.00  0.00    -0.191 NA
ENDROOT
BRANCH   1   7
ATOM      7  C   UNL d   1      -0.116   1.980   0.029  0.00  0.00     0.305 C 
ATOM      8  O   UNL d   1      -1.229   2.290   0.418  0.00  0.00    -0.258 OA
BRANCH   7   9
ATOM      9  O   UNL d   1       0.814   2.854  -0.435  0.00  0.00    -0.322 OA
ATOM     10  C   UNL d   1       0.401   4.224  -0.417  0.00  0.00     0.213 C 
ENDBRANCH   7   9
ENDBRANCH   1   7
BRANCH   2  11
ATOM     11  C   UNL d   1       0.089  -1.820   0.011  0.00  0.00     0.099 A 
ATOM     12  O   UNL d   1       1.270  -2.182   0.625  0.00  0.00    -0.302 OA
ATOM     13  C   UNL d   1       1.472  -3.510   0.451  0.00  0.00     0.122 A 
ATOM     14 BR   UNL d   1       2.961  -4.436   1.083  0.00  0.00    -0.023 Br
ATOM     15  C   UNL d   1       0.429  -4.059  -0.249  0.00  0.00     0.048 A 
ATOM     16  C   UNL d   1      -0.458  -2.988  -0.524  0.00  0.00     0.042 A 
ENDBRANCH   2  11
TORSDOF 3
