REMARK  3 active torsions:
REMARK  status: ('A' for Active; 'I' for Inactive)
REMARK    1  A    between atoms: C_9  and  N_1 
REMARK    2  A    between atoms: C_8  and  C_4 
REMARK    3  A    between atoms: O_11  and  C_8 
ROOT
ATOM      1  N   UNL d   1      -0.034  -1.130  -0.001  0.00  0.00    -0.196 N 
ATOM      2  N   UNL d   1       1.252  -0.699   0.160  0.00  0.00    -0.271 N 
ATOM      3  HN  UNL d   1       2.101  -1.250   0.287  1.00  0.00     0.189 HD
ATOM      4  C   UNL d   1       1.112   0.640   0.106  0.00  0.00     0.147 A 
ATOM      5  N   UNL d   1      -0.971  -0.156  -0.148  0.00  0.00    -0.281 N 
ATOM      6  HN  UNL d   1      -1.975  -0.256  -0.294  1.00  0.00     0.189 HD
ATOM      7  C   UNL d   1      -0.248   0.968  -0.055  0.00  0.00     0.059 A 
ATOM      8  C   UNL d   1      -0.877   2.306  -0.121  0.00  0.00     0.072 C 
ENDROOT
BRANCH   1   9
ATOM      9  C   UNL d   1      -0.362  -2.511  -0.009  0.00  0.00     0.074 A 
ATOM     10  C   UNL d   1       0.629  -3.466   0.266  0.00  0.00     0.033 A 
ATOM     11  C   UNL d   1       0.309  -4.825   0.263  0.00  0.00     0.002 A 
ATOM     12  C   UNL d   1      -0.992  -5.235  -0.024  0.00  0.00     0.000 A 
ATOM     13  C   UNL d   1      -1.980  -4.290  -0.302  0.00  0.00     0.002 A 
ATOM     14  C   UNL d   1      -1.671  -2.927  -0.288  0.00  0.00     0.033 A 
ENDBRANCH   1   9
BRANCH   4  15
ATOM     15  C   UNL d   1       2.269   1.518   0.213  0.00  0.00     0.197 C 
ATOM     16  O   UNL d   1       2.220   2.739   0.174  0.00  0.00    -0.645 OA
BRANCH  15  17
ATOM     17  O   UNL d   1       3.434   0.828   0.357  0.00  0.00    -0.772 OA
ATOM     18  H   UNL d   1       3.206  -0.130   0.353  0.00  0.00     0.167 HD
ENDBRANCH  15  17
ENDBRANCH   4  15
TORSDOF 3
