REMARK  2 active torsions:
REMARK  status: ('A' for Active; 'I' for Inactive)
REMARK       I    between atoms: C_2  and  N_1 
REMARK    1  A    between atoms: C_3  and  C_2 
REMARK    2  A    between atoms: C_8  and  C_4 
ROOT
ATOM      1  C   UNL d   1       0.330   3.417  -1.275  0.00  0.00     0.075 C 
ATOM      2  C   UNL d   1       0.500   4.159  -2.381  0.00  0.00     0.018 C 
ENDROOT
BRANCH   1   3
ATOM      3  C   UNL d   1       1.176   2.222  -1.015  0.00  0.00     0.243 C 
ATOM      4  N   UNL d   1       0.707   1.298  -0.095  0.00  0.00    -0.344 N 
ATOM      5  C   UNL d   1       1.531   0.130   0.242  0.00  0.00     0.157 C 
ATOM      6  C   UNL d   1      -0.682   1.153   0.356  0.00  0.00     0.157 C 
ATOM      7  C   UNL d   1       0.866  -1.185  -0.225  0.00  0.00     0.136 C 
ATOM      8  C   UNL d   1       1.582  -2.393   0.366  0.00  0.00     0.041 C 
ATOM      9  O   UNL d   1      -0.512  -1.265   0.203  0.00  0.00    -0.378 OA
ATOM     10  C   UNL d   1      -1.270  -0.131  -0.255  0.00  0.00     0.136 C 
ATOM     11  C   UNL d   1      -2.720  -0.331   0.158  0.00  0.00     0.041 C 
ATOM     12  O   UNL d   1       2.255   2.095  -1.596  0.00  0.00    -0.268 OA
ENDBRANCH   1   3
BRANCH   2  13
ATOM     13  C   UNL d   1      -0.345   5.340  -2.627  0.00  0.00    -0.025 A 
ATOM     14  C   UNL d   1       0.031   6.653  -2.228  0.00  0.00    -0.016 A 
ATOM     15  C   UNL d   1      -0.902   7.708  -2.399  0.00  0.00    -0.025 A 
ATOM     16  C   UNL d   1       1.289   6.973  -1.669  0.00  0.00     0.013 A 
ATOM     17  C   UNL d   1      -0.578   9.009  -1.979  0.00  0.00     0.012 A 
ATOM     18  C   UNL d   1      -2.149   7.450  -2.988  0.00  0.00     0.012 A 
ATOM     19  C   UNL d   1       0.665   9.291  -1.415  0.00  0.00     0.001 A 
ATOM     20  C   UNL d   1       1.603   8.276  -1.271  0.00  0.00     0.001 A 
ATOM     21  C   UNL d   1      -2.487   6.168  -3.413  0.00  0.00     0.002 A 
ATOM     22  C   UNL d   1      -1.593   5.118  -3.228  0.00  0.00     0.012 A 
ENDBRANCH   2  13
TORSDOF 2
