REMARK  7 active torsions:
REMARK  status: ('A' for Active; 'I' for Inactive)
REMARK    1  A    between atoms: C_4  and  C_1 
REMARK    2  A    between atoms: C_7  and  C_1 
REMARK    3  A    between atoms: N_8  and  N_2 
REMARK    4  A    between atoms: C_10  and  C_4 
REMARK    5  A    between atoms: N_11  and  N_5 
REMARK    6  A    between atoms: C_12  and  N_8 
REMARK    7  A    between atoms: C_13  and  N_11 
ROOT
ATOM      1  C   UNL d   1       1.012   0.117   0.002  0.00  0.00     0.111 C 
ATOM      2  N   UNL d   1       0.410   0.963  -0.787  0.00  0.00    -0.312 N 
ATOM      3  HN  UNL d   1      -0.594   1.130  -0.716  1.00  0.00     0.181 HD
ENDROOT
BRANCH   1   4
ATOM      4  C   UNL d   1       0.175  -0.563   1.053  0.00  0.00     0.211 C 
ATOM      5  O   UNL d   1       0.620  -0.575   2.197  0.00  0.00    -0.285 OA
BRANCH   4   6
ATOM      6  C   UNL d   1      -1.161  -1.130   0.739  0.00  0.00     0.016 A 
ATOM      7  C   UNL d   1      -1.597  -1.363  -0.571  0.00  0.00     0.015 A 
ATOM      8  C   UNL d   1      -2.886  -1.853  -0.802  0.00  0.00     0.001 A 
ATOM      9  C   UNL d   1      -3.739  -2.120   0.269  0.00  0.00     0.000 A 
ATOM     10  C   UNL d   1      -3.304  -1.910   1.575  0.00  0.00     0.001 A 
ATOM     11  C   UNL d   1      -2.018  -1.421   1.810  0.00  0.00     0.015 A 
ENDBRANCH   4   6
ENDBRANCH   1   4
BRANCH   1  12
ATOM     12  C   UNL d   1       2.494  -0.090  -0.044  0.00  0.00     0.141 C 
ATOM     13  N   UNL d   1       2.964  -1.292  -0.100  0.00  0.00    -0.309 N 
ATOM     14  HN  UNL d   1       2.363  -2.115  -0.134  1.00  0.00     0.186 HD
BRANCH  13  15
ATOM     15  N   UNL d   1       4.325  -1.375  -0.111  0.00  0.00    -0.301 N 
ATOM     16  H   UNL d   1       4.886  -0.548   0.093  0.00  0.00     0.187 HD
BRANCH  15  17
ATOM     17  C   UNL d   1       4.920  -2.553   0.403  0.00  0.00     0.048 A 
ATOM     18  C   UNL d   1       4.180  -3.707   0.691  0.00  0.00     0.031 A 
ATOM     19  C   UNL d   1       4.806  -4.867   1.156  0.00  0.00     0.002 A 
ATOM     20  C   UNL d   1       6.190  -4.899   1.313  0.00  0.00     0.000 A 
ATOM     21  C   UNL d   1       6.946  -3.773   0.998  0.00  0.00     0.002 A 
ATOM     22  C   UNL d   1       6.316  -2.613   0.537  0.00  0.00     0.031 A 
ENDBRANCH  15  17
ENDBRANCH  13  15
ENDBRANCH   1  12
BRANCH   2  23
ATOM     23  N   UNL d   1       1.171   1.615  -1.711  0.00  0.00    -0.205 NA
ATOM     24  H   UNL d   1       1.575   1.044  -2.458  0.00  0.00     0.153 HD
BRANCH  23  25
ATOM     25  C   UNL d   1       0.627   2.812  -2.248  0.00  0.00     0.027 A 
ATOM     26  C   UNL d   1      -0.445   3.486  -1.644  0.00  0.00     0.025 A 
ATOM     27  C   UNL d   1      -0.902   4.707  -2.144  0.00  0.00     0.002 A 
ATOM     28  C   UNL d   1      -0.272   5.290  -3.240  0.00  0.00     0.000 A 
ATOM     29  C   UNL d   1       0.818   4.653  -3.831  0.00  0.00     0.002 A 
ATOM     30  C   UNL d   1       1.268   3.428  -3.332  0.00  0.00     0.025 A 
ENDBRANCH  23  25
ENDBRANCH   2  23
TORSDOF 7
