REMARK  4 active torsions:
REMARK  status: ('A' for Active; 'I' for Inactive)
REMARK    1  A    between atoms: S_7  and  C_2 
REMARK    2  A    between atoms: C_8  and  C_3 
REMARK    3  A    between atoms: C_11  and  S_7 
REMARK    4  A    between atoms: C_15  and  C_11 
ROOT
ATOM      1  N   UNL d   1       0.812  -0.014   0.036  0.00  0.00    -0.330 N 
ATOM      2  C   UNL d   1      -0.020   1.076   0.150  0.00  0.00     0.146 A 
ATOM      3  C   UNL d   1       0.019  -1.153   0.100  0.00  0.00     0.061 A 
ATOM      4  N   UNL d   1      -1.280   0.724   0.206  0.00  0.00    -0.344 N 
ATOM      5  HN  UNL d   1      -2.094   1.336   0.270  1.00  0.00     0.167 HD
ATOM      6  C   UNL d   1      -1.270  -0.643   0.160  0.00  0.00     0.120 A 
ATOM      7  C   UNL d   1       2.245   0.021  -0.150  0.00  0.00     0.158 C 
ENDROOT
BRANCH   2   8
ATOM      8  S   UNL d   1       0.547   2.713   0.216  0.00  0.00    -0.089 SA
BRANCH   8   9
ATOM      9  C   UNL d   1      -0.914   3.534   0.918  0.00  0.00     0.121 C 
BRANCH   9  10
ATOM     10  C   UNL d   1      -0.682   5.017   1.103  0.00  0.00    -0.048 A 
ATOM     11  C   UNL d   1      -1.139   5.933   0.142  0.00  0.00     0.009 A 
ATOM     12  C   UNL d   1      -0.930   7.304   0.313  0.00  0.00     0.024 A 
ATOM     13  C   UNL d   1      -0.256   7.767   1.441  0.00  0.00     0.034 A 
ATOM     14  C   UNL d   1       0.214   6.870   2.398  0.00  0.00     0.024 A 
ATOM     15 CL   UNL d   1      -0.002   9.455   1.653  0.00  0.00    -0.084 Cl
ATOM     16  C   UNL d   1       0.003   5.499   2.229  0.00  0.00     0.009 A 
ENDBRANCH   9  10
ENDBRANCH   8   9
ENDBRANCH   2   8
BRANCH   3  17
ATOM     17  C   UNL d   1       0.457  -2.555   0.083  0.00  0.00    -0.008 A 
ATOM     18  C   UNL d   1       1.600  -2.986   0.772  0.00  0.00     0.015 A 
ATOM     19  C   UNL d   1       1.986  -4.331   0.758  0.00  0.00     0.024 A 
ATOM     20  C   UNL d   1       1.214  -5.268   0.078  0.00  0.00     0.034 A 
ATOM     21  C   UNL d   1       0.061  -4.867  -0.590  0.00  0.00     0.024 A 
ATOM     22 CL   UNL d   1       1.679  -6.923   0.074  0.00  0.00    -0.084 Cl
ATOM     23  C   UNL d   1      -0.312  -3.519  -0.589  0.00  0.00     0.015 A 
ENDBRANCH   3  17
TORSDOF 4
