REMARK  6 active torsions:
REMARK  status: ('A' for Active; 'I' for Inactive)
REMARK       I    between atoms: N_2  and  C_1 
REMARK    1  A    between atoms: O_4  and  C_1 
REMARK       I    between atoms: C_3  and  N_12 
REMARK    2  A    between atoms: C_6  and  C_3 
REMARK    3  A    between atoms: C_11  and  O_4 
REMARK    4  A    between atoms: C_22  and  N_5 
REMARK    5  A    between atoms: N_12  and  C_21 
REMARK    6  A    between atoms: C_21  and  C_22 
ROOT
ATOM      1  C   UNL d   1       1.046  -0.062  -0.096  0.00  0.00     0.363 C 
ATOM      2  N   UNL d   1       0.564   0.914  -0.953  0.00  0.00    -0.325 N 
ATOM      3  N   UNL d   1      -0.129   3.066  -2.859  0.00  0.00     0.093 N 
ATOM      4  O   UNL d   1       1.863  -0.899  -0.456  0.00  0.00    -0.238 OA
ATOM      5  C   UNL d   1       0.932   0.821  -2.366  0.00  0.00     0.158 C 
ATOM      6  C   UNL d   1      -0.545   1.819  -0.644  0.00  0.00     0.158 C 
ATOM      7  C   UNL d   1       1.070   2.210  -3.003  0.00  0.00     0.292 C 
ATOM      8  C   UNL d   1      -0.443   3.163  -1.408  0.00  0.00     0.292 C 
ENDROOT
BRANCH   3   9
ATOM      9  C   UNL d   1      -1.293   2.566  -3.624  0.00  0.00     0.292 C 
BRANCH   9  10
ATOM     10  C   UNL d   1      -1.047   2.415  -5.145  0.00  0.00     0.153 C 
BRANCH  10  11
ATOM     11  N   UNL d   1      -2.230   2.006  -5.889  0.00  0.00    -0.355 N 
ATOM     12  C   UNL d   1      -2.747   0.735  -5.739  0.00  0.00     0.251 C 
ATOM     13  O   UNL d   1      -2.288  -0.088  -4.957  0.00  0.00    -0.268 OA
ATOM     14  H   UNL d   1      -2.435   2.507  -6.743  0.00  0.00     0.162 HD
BRANCH  12  15
ATOM     15  C   UNL d   1      -3.904   0.371  -6.601  0.00  0.00     0.032 A 
ATOM     16  C   UNL d   1      -4.117  -0.984  -6.891  0.00  0.00     0.018 A 
ATOM     17  C   UNL d   1      -5.235  -1.379  -7.630  0.00  0.00     0.025 A 
ATOM     18  C   UNL d   1      -6.144  -0.420  -8.072  0.00  0.00     0.034 A 
ATOM     19  C   UNL d   1      -5.937   0.932  -7.795  0.00  0.00     0.025 A 
ATOM     20 CL   UNL d   1      -7.545  -0.908  -8.943  0.00  0.00    -0.084 Cl
ATOM     21  C   UNL d   1      -4.816   1.331  -7.060  0.00  0.00     0.018 A 
ENDBRANCH  12  15
ENDBRANCH  10  11
ENDBRANCH   9  10
ENDBRANCH   3   9
BRANCH   1  22
ATOM     22  O   UNL d   1       0.546   0.020   1.171  0.00  0.00    -0.294 OA
BRANCH  22  23
ATOM     23  C   UNL d   1       1.051  -0.895   2.185  0.00  0.00     0.061 C 
ATOM     24  C   UNL d   1       2.546  -0.656   2.453  0.00  0.00     0.046 C 
ATOM     25  C   UNL d   1       0.278  -0.571   3.476  0.00  0.00     0.046 C 
ATOM     26  C   UNL d   1       0.761  -2.365   1.835  0.00  0.00     0.046 C 
ENDBRANCH  22  23
ENDBRANCH   1  22
TORSDOF 6
