REMARK  2 active torsions:
REMARK  status: ('A' for Active; 'I' for Inactive)
REMARK    1  A    between atoms: N_7  and  C_4 
REMARK    2  A    between atoms: C_12  and  N_7 
ROOT
ATOM      1  C   UNL d   1      -0.729  -0.780  -0.090  0.00  0.00     0.332 A 
ATOM      2  N   UNL d   1      -1.391   0.448  -0.160  0.00  0.00    -0.289 N 
ATOM      3  N   UNL d   1       0.653  -0.726   0.004  0.00  0.00    -0.271 N 
ATOM      4  C   UNL d   1      -0.750   1.669   0.001  0.00  0.00     0.116 A 
ATOM      5  C   UNL d   1       0.587   1.681   0.099  0.00  0.00     0.123 A 
ATOM      6  C   UNL d   1       1.372   0.446   0.052  0.00  0.00     0.254 A 
ATOM      7  O   UNL d   1      -1.338  -1.852  -0.109  0.00  0.00    -0.246 OA
ATOM      8  O   UNL d   1       2.598   0.515   0.067  0.00  0.00    -0.268 OA
ATOM      9  C   UNL d   1      -2.848   0.417  -0.238  0.00  0.00     0.163 C 
ATOM     10  C   UNL d   1       1.413  -1.961   0.028  0.00  0.00     0.164 C 
ENDROOT
BRANCH   4  11
ATOM     11  N   UNL d   1      -1.464   2.860   0.043  0.00  0.00    -0.342 N 
ATOM     12  H   UNL d   1      -1.983   3.075  -0.799  0.00  0.00     0.167 HD
BRANCH  11  13
ATOM     13  C   UNL d   1      -1.260   3.918   0.947  0.00  0.00     0.033 A 
ATOM     14  C   UNL d   1      -1.352   5.245   0.514  0.00  0.00     0.029 A 
ATOM     15  C   UNL d   1      -1.089   6.301   1.394  0.00  0.00     0.002 A 
ATOM     16  C   UNL d   1      -0.739   6.041   2.717  0.00  0.00     0.000 A 
ATOM     17  C   UNL d   1      -0.649   4.726   3.163  0.00  0.00     0.002 A 
ATOM     18  C   UNL d   1      -0.899   3.675   2.281  0.00  0.00     0.029 A 
ENDBRANCH  11  13
ENDBRANCH   4  11
TORSDOF 2
