REMARK  4 active torsions:
REMARK  status: ('A' for Active; 'I' for Inactive)
REMARK    1  A    between atoms: C_7  and  C_1 
REMARK    2  A    between atoms: S_8  and  C_7 
REMARK    3  A    between atoms: C_9  and  S_8 
REMARK    4  A    between atoms: N_11  and  C_10 
ROOT
ATOM      1  C   UNL d   1      -1.108   1.135   0.034  0.00  0.00    -0.036 C 
ATOM      2  C   UNL d   1       0.168   1.745   0.187  0.00  0.00    -0.048 C 
ATOM      3  C   UNL d   1      -1.172  -0.295  -0.010  0.00  0.00    -0.048 C 
ATOM      4  C   UNL d   1       1.353   0.974   0.025  0.00  0.00    -0.049 C 
ATOM      5  C   UNL d   1       0.019  -1.076  -0.061  0.00  0.00    -0.049 C 
ATOM      6  C   UNL d   1       1.281  -0.438  -0.055  0.00  0.00    -0.049 C 
ATOM      7  C   UNL d   1      -0.036  -2.590  -0.100  0.00  0.00     0.049 C 
ATOM      8  C   UNL d   1       0.313   3.204   0.558  0.00  0.00     0.049 C 
ATOM      9  C   UNL d   1       2.567  -1.236  -0.107  0.00  0.00     0.049 C 
ATOM     10  C   UNL d   1      -2.500  -1.030   0.029  0.00  0.00     0.049 C 
ATOM     11  C   UNL d   1       2.713   1.645  -0.010  0.00  0.00     0.049 C 
ENDROOT
BRANCH   1  12
ATOM     12  C   UNL d   1      -2.426   1.918   0.040  0.00  0.00     0.119 C 
BRANCH  12  13
ATOM     13  S   UNL d   1      -2.503   3.545  -0.785  0.00  0.00    -0.123 SA
BRANCH  13  14
ATOM     14  C   UNL d   1      -4.274   3.841  -0.693  0.00  0.00     0.021 A 
ATOM     15  C   UNL d   1      -4.964   4.030   0.524  0.00  0.00     0.022 A 
ATOM     16  C   UNL d   1      -6.364   4.130   0.495  0.00  0.00     0.024 A 
ATOM     17  C   UNL d   1      -7.052   4.179  -0.719  0.00  0.00     0.002 A 
ATOM     18  C   UNL d   1      -6.357   4.090  -1.918  0.00  0.00     0.001 A 
ATOM     19  C   UNL d   1      -4.970   3.914  -1.905  0.00  0.00     0.020 A 
BRANCH  15  20
ATOM     20  N   UNL d   1      -4.322   3.914   1.775  0.00  0.00    -0.302 NA
ATOM     21  H   UNL d   1      -3.344   4.190   1.713  0.00  0.00     0.124 HD
ATOM     22  H   UNL d   1      -4.808   4.403   2.520  0.00  0.00     0.124 HD
ENDBRANCH  15  20
ENDBRANCH  13  14
ENDBRANCH  12  13
ENDBRANCH   1  12
TORSDOF 4
