REMARK  5 active torsions:
REMARK  status: ('A' for Active; 'I' for Inactive)
REMARK    1  A    between atoms: C_9  and  C_1 
REMARK    2  A    between atoms: C_8  and  C_2 
REMARK    3  A    between atoms: O_7  and  C_3 
REMARK    4  A    between atoms: O_11  and  C_8 
REMARK    5  A    between atoms: O_10  and  C_9 
ROOT
ATOM      1  C   UNL d   1      -1.030   1.264  -0.032  0.00  0.00    -0.000 A 
ATOM      2  C   UNL d   1       1.051  -0.026  -0.041  0.00  0.00    -0.000 A 
ATOM      3  C   UNL d   1       0.383   1.217  -0.069  0.00  0.00     0.085 A 
ATOM      4  C   UNL d   1      -1.764   0.068   0.042  0.00  0.00     0.019 A 
ATOM      5  C   UNL d   1       0.275  -1.203   0.031  0.00  0.00     0.019 A 
ATOM      6  C   UNL d   1      -1.120  -1.170   0.063  0.00  0.00    -0.061 A 
ATOM      7  C   UNL d   1      -1.927  -2.434   0.104  0.00  0.00     0.048 C 
ENDROOT
BRANCH   1   8
ATOM      8  C   UNL d   1      -1.807   2.567   0.012  0.00  0.00     0.205 C 
BRANCH   8   9
ATOM      9  O   UNL d   1      -1.364   3.532  -0.932  0.00  0.00    -0.396 OA
ATOM     10  H   UNL d   1      -0.396   3.426  -0.992  0.00  0.00     0.209 HD
ENDBRANCH   8   9
ENDBRANCH   1   8
BRANCH   3  11
ATOM     11  O   UNL d   1       0.984   2.436  -0.265  0.00  0.00    -0.355 OA
ATOM     12  C   UNL d   1       2.157   2.737   0.476  0.00  0.00     0.210 C 
ENDBRANCH   3  11
BRANCH   2  13
ATOM     13  C   UNL d   1       2.547  -0.211  -0.112  0.00  0.00     0.205 C 
BRANCH  13  14
ATOM     14  O   UNL d   1       3.101   0.299  -1.315  0.00  0.00    -0.396 OA
ATOM     15  H   UNL d   1       2.364   0.479  -1.924  0.00  0.00     0.209 HD
ENDBRANCH  13  14
ENDBRANCH   2  13
TORSDOF 5
