REMARK  6 active torsions:
REMARK  status: ('A' for Active; 'I' for Inactive)
REMARK    1  A    between atoms: C_2  and  S_1 
REMARK    2  A    between atoms: N_4  and  S_1 
REMARK    3  A    between atoms: N_3  and  C_6 
REMARK    4  A    between atoms: C_12  and  N_4 
REMARK    5  A    between atoms: C_16  and  N_4 
REMARK    6  A    between atoms: N_15  and  C_9 
ROOT
ATOM      1  C   UNL d   1       0.566  -1.177   1.002  0.00  0.00     0.098 A 
ATOM      2  C   UNL d   1       1.690  -1.901   1.439  0.00  0.00     0.062 A 
ATOM      3  C   UNL d   1       1.517  -2.957   2.338  0.00  0.00     0.104 A 
ATOM      4  C   UNL d   1      -0.718  -1.448   1.504  0.00  0.00     0.029 A 
ATOM      5  C   UNL d   1       0.240  -3.298   2.790  0.00  0.00     0.038 A 
ATOM      6  C   UNL d   1      -0.865  -2.554   2.356  0.00  0.00     0.027 A 
ENDROOT
BRANCH   1   7
ATOM      7  S   UNL d   1       0.829   0.126  -0.194  0.00  0.00     0.249 S 
ATOM      8  O   UNL d   1       2.244   0.143  -0.513  0.00  0.00    -0.205 OA
ATOM      9  O   UNL d   1       0.169   1.300   0.343  0.00  0.00    -0.205 OA
BRANCH   7  10
ATOM     10  N   UNL d   1      -0.018  -0.418  -1.608  0.00  0.00    -0.172 NA
BRANCH  10  11
ATOM     11  C   UNL d   1      -0.079   0.616  -2.624  0.00  0.00     0.025 A 
ATOM     12  C   UNL d   1       0.841   0.687  -3.674  0.00  0.00     0.024 A 
ATOM     13  C   UNL d   1       0.776   1.728  -4.605  0.00  0.00     0.002 A 
ATOM     14  C   UNL d   1      -0.175   2.736  -4.463  0.00  0.00     0.000 A 
ATOM     15  C   UNL d   1      -1.063   2.704  -3.390  0.00  0.00     0.002 A 
ATOM     16  C   UNL d   1      -1.016   1.647  -2.477  0.00  0.00     0.024 A 
ENDBRANCH  10  11
BRANCH  10  17
ATOM     17  C   UNL d   1       0.361  -1.800  -2.035  0.00  0.00     0.109 C 
ATOM     18  C   UNL d   1      -0.446  -2.310  -3.221  0.00  0.00     0.022 C 
ENDBRANCH  10  17
ENDBRANCH   7  10
ENDBRANCH   1   7
BRANCH   4  19
ATOM     19  N   UNL d   1      -1.885  -0.839   1.023  0.00  0.00    -0.301 NA
ATOM     20  H   UNL d   1      -1.750   0.124   0.704  0.00  0.00     0.124 HD
ATOM     21  H   UNL d   1      -2.684  -0.900   1.648  0.00  0.00     0.124 HD
ENDBRANCH   4  19
BRANCH   3  22
ATOM     22  N   UNL d   1       2.678  -3.737   2.790  0.00  0.00    -0.116 N 
ATOM     23  O   UNL d   1       3.787  -3.438   2.323  0.00  0.00    -0.532 OA
ATOM     24  O   UNL d   1       2.479  -4.650   3.602  0.00  0.00    -0.532 OA
ENDBRANCH   3  22
TORSDOF 6
