REMARK  4 active torsions:
REMARK  status: ('A' for Active; 'I' for Inactive)
REMARK    1  A    between atoms: N_3  and  C_1 
REMARK    2  A    between atoms: C_2  and  N_3 
REMARK    3  A    between atoms: C_10  and  N_5 
REMARK    4  A    between atoms: C_12  and  C_10 
ROOT
ATOM      1  C   UNL d   1       1.194   0.075   0.062  0.00  0.00     0.172 C 
ATOM      2  S   UNL d   1       0.315  -0.902  -0.970  0.00  0.00    -0.041 SA
ATOM      3  N   UNL d   1       2.543   0.010   0.010  0.00  0.00    -0.363 N 
ATOM      4  H   UNL d   1       2.861  -0.619  -0.717  0.00  0.00     0.162 HD
ENDROOT
BRANCH   1   5
ATOM      5  N   UNL d   1       0.539   0.842   0.962  0.00  0.00    -0.332 N 
ATOM      6  H   UNL d   1      -0.378   0.479   1.217  0.00  0.00     0.168 HD
BRANCH   5   7
ATOM      7  C   UNL d   1       0.938   2.010   1.649  0.00  0.00     0.062 C 
ATOM      8  C   UNL d   1       0.425   2.209   2.946  0.00  0.00     0.061 C 
ATOM      9 CL   UNL d   1      -0.768   1.144   3.613  0.00  0.00    -0.082 Cl
ATOM     10  C   UNL d   1       0.904   3.239   3.756  0.00  0.00     0.026 C 
ATOM     11  C   UNL d   1       1.881   4.101   3.271  0.00  0.00     0.002 C 
ATOM     12  C   UNL d   1       2.316   3.982   1.952  0.00  0.00     0.009 C 
ATOM     13  C   UNL d   1       1.817   2.971   1.109  0.00  0.00    -0.034 C 
ATOM     14  C   UNL d   1       2.223   3.026  -0.340  0.00  0.00     0.050 C 
ENDBRANCH   5   7
ENDBRANCH   1   5
BRANCH   3  15
ATOM     15  C   UNL d   1       3.480   0.144   1.117  0.00  0.00     0.160 C 
BRANCH  15  16
ATOM     16  C   UNL d   1       3.805  -1.201   1.706  0.00  0.00    -0.038 A 
ATOM     17  C   UNL d   1       4.900  -1.941   1.251  0.00  0.00     0.025 A 
ATOM     18  C   UNL d   1       5.135  -3.185   1.813  0.00  0.00     0.088 A 
ATOM     19  N   UNL d   1       4.366  -3.734   2.775  0.00  0.00    -0.375 N 
ATOM     20  C   UNL d   1       3.307  -3.010   3.191  0.00  0.00     0.088 A 
ATOM     21  HN  UNL d   1       4.575  -4.652   3.168  1.00  0.00     0.164 HD
ATOM     22  C   UNL d   1       2.987  -1.757   2.693  0.00  0.00     0.025 A 
ENDBRANCH  15  16
ENDBRANCH   3  15
TORSDOF 4
