REMARK  5 active torsions:
REMARK  status: ('A' for Active; 'I' for Inactive)
REMARK    1  A    between atoms: C_7  and  C_1 
REMARK    2  A    between atoms: C_6  and  N_12 
REMARK    3  A    between atoms: N_10  and  C_6 
REMARK    4  A    between atoms: N_12  and  N_8 
REMARK    5  A    between atoms: C_13  and  N_10 
ROOT
ATOM      1  C   UNL d   1       3.511   0.099   0.018  0.00  0.00     0.126 C 
ATOM      2  N   UNL d   1       4.032   1.281  -0.007  0.00  0.00    -0.308 N 
ATOM      3  HN  UNL d   1       3.469   2.103  -0.223  1.00  0.00     0.186 HD
ENDROOT
BRANCH   2   4
ATOM      4  N   UNL d   1       5.361   1.386   0.266  0.00  0.00    -0.276 N 
ATOM      5  H   UNL d   1       5.863   0.591   0.647  0.00  0.00     0.189 HD
BRANCH   4   6
ATOM      6  C   UNL d   1       6.036   2.569   0.070  0.00  0.00     0.191 C 
ATOM      7  S   UNL d   1       5.543   3.822  -0.926  0.00  0.00    -0.039 SA
BRANCH   6   8
ATOM      8  N   UNL d   1       7.254   2.685   0.689  0.00  0.00    -0.332 N 
ATOM      9  H   UNL d   1       7.840   3.408   0.286  0.00  0.00     0.168 HD
BRANCH   8  10
ATOM     10  C   UNL d   1       7.663   2.199   1.947  0.00  0.00     0.034 A 
ATOM     11  C   UNL d   1       9.018   2.326   2.272  0.00  0.00     0.031 A 
ATOM     12  C   UNL d   1       9.487   1.928   3.526  0.00  0.00     0.026 A 
ATOM     13  C   UNL d   1       8.598   1.418   4.469  0.00  0.00     0.034 A 
ATOM     14  C   UNL d   1       7.242   1.307   4.165  0.00  0.00     0.026 A 
ATOM     15 CL   UNL d   1       9.167   0.954   6.023  0.00  0.00    -0.084 Cl
ATOM     16  C   UNL d   1       6.776   1.697   2.906  0.00  0.00     0.031 A 
ENDBRANCH   8  10
ENDBRANCH   6   8
ENDBRANCH   4   6
ENDBRANCH   2   4
BRANCH   1  17
ATOM     17  C   UNL d   1       2.079  -0.076  -0.125  0.00  0.00     0.029 C 
ATOM     18  S   UNL d   1       1.467  -1.668  -0.063  0.00  0.00    -0.088 SA
ATOM     19  C   UNL d   1      -0.165  -1.135  -0.065  0.00  0.00     0.016 A 
ATOM     20  C   UNL d   1      -1.322  -1.934   0.027  0.00  0.00     0.019 A 
ATOM     21  C   UNL d   1      -0.241   0.255  -0.160  0.00  0.00    -0.012 A 
ATOM     22  C   UNL d   1      -2.574  -1.314   0.065  0.00  0.00     0.001 A 
ATOM     23  C   UNL d   1      -2.678   0.066   0.002  0.00  0.00     0.001 A 
ATOM     24  C   UNL d   1      -1.528   0.851  -0.122  0.00  0.00     0.013 A 
ATOM     25  C   UNL d   1       1.070   0.864  -0.277  0.00  0.00    -0.032 C 
ATOM     26  C   UNL d   1       1.249   2.341  -0.462  0.00  0.00     0.050 C 
ENDBRANCH   1  17
TORSDOF 5
