REMARK  6 active torsions:
REMARK  status: ('A' for Active; 'I' for Inactive)
REMARK    1  A    between atoms: O_14  and  C_1 
REMARK    2  A    between atoms: O_16  and  C_2 
REMARK    3  A    between atoms: O_15  and  C_3 
REMARK    4  A    between atoms: N_10  and  C_4 
REMARK    5  A    between atoms: C_11  and  C_7 
REMARK       I    between atoms: C_8  and  N_10 
REMARK    6  A    between atoms: C_9  and  C_8 
ROOT
ATOM      1  C   UNL d   1      -3.362   1.592  -0.294  0.00  0.00     0.245 C 
ATOM      2  N   UNL d   1      -2.670   0.468   0.114  0.00  0.00    -0.324 N 
ATOM      3  O   UNL d   1      -2.893   2.706  -0.482  0.00  0.00    -0.268 OA
ATOM      4  H   UNL d   1      -3.208  -0.363   0.319  0.00  0.00     0.169 HD
ENDROOT
BRANCH   2   5
ATOM      5  C   UNL d   1      -1.262   0.323   0.165  0.00  0.00     0.040 A 
ATOM      6  C   UNL d   1      -0.359   1.328  -0.185  0.00  0.00     0.069 A 
ATOM      7  C   UNL d   1       1.029   1.104  -0.207  0.00  0.00     0.106 A 
ATOM      8  C   UNL d   1       1.523  -0.173   0.092  0.00  0.00     0.135 A 
ATOM      9  C   UNL d   1       0.620  -1.188   0.474  0.00  0.00     0.106 A 
ATOM     10  C   UNL d   1      -0.756  -0.925   0.535  0.00  0.00     0.069 A 
BRANCH   7  11
ATOM     11  O   UNL d   1       1.721   2.231  -0.570  0.00  0.00    -0.353 OA
ATOM     12  C   UNL d   1       3.139   2.225  -0.517  0.00  0.00     0.210 C 
ENDBRANCH   7  11
BRANCH   8  13
ATOM     13  O   UNL d   1       2.876  -0.393   0.088  0.00  0.00    -0.351 OA
ATOM     14  C   UNL d   1       3.307  -1.453  -0.764  0.00  0.00     0.210 C 
ENDBRANCH   8  13
BRANCH   9  15
ATOM     15  O   UNL d   1       1.140  -2.406   0.839  0.00  0.00    -0.353 OA
ATOM     16  C   UNL d   1       0.378  -3.550   0.460  0.00  0.00     0.210 C 
ENDBRANCH   9  15
ENDBRANCH   2   5
BRANCH   1  17
ATOM     17  C   UNL d   1      -4.806   1.315  -0.563  0.00  0.00     0.075 C 
ATOM     18  C   UNL d   1      -5.546   2.319  -1.064  0.00  0.00     0.018 C 
BRANCH  18  19
ATOM     19  C   UNL d   1      -6.940   2.239  -1.521  0.00  0.00    -0.014 A 
ATOM     20  C   UNL d   1      -7.851   3.294  -1.296  0.00  0.00     0.044 A 
ATOM     21 CL   UNL d   1      -7.459   4.652  -0.292  0.00  0.00    -0.083 Cl
ATOM     22  C   UNL d   1      -9.121   3.280  -1.881  0.00  0.00     0.024 A 
ATOM     23  C   UNL d   1      -9.504   2.218  -2.699  0.00  0.00     0.002 A 
ATOM     24  C   UNL d   1      -8.623   1.162  -2.917  0.00  0.00     0.001 A 
ATOM     25  C   UNL d   1      -7.353   1.173  -2.336  0.00  0.00     0.013 A 
ENDBRANCH  18  19
ENDBRANCH   1  17
TORSDOF 6
