REMARK  5 active torsions:
REMARK  status: ('A' for Active; 'I' for Inactive)
REMARK    1  A    between atoms: N_3  and  C_1 
REMARK    2  A    between atoms: N_5  and  C_1 
REMARK    3  A    between atoms: C_2  and  N_3 
REMARK    4  A    between atoms: C_11  and  N_5 
REMARK       I    between atoms: C_9  and  N_10 
REMARK    5  A    between atoms: N_10  and  C_12 
ROOT
ATOM      1  N   UNL d   1       0.519  -0.890   0.705  0.00  0.00    -0.333 N 
ATOM      2  H   UNL d   1      -0.419  -1.059   0.356  0.00  0.00     0.168 HD
ENDROOT
BRANCH   1   3
ATOM      3  C   UNL d   1       1.154  -2.019   1.261  0.00  0.00     0.042 A 
ATOM      4  C   UNL d   1       0.551  -3.260   0.975  0.00  0.00     0.059 A 
ATOM      5  C   UNL d   1       1.040  -4.449   1.515  0.00  0.00     0.036 A 
ATOM      6  C   UNL d   1       2.143  -4.391   2.365  0.00  0.00     0.030 A 
ATOM      7  C   UNL d   1       2.728  -3.161   2.686  0.00  0.00     0.011 A 
ATOM      8  C   UNL d   1       2.226  -1.956   2.163  0.00  0.00    -0.035 A 
ATOM      9  C   UNL d   1       2.839  -0.684   2.681  0.00  0.00     0.050 C 
BRANCH   5  10
ATOM     10  N   UNL d   1       0.484  -5.722   1.257  0.00  0.00    -0.327 N 
ATOM     11  C   UNL d   1      -0.610  -6.018   0.464  0.00  0.00     0.218 C 
ATOM     12  O   UNL d   1      -1.302  -5.217  -0.160  0.00  0.00    -0.274 OA
ATOM     13  C   UNL d   1      -0.927  -7.491   0.413  0.00  0.00     0.117 C 
ATOM     14  H   UNL d   1       0.943  -6.500   1.714  0.00  0.00     0.169 HD
ENDBRANCH   5  10
ENDBRANCH   1   3
BRANCH   1  15
ATOM     15  C   UNL d   1       1.067   0.230   0.123  0.00  0.00     0.176 C 
ATOM     16  S   UNL d   1       2.539   0.329  -0.662  0.00  0.00    -0.041 SA
BRANCH  15  17
ATOM     17  N   UNL d   1       0.206   1.304   0.042  0.00  0.00    -0.333 N 
ATOM     18  H   UNL d   1       0.440   1.973  -0.685  0.00  0.00     0.168 HD
BRANCH  17  19
ATOM     19  C   UNL d   1      -0.903   1.595   0.861  0.00  0.00     0.035 A 
ATOM     20  C   UNL d   1      -1.012   1.133   2.178  0.00  0.00     0.055 A 
ATOM     21  C   UNL d   1      -2.129   1.452   2.957  0.00  0.00     0.058 A 
ATOM     22 CL   UNL d   1      -2.165   0.877   4.586  0.00  0.00    -0.082 Cl
ATOM     23  C   UNL d   1      -3.157   2.225   2.412  0.00  0.00     0.055 A 
ATOM     24  C   UNL d   1      -3.040   2.708   1.105  0.00  0.00     0.028 A 
ATOM     25 CL   UNL d   1      -4.589   2.619   3.293  0.00  0.00    -0.083 Cl
ATOM     26  C   UNL d   1      -1.906   2.415   0.342  0.00  0.00     0.031 A 
ENDBRANCH  17  19
ENDBRANCH  15  17
ENDBRANCH   1  15
TORSDOF 5
