REMARK  6 active torsions:
REMARK  status: ('A' for Active; 'I' for Inactive)
REMARK    1  A    between atoms: S_11  and  C_3 
REMARK    2  A    between atoms: O_17  and  C_4 
REMARK    3  A    between atoms: C_9  and  C_13 
REMARK    4  A    between atoms: C_13  and  S_11 
REMARK    5  A    between atoms: C_20  and  C_12 
REMARK    6  A    between atoms: C_21  and  C_20 
ROOT
ATOM      1  N   UNL d   1      -0.328  -1.186   0.023  0.00  0.00    -0.318 N 
ATOM      2  HN  UNL d   1      -0.878  -2.046   0.024  1.00  0.00     0.170 HD
ATOM      3  C   UNL d   1       1.015  -1.193   0.057  0.00  0.00     0.146 A 
ATOM      4  C   UNL d   1      -0.892   0.019  -0.012  0.00  0.00     0.143 A 
ATOM      5  N   UNL d   1       1.789  -0.092   0.060  0.00  0.00    -0.340 N 
ATOM      6  HN  UNL d   1       2.807  -0.154   0.095  1.00  0.00     0.167 HD
ATOM      7  C   UNL d   1      -0.224   1.208  -0.017  0.00  0.00     0.081 A 
ATOM      8  C   UNL d   1       1.151   1.108   0.015  0.00  0.00     0.015 A 
ENDROOT
BRANCH   3   9
ATOM      9  S   UNL d   1       1.737  -2.815   0.113  0.00  0.00    -0.089 SA
BRANCH   9  10
ATOM     10  C   UNL d   1       3.514  -2.438   0.117  0.00  0.00     0.122 C 
BRANCH  10  11
ATOM     11  C   UNL d   1       4.327  -3.722   0.123  0.00  0.00    -0.027 A 
ATOM     12  C   UNL d   1       4.715  -4.384  -1.056  0.00  0.00     0.042 A 
ATOM     13  C   UNL d   1       5.435  -5.584  -1.004  0.00  0.00     0.048 A 
ATOM     14 CL   UNL d   1       4.324  -3.768  -2.623  0.00  0.00    -0.084 Cl
ATOM     15  C   UNL d   1       5.767  -6.139   0.228  0.00  0.00     0.035 A 
ATOM     16  C   UNL d   1       5.384  -5.510   1.408  0.00  0.00     0.024 A 
ATOM     17 CL   UNL d   1       6.652  -7.614   0.293  0.00  0.00    -0.084 Cl
ATOM     18  C   UNL d   1       4.666  -4.311   1.356  0.00  0.00     0.011 A 
ENDBRANCH  10  11
ENDBRANCH   9  10
ENDBRANCH   3   9
BRANCH   4  19
ATOM     19  O   UNL d   1      -2.249  -0.003  -0.042  0.00  0.00    -0.346 OA
ATOM     20  H   UNL d   1      -2.412  -0.964  -0.034  0.00  0.00     0.219 HD
ENDBRANCH   4  19
BRANCH   8  21
ATOM     21  C   UNL d   1       1.984   2.368   0.025  0.00  0.00     0.057 C 
BRANCH  21  22
ATOM     22  C   UNL d   1       2.928   2.503  -1.172  0.00  0.00     0.002 C 
ATOM     23  C   UNL d   1       2.203   2.594  -2.508  0.00  0.00     0.005 C 
ENDBRANCH  21  22
ENDBRANCH   8  21
TORSDOF 6
