REMARK  5 active torsions:
REMARK  status: ('A' for Active; 'I' for Inactive)
REMARK    1  A    between atoms: N_4  and  C_1 
REMARK    2  A    between atoms: N_7  and  C_1 
REMARK    3  A    between atoms: C_3  and  N_4 
REMARK    4  A    between atoms: C_5  and  C_13 
REMARK    5  A    between atoms: C_13  and  N_7 
ROOT
ATOM      1  C   UNL d   1       1.389   0.070  -0.065  0.00  0.00     0.172 C 
ATOM      2  S   UNL d   1       3.011   0.197   0.317  0.00  0.00    -0.041 SA
ENDROOT
BRANCH   1   3
ATOM      3  N   UNL d   1       0.607   1.033  -0.648  0.00  0.00    -0.333 N 
ATOM      4  H   UNL d   1      -0.267   1.202  -0.170  0.00  0.00     0.168 HD
BRANCH   3   5
ATOM      5  C   UNL d   1       0.989   1.964  -1.645  0.00  0.00     0.041 A 
ATOM      6  C   UNL d   1       0.373   3.231  -1.727  0.00  0.00    -0.013 A 
ATOM      7  C   UNL d   1       0.657   4.037  -2.850  0.00  0.00     0.042 A 
ATOM      8  C   UNL d   1      -0.547   3.746  -0.650  0.00  0.00     0.052 C 
ATOM      9 CL   UNL d   1      -0.103   5.576  -3.084  0.00  0.00    -0.084 Cl
ATOM     10  C   UNL d   1       1.556   3.620  -3.835  0.00  0.00     0.024 A 
ATOM     11  C   UNL d   1       2.187   2.388  -3.722  0.00  0.00     0.004 A 
ATOM     12  C   UNL d   1       1.898   1.563  -2.637  0.00  0.00     0.030 A 
ENDBRANCH   3   5
ENDBRANCH   1   3
BRANCH   1  13
ATOM     13  N   UNL d   1       0.741  -1.083   0.278  0.00  0.00    -0.361 N 
ATOM     14  H   UNL d   1       1.376  -1.788   0.638  0.00  0.00     0.162 HD
BRANCH  13  15
ATOM     15  C   UNL d   1      -0.430  -1.596  -0.413  0.00  0.00     0.187 C 
BRANCH  15  16
ATOM     16  C   UNL d   1      -0.774  -2.922   0.150  0.00  0.00     0.070 A 
ATOM     17  O   UNL d   1      -0.665  -3.991  -0.691  0.00  0.00    -0.325 OA
ATOM     18  C   UNL d   1      -1.002  -5.096   0.022  0.00  0.00     0.142 A 
ATOM     19  C   UNL d   1      -1.325  -4.754   1.314  0.00  0.00     0.027 A 
ATOM     20  C   UNL d   1      -1.182  -3.349   1.398  0.00  0.00     0.036 A 
ENDBRANCH  15  16
ENDBRANCH  13  15
ENDBRANCH   1  13
TORSDOF 5
