REMARK  5 active torsions:
REMARK  status: ('A' for Active; 'I' for Inactive)
REMARK    1  A    between atoms: C_6  and  S_1 
REMARK    2  A    between atoms: N_9  and  S_1 
REMARK    3  A    between atoms: C_2  and  C_10 
REMARK    4  A    between atoms: C_15  and  C_5 
REMARK    5  A    between atoms: C_10  and  N_9 
ROOT
ATOM      1  C   UNL d   1       0.517   4.009  -0.042  0.00  0.00     0.017 A 
ATOM      2  N   UNL d   1      -0.648   5.647  -1.118  0.00  0.00    -0.260 N 
ATOM      3  HN  UNL d   1      -1.300   6.137  -1.732  1.00  0.00     0.195 HD
ATOM      4  C   UNL d   1      -0.578   4.318  -0.924  0.00  0.00     0.075 A 
ATOM      5  O   UNL d   1       0.321   6.219  -0.335  0.00  0.00    -0.242 OA
ATOM      6  C   UNL d   1       0.999   5.252   0.324  0.00  0.00     0.082 A 
ATOM      7  C   UNL d   1       2.030   5.711   1.274  0.00  0.00     0.079 C 
ENDROOT
BRANCH   1   8
ATOM      8  C   UNL d   1       1.017   2.706   0.471  0.00  0.00     0.148 C 
BRANCH   8   9
ATOM      9  N   UNL d   1       1.490   1.880  -0.643  0.00  0.00    -0.211 NA
ATOM     10  H   UNL d   1       0.826   1.766  -1.410  0.00  0.00     0.140 HD
BRANCH   9  11
ATOM     11  S   UNL d   1       2.096   0.368  -0.211  0.00  0.00     0.248 S 
ATOM     12  O   UNL d   1       1.537   0.004   1.072  0.00  0.00    -0.205 OA
ATOM     13  O   UNL d   1       1.928  -0.474  -1.375  0.00  0.00    -0.205 OA
BRANCH  11  14
ATOM     14  C   UNL d   1       3.852   0.409   0.049  0.00  0.00     0.115 A 
ATOM     15  S   UNL d   1       4.662   1.889  -0.220  0.00  0.00    -0.089 SA
ATOM     16  C   UNL d   1       6.187   1.198   0.142  0.00  0.00     0.051 A 
ATOM     17  C   UNL d   1       6.085  -0.135   0.470  0.00  0.00     0.009 A 
ATOM     18  C   UNL d   1       4.736  -0.590   0.421  0.00  0.00     0.033 A 
ENDBRANCH  11  14
ENDBRANCH   9  11
ENDBRANCH   8   9
ENDBRANCH   1   8
BRANCH   4  19
ATOM     19  C   UNL d   1      -1.569   3.445  -1.568  0.00  0.00    -0.007 A 
ATOM     20  C   UNL d   1      -2.162   3.830  -2.784  0.00  0.00     0.014 A 
ATOM     21  C   UNL d   1      -3.158   3.050  -3.380  0.00  0.00     0.001 A 
ATOM     22  C   UNL d   1      -3.571   1.868  -2.775  0.00  0.00     0.000 A 
ATOM     23  C   UNL d   1      -2.992   1.467  -1.574  0.00  0.00     0.001 A 
ATOM     24  C   UNL d   1      -2.005   2.254  -0.971  0.00  0.00     0.014 A 
ENDBRANCH   4  19
TORSDOF 5
