REMARK  3 active torsions:
REMARK  status: ('A' for Active; 'I' for Inactive)
REMARK    1  A    between atoms: C_5  and  C_1 
REMARK    2  A    between atoms: C_6  and  C_2 
REMARK       I    between atoms: N_9  and  C_5 
REMARK    3  A    between atoms: C_12  and  N_9 
ROOT
ATOM      1  C   UNL d   1      -0.383  -1.211   0.179  0.00  0.00     0.093 A 
ATOM      2  C   UNL d   1      -1.731  -0.761  -0.008  0.00  0.00     0.085 A 
ATOM      3  N   UNL d   1      -1.737   0.570  -0.220  0.00  0.00    -0.259 N 
ATOM      4  HN  UNL d   1      -2.555   1.151  -0.404  1.00  0.00     0.195 HD
ATOM      5  O   UNL d   1      -0.434   0.996  -0.142  0.00  0.00    -0.241 OA
ATOM      6  C   UNL d   1       0.375  -0.061   0.102  0.00  0.00     0.090 A 
ATOM      7  C   UNL d   1       1.821   0.220   0.180  0.00  0.00     0.080 C 
ENDROOT
BRANCH   1   8
ATOM      8  C   UNL d   1       0.176  -2.524   0.420  0.00  0.00     0.261 C 
ATOM      9  N   UNL d   1      -0.205  -3.464  -0.514  0.00  0.00    -0.323 N 
ATOM     10  H   UNL d   1      -0.603  -3.119  -1.379  0.00  0.00     0.169 HD
ATOM     11  O   UNL d   1       0.970  -2.714   1.337  0.00  0.00    -0.267 OA
BRANCH   9  12
ATOM     12  C   UNL d   1      -0.121  -4.863  -0.370  0.00  0.00     0.037 A 
ATOM     13  C   UNL d   1       0.115  -5.492   0.853  0.00  0.00     0.072 A 
ATOM     14  C   UNL d   1      -0.017  -6.874   0.956  0.00  0.00     0.124 A 
ATOM     15  F   UNL d   1       0.150  -7.453   2.154  0.00  0.00    -0.205 F 
ATOM     16  C   UNL d   1      -0.366  -7.658  -0.145  0.00  0.00    -0.023 A 
ATOM     17  C   UNL d   1      -0.508  -7.036  -1.389  0.00  0.00     0.012 A 
ATOM     18  C   UNL d   1      -0.590  -9.129   0.019  0.00  0.00     0.051 C 
ATOM     19  C   UNL d   1      -0.398  -5.646  -1.496  0.00  0.00     0.030 A 
ENDBRANCH   9  12
ENDBRANCH   1   8
BRANCH   2  20
ATOM     20  C   UNL d   1      -3.013  -1.485  -0.047  0.00  0.00     0.015 A 
ATOM     21  C   UNL d   1      -3.394  -2.501   0.846  0.00  0.00     0.046 A 
ATOM     22 CL   UNL d   1      -2.438  -2.988   2.200  0.00  0.00    -0.083 Cl
ATOM     23  C   UNL d   1      -4.645  -3.127   0.721  0.00  0.00     0.025 A 
ATOM     24  C   UNL d   1      -5.551  -2.724  -0.258  0.00  0.00     0.002 A 
ATOM     25  C   UNL d   1      -5.211  -1.692  -1.123  0.00  0.00     0.001 A 
ATOM     26  C   UNL d   1      -3.955  -1.088  -1.023  0.00  0.00     0.015 A 
ENDBRANCH   2  20
TORSDOF 3
