REMARK  7 active torsions:
REMARK  status: ('A' for Active; 'I' for Inactive)
REMARK       I    between atoms: N_2  and  C_1 
REMARK    1  A    between atoms: C_8  and  C_1 
REMARK    2  A    between atoms: C_5  and  N_2 
REMARK    3  A    between atoms: C_6  and  C_8 
REMARK    4  A    between atoms: C_9  and  C_6 
REMARK    5  A    between atoms: C_12  and  C_6 
REMARK    6  A    between atoms: C_7  and  C_9 
REMARK    7  A    between atoms: O_15  and  C_7 
ROOT
ATOM      1  C   UNL d   1       0.237  -1.046   0.517  0.00  0.00     0.113 C 
ENDROOT
BRANCH   1   2
ATOM      2  C   UNL d   1      -1.290  -1.000   0.297  0.00  0.00     0.037 C 
BRANCH   2   3
ATOM      3  C   UNL d   1      -1.692  -0.853  -1.188  0.00  0.00     0.119 C 
BRANCH   3   4
ATOM      4  C   UNL d   1      -1.388  -2.076  -2.019  0.00  0.00     0.140 C 
ATOM      5  O   UNL d   1      -0.276  -2.575  -2.126  0.00  0.00    -0.650 OA
BRANCH   4   6
ATOM      6  O   UNL d   1      -2.458  -2.571  -2.679  0.00  0.00    -0.776 OA
ATOM      7  H   UNL d   1      -3.294  -2.102  -2.503  0.00  0.00     0.167 HD
ENDBRANCH   4   6
ENDBRANCH   3   4
ENDBRANCH   2   3
BRANCH   2   8
ATOM      8  C   UNL d   1      -2.036  -2.167   0.963  0.00  0.00    -0.053 A 
ATOM      9  C   UNL d   1      -1.370  -3.246   1.570  0.00  0.00     0.007 A 
ATOM     10  C   UNL d   1      -2.078  -4.290   2.170  0.00  0.00     0.001 A 
ATOM     11  C   UNL d   1      -3.467  -4.286   2.162  0.00  0.00     0.000 A 
ATOM     12  C   UNL d   1      -4.149  -3.229   1.566  0.00  0.00     0.001 A 
ATOM     13  C   UNL d   1      -3.442  -2.173   0.985  0.00  0.00     0.007 A 
ENDBRANCH   2   8
ENDBRANCH   1   2
BRANCH   1  14
ATOM     14  C   UNL d   1       1.006   0.177   0.047  0.00  0.00     0.223 C 
ATOM     15  N   UNL d   1       2.368  -0.038   0.168  0.00  0.00    -0.313 N 
ATOM     16  H   UNL d   1       2.671  -0.913   0.569  0.00  0.00     0.170 HD
ATOM     17  O   UNL d   1       0.437   1.197  -0.319  0.00  0.00    -0.273 OA
BRANCH  15  18
ATOM     18  C   UNL d   1       3.377   0.855  -0.209  0.00  0.00     0.107 A 
ATOM     19  N   UNL d   1       3.082   1.996  -0.848  0.00  0.00    -0.352 N 
ATOM     20  C   UNL d   1       4.104   2.808  -1.196  0.00  0.00     0.096 A 
ATOM     21  HN  UNL d   1       2.116   2.244  -1.065  1.00  0.00     0.166 HD
ATOM     22  C   UNL d   1       5.439   2.545  -0.923  0.00  0.00    -0.046 A 
ATOM     23  C   UNL d   1       5.729   1.354  -0.262  0.00  0.00     0.012 A 
ATOM     24  C   UNL d   1       6.507   3.503  -1.339  0.00  0.00     0.049 C 
ATOM     25  C   UNL d   1       4.689   0.497   0.095  0.00  0.00     0.049 A 
ENDBRANCH  15  18
ENDBRANCH   1  14
TORSDOF 7
