REMARK  8 active torsions:
REMARK  status: ('A' for Active; 'I' for Inactive)
REMARK    1  A    between atoms: N_3  and  C_1 
REMARK    2  A    between atoms: C_4  and  C_1 
REMARK    3  A    between atoms: N_5  and  C_1 
REMARK    4  A    between atoms: C_6  and  C_1 
REMARK    5  A    between atoms: S_2  and  N_3 
REMARK    6  A    between atoms: C_10  and  S_2 
REMARK       I    between atoms: C_9  and  N_5 
REMARK    7  A    between atoms: O_16  and  C_6 
REMARK    8  A    between atoms: C_20  and  O_16 
ROOT
ATOM      1  C   UNL d   1       0.895   0.033  -0.093  0.00  0.00     0.289 C 
ENDROOT
BRANCH   1   2
ATOM      2  N   UNL d   1       0.549   1.386   0.458  0.00  0.00    -0.171 NA
ATOM      3  H   UNL d   1      -0.476   1.465   0.498  0.00  0.00     0.143 HD
BRANCH   2   4
ATOM      4  S   UNL d   1       1.268   2.736  -0.240  0.00  0.00     0.244 S 
ATOM      5  O   UNL d   1       1.247   3.776   0.753  0.00  0.00    -0.206 OA
ATOM      6  O   UNL d   1       2.492   2.298  -0.858  0.00  0.00    -0.206 OA
BRANCH   4   7
ATOM      7  C   UNL d   1       0.158   3.255  -1.525  0.00  0.00     0.074 A 
ATOM      8  C   UNL d   1      -1.143   3.651  -1.197  0.00  0.00     0.025 A 
ATOM      9  C   UNL d   1      -1.996   4.104  -2.207  0.00  0.00     0.002 A 
ATOM     10  C   UNL d   1      -1.543   4.180  -3.526  0.00  0.00     0.000 A 
ATOM     11  C   UNL d   1      -0.238   3.802  -3.843  0.00  0.00     0.002 A 
ATOM     12  C   UNL d   1       0.617   3.339  -2.843  0.00  0.00     0.025 A 
ENDBRANCH   4   7
ENDBRANCH   2   4
ENDBRANCH   1   2
BRANCH   1  13
ATOM     13  C   UNL d   1       0.376  -0.214  -1.551  0.00  0.00     0.437 C 
ATOM     14  F   UNL d   1      -0.737   0.527  -1.799  0.00  0.00    -0.166 F 
ATOM     15  F   UNL d   1       1.259   0.117  -2.516  0.00  0.00    -0.166 F 
ATOM     16  F   UNL d   1       0.022  -1.510  -1.746  0.00  0.00    -0.166 F 
ENDBRANCH   1  13
BRANCH   1  17
ATOM     17  N   UNL d   1       0.341  -0.940   0.886  0.00  0.00    -0.323 N 
ATOM     18  C   UNL d   1      -1.001  -1.079   1.094  0.00  0.00     0.215 C 
ATOM     19  O   UNL d   1      -1.817  -0.336   0.557  0.00  0.00    -0.274 OA
ATOM     20  C   UNL d   1      -1.389  -2.193   2.025  0.00  0.00     0.117 C 
ATOM     21  H   UNL d   1       0.995  -1.477   1.445  0.00  0.00     0.165 HD
ENDBRANCH   1  17
BRANCH   1  22
ATOM     22  C   UNL d   1       2.392  -0.315  -0.086  0.00  0.00     0.313 C 
ATOM     23  O   UNL d   1       2.961  -1.020  -0.910  0.00  0.00    -0.260 OA
BRANCH  22  24
ATOM     24  O   UNL d   1       2.963   0.061   1.107  0.00  0.00    -0.319 OA
BRANCH  24  25
ATOM     25  C   UNL d   1       4.327  -0.343   1.297  0.00  0.00     0.174 C 
ATOM     26  C   UNL d   1       4.393  -1.802   1.720  0.00  0.00     0.034 C 
ENDBRANCH  24  25
ENDBRANCH  22  24
ENDBRANCH   1  22
TORSDOF 8
