REMARK  3 active torsions:
REMARK  status: ('A' for Active; 'I' for Inactive)
REMARK       I    between atoms: N_2  and  C_6 
REMARK       I    between atoms: C_3  and  N_2 
REMARK       I    between atoms: N_8  and  C_3 
REMARK    1  A    between atoms: C_6  and  C_4 
REMARK    2  A    between atoms: C_5  and  N_8 
REMARK    3  A    between atoms: C_16  and  C_7 
ROOT
ATOM      1  N   UNL d   1      -1.243   2.884   0.258  0.00  0.00    -0.175 NA
ATOM      2  C   UNL d   1      -2.470   2.857  -0.372  0.00  0.00     0.306 C 
ATOM      3  C   UNL d   1      -0.110   2.446  -0.397  0.00  0.00     0.246 C 
ATOM      4  N   UNL d   1      -3.192   1.726  -0.126  0.00  0.00    -0.298 N 
ATOM      5  O   UNL d   1      -2.882   3.865  -0.933  0.00  0.00    -0.253 OA
ATOM      6  O   UNL d   1       0.637   3.314  -0.855  0.00  0.00    -0.273 OA
ATOM      7  H   UNL d   1      -1.061   3.883   0.289  0.00  0.00     0.141 HD
ATOM      8  H   UNL d   1      -2.770   0.977   0.405  0.00  0.00     0.171 HD
ENDROOT
BRANCH   3   9
ATOM      9  C   UNL d   1       0.260   1.032  -0.402  0.00  0.00     0.068 A 
ATOM     10  S   UNL d   1      -0.743  -0.243   0.120  0.00  0.00    -0.089 SA
ATOM     11  C   UNL d   1       0.410  -1.467  -0.267  0.00  0.00    -0.009 A 
ATOM     12  C   UNL d   1       1.584  -0.880  -0.705  0.00  0.00     0.017 A 
ATOM     13  C   UNL d   1       1.493   0.539  -0.792  0.00  0.00     0.025 A 
BRANCH  11  14
ATOM     14  C   UNL d   1       0.074  -2.957  -0.101  0.00  0.00    -0.018 C 
ATOM     15  C   UNL d   1      -1.112  -3.344  -1.007  0.00  0.00     0.020 C 
ATOM     16  C   UNL d   1       1.269  -3.852  -0.506  0.00  0.00     0.020 C 
ATOM     17  C   UNL d   1      -0.264  -3.279   1.367  0.00  0.00     0.020 C 
ENDBRANCH  11  14
ENDBRANCH   3   9
BRANCH   4  18
ATOM     18  C   UNL d   1      -4.533   1.553  -0.384  0.00  0.00     0.131 A 
ATOM     19  N   UNL d   1      -5.154   0.460   0.074  0.00  0.00    -0.245 N 
ATOM     20  O   UNL d   1      -6.487   0.606  -0.260  0.00  0.00    -0.241 OA
ATOM     21  HN  UNL d   1      -4.729  -0.324   0.569  1.00  0.00     0.196 HD
ATOM     22  C   UNL d   1      -6.656   1.773  -0.936  0.00  0.00     0.076 A 
ATOM     23  C   UNL d   1      -5.441   2.397  -1.063  0.00  0.00     0.084 A 
ATOM     24  C   UNL d   1      -8.034   2.098  -1.346  0.00  0.00     0.079 C 
ENDBRANCH   4  18
TORSDOF 3
