REMARK  2 active torsions:
REMARK  status: ('A' for Active; 'I' for Inactive)
REMARK    1  A    between atoms: C_11  and  N_3 
REMARK    2  A    between atoms: O_10  and  C_4 
ROOT
ATOM      1  C   UNL d   1      -0.694   1.215  -0.010  0.00  0.00     0.118 A 
ATOM      2  C   UNL d   1      -1.478  -0.065  -0.007  0.00  0.00     0.270 A 
ATOM      3  N   UNL d   1      -0.742  -1.254   0.029  0.00  0.00    -0.294 N 
ATOM      4  C   UNL d   1       0.638  -1.259  -0.004  0.00  0.00     0.145 A 
ATOM      5  C   UNL d   1       0.655   1.171  -0.012  0.00  0.00    -0.032 A 
ATOM      6  C   UNL d   1       1.331  -0.114  -0.024  0.00  0.00     0.064 A 
ATOM      7  C   UNL d   1      -1.425   2.437  -0.002  0.00  0.00     0.105 C 
ATOM      8  N   UNL d   1      -1.961   3.468   0.006  0.00  0.00    -0.191 NA
ATOM      9  O   UNL d   1      -2.708  -0.034  -0.026  0.00  0.00    -0.266 OA
ATOM     10  C   UNL d   1       1.570   2.367  -0.001  0.00  0.00     0.050 C 
ENDROOT
BRANCH   3  11
ATOM     11  C   UNL d   1      -1.479  -2.521   0.071  0.00  0.00     0.130 C 
ATOM     12  C   UNL d   1      -1.751  -3.084  -1.316  0.00  0.00     0.027 C 
ENDBRANCH   3  11
BRANCH   4  13
ATOM     13  O   UNL d   1       1.251  -2.488  -0.016  0.00  0.00    -0.346 OA
ATOM     14  H   UNL d   1       2.213  -2.358  -0.038  0.00  0.00     0.219 HD
ENDBRANCH   4  13
TORSDOF 2
