REMARK  5 active torsions:
REMARK  status: ('A' for Active; 'I' for Inactive)
REMARK       I    between atoms: N_2  and  C_1 
REMARK    1  A    between atoms: C_3  and  C_1 
REMARK    2  A    between atoms: C_5  and  N_2 
REMARK    3  A    between atoms: C_8  and  C_5 
REMARK    4  A    between atoms: C_9  and  C_8 
REMARK    5  A    between atoms: O_13  and  C_8 
ROOT
ATOM      1  C   UNL d   1       2.438  -0.008   0.127  0.00  0.00     0.251 C 
ATOM      2  N   UNL d   1       3.252  -1.127   0.076  0.00  0.00    -0.354 N 
ATOM      3  O   UNL d   1       1.213  -0.087   0.188  0.00  0.00    -0.268 OA
ATOM      4  H   UNL d   1       4.189  -1.042  -0.303  0.00  0.00     0.162 HD
ENDROOT
BRANCH   2   5
ATOM      5  C   UNL d   1       2.588  -2.417  -0.012  0.00  0.00     0.159 C 
BRANCH   5   6
ATOM      6  C   UNL d   1       3.515  -3.644  -0.077  0.00  0.00     0.169 C 
BRANCH   6   7
ATOM      7  C   UNL d   1       2.783  -4.983  -0.099  0.00  0.00    -0.028 A 
ATOM      8  C   UNL d   1       1.382  -5.092  -0.051  0.00  0.00     0.010 A 
ATOM      9  C   UNL d   1       0.752  -6.340  -0.049  0.00  0.00     0.001 A 
ATOM     10  C   UNL d   1       1.512  -7.505  -0.100  0.00  0.00     0.000 A 
ATOM     11  C   UNL d   1       2.900  -7.421  -0.154  0.00  0.00     0.001 A 
ATOM     12  C   UNL d   1       3.531  -6.173  -0.152  0.00  0.00     0.010 A 
ENDBRANCH   6   7
BRANCH   6  13
ATOM     13  O   UNL d   1       4.323  -3.527  -1.258  0.00  0.00    -0.389 OA
ATOM     14  H   UNL d   1       3.843  -3.980  -1.974  0.00  0.00     0.210 HD
ENDBRANCH   6  13
ENDBRANCH   5   6
ENDBRANCH   2   5
BRANCH   1  15
ATOM     15  C   UNL d   1       3.075   1.332   0.077  0.00  0.00     0.032 A 
ATOM     16  C   UNL d   1       2.328   2.388  -0.462  0.00  0.00     0.017 A 
ATOM     17  C   UNL d   1       2.826   3.688  -0.442  0.00  0.00     0.007 A 
ATOM     18  C   UNL d   1       4.077   3.955   0.129  0.00  0.00    -0.062 A 
ATOM     19  C   UNL d   1       4.828   2.896   0.656  0.00  0.00     0.007 A 
ATOM     20  C   UNL d   1       4.576   5.369   0.185  0.00  0.00     0.048 C 
ATOM     21  C   UNL d   1       4.332   1.584   0.630  0.00  0.00     0.017 A 
ENDBRANCH   1  15
TORSDOF 5
