REMARK  4 active torsions:
REMARK  status: ('A' for Active; 'I' for Inactive)
REMARK    1  A    between atoms: C_6  and  C_1 
REMARK    2  A    between atoms: N_7  and  C_3 
REMARK    3  A    between atoms: O_9  and  C_6 
REMARK    4  A    between atoms: C_12  and  O_9 
ROOT
ATOM      1  C   UNL d   1       2.519   0.020  -0.030  0.00  0.00     0.107 A 
ATOM      2  S   UNL d   1       1.674   1.507  -0.096  0.00  0.00    -0.081 SA
ATOM      3  C   UNL d   1       1.641  -1.046  -0.067  0.00  0.00     0.061 A 
ATOM      4  C   UNL d   1       0.257  -0.647  -0.072  0.00  0.00     0.009 A 
ATOM      5  C   UNL d   1       0.137   0.744  -0.075  0.00  0.00     0.018 A 
ATOM      6  C   UNL d   1      -0.941  -1.410  -0.058  0.00  0.00     0.015 A 
ATOM      7  C   UNL d   1      -1.118   1.384  -0.059  0.00  0.00     0.020 A 
ATOM      8  C   UNL d   1      -2.189  -0.781  -0.033  0.00  0.00     0.001 A 
ATOM      9  C   UNL d   1      -2.275   0.604  -0.032  0.00  0.00     0.001 A 
ENDROOT
BRANCH   1  10
ATOM     10  C   UNL d   1       3.964  -0.032   0.099  0.00  0.00     0.302 C 
ATOM     11  O   UNL d   1       4.626  -1.060   0.209  0.00  0.00    -0.259 OA
BRANCH  10  12
ATOM     12  O   UNL d   1       4.500   1.224   0.172  0.00  0.00    -0.317 OA
BRANCH  12  13
ATOM     13  C   UNL d   1       5.838   1.310   0.675  0.00  0.00     0.174 C 
ATOM     14  C   UNL d   1       5.776   1.403   2.189  0.00  0.00     0.034 C 
ENDBRANCH  12  13
ENDBRANCH  10  12
ENDBRANCH   1  10
BRANCH   3  15
ATOM     15  N   UNL d   1       2.038  -2.338  -0.060  0.00  0.00    -0.397 N 
ATOM     16  H   UNL d   1       3.023  -2.592   0.043  0.00  0.00     0.156 HD
ATOM     17  H   UNL d   1       1.397  -3.118   0.035  0.00  0.00     0.156 HD
ENDBRANCH   3  15
TORSDOF 4
