REMARK  7 active torsions:
REMARK  status: ('A' for Active; 'I' for Inactive)
REMARK    1  A    between atoms: N_2  and  C_1 
REMARK    2  A    between atoms: N_3  and  C_1 
REMARK    3  A    between atoms: C_4  and  N_2 
REMARK    4  A    between atoms: C_7  and  N_3 
REMARK    5  A    between atoms: C_13  and  C_7 
REMARK    6  A    between atoms: C_14  and  C_7 
REMARK    7  A    between atoms: C_15  and  C_13 
ROOT
ATOM      1  C   UNL d   1      -0.898   0.746   1.153  0.00  0.00     0.121 C 
ENDROOT
BRANCH   1   2
ATOM      2  N   UNL d   1       0.543   0.466   1.040  0.00  0.00    -0.358 N 
ATOM      3  H   UNL d   1       0.831  -0.451   1.343  0.00  0.00     0.162 HD
BRANCH   2   4
ATOM      4  C   UNL d   1       1.553   1.310   0.613  0.00  0.00     0.168 C 
ATOM      5  S   UNL d   1       1.373   2.897   0.135  0.00  0.00    -0.041 SA
BRANCH   4   6
ATOM      6  N   UNL d   1       2.766   0.648   0.670  0.00  0.00    -0.362 N 
ATOM      7  H   UNL d   1       2.719  -0.358   0.592  0.00  0.00     0.162 HD
BRANCH   6   8
ATOM      8  C   UNL d   1       4.102   1.235   0.567  0.00  0.00     0.092 C 
ATOM      9  C   UNL d   1       4.558   2.026   1.833  0.00  0.00     0.031 C 
ATOM     10  C   UNL d   1       4.496   1.117   3.047  0.00  0.00    -0.024 C 
ATOM     11  C   UNL d   1       6.079   2.027   1.632  0.00  0.00     0.019 C 
ATOM     12  C   UNL d   1       5.463   0.198   2.906  0.00  0.00    -0.026 C 
ATOM     13  C   UNL d   1       6.176   0.500   1.607  0.00  0.00     0.010 C 
ATOM     14  C   UNL d   1       5.221   0.152   0.445  0.00  0.00     0.034 C 
ENDBRANCH   6   8
ENDBRANCH   4   6
ENDBRANCH   2   4
ENDBRANCH   1   2
BRANCH   1  15
ATOM     15  C   UNL d   1      -1.692  -0.508   1.613  0.00  0.00     0.068 C 
BRANCH  15  16
ATOM     16  C   UNL d   1      -1.643  -1.741   0.738  0.00  0.00    -0.056 A 
ATOM     17  C   UNL d   1      -1.183  -2.957   1.271  0.00  0.00     0.007 A 
ATOM     18  C   UNL d   1      -1.255  -4.137   0.528  0.00  0.00     0.001 A 
ATOM     19  C   UNL d   1      -1.788  -4.115  -0.757  0.00  0.00     0.000 A 
ATOM     20  C   UNL d   1      -2.238  -2.915  -1.302  0.00  0.00     0.001 A 
ATOM     21  C   UNL d   1      -2.165  -1.730  -0.561  0.00  0.00     0.007 A 
ENDBRANCH  15  16
ENDBRANCH   1  15
BRANCH   1  22
ATOM     22  C   UNL d   1      -1.185   1.846   2.170  0.00  0.00    -0.035 A 
ATOM     23  C   UNL d   1      -2.010   2.929   1.823  0.00  0.00     0.009 A 
ATOM     24  C   UNL d   1      -2.295   3.928   2.756  0.00  0.00     0.001 A 
ATOM     25  C   UNL d   1      -1.773   3.854   4.045  0.00  0.00     0.000 A 
ATOM     26  C   UNL d   1      -0.957   2.786   4.405  0.00  0.00     0.001 A 
ATOM     27  C   UNL d   1      -0.663   1.791   3.473  0.00  0.00     0.009 A 
ENDBRANCH   1  22
TORSDOF 7
