REMARK  3 active torsions:
REMARK  status: ('A' for Active; 'I' for Inactive)
REMARK       I    between atoms: N_2  and  C_1 
REMARK    1  A    between atoms: C_8  and  C_1 
REMARK    2  A    between atoms: N_4  and  N_2 
REMARK    3  A    between atoms: C_9  and  N_4 
ROOT
ATOM      1  C   UNL d   1       0.635  -0.192   0.398  0.00  0.00     0.266 C 
ATOM      2  N   UNL d   1       0.143  -1.309  -0.253  0.00  0.00    -0.283 N 
ATOM      3  O   UNL d   1       1.541  -0.251   1.233  0.00  0.00    -0.266 OA
ATOM      4  H   UNL d   1      -0.758  -1.322  -0.712  0.00  0.00     0.184 HD
ENDROOT
BRANCH   2   5
ATOM      5  N   UNL d   1       0.808  -2.521   0.004  0.00  0.00    -0.203 NA
ATOM      6  H   UNL d   1       1.369  -2.447   0.862  0.00  0.00     0.153 HD
BRANCH   5   7
ATOM      7  C   UNL d   1       0.052  -3.714  -0.056  0.00  0.00     0.028 A 
ATOM      8  C   UNL d   1      -1.000  -3.914  -0.959  0.00  0.00     0.032 A 
ATOM      9  C   UNL d   1      -1.665  -5.153  -1.065  0.00  0.00    -0.054 A 
ATOM     10  C   UNL d   1      -2.803  -5.295  -2.038  0.00  0.00     0.049 C 
ATOM     11  C   UNL d   1      -1.240  -6.238  -0.276  0.00  0.00    -0.056 A 
ATOM     12  C   UNL d   1      -0.160  -6.058   0.595  0.00  0.00     0.009 A 
ATOM     13  C   UNL d   1      -1.904  -7.585  -0.366  0.00  0.00     0.049 C 
ATOM     14  C   UNL d   1       0.481  -4.818   0.693  0.00  0.00     0.026 A 
ENDBRANCH   5   7
ENDBRANCH   2   5
BRANCH   1  15
ATOM     15  C   UNL d   1       0.011   1.116   0.074  0.00  0.00     0.033 A 
ATOM     16  C   UNL d   1      -0.024   2.098   1.073  0.00  0.00     0.017 A 
ATOM     17  C   UNL d   1      -0.518   3.373   0.793  0.00  0.00     0.001 A 
ATOM     18  C   UNL d   1      -0.963   3.679  -0.492  0.00  0.00     0.000 A 
ATOM     19  C   UNL d   1      -0.928   2.707  -1.494  0.00  0.00     0.001 A 
ATOM     20  C   UNL d   1      -0.446   1.423  -1.215  0.00  0.00     0.017 A 
ENDBRANCH   1  15
TORSDOF 3
