REMARK  1 active torsions:
REMARK  status: ('A' for Active; 'I' for Inactive)
REMARK       I    between atoms: N_2  and  C_1 
REMARK    1  A    between atoms: C_4  and  N_2 
ROOT
ATOM      1  C   UNL d   1       0.978   2.562  -0.097  0.00  0.00     0.034 A 
ATOM      2  C   UNL d   1       2.352   4.994  -0.200  0.00  0.00     0.116 A 
ATOM      3  F   UNL d   1       3.008   6.160  -0.250  0.00  0.00    -0.206 F 
ATOM      4  C   UNL d   1       0.573   3.640   0.697  0.00  0.00     0.032 A 
ATOM      5  C   UNL d   1       2.091   2.718  -0.939  0.00  0.00     0.032 A 
ATOM      6  C   UNL d   1       2.773   3.936  -0.994  0.00  0.00     0.044 A 
ATOM      7  C   UNL d   1       1.261   4.856   0.646  0.00  0.00     0.044 A 
ENDROOT
BRANCH   1   8
ATOM      8  N   UNL d   1       0.347   1.301  -0.084  0.00  0.00    -0.328 N 
ATOM      9  C   UNL d   1      -0.832   0.967   0.558  0.00  0.00     0.218 C 
ATOM     10  O   UNL d   1      -1.600   1.737   1.125  0.00  0.00    -0.274 OA
ATOM     11  C   UNL d   1      -1.149  -0.505   0.481  0.00  0.00     0.117 C 
ATOM     12  H   UNL d   1       0.786   0.578  -0.640  0.00  0.00     0.169 HD
ENDBRANCH   1   8
TORSDOF 1
