REMARK  3 active torsions:
REMARK  status: ('A' for Active; 'I' for Inactive)
REMARK    1  A    between atoms: C_7  and  C_3 
REMARK    2  A    between atoms: C_8  and  C_4 
REMARK    3  A    between atoms: C_16  and  C_9 
ROOT
ATOM      1  N   UNL d   1       1.281  -0.511  -0.522  0.00  0.00    -0.349 N 
ATOM      2  HN  UNL d   1       2.105  -0.941  -0.942  1.00  0.00     0.166 HD
ATOM      3  C   UNL d   1       0.103  -1.093  -0.410  0.00  0.00     0.086 A 
ATOM      4  C   UNL d   1       1.244   0.769   0.013  0.00  0.00     0.050 A 
ATOM      5  S   UNL d   1      -1.100  -0.140   0.376  0.00  0.00    -0.081 SA
ATOM      6  C   UNL d   1       0.021   1.139   0.537  0.00  0.00     0.082 A 
ENDROOT
BRANCH   4   7
ATOM      7  C   UNL d   1       2.409   1.646  -0.018  0.00  0.00    -0.009 A 
ATOM      8  C   UNL d   1       3.358   1.511  -1.036  0.00  0.00     0.014 A 
ATOM      9  C   UNL d   1       4.470   2.364  -1.095  0.00  0.00     0.013 A 
ATOM     10  C   UNL d   1       4.670   3.384  -0.147  0.00  0.00    -0.026 A 
ATOM     11  C   UNL d   1       3.707   3.502   0.870  0.00  0.00     0.013 A 
ATOM     12  C   UNL d   1       2.602   2.645   0.941  0.00  0.00     0.014 A 
BRANCH  10  13
ATOM     13  C   UNL d   1       5.847   4.286  -0.207  0.00  0.00    -0.026 A 
ATOM     14  C   UNL d   1       6.446   4.790   0.963  0.00  0.00     0.012 A 
ATOM     15  C   UNL d   1       7.560   5.635   0.913  0.00  0.00     0.001 A 
ATOM     16  C   UNL d   1       8.111   5.989  -0.313  0.00  0.00     0.000 A 
ATOM     17  C   UNL d   1       7.542   5.507  -1.487  0.00  0.00     0.001 A 
ATOM     18  C   UNL d   1       6.419   4.673  -1.433  0.00  0.00     0.012 A 
ENDBRANCH  10  13
ENDBRANCH   4   7
BRANCH   3  19
ATOM     19  C   UNL d   1      -0.196  -2.458  -0.861  0.00  0.00     0.013 A 
ATOM     20  C   UNL d   1      -1.459  -2.854  -1.299  0.00  0.00     0.101 A 
ATOM     21  N   UNL d   1      -1.776  -4.106  -1.718  0.00  0.00    -0.374 N 
ATOM     22  C   UNL d   1      -0.778  -5.014  -1.709  0.00  0.00     0.087 A 
ATOM     23  HN  UNL d   1      -2.718  -4.347  -2.023  1.00  0.00     0.164 HD
ATOM     24  C   UNL d   1       0.516  -4.729  -1.307  0.00  0.00     0.018 A 
ATOM     25  C   UNL d   1       0.807  -3.434  -0.884  0.00  0.00     0.017 A 
ENDBRANCH   3  19
TORSDOF 3
