REMARK  5 active torsions:
REMARK  status: ('A' for Active; 'I' for Inactive)
REMARK       I    between atoms: C_8  and  N_10 
REMARK    1  A    between atoms: C_17  and  C_8 
REMARK    2  A    between atoms: N_10  and  C_12 
REMARK    3  A    between atoms: C_11  and  C_18 
REMARK    4  A    between atoms: O_19  and  C_11 
REMARK    5  A    between atoms: C_18  and  C_17 
ROOT
ATOM      1  C   UNL d   1       0.270   0.767  -0.055  0.00  0.00     0.092 A 
ATOM      2  C   UNL d   1      -0.519  -1.565  -0.007  0.00  0.00    -0.043 A 
ATOM      3  O   UNL d   1      -1.065   1.223  -0.045  0.00  0.00    -0.275 OA
ATOM      4  C   UNL d   1      -2.119   0.333  -0.010  0.00  0.00     0.288 A 
ATOM      5  C   UNL d   1       0.585  -0.593  -0.030  0.00  0.00     0.004 A 
ATOM      6  C   UNL d   1      -1.776  -1.095   0.006  0.00  0.00     0.090 A 
ATOM      7  C   UNL d   1       1.241   1.771  -0.089  0.00  0.00     0.067 A 
ATOM      8  C   UNL d   1       1.942  -0.923  -0.037  0.00  0.00     0.017 A 
ATOM      9  C   UNL d   1       2.589   1.429  -0.097  0.00  0.00     0.037 A 
ATOM     10  O   UNL d   1      -3.287   0.697   0.003  0.00  0.00    -0.260 OA
ATOM     11  C   UNL d   1       2.934   0.075  -0.071  0.00  0.00     0.030 A 
ATOM     12  C   UNL d   1      -0.299  -3.049  -0.004  0.00  0.00     0.049 C 
ENDROOT
BRANCH   9  13
ATOM     13  N   UNL d   1       3.635   2.378  -0.134  0.00  0.00    -0.327 N 
ATOM     14  C   UNL d   1       3.507   3.742   0.015  0.00  0.00     0.222 C 
ATOM     15  O   UNL d   1       2.468   4.361   0.240  0.00  0.00    -0.273 OA
ATOM     16  H   UNL d   1       4.575   1.998  -0.163  0.00  0.00     0.169 HD
BRANCH  14  17
ATOM     17  C   UNL d   1       4.824   4.490   0.001  0.00  0.00     0.113 C 
BRANCH  17  18
ATOM     18  C   UNL d   1       4.826   5.496   1.147  0.00  0.00     0.119 C 
BRANCH  18  19
ATOM     19  C   UNL d   1       4.735   4.768   2.462  0.00  0.00     0.139 C 
ATOM     20  O   UNL d   1       5.713   4.361   3.072  0.00  0.00    -0.650 OA
BRANCH  19  21
ATOM     21  O   UNL d   1       3.470   4.527   2.868  0.00  0.00    -0.776 OA
ATOM     22  H   UNL d   1       2.777   4.788   2.218  0.00  0.00     0.167 HD
ENDBRANCH  19  21
ENDBRANCH  18  19
ENDBRANCH  17  18
ENDBRANCH  14  17
ENDBRANCH   9  13
TORSDOF 5
