REMARK  2 active torsions:
REMARK  status: ('A' for Active; 'I' for Inactive)
REMARK    1  A    between atoms: C_6  and  N_1 
REMARK    2  A    between atoms: C_5  and  C_2 
ROOT
ATOM      1  N   UNL d   1      -0.604  -1.174   0.216  0.00  0.00    -0.299 N 
ATOM      2  C   UNL d   1       0.755  -1.351  -0.277  0.00  0.00     0.188 C 
ATOM      3  S   UNL d   1       1.508   0.286  -0.462  0.00  0.00    -0.129 SA
ATOM      4  C   UNL d   1      -1.066   0.148   0.262  0.00  0.00     0.235 C 
ATOM      5  C   UNL d   1      -0.038   1.151  -0.200  0.00  0.00     0.179 C 
ATOM      6  O   UNL d   1      -2.196   0.520   0.572  0.00  0.00    -0.272 OA
ENDROOT
BRANCH   2   7
ATOM      7  C   UNL d   1       1.637  -2.225   0.604  0.00  0.00    -0.023 A 
ATOM      8  C   UNL d   1       2.410  -3.248   0.025  0.00  0.00     0.035 A 
ATOM      9  C   UNL d   1       3.232  -4.067   0.810  0.00  0.00     0.056 A 
ATOM     10 CL   UNL d   1       4.123  -5.309   0.006  0.00  0.00    -0.083 Cl
ATOM     11  C   UNL d   1       3.310  -3.859   2.189  0.00  0.00     0.055 A 
ATOM     12  C   UNL d   1       2.557  -2.840   2.777  0.00  0.00     0.026 A 
ATOM     13 CL   UNL d   1       4.311  -4.820   3.217  0.00  0.00    -0.083 Cl
ATOM     14  C   UNL d   1       1.726  -2.031   1.995  0.00  0.00     0.012 A 
ENDBRANCH   2   7
BRANCH   1  15
ATOM     15  C   UNL d   1      -1.462  -2.298   0.451  0.00  0.00     0.039 A 
ATOM     16  C   UNL d   1      -1.236  -3.533  -0.181  0.00  0.00     0.033 A 
ATOM     17  C   UNL d   1      -2.084  -4.625   0.039  0.00  0.00     0.044 A 
ATOM     18  C   UNL d   1      -3.157  -4.497   0.906  0.00  0.00     0.116 A 
ATOM     19  C   UNL d   1      -3.398  -3.298   1.557  0.00  0.00     0.044 A 
ATOM     20  F   UNL d   1      -3.968  -5.542   1.115  0.00  0.00    -0.206 F 
ATOM     21  C   UNL d   1      -2.556  -2.205   1.328  0.00  0.00     0.033 A 
ENDBRANCH   1  15
TORSDOF 2
