REMARK  6 active torsions:
REMARK  status: ('A' for Active; 'I' for Inactive)
REMARK    1  A    between atoms: N_2  and  C_1 
REMARK    2  A    between atoms: N_3  and  C_1 
REMARK    3  A    between atoms: C_5  and  N_2 
REMARK    4  A    between atoms: C_6  and  N_3 
REMARK    5  A    between atoms: O_11  and  C_9 
REMARK    6  A    between atoms: O_12  and  C_10 
ROOT
ATOM      1  C   UNL d   1       1.136   0.058  -0.151  0.00  0.00     0.176 C 
ATOM      2  S   UNL d   1       2.777   0.383  -0.180  0.00  0.00    -0.041 SA
ENDROOT
BRANCH   1   3
ATOM      3  N   UNL d   1       0.535  -1.123   0.226  0.00  0.00    -0.333 N 
ATOM      4  H   UNL d   1      -0.223  -1.400  -0.389  0.00  0.00     0.168 HD
BRANCH   3   5
ATOM      5  C   UNL d   1       0.971  -2.087   1.150  0.00  0.00     0.036 A 
ATOM      6  C   UNL d   1       1.692  -1.734   2.295  0.00  0.00     0.066 A 
ATOM      7  C   UNL d   1       2.043  -2.702   3.235  0.00  0.00     0.070 A 
ATOM      8  C   UNL d   1       1.683  -4.033   3.015  0.00  0.00     0.037 A 
ATOM      9  C   UNL d   1       0.951  -4.391   1.882  0.00  0.00     0.005 A 
ATOM     10  C   UNL d   1       0.576  -3.413   0.963  0.00  0.00     0.029 A 
BRANCH   7  11
ATOM     11  O   UNL d   1       2.716  -2.471   4.405  0.00  0.00    -0.356 OA
ATOM     12  C   UNL d   1       3.053  -1.117   4.687  0.00  0.00     0.210 C 
ENDBRANCH   7  11
ENDBRANCH   3   5
ENDBRANCH   1   3
BRANCH   1  13
ATOM     13  N   UNL d   1       0.282   0.983  -0.701  0.00  0.00    -0.333 N 
ATOM     14  H   UNL d   1       0.722   1.665  -1.309  0.00  0.00     0.168 HD
BRANCH  13  15
ATOM     15  C   UNL d   1      -1.069   1.212  -0.367  0.00  0.00     0.036 A 
ATOM     16  C   UNL d   1      -1.608   0.844   0.875  0.00  0.00     0.066 A 
ATOM     17  C   UNL d   1      -2.942   1.125   1.178  0.00  0.00     0.070 A 
ATOM     18  C   UNL d   1      -3.740   1.754   0.221  0.00  0.00     0.037 A 
ATOM     19  C   UNL d   1      -3.204   2.140  -1.008  0.00  0.00     0.005 A 
ATOM     20  C   UNL d   1      -1.862   1.891  -1.292  0.00  0.00     0.029 A 
BRANCH  17  21
ATOM     21  O   UNL d   1      -3.575   0.847   2.359  0.00  0.00    -0.356 OA
ATOM     22  C   UNL d   1      -2.780   0.304   3.408  0.00  0.00     0.210 C 
ENDBRANCH  17  21
ENDBRANCH  13  15
ENDBRANCH   1  13
TORSDOF 6
