REMARK  2 active torsions:
REMARK  status: ('A' for Active; 'I' for Inactive)
REMARK    1  A    between atoms: C_4  and  C_1 
REMARK    2  A    between atoms: O_14  and  C_4 
ROOT
ATOM      1  C   UNL d   1       0.745   0.789   1.147  0.00  0.00     0.048 C 
ATOM      2  C   UNL d   1      -1.503   0.292   0.110  0.00  0.00     0.020 C 
ATOM      3  C   UNL d   1       0.252  -1.516   0.147  0.00  0.00    -0.041 C 
ATOM      4  C   UNL d   1      -0.777   1.047   1.236  0.00  0.00     0.041 C 
ATOM      5  C   UNL d   1       0.983  -0.741   1.266  0.00  0.00     0.029 C 
ATOM      6  C   UNL d   1       1.260   1.248  -0.236  0.00  0.00     0.025 C 
ATOM      7  C   UNL d   1       0.523   0.498  -1.362  0.00  0.00    -0.011 C 
ATOM      8  C   UNL d   1      -1.262  -1.218   0.251  0.00  0.00     0.030 C 
ATOM      9  C   UNL d   1      -0.987   0.773  -1.256  0.00  0.00     0.026 C 
ATOM     10  C   UNL d   1       0.771  -1.013  -1.218  0.00  0.00     0.014 C 
ATOM     11 BR   UNL d   1      -3.419   0.652   0.231  0.00  0.00    -0.085 Br
ATOM     12  C   UNL d   1       0.507  -3.019   0.291  0.00  0.00     0.015 C 
ENDROOT
BRANCH   1  13
ATOM     13  C   UNL d   1       1.492   1.499   2.277  0.00  0.00     0.148 C 
ATOM     14  O   UNL d   1       2.179   0.928   3.114  0.00  0.00    -0.649 OA
BRANCH  13  15
ATOM     15  O   UNL d   1       1.347   2.842   2.298  0.00  0.00    -0.776 OA
ATOM     16  H   UNL d   1       0.784   3.218   1.598  0.00  0.00     0.167 HD
ENDBRANCH  13  15
ENDBRANCH   1  13
TORSDOF 2
