REMARK  6 active torsions:
REMARK  status: ('A' for Active; 'I' for Inactive)
REMARK    1  A    between atoms: N_6  and  C_2 
REMARK    2  A    between atoms: C_16  and  C_3 
REMARK    3  A    between atoms: C_12  and  C_14 
REMARK    4  A    between atoms: O_25  and  C_12 
REMARK    5  A    between atoms: C_22  and  N_13 
REMARK    6  A    between atoms: C_21  and  C_22 
ROOT
ATOM      1  C   UNL d   1       1.172   0.472   1.157  0.00  0.00     0.048 A 
ATOM      2  C   UNL d   1       1.512   1.388   0.113  0.00  0.00     0.097 A 
ATOM      3  C   UNL d   1       1.242   0.453   2.626  0.00  0.00    -0.003 A 
ATOM      4  C   UNL d   1       0.634  -0.736   0.708  0.00  0.00     0.089 A 
ATOM      5  C   UNL d   1       0.843  -0.777   3.132  0.00  0.00     0.065 A 
ATOM      6  S   UNL d   1       0.309  -1.858   1.941  0.00  0.00    -0.082 SA
ATOM      7  N   UNL d   1       1.235   1.022  -1.171  0.00  0.00    -0.342 N 
ATOM      8  HN  UNL d   1       1.448   1.661  -1.937  1.00  0.00     0.167 HD
ATOM      9  N   UNL d   1       0.368  -1.103  -0.555  0.00  0.00    -0.346 N 
ATOM     10  HN  UNL d   1      -0.037  -2.005  -0.810  1.00  0.00     0.167 HD
ATOM     11  C   UNL d   1       0.688  -0.167  -1.434  0.00  0.00     0.182 A 
ENDROOT
BRANCH   2  12
ATOM     12  N   UNL d   1       2.233   2.583   0.287  0.00  0.00    -0.265 NA
ATOM     13  C   UNL d   1       3.023   2.938  -0.919  0.00  0.00     0.127 C 
ATOM     14  C   UNL d   1       3.903   4.181  -0.642  0.00  0.00     0.287 C 
ATOM     15  N   UNL d   1       3.167   5.370  -0.143  0.00  0.00     0.095 N 
ATOM     16  C   UNL d   1       2.332   4.940   1.007  0.00  0.00     0.287 C 
ATOM     17  C   UNL d   1       1.406   3.719   0.744  0.00  0.00     0.127 C 
BRANCH  15  18
ATOM     18  C   UNL d   1       2.368   5.977  -1.217  0.00  0.00     0.311 C 
BRANCH  18  19
ATOM     19  C   UNL d   1       1.658   7.250  -0.803  0.00  0.00    -0.029 A 
ATOM     20  C   UNL d   1       0.261   7.328  -0.857  0.00  0.00     0.026 A 
ATOM     21  C   UNL d   1      -0.405   8.511  -0.512  0.00  0.00     0.040 A 
ATOM     22  C   UNL d   1       0.338   9.620  -0.087  0.00  0.00     0.017 A 
ATOM     23  C   UNL d   1       1.730   9.543  -0.010  0.00  0.00     0.002 A 
ATOM     24  C   UNL d   1       2.388   8.367  -0.369  0.00  0.00     0.009 A 
BRANCH  21  25
ATOM     25  C   UNL d   1      -1.886   8.540  -0.636  0.00  0.00     0.292 C 
ATOM     26  O   UNL d   1      -2.555   7.569  -0.964  0.00  0.00    -0.259 OA
BRANCH  25  27
ATOM     27  O   UNL d   1      -2.366   9.778  -0.364  0.00  0.00    -0.323 OA
ATOM     28  C   UNL d   1      -3.780   9.900  -0.525  0.00  0.00     0.213 C 
ENDBRANCH  25  27
ENDBRANCH  21  25
ENDBRANCH  18  19
ENDBRANCH  15  18
ENDBRANCH   2  12
BRANCH   3  29
ATOM     29  C   UNL d   1       1.590   1.508   3.589  0.00  0.00    -0.024 A 
ATOM     30  C   UNL d   1       0.800   1.702   4.740  0.00  0.00     0.012 A 
ATOM     31  C   UNL d   1       1.044   2.760   5.619  0.00  0.00     0.001 A 
ATOM     32  C   UNL d   1       2.071   3.657   5.352  0.00  0.00     0.000 A 
ATOM     33  C   UNL d   1       2.895   3.448   4.250  0.00  0.00     0.001 A 
ATOM     34  C   UNL d   1       2.676   2.361   3.393  0.00  0.00     0.012 A 
ENDBRANCH   3  29
TORSDOF 6
