REMARK  1 active torsions:
REMARK  status: ('A' for Active; 'I' for Inactive)
REMARK    1  A    between atoms: C_7  and  N_5 
ROOT
ATOM      1  C   UNL d   1       0.878   0.801  -0.030  0.00  0.00     0.141 C 
ATOM      2  N   UNL d   1      -0.329   1.208   0.169  0.00  0.00    -0.370 N 
ATOM      3  HN  UNL d   1      -0.607   2.187   0.235  1.00  0.00     0.161 HD
ATOM      4  S   UNL d   1       1.126  -0.934  -0.005  0.00  0.00    -0.088 SA
ATOM      5  N   UNL d   1       2.003   1.540  -0.251  0.00  0.00    -0.337 N 
ATOM      6  C   UNL d   1      -1.253   0.069   0.290  0.00  0.00     0.137 C 
ATOM      7  C   UNL d   1      -0.498  -1.165   0.767  0.00  0.00     0.069 C 
ATOM      8  C   UNL d   1      -0.376  -1.215   2.286  0.00  0.00     0.023 C 
ATOM      9  H   UNL d   1       2.833   1.021  -0.498  0.00  0.00     0.168 HD
ENDROOT
BRANCH   5  10
ATOM     10  C   UNL d   1       2.169   2.920  -0.049  0.00  0.00     0.034 A 
ATOM     11  C   UNL d   1       1.281   3.687   0.721  0.00  0.00     0.032 A 
ATOM     12  C   UNL d   1       1.438   5.068   0.852  0.00  0.00     0.044 A 
ATOM     13  C   UNL d   1       2.481   5.700   0.196  0.00  0.00     0.116 A 
ATOM     14  C   UNL d   1       3.371   4.975  -0.586  0.00  0.00     0.044 A 
ATOM     15  F   UNL d   1       2.630   7.026   0.314  0.00  0.00    -0.206 F 
ATOM     16  C   UNL d   1       3.214   3.590  -0.709  0.00  0.00     0.032 A 
ENDBRANCH   5  10
TORSDOF 1
