REMARK  8 active torsions:
REMARK  status: ('A' for Active; 'I' for Inactive)
REMARK    1  A    between atoms: C_10  and  C_1 
REMARK    2  A    between atoms: C_13  and  N_2 
REMARK    3  A    between atoms: N_6  and  C_7 
REMARK    4  A    between atoms: C_9  and  C_12 
REMARK       I    between atoms: N_23  and  C_10 
REMARK    5  A    between atoms: C_14  and  N_26 
REMARK    6  A    between atoms: C_32  and  N_23 
REMARK    7  A    between atoms: N_26  and  C_33 
REMARK    8  A    between atoms: C_33  and  C_32 
ROOT
ATOM      1  C   UNL d   1      -0.717   2.549   0.029  0.00  0.00     0.255 C 
ATOM      2  O   UNL d   1       0.143   3.414   0.187  0.00  0.00    -0.268 OA
ATOM      3  N   UNL d   1      -2.063   2.842  -0.010  0.00  0.00    -0.356 N 
ATOM      4  H   UNL d   1      -2.732   2.089  -0.084  0.00  0.00     0.162 HD
ENDROOT
BRANCH   3   5
ATOM      5  C   UNL d   1      -2.596   4.214  -0.013  0.00  0.00     0.137 C 
BRANCH   5   6
ATOM      6  C   UNL d   1      -1.545   5.334   0.075  0.00  0.00     0.112 C 
BRANCH   6   7
ATOM      7  N   UNL d   1      -2.096   6.689   0.074  0.00  0.00    -0.289 NA
ATOM      8  H   UNL d   1      -2.860   6.791   0.754  0.00  0.00     0.127 HD
BRANCH   7   9
ATOM      9  C   UNL d   1      -1.133   7.722   0.245  0.00  0.00     0.041 A 
ATOM     10  C   UNL d   1      -1.428   8.958   0.863  0.00  0.00     0.124 A 
ATOM     11  C   UNL d   1      -0.481  10.009   0.886  0.00  0.00     0.054 A 
ATOM     12  C   UNL d   1       0.778   9.862   0.287  0.00  0.00     0.050 A 
ATOM     13  C   UNL d   1       1.086   8.643  -0.315  0.00  0.00     0.018 A 
ATOM     14  C   UNL d   1       0.145   7.607  -0.347  0.00  0.00     0.027 A 
BRANCH  10  15
ATOM     15  N   UNL d   1      -2.710   9.189   1.553  0.00  0.00    -0.114 N 
ATOM     16  O   UNL d   1      -2.913  10.318   2.026  0.00  0.00    -0.532 OA
ATOM     17  O   UNL d   1      -3.508   8.244   1.660  0.00  0.00    -0.532 OA
ENDBRANCH  10  15
BRANCH  12  18
ATOM     18  C   UNL d   1       1.779  10.991   0.262  0.00  0.00     0.417 C 
ATOM     19  F   UNL d   1       1.326  12.129   0.854  0.00  0.00    -0.166 F 
ATOM     20  F   UNL d   1       2.940  10.673   0.896  0.00  0.00    -0.166 F 
ATOM     21  F   UNL d   1       2.128  11.342  -1.007  0.00  0.00    -0.166 F 
ENDBRANCH  12  18
ENDBRANCH   7   9
ENDBRANCH   6   7
ENDBRANCH   5   6
ENDBRANCH   3   5
BRANCH   1  22
ATOM     22  C   UNL d   1      -0.313   1.167  -0.133  0.00  0.00     0.073 C 
ATOM     23  C   UNL d   1       1.019   0.749  -0.137  0.00  0.00     0.048 C 
ATOM     24  N   UNL d   1       1.001  -0.626  -0.286  0.00  0.00    -0.260 N 
ATOM     25  C   UNL d   1       2.240   1.611  -0.084  0.00  0.00     0.071 C 
ATOM     26  N   UNL d   1      -0.260  -1.073  -0.538  0.00  0.00    -0.304 N 
ATOM     27  C   UNL d   1      -1.041  -0.005  -0.379  0.00  0.00     0.126 C 
ATOM     28  HN  UNL d   1      -0.545  -2.019  -0.794  1.00  0.00     0.186 HD
BRANCH  24  29
ATOM     29  C   UNL d   1       2.074  -1.558  -0.213  0.00  0.00     0.056 A 
ATOM     30  C   UNL d   1       3.228  -1.292   0.539  0.00  0.00     0.034 A 
ATOM     31  C   UNL d   1       4.274  -2.214   0.571  0.00  0.00     0.044 A 
ATOM     32  C   UNL d   1       4.153  -3.412  -0.122  0.00  0.00     0.116 A 
ATOM     33  C   UNL d   1       3.005  -3.706  -0.847  0.00  0.00     0.044 A 
ATOM     34  F   UNL d   1       5.154  -4.301  -0.077  0.00  0.00    -0.206 F 
ATOM     35  C   UNL d   1       1.958  -2.783  -0.890  0.00  0.00     0.034 A 
ENDBRANCH  24  29
ENDBRANCH   1  22
TORSDOF 8
