REMARK  6 active torsions:
REMARK  status: ('A' for Active; 'I' for Inactive)
REMARK    1  A    between atoms: C_2  and  C_1 
REMARK       I    between atoms: N_8  and  C_1 
REMARK    2  A    between atoms: O_13  and  C_3 
REMARK    3  A    between atoms: O_15  and  C_4 
REMARK    4  A    between atoms: C_16  and  N_8 
REMARK    5  A    between atoms: C_11  and  C_19 
REMARK    6  A    between atoms: C_19  and  C_16 
ROOT
ATOM      1  C   UNL d   1       3.143   1.113   0.603  0.00  0.00     0.127 C 
ENDROOT
BRANCH   1   2
ATOM      2  N   UNL d   1       2.394  -0.045   0.144  0.00  0.00    -0.357 N 
ATOM      3  C   UNL d   1       2.344  -0.372  -1.198  0.00  0.00     0.251 C 
ATOM      4  O   UNL d   1       2.941   0.255  -2.062  0.00  0.00    -0.268 OA
ATOM      5  H   UNL d   1       1.668  -0.396   0.750  0.00  0.00     0.162 HD
BRANCH   3   6
ATOM      6  C   UNL d   1       1.499  -1.537  -1.577  0.00  0.00     0.033 A 
ATOM      7  C   UNL d   1       1.207  -2.567  -0.677  0.00  0.00     0.041 A 
ATOM      8  C   UNL d   1       0.467  -3.668  -1.108  0.00  0.00     0.035 A 
ATOM      9 CL   UNL d   1       0.127  -4.946  -0.007  0.00  0.00    -0.084 Cl
ATOM     10  C   UNL d   1       0.016  -3.754  -2.425  0.00  0.00     0.024 A 
ATOM     11  C   UNL d   1       0.303  -2.728  -3.324  0.00  0.00     0.003 A 
ATOM     12  C   UNL d   1       1.046  -1.624  -2.902  0.00  0.00     0.017 A 
ENDBRANCH   3   6
ENDBRANCH   1   2
BRANCH   1  13
ATOM     13  C   UNL d   1       4.665   0.949   0.473  0.00  0.00     0.058 C 
BRANCH  13  14
ATOM     14  C   UNL d   1       5.418   2.118   1.069  0.00  0.00    -0.054 A 
ATOM     15  C   UNL d   1       6.330   1.927   2.121  0.00  0.00     0.046 A 
ATOM     16  C   UNL d   1       6.998   3.011   2.720  0.00  0.00     0.102 A 
ATOM     17  C   UNL d   1       6.753   4.307   2.235  0.00  0.00     0.101 A 
ATOM     18  C   UNL d   1       5.859   4.493   1.174  0.00  0.00     0.040 A 
ATOM     19  C   UNL d   1       5.209   3.411   0.585  0.00  0.00     0.010 A 
BRANCH  16  20
ATOM     20  O   UNL d   1       7.848   2.878   3.785  0.00  0.00    -0.353 OA
ATOM     21  C   UNL d   1       8.123   1.570   4.270  0.00  0.00     0.210 C 
ENDBRANCH  16  20
BRANCH  17  22
ATOM     22  O   UNL d   1       7.253   5.490   2.717  0.00  0.00    -0.353 OA
ATOM     23  C   UNL d   1       8.554   5.460   3.285  0.00  0.00     0.210 C 
ENDBRANCH  17  22
ENDBRANCH  13  14
ENDBRANCH   1  13
TORSDOF 6
