REMARK  4 active torsions:
REMARK  status: ('A' for Active; 'I' for Inactive)
REMARK    1  A    between atoms: C_7  and  C_1 
REMARK    2  A    between atoms: C_8  and  C_4 
REMARK    3  A    between atoms: O_12  and  C_7 
REMARK    4  A    between atoms: C_16  and  O_12 
ROOT
ATOM      1  C   UNL d   1       1.305   0.795   0.030  0.00  0.00     0.115 A 
ATOM      2  N   UNL d   1       1.410  -0.598   0.058  0.00  0.00    -0.345 N 
ATOM      3  HN  UNL d   1       2.291  -1.111   0.095  1.00  0.00     0.167 HD
ATOM      4  C   UNL d   1       0.217  -1.158   0.031  0.00  0.00     0.086 A 
ATOM      5  S   UNL d   1      -1.098  -0.044   0.067  0.00  0.00    -0.081 SA
ATOM      6  C   UNL d   1       0.004   1.262   0.057  0.00  0.00     0.087 A 
ENDROOT
BRANCH   4   7
ATOM      7  C   UNL d   1      -0.010  -2.606   0.005  0.00  0.00     0.013 A 
ATOM      8  C   UNL d   1      -1.099  -3.195  -0.635  0.00  0.00     0.101 A 
ATOM      9  N   UNL d   1      -1.334  -4.531  -0.685  0.00  0.00    -0.374 N 
ATOM     10  C   UNL d   1      -0.435  -5.328  -0.072  0.00  0.00     0.087 A 
ATOM     11  HN  UNL d   1      -2.151  -4.913  -1.162  1.00  0.00     0.164 HD
ATOM     12  C   UNL d   1       0.690  -4.853   0.580  0.00  0.00     0.018 A 
ATOM     13  C   UNL d   1       0.904  -3.475   0.611  0.00  0.00     0.017 A 
ENDBRANCH   4   7
BRANCH   1  14
ATOM     14  C   UNL d   1       2.469   1.673  -0.086  0.00  0.00     0.310 C 
ATOM     15  O   UNL d   1       2.380   2.893  -0.183  0.00  0.00    -0.258 OA
BRANCH  14  16
ATOM     16  O   UNL d   1       3.638   0.974  -0.164  0.00  0.00    -0.317 OA
BRANCH  16  17
ATOM     17  C   UNL d   1       4.766   1.701  -0.666  0.00  0.00     0.175 C 
ATOM     18  C   UNL d   1       4.771   1.583  -2.180  0.00  0.00     0.034 C 
ENDBRANCH  16  17
ENDBRANCH  14  16
ENDBRANCH   1  14
TORSDOF 4
