REMARK  8 active torsions:
REMARK  status: ('A' for Active; 'I' for Inactive)
REMARK    1  A    between atoms: C_2  and  S_1 
REMARK    2  A    between atoms: N_3  and  S_1 
REMARK       I    between atoms: C_6  and  N_12 
REMARK    3  A    between atoms: C_13  and  C_6 
REMARK    4  A    between atoms: C_21  and  C_7 
REMARK    5  A    between atoms: C_8  and  C_16 
REMARK    6  A    between atoms: O_25  and  C_8 
REMARK    7  A    between atoms: N_12  and  C_21 
REMARK    8  A    between atoms: C_29  and  O_25 
ROOT
ATOM      1  C   UNL d   1       0.439   0.550   1.610  0.00  0.00     0.120 A 
ATOM      2  S   UNL d   1       0.845   2.101   2.201  0.00  0.00    -0.080 SA
ATOM      3  C   UNL d   1      -0.276  -0.160   2.558  0.00  0.00     0.034 A 
ATOM      4  C   UNL d   1      -0.016   1.878   3.666  0.00  0.00     0.002 A 
ATOM      5  C   UNL d   1      -0.527   0.597   3.742  0.00  0.00     0.018 A 
ENDROOT
BRANCH   1   6
ATOM      6  S   UNL d   1       1.026   0.073  -0.022  0.00  0.00     0.267 S 
ATOM      7  O   UNL d   1       0.351  -1.186  -0.266  0.00  0.00    -0.200 OA
ATOM      8  O   UNL d   1       2.469   0.145   0.063  0.00  0.00    -0.200 OA
BRANCH   6   9
ATOM      9  N   UNL d   1       0.483   1.185  -1.223  0.00  0.00    -0.306 N 
ATOM     10  C   UNL d   1       1.216   2.471  -1.234  0.00  0.00     0.136 C 
ATOM     11  C   UNL d   1       0.753   3.401  -2.349  0.00  0.00     0.035 C 
ATOM     12  C   UNL d   1      -0.767   3.581  -2.353  0.00  0.00     0.088 C 
ATOM     13  C   UNL d   1      -1.415   2.205  -2.480  0.00  0.00     0.035 C 
ATOM     14  C   UNL d   1      -0.992   1.265  -1.353  0.00  0.00     0.136 C 
BRANCH  12  15
ATOM     15  C   UNL d   1      -1.229   4.332  -1.112  0.00  0.00     0.263 C 
ATOM     16  O   UNL d   1      -0.471   4.754  -0.245  0.00  0.00    -0.265 OA
BRANCH  15  17
ATOM     17  O   UNL d   1      -2.578   4.493  -1.092  0.00  0.00    -0.322 OA
BRANCH  17  18
ATOM     18  C   UNL d   1      -3.072   5.193   0.066  0.00  0.00     0.174 C 
ATOM     19  C   UNL d   1      -3.229   4.228   1.228  0.00  0.00     0.034 C 
ENDBRANCH  17  18
ENDBRANCH  15  17
ENDBRANCH  12  15
ENDBRANCH   6   9
ENDBRANCH   1   6
BRANCH   4  20
ATOM     20  C   UNL d   1      -0.124   2.998   4.659  0.00  0.00     0.169 C 
BRANCH  20  21
ATOM     21  N   UNL d   1       1.009   2.947   5.559  0.00  0.00    -0.352 N 
ATOM     22  C   UNL d   1       1.155   3.870   6.572  0.00  0.00     0.251 C 
ATOM     23  O   UNL d   1       0.377   4.801   6.763  0.00  0.00    -0.268 OA
ATOM     24  H   UNL d   1       1.805   2.390   5.284  0.00  0.00     0.163 HD
BRANCH  22  25
ATOM     25  C   UNL d   1       2.358   3.696   7.448  0.00  0.00     0.032 A 
ATOM     26  C   UNL d   1       2.931   4.816   8.068  0.00  0.00     0.018 A 
ATOM     27  C   UNL d   1       4.010   4.657   8.948  0.00  0.00     0.025 A 
ATOM     28  C   UNL d   1       4.502   3.383   9.221  0.00  0.00     0.034 A 
ATOM     29  C   UNL d   1       3.940   2.265   8.608  0.00  0.00     0.025 A 
ATOM     30 CL   UNL d   1       5.796   3.183  10.336  0.00  0.00    -0.084 Cl
ATOM     31  C   UNL d   1       2.871   2.421   7.717  0.00  0.00     0.018 A 
ENDBRANCH  22  25
ENDBRANCH  20  21
ENDBRANCH   4  20
TORSDOF 8
