REMARK  3 active torsions:
REMARK  status: ('A' for Active; 'I' for Inactive)
REMARK       I    between atoms: C_2  and  N_1 
REMARK    1  A    between atoms: C_3  and  C_2 
REMARK    2  A    between atoms: C_5  and  C_7 
REMARK    3  A    between atoms: C_6  and  C_8 
ROOT
ATOM      1  C   UNL d   1      -3.420   3.102  -0.723  0.00  0.00     0.034 A 
ATOM      2  C   UNL d   1      -5.717   3.361   0.056  0.00  0.00     0.049 A 
ATOM      3  C   UNL d   1      -4.952   4.623  -1.889  0.00  0.00     0.049 A 
ATOM      4  C   UNL d   1      -4.420   2.838   0.218  0.00  0.00     0.033 A 
ATOM      5  C   UNL d   1      -3.695   4.014  -1.761  0.00  0.00     0.033 A 
ATOM      6  C   UNL d   1      -5.966   4.262  -0.994  0.00  0.00     0.032 A 
ENDROOT
BRANCH   1   7
ATOM      7  C   UNL d   1      -2.030   2.547  -0.658  0.00  0.00     0.258 C 
ATOM      8  N   UNL d   1      -1.765   1.222  -0.231  0.00  0.00    -0.313 N 
ATOM      9  C   UNL d   1      -0.404   0.728  -0.084  0.00  0.00     0.043 A 
ATOM     10  C   UNL d   1      -2.829   0.237   0.017  0.00  0.00     0.133 C 
ATOM     11  C   UNL d   1      -0.149  -0.655   0.039  0.00  0.00    -0.031 A 
ATOM     12  C   UNL d   1       0.710   1.582  -0.062  0.00  0.00     0.031 A 
ATOM     13  C   UNL d   1       1.174  -1.138   0.124  0.00  0.00     0.016 A 
ATOM     14  C   UNL d   1      -1.255  -1.672   0.108  0.00  0.00     0.042 C 
ATOM     15  C   UNL d   1       2.267  -0.272   0.086  0.00  0.00    -0.061 A 
ATOM     16  C   UNL d   1       2.022   1.095   0.009  0.00  0.00     0.009 A 
ATOM     17  C   UNL d   1       3.664  -0.811   0.118  0.00  0.00     0.048 C 
ATOM     18  C   UNL d   1      -2.522  -1.146  -0.522  0.00  0.00     0.025 C 
ATOM     19  O   UNL d   1      -1.176   3.336  -1.069  0.00  0.00    -0.267 OA
ENDBRANCH   1   7
BRANCH   2  20
ATOM     20  C   UNL d   1      -6.842   2.956   0.980  0.00  0.00     0.417 C 
ATOM     21  F   UNL d   1      -6.474   2.019   1.897  0.00  0.00    -0.166 F 
ATOM     22  F   UNL d   1      -7.344   4.003   1.687  0.00  0.00    -0.166 F 
ATOM     23  F   UNL d   1      -7.892   2.419   0.301  0.00  0.00    -0.166 F 
ENDBRANCH   2  20
BRANCH   3  24
ATOM     24  C   UNL d   1      -5.212   5.658  -2.962  0.00  0.00     0.417 C 
ATOM     25  F   UNL d   1      -4.119   5.959  -3.714  0.00  0.00    -0.166 F 
ATOM     26  F   UNL d   1      -6.175   5.260  -3.838  0.00  0.00    -0.166 F 
ATOM     27  F   UNL d   1      -5.646   6.838  -2.441  0.00  0.00    -0.166 F 
ENDBRANCH   3  24
TORSDOF 3
