REMARK  8 active torsions:
REMARK  status: ('A' for Active; 'I' for Inactive)
REMARK    1  A    between atoms: O_6  and  C_1 
REMARK       I    between atoms: C_2  and  N_3 
REMARK       I    between atoms: N_11  and  C_2 
REMARK    2  A    between atoms: N_3  and  C_15 
REMARK    3  A    between atoms: C_4  and  C_22 
REMARK    4  A    between atoms: C_16  and  O_6 
REMARK    5  A    between atoms: C_23  and  N_11 
REMARK    6  A    between atoms: S_17  and  C_24 
REMARK    7  A    between atoms: C_22  and  S_17 
REMARK    8  A    between atoms: C_24  and  C_23 
ROOT
ATOM      1  C   UNL d   1       3.627  -5.387  -4.051  0.00  0.00     0.320 C 
ATOM      2  N   UNL d   1       2.334  -5.279  -3.583  0.00  0.00    -0.309 N 
ATOM      3  O   UNL d   1       4.567  -4.655  -3.768  0.00  0.00    -0.247 OA
ATOM      4  N   UNL d   1       3.789  -6.460  -4.906  0.00  0.00    -0.342 N 
ATOM      5  H   UNL d   1       1.734  -6.072  -3.749  0.00  0.00     0.170 HD
ATOM      6  H   UNL d   1       2.982  -6.690  -5.473  0.00  0.00     0.164 HD
ENDROOT
BRANCH   2   7
ATOM      7  C   UNL d   1       1.845  -4.263  -2.730  0.00  0.00     0.036 A 
ATOM      8  C   UNL d   1       2.586  -3.123  -2.393  0.00  0.00     0.032 A 
ATOM      9  C   UNL d   1       2.086  -2.164  -1.502  0.00  0.00     0.039 A 
ATOM     10  C   UNL d   1       0.845  -2.343  -0.909  0.00  0.00     0.078 A 
ATOM     11  C   UNL d   1       0.065  -3.436  -1.302  0.00  0.00     0.039 A 
ATOM     12  C   UNL d   1       0.565  -4.390  -2.199  0.00  0.00     0.032 A 
BRANCH  10  13
ATOM     13  O   UNL d   1       0.272  -1.531   0.020  0.00  0.00    -0.255 OA
BRANCH  13  14
ATOM     14  C   UNL d   1       1.113  -0.760   0.873  0.00  0.00     0.530 C 
ATOM     15  F   UNL d   1       2.393  -1.188   0.923  0.00  0.00    -0.144 F 
ATOM     16  F   UNL d   1       0.614  -0.823   2.128  0.00  0.00    -0.144 F 
ATOM     17  F   UNL d   1       1.097   0.532   0.478  0.00  0.00    -0.144 F 
ENDBRANCH  13  14
ENDBRANCH  10  13
ENDBRANCH   2   7
BRANCH   4  18
ATOM     18  C   UNL d   1       5.074  -6.553  -5.586  0.00  0.00     0.134 C 
BRANCH  18  19
ATOM     19  C   UNL d   1       5.198  -7.748  -6.525  0.00  0.00     0.094 C 
BRANCH  19  20
ATOM     20  S   UNL d   1       3.928  -7.649  -7.826  0.00  0.00    -0.161 SA
BRANCH  20  21
ATOM     21  C   UNL d   1       4.501  -9.026  -8.871  0.00  0.00     0.139 C 
BRANCH  21  22
ATOM     22  C   UNL d   1       3.639  -9.136 -10.073  0.00  0.00     0.061 A 
ATOM     23  O   UNL d   1       2.898 -10.275 -10.192  0.00  0.00    -0.326 OA
ATOM     24  C   UNL d   1       2.169 -10.155 -11.331  0.00  0.00     0.142 A 
ATOM     25  C   UNL d   1       2.437  -8.959 -11.953  0.00  0.00     0.027 A 
ATOM     26  C   UNL d   1       3.396  -8.302 -11.147  0.00  0.00     0.035 A 
ENDBRANCH  21  22
ENDBRANCH  20  21
ENDBRANCH  19  20
ENDBRANCH  18  19
ENDBRANCH   4  18
TORSDOF 8
