REMARK  4 active torsions:
REMARK  status: ('A' for Active; 'I' for Inactive)
REMARK    1  A    between atoms: C_11  and  C_5 
REMARK    2  A    between atoms: C_6  and  C_8 
REMARK    3  A    between atoms: C_7  and  C_9 
REMARK    4  A    between atoms: C_14  and  N_12 
ROOT
ATOM      1  C   UNL d   1       0.185  -1.141  -0.123  0.00  0.00     0.149 A 
ATOM      2  S   UNL d   1      -1.148  -0.033  -0.151  0.00  0.00    -0.052 SA
ATOM      3  N   UNL d   1       1.369  -0.575  -0.184  0.00  0.00    -0.345 N 
ATOM      4  HN  UNL d   1       2.257  -1.077  -0.180  1.00  0.00     0.167 HD
ATOM      5  C   UNL d   1      -0.054   1.267  -0.271  0.00  0.00     0.034 A 
ATOM      6  C   UNL d   1       1.240   0.786  -0.256  0.00  0.00     0.110 A 
ATOM      7  N   UNL d   1       0.005  -2.485  -0.038  0.00  0.00    -0.337 N 
ATOM      8  H   UNL d   1      -0.948  -2.815   0.093  0.00  0.00     0.168 HD
ENDROOT
BRANCH   7   9
ATOM      9  C   UNL d   1       0.818  -3.410  -0.733  0.00  0.00     0.035 A 
ATOM     10  C   UNL d   1       0.893  -4.736  -0.309  0.00  0.00     0.045 A 
ATOM     11  C   UNL d   1       1.696  -5.677  -0.991  0.00  0.00     0.050 A 
ATOM     12  C   UNL d   1       2.443  -5.260  -2.105  0.00  0.00     0.032 A 
ATOM     13  C   UNL d   1       2.378  -3.936  -2.555  0.00  0.00     0.050 A 
ATOM     14  C   UNL d   1       1.571  -3.028  -1.856  0.00  0.00     0.045 A 
BRANCH  11  15
ATOM     15  C   UNL d   1       1.722  -7.122  -0.549  0.00  0.00     0.417 C 
ATOM     16  F   UNL d   1       2.493  -7.916  -1.346  0.00  0.00    -0.166 F 
ATOM     17  F   UNL d   1       2.200  -7.283   0.713  0.00  0.00    -0.166 F 
ATOM     18  F   UNL d   1       0.481  -7.683  -0.559  0.00  0.00    -0.166 F 
ENDBRANCH  11  15
BRANCH  13  19
ATOM     19  C   UNL d   1       3.105  -3.474  -3.792  0.00  0.00     0.417 C 
ATOM     20  F   UNL d   1       3.860  -4.448  -4.372  0.00  0.00    -0.166 F 
ATOM     21  F   UNL d   1       2.244  -3.047  -4.758  0.00  0.00    -0.166 F 
ATOM     22  F   UNL d   1       3.950  -2.434  -3.556  0.00  0.00    -0.166 F 
ENDBRANCH  13  19
ENDBRANCH   7   9
BRANCH   5  23
ATOM     23  C   UNL d   1      -0.427   2.669  -0.226  0.00  0.00    -0.015 C 
ATOM     24  C   UNL d   1      -0.124   3.348   0.941  0.00  0.00     0.052 C 
ATOM     25  C   UNL d   1       0.062   4.738   0.906  0.00  0.00     0.102 C 
ATOM     26  O   UNL d   1      -0.083   5.356   2.100  0.00  0.00    -0.348 OA
ATOM     27  C   UNL d   1       0.095   5.387  -0.318  0.00  0.00     0.102 C 
ATOM     28  C   UNL d   1       1.068   6.048   2.534  0.00  0.00     0.178 C 
ATOM     29  C   UNL d   1       1.312   7.283   1.688  0.00  0.00     0.053 C 
ATOM     30  C   UNL d   1       1.843   6.845   0.334  0.00  0.00     0.178 C 
ATOM     31  O   UNL d   1       0.737   6.579  -0.551  0.00  0.00    -0.348 OA
ATOM     32  C   UNL d   1      -0.510   4.771  -1.414  0.00  0.00     0.040 C 
ATOM     33  C   UNL d   1      -0.789   3.401  -1.366  0.00  0.00     0.016 C 
ENDBRANCH   5  23
TORSDOF 4
