REMARK  3 active torsions:
REMARK  status: ('A' for Active; 'I' for Inactive)
REMARK    1  A    between atoms: N_4  and  C_1 
REMARK    2  A    between atoms: S_10  and  C_3 
REMARK    3  A    between atoms: C_14  and  S_10 
ROOT
ATOM      1  C   UNL d   1      -1.153  -1.089  -0.022  0.00  0.00     0.132 A 
ATOM      2  C   UNL d   1       0.831   0.283  -0.059  0.00  0.00     0.086 A 
ATOM      3  C   UNL d   1      -0.013   1.401  -0.080  0.00  0.00     0.096 A 
ATOM      4  C   UNL d   1       0.257  -1.008  -0.031  0.00  0.00    -0.003 A 
ATOM      5  N   UNL d   1      -1.368   1.297  -0.069  0.00  0.00    -0.351 N 
ATOM      6  HN  UNL d   1      -1.951   2.134  -0.084  1.00  0.00     0.166 HD
ATOM      7  C   UNL d   1      -1.936   0.064  -0.038  0.00  0.00     0.040 A 
ATOM      8  C   UNL d   1       2.252   0.464  -0.070  0.00  0.00     0.103 C 
ATOM      9  N   UNL d   1       3.408   0.592  -0.089  0.00  0.00    -0.191 NA
ATOM     10  C   UNL d   1       1.106  -2.256  -0.019  0.00  0.00     0.052 C 
ATOM     11  C   UNL d   1      -3.438   0.046   0.002  0.00  0.00     0.071 C 
ENDROOT
BRANCH   3  12
ATOM     12  S   UNL d   1       0.598   3.084  -0.075  0.00  0.00    -0.071 SA
BRANCH  12  13
ATOM     13  C   UNL d   1       0.789   3.371  -1.825  0.00  0.00     0.007 A 
ATOM     14  C   UNL d   1      -0.330   3.446  -2.661  0.00  0.00     0.020 A 
ATOM     15  C   UNL d   1      -0.176   3.688  -4.028  0.00  0.00     0.020 A 
ATOM     16  C   UNL d   1       1.100   3.863  -4.560  0.00  0.00     0.011 A 
ATOM     17  C   UNL d   1       2.222   3.803  -3.736  0.00  0.00     0.020 A 
ATOM     18 BR   UNL d   1       1.308   4.185  -6.411  0.00  0.00    -0.051 Br
ATOM     19  C   UNL d   1       2.066   3.560  -2.368  0.00  0.00     0.020 A 
ENDBRANCH  12  13
ENDBRANCH   3  12
BRANCH   1  20
ATOM     20  N   UNL d   1      -1.813  -2.380   0.011  0.00  0.00    -0.113 N 
ATOM     21  O   UNL d   1      -1.641  -3.074   1.019  0.00  0.00    -0.532 OA
ATOM     22  O   UNL d   1      -2.495  -2.688  -0.973  0.00  0.00    -0.532 OA
ENDBRANCH   1  20
TORSDOF 3
