REMARK  2 active torsions:
REMARK  status: ('A' for Active; 'I' for Inactive)
REMARK    1  A    between atoms: N_4  and  C_1 
REMARK    2  A    between atoms: N_5  and  C_8 
ROOT
ATOM      1  C   UNL d   1       2.426   1.469   0.001  0.00  0.00     0.134 A 
ATOM      2  C   UNL d   1       1.186   0.806  -0.000  0.00  0.00     0.100 A 
ATOM      3  N   UNL d   1      -0.054   1.454   0.009  0.00  0.00    -0.350 N 
ATOM      4  C   UNL d   1       1.178  -0.607  -0.000  0.00  0.00     0.107 A 
ATOM      5  C   UNL d   1       3.630   0.743   0.001  0.00  0.00     0.074 A 
ATOM      6  C   UNL d   1       3.590  -0.658   0.000  0.00  0.00     0.108 A 
ATOM      7  O   UNL d   1       0.003  -1.348   0.000  0.00  0.00    -0.306 OA
ATOM      8  C   UNL d   1      -1.250   0.742   0.000  0.00  0.00     0.068 A 
ATOM      9  C   UNL d   1       2.368  -1.340  -0.001  0.00  0.00     0.075 A 
ATOM     10  C   UNL d   1      -1.198  -0.661  -0.000  0.00  0.00     0.102 A 
ATOM     11  C   UNL d   1      -2.484   1.392   0.002  0.00  0.00     0.056 A 
ATOM     12  C   UNL d   1      -2.375  -1.410  -0.001  0.00  0.00     0.041 A 
ATOM     13  C   UNL d   1      -3.657   0.641   0.001  0.00  0.00     0.036 A 
ATOM     14  C   UNL d   1      -3.610  -0.754  -0.000  0.00  0.00     0.026 A 
ATOM     15 CL   UNL d   1      -5.178   1.448   0.002  0.00  0.00    -0.084 Cl
ATOM     16  H   UNL d   1      -0.080   2.472  -0.010  0.00  0.00     0.166 HD
ENDROOT
BRANCH   1  17
ATOM     17  N   UNL d   1       2.500   2.940   0.001  0.00  0.00    -0.113 N 
ATOM     18  O   UNL d   1       1.441   3.585  -0.005  0.00  0.00    -0.532 OA
ATOM     19  O   UNL d   1       3.627   3.455   0.006  0.00  0.00    -0.532 OA
ENDBRANCH   1  17
BRANCH   6  20
ATOM     20  N   UNL d   1       4.849  -1.416   0.002  0.00  0.00    -0.116 N 
ATOM     21  O   UNL d   1       5.906  -0.769   0.003  0.00  0.00    -0.532 OA
ATOM     22  O   UNL d   1       4.778  -2.651   0.003  0.00  0.00    -0.532 OA
ENDBRANCH   6  20
TORSDOF 2
