REMARK  3 active torsions:
REMARK  status: ('A' for Active; 'I' for Inactive)
REMARK    1  A    between atoms: C_2  and  C_1 
REMARK       I    between atoms: N_4  and  C_2 
REMARK    2  A    between atoms: C_8  and  C_3 
REMARK    3  A    between atoms: C_15  and  C_11 
ROOT
ATOM      1  C   UNL d   1       0.088  -2.671  -0.399  0.00  0.00     0.259 C 
ATOM      2  N   UNL d   1      -0.798  -3.729  -0.138  0.00  0.00    -0.339 N 
ATOM      3  C   UNL d   1      -1.735  -4.372  -1.089  0.00  0.00     0.117 C 
ATOM      4  C   UNL d   1      -3.011  -4.797  -0.306  0.00  0.00     0.177 C 
ATOM      5  O   UNL d   1       0.833  -2.266   0.495  0.00  0.00    -0.267 OA
ATOM      6  O   UNL d   1      -2.658  -5.771   0.690  0.00  0.00    -0.378 OA
ATOM      7  C   UNL d   1      -0.547  -4.534   1.075  0.00  0.00     0.153 C 
ATOM      8  C   UNL d   1      -1.818  -5.154   1.680  0.00  0.00     0.188 C 
ATOM      9  C   UNL d   1      -1.052  -5.514  -1.848  0.00  0.00     0.035 C 
ENDROOT
BRANCH   1  10
ATOM     10  C   UNL d   1       0.222  -2.104  -1.732  0.00  0.00     0.092 C 
ATOM     11  C   UNL d   1       1.465  -1.742  -2.378  0.00  0.00     0.085 C 
ATOM     12  N   UNL d   1       1.225  -1.340  -3.637  0.00  0.00    -0.259 N 
ATOM     13  O   UNL d   1      -0.128  -1.239  -3.765  0.00  0.00    -0.241 OA
ATOM     14  HN  UNL d   1       1.921  -1.148  -4.358  1.00  0.00     0.195 HD
ATOM     15  C   UNL d   1      -0.733  -1.631  -2.616  0.00  0.00     0.090 C 
ATOM     16  C   UNL d   1      -2.195  -1.412  -2.623  0.00  0.00     0.080 C 
BRANCH  11  17
ATOM     17  C   UNL d   1       2.850  -1.794  -1.896  0.00  0.00     0.015 A 
ATOM     18  C   UNL d   1       3.740  -0.711  -2.059  0.00  0.00     0.046 A 
ATOM     19 CL   UNL d   1       3.259   0.831  -2.691  0.00  0.00    -0.083 Cl
ATOM     20  C   UNL d   1       5.082  -0.825  -1.669  0.00  0.00     0.025 A 
ATOM     21  C   UNL d   1       5.548  -2.002  -1.090  0.00  0.00     0.002 A 
ATOM     22  C   UNL d   1       4.672  -3.066  -0.890  0.00  0.00     0.001 A 
ATOM     23  C   UNL d   1       3.336  -2.966  -1.295  0.00  0.00     0.015 A 
ENDBRANCH  11  17
ENDBRANCH   1  10
BRANCH   4  24
ATOM     24  C   UNL d   1      -4.153  -5.259  -1.186  0.00  0.00    -0.028 A 
ATOM     25  C   UNL d   1      -4.303  -6.598  -1.574  0.00  0.00     0.010 A 
ATOM     26  C   UNL d   1      -5.351  -6.975  -2.417  0.00  0.00     0.001 A 
ATOM     27  C   UNL d   1      -6.264  -6.027  -2.876  0.00  0.00     0.000 A 
ATOM     28  C   UNL d   1      -6.135  -4.695  -2.488  0.00  0.00     0.001 A 
ATOM     29  C   UNL d   1      -5.086  -4.315  -1.652  0.00  0.00     0.010 A 
ENDBRANCH   4  24
TORSDOF 3
