REMARK  7 active torsions:
REMARK  status: ('A' for Active; 'I' for Inactive)
REMARK    1  A    between atoms: C_7  and  C_1 
REMARK    2  A    between atoms: C_2  and  C_6 
REMARK    3  A    between atoms: C_3  and  N_9 
REMARK    4  A    between atoms: N_8  and  C_3 
REMARK    5  A    between atoms: N_4  and  N_8 
REMARK    6  A    between atoms: N_9  and  C_14 
REMARK    7  A    between atoms: O_21  and  C_10 
ROOT
ATOM      1  N   UNL d   1       1.767  -2.447  -0.268  0.00  0.00    -0.276 N 
ATOM      2  H   UNL d   1       1.012  -1.779  -0.343  0.00  0.00     0.189 HD
ENDROOT
BRANCH   1   3
ATOM      3  N   UNL d   1       2.853  -2.159   0.493  0.00  0.00    -0.302 N 
ATOM      4  C   UNL d   1       2.893  -1.051   1.173  0.00  0.00     0.035 C 
ATOM      5  C   UNL d   1       1.787  -0.021   1.220  0.00  0.00     0.070 C 
ATOM      6  HN  UNL d   1       3.637  -2.810   0.532  1.00  0.00     0.186 HD
BRANCH   4   7
ATOM      7  C   UNL d   1       4.129  -0.802   1.960  0.00  0.00     0.022 A 
ATOM      8  C   UNL d   1       5.383  -1.088   1.404  0.00  0.00     0.077 A 
ATOM      9  C   UNL d   1       6.547  -0.905   2.147  0.00  0.00     0.039 A 
ATOM     10  C   UNL d   1       6.458  -0.470   3.468  0.00  0.00     0.026 A 
ATOM     11  C   UNL d   1       5.207  -0.203   4.029  0.00  0.00     0.035 A 
ATOM     12  C   UNL d   1       4.040  -0.357   3.282  0.00  0.00     0.040 A 
ATOM     13 CL   UNL d   1       5.100   0.300   5.671  0.00  0.00    -0.084 Cl
BRANCH   8  14
ATOM     14  O   UNL d   1       5.537  -1.564   0.130  0.00  0.00    -0.360 OA
ATOM     15  H   UNL d   1       4.687  -1.988  -0.125  0.00  0.00     0.217 HD
ENDBRANCH   8  14
ENDBRANCH   4   7
ENDBRANCH   1   3
BRANCH   1  16
ATOM     16  C   UNL d   1       1.536  -3.724  -0.722  0.00  0.00     0.191 C 
ATOM     17  S   UNL d   1       2.233  -5.112  -0.090  0.00  0.00    -0.039 SA
BRANCH  16  18
ATOM     18  N   UNL d   1       0.632  -3.884  -1.739  0.00  0.00    -0.332 N 
ATOM     19  H   UNL d   1       0.366  -4.857  -1.864  0.00  0.00     0.168 HD
BRANCH  18  20
ATOM     20  C   UNL d   1       0.125  -2.979  -2.690  0.00  0.00     0.035 A 
ATOM     21  C   UNL d   1       0.627  -1.691  -2.888  0.00  0.00     0.045 A 
ATOM     22  C   UNL d   1       0.032  -0.813  -3.809  0.00  0.00     0.050 A 
ATOM     23  C   UNL d   1      -1.020  -1.276  -4.609  0.00  0.00     0.016 A 
ATOM     24  C   UNL d   1      -1.481  -2.585  -4.471  0.00  0.00     0.003 A 
ATOM     25  C   UNL d   1      -0.915  -3.427  -3.511  0.00  0.00     0.029 A 
BRANCH  22  26
ATOM     26  C   UNL d   1       0.515   0.612  -3.926  0.00  0.00     0.417 C 
ATOM     27  F   UNL d   1       1.383   0.967  -2.936  0.00  0.00    -0.166 F 
ATOM     28  F   UNL d   1      -0.507   1.510  -3.855  0.00  0.00    -0.166 F 
ATOM     29  F   UNL d   1       1.158   0.860  -5.099  0.00  0.00    -0.166 F 
ENDBRANCH  22  26
ENDBRANCH  18  20
ENDBRANCH  16  18
ENDBRANCH   1  16
TORSDOF 7
