REMARK  5 active torsions:
REMARK  status: ('A' for Active; 'I' for Inactive)
REMARK    1  A    between atoms: C_2  and  C_1 
REMARK    2  A    between atoms: C_8  and  C_3 
REMARK    3  A    between atoms: C_21  and  C_11 
REMARK    4  A    between atoms: C_17  and  S_20 
REMARK    5  A    between atoms: S_20  and  C_21 
ROOT
ATOM      1  C   UNL d   1       0.514  -2.621   0.137  0.00  0.00     0.142 A 
ATOM      2  N   UNL d   1       1.698  -2.913  -0.482  0.00  0.00    -0.322 N 
ATOM      3  HN  UNL d   1       2.290  -2.301  -1.044  1.00  0.00     0.169 HD
ATOM      4  N   UNL d   1      -0.039  -3.640   0.806  0.00  0.00    -0.242 N 
ATOM      5  HN  UNL d   1      -0.911  -3.653   1.335  1.00  0.00     0.196 HD
ATOM      6  C   UNL d   1       1.883  -4.176  -0.175  0.00  0.00     0.158 A 
ATOM      7  O   UNL d   1       0.877  -4.687   0.600  0.00  0.00    -0.222 OA
ENDROOT
BRANCH   1   8
ATOM      8  C   UNL d   1      -0.019  -1.281  -0.022  0.00  0.00     0.071 A 
ATOM      9  C   UNL d   1      -1.370  -0.855  -0.137  0.00  0.00     0.085 A 
ATOM     10  N   UNL d   1      -1.403   0.470  -0.381  0.00  0.00    -0.259 N 
ATOM     11  O   UNL d   1      -0.098   0.914  -0.358  0.00  0.00    -0.241 OA
ATOM     12  HN  UNL d   1      -2.235   1.036  -0.549  1.00  0.00     0.195 HD
ATOM     13  C   UNL d   1       0.730  -0.137  -0.141  0.00  0.00     0.089 A 
ATOM     14  C   UNL d   1       2.179   0.155  -0.080  0.00  0.00     0.080 C 
BRANCH   9  15
ATOM     15  C   UNL d   1      -2.625  -1.609  -0.047  0.00  0.00     0.037 A 
ATOM     16  C   UNL d   1      -3.634  -1.222   0.862  0.00  0.00     0.048 A 
ATOM     17 CL   UNL d   1      -3.478   0.131   1.940  0.00  0.00    -0.083 Cl
ATOM     18  C   UNL d   1      -4.835  -1.938   0.958  0.00  0.00     0.025 A 
ATOM     19  C   UNL d   1      -5.044  -3.068   0.177  0.00  0.00     0.003 A 
ATOM     20  C   UNL d   1      -4.067  -3.462  -0.732  0.00  0.00     0.025 A 
ATOM     21  C   UNL d   1      -2.881  -2.725  -0.867  0.00  0.00     0.048 A 
ATOM     22 CL   UNL d   1      -1.818  -3.231  -2.141  0.00  0.00    -0.083 Cl
ENDBRANCH   9  15
ENDBRANCH   1   8
BRANCH   6  23
ATOM     23  C   UNL d   1       3.004  -5.079  -0.544  0.00  0.00     0.167 C 
BRANCH  23  24
ATOM     24  S   UNL d   1       4.558  -4.118  -0.642  0.00  0.00    -0.104 SA
BRANCH  24  25
ATOM     25  C   UNL d   1       5.739  -5.394  -1.009  0.00  0.00     0.069 A 
ATOM     26  N   UNL d   1       5.314  -6.673  -1.106  0.00  0.00    -0.361 N 
ATOM     27  C   UNL d   1       6.255  -7.611  -1.356  0.00  0.00     0.089 A 
ATOM     28  HN  UNL d   1       4.330  -6.919  -0.996  1.00  0.00     0.165 HD
ATOM     29  C   UNL d   1       7.605  -7.336  -1.511  0.00  0.00     0.017 A 
ATOM     30  C   UNL d   1       8.018  -6.015  -1.413  0.00  0.00     0.004 A 
ATOM     31  C   UNL d   1       7.072  -5.026  -1.161  0.00  0.00     0.037 A 
ENDBRANCH  24  25
ENDBRANCH  23  24
ENDBRANCH   6  23
TORSDOF 5
