REMARK  4 active torsions:
REMARK  status: ('A' for Active; 'I' for Inactive)
REMARK       I    between atoms: N_2  and  C_1 
REMARK    1  A    between atoms: C_3  and  C_1 
REMARK    2  A    between atoms: N_6  and  N_2 
REMARK    3  A    between atoms: C_4  and  C_5 
REMARK    4  A    between atoms: C_12  and  N_6 
ROOT
ATOM      1  C   UNL d   1       0.910   0.175  -0.233  0.00  0.00     0.266 C 
ATOM      2  N   UNL d   1       0.890  -1.028  -0.923  0.00  0.00    -0.283 N 
ATOM      3  O   UNL d   1       1.490   1.181  -0.629  0.00  0.00    -0.266 OA
ATOM      4  H   UNL d   1       0.800  -1.891  -0.396  0.00  0.00     0.184 HD
ENDROOT
BRANCH   1   5
ATOM      5  C   UNL d   1       0.182   0.164   1.066  0.00  0.00     0.033 A 
ATOM      6  C   UNL d   1       0.599   0.994   2.104  0.00  0.00     0.017 A 
ATOM      7  C   UNL d   1      -0.096   0.997   3.323  0.00  0.00     0.009 A 
ATOM      8  C   UNL d   1      -1.228   0.182   3.529  0.00  0.00    -0.051 A 
ATOM      9  C   UNL d   1      -1.633  -0.638   2.462  0.00  0.00     0.009 A 
ATOM     10  C   UNL d   1      -0.942  -0.647   1.246  0.00  0.00     0.017 A 
BRANCH   8  11
ATOM     11  C   UNL d   1      -1.983   0.209   4.871  0.00  0.00    -0.024 C 
ATOM     12  C   UNL d   1      -3.207  -0.737   4.914  0.00  0.00     0.019 C 
ATOM     13  C   UNL d   1      -1.035  -0.221   6.010  0.00  0.00     0.019 C 
ATOM     14  C   UNL d   1      -2.503   1.634   5.157  0.00  0.00     0.019 C 
ENDBRANCH   8  11
ENDBRANCH   1   5
BRANCH   2  15
ATOM     15  N   UNL d   1       1.692  -1.124  -2.066  0.00  0.00    -0.203 NA
ATOM     16  H   UNL d   1       2.024  -0.203  -2.381  0.00  0.00     0.153 HD
BRANCH  15  17
ATOM     17  C   UNL d   1       1.161  -1.901  -3.123  0.00  0.00     0.027 A 
ATOM     18  C   UNL d   1       0.053  -2.752  -2.983  0.00  0.00     0.027 A 
ATOM     19  C   UNL d   1      -0.349  -3.595  -4.026  0.00  0.00     0.026 A 
ATOM     20  C   UNL d   1       0.369  -3.614  -5.216  0.00  0.00     0.034 A 
ATOM     21  C   UNL d   1       1.477  -2.789  -5.377  0.00  0.00     0.026 A 
ATOM     22 CL   UNL d   1      -0.103  -4.677  -6.484  0.00  0.00    -0.084 Cl
ATOM     23  C   UNL d   1       1.870  -1.942  -4.334  0.00  0.00     0.027 A 
ENDBRANCH  15  17
ENDBRANCH   2  15
TORSDOF 4
