REMARK  3 active torsions:
REMARK  status: ('A' for Active; 'I' for Inactive)
REMARK    1  A    between atoms: C_2  and  C_1 
REMARK       I    between atoms: N_3  and  C_1 
REMARK    2  A    between atoms: C_4  and  N_3 
REMARK       I    between atoms: C_6  and  N_7 
REMARK    3  A    between atoms: N_7  and  C_11 
ROOT
ATOM      1  C   UNL d   1      -1.079  -1.246  -0.249  0.00  0.00     0.041 A 
ATOM      2  C   UNL d   1      -1.879  -0.398  -1.028  0.00  0.00    -0.033 A 
ATOM      3  C   UNL d   1      -3.889  -1.552  -0.204  0.00  0.00     0.035 A 
ATOM      4  C   UNL d   1      -3.282  -0.545  -0.968  0.00  0.00     0.038 A 
ATOM      5  C   UNL d   1      -1.681  -2.310   0.435  0.00  0.00     0.032 A 
ATOM      6  C   UNL d   1      -3.071  -2.454   0.467  0.00  0.00     0.032 A 
ATOM      7  C   UNL d   1      -1.344   0.624  -1.998  0.00  0.00     0.050 C 
ENDROOT
BRANCH   1   8
ATOM      8  N   UNL d   1       0.320  -1.137  -0.091  0.00  0.00    -0.322 N 
ATOM      9  C   UNL d   1       1.026   0.049   0.027  0.00  0.00     0.259 C 
ATOM     10  O   UNL d   1       0.561   1.182   0.032  0.00  0.00    -0.267 OA
ATOM     11  H   UNL d   1       0.795  -1.976   0.216  0.00  0.00     0.169 HD
BRANCH   9  12
ATOM     12  C   UNL d   1       2.485  -0.118   0.230  0.00  0.00     0.075 A 
ATOM     13  C   UNL d   1       3.265  -0.799  -0.718  0.00  0.00     0.051 A 
ATOM     14 CL   UNL d   1       2.611  -1.476  -2.169  0.00  0.00    -0.083 Cl
ATOM     15  C   UNL d   1       4.645  -0.938  -0.528  0.00  0.00     0.025 A 
ATOM     16  C   UNL d   1       5.261  -0.383   0.591  0.00  0.00     0.003 A 
ATOM     17  C   UNL d   1       4.496   0.309   1.528  0.00  0.00     0.025 A 
ATOM     18  C   UNL d   1       3.112   0.440   1.355  0.00  0.00     0.051 A 
ATOM     19 CL   UNL d   1       2.250   1.256   2.614  0.00  0.00    -0.083 Cl
ENDBRANCH   9  12
ENDBRANCH   1   8
BRANCH   3  20
ATOM     20  N   UNL d   1      -5.297  -1.581  -0.164  0.00  0.00    -0.327 N 
ATOM     21  C   UNL d   1      -6.096  -2.455   0.549  0.00  0.00     0.218 C 
ATOM     22  O   UNL d   1      -5.723  -3.399   1.240  0.00  0.00    -0.274 OA
ATOM     23  C   UNL d   1      -7.570  -2.155   0.421  0.00  0.00     0.117 C 
ATOM     24  H   UNL d   1      -5.766  -0.850  -0.685  0.00  0.00     0.169 HD
ENDBRANCH   3  20
TORSDOF 3
