REMARK  7 active torsions:
REMARK  status: ('A' for Active; 'I' for Inactive)
REMARK    1  A    between atoms: C_2  and  C_1 
REMARK    2  A    between atoms: C_3  and  C_1 
REMARK    3  A    between atoms: O_14  and  C_2 
REMARK    4  A    between atoms: O_13  and  C_3 
REMARK    5  A    between atoms: O_15  and  N_6 
REMARK    6  A    between atoms: C_16  and  O_13 
REMARK    7  A    between atoms: C_17  and  O_14 
ROOT
ATOM      1  C   UNL d   1       0.714   1.276  -0.268  0.00  0.00     0.136 C 
ATOM      2  C   UNL d   1       1.446   0.002   0.229  0.00  0.00     0.036 C 
ATOM      3  C   UNL d   1      -0.770   1.222   0.174  0.00  0.00     0.036 C 
ATOM      4  N   UNL d   1      -1.313  -2.132   1.010  0.00  0.00    -0.277 N 
ATOM      5  HN  UNL d   1      -2.294  -2.067   1.280  1.00  0.00     0.193 HD
ATOM      6  C   UNL d   1      -0.699  -1.251   0.280  0.00  0.00     0.010 C 
ATOM      7  C   UNL d   1       0.749  -1.307  -0.151  0.00  0.00     0.056 C 
ATOM      8  C   UNL d   1      -1.484  -0.062  -0.224  0.00  0.00     0.056 C 
ENDROOT
BRANCH   1   9
ATOM      9  C   UNL d   1       1.343   2.529   0.347  0.00  0.00     0.277 C 
ATOM     10  O   UNL d   1       0.715   3.536   0.651  0.00  0.00    -0.264 OA
BRANCH   9  11
ATOM     11  O   UNL d   1       2.696   2.415   0.454  0.00  0.00    -0.321 OA
BRANCH  11  12
ATOM     12  C   UNL d   1       3.382   3.574   0.952  0.00  0.00     0.174 C 
ATOM     13  C   UNL d   1       3.268   3.661   2.463  0.00  0.00     0.034 C 
ENDBRANCH  11  12
ENDBRANCH   9  11
ENDBRANCH   1   9
BRANCH   1  14
ATOM     14  C   UNL d   1       0.851   1.417  -1.779  0.00  0.00     0.277 C 
ATOM     15  O   UNL d   1       1.494   0.660  -2.492  0.00  0.00    -0.264 OA
BRANCH  14  16
ATOM     16  O   UNL d   1       0.230   2.546  -2.225  0.00  0.00    -0.321 OA
BRANCH  16  17
ATOM     17  C   UNL d   1       0.620   2.992  -3.533  0.00  0.00     0.174 C 
ATOM     18  C   UNL d   1       1.875   3.836  -3.398  0.00  0.00     0.034 C 
ENDBRANCH  16  17
ENDBRANCH  14  16
ENDBRANCH   1  14
BRANCH   4  19
ATOM     19  O   UNL d   1      -0.467  -3.179   1.382  0.00  0.00    -0.290 OA
ATOM     20  H   UNL d   1      -1.064  -3.762   1.887  0.00  0.00     0.244 HD
ENDBRANCH   4  19
TORSDOF 7
