REMARK  10 active torsions:
REMARK  status: ('A' for Active; 'I' for Inactive)
REMARK    1  A    between atoms: C_8  and  S_1 
REMARK    2  A    between atoms: O_21  and  S_1 
REMARK    3  A    between atoms: S_2  and  C_7 
REMARK    4  A    between atoms: O_20  and  S_2 
REMARK    5  A    between atoms: C_22  and  O_20 
REMARK    6  A    between atoms: C_23  and  O_21 
REMARK    7  A    between atoms: C_24  and  C_22 
REMARK    8  A    between atoms: C_25  and  C_23 
REMARK    9  A    between atoms: C_26  and  C_24 
REMARK   10  A    between atoms: C_27  and  C_25 
ROOT
ATOM      1  C   UNL d   1      -1.002  -1.907  -5.766  0.00  0.00    -0.041 A 
ATOM      2  C   UNL d   1      -0.226  -1.375  -3.603  0.00  0.00    -0.041 A 
ATOM      3  C   UNL d   1      -0.969  -0.500  -5.629  0.00  0.00    -0.019 A 
ATOM      4  C   UNL d   1      -0.487  -0.172  -4.301  0.00  0.00    -0.019 A 
ATOM      5  C   UNL d   1      -1.845  -1.688  -7.984  0.00  0.00     0.087 A 
ATOM      6  C   UNL d   1       0.410  -0.130  -1.674  0.00  0.00     0.087 A 
ATOM      7  C   UNL d   1      -0.510  -2.570  -4.493  0.00  0.00     0.078 A 
ATOM      8  C   UNL d   1      -1.432  -2.517  -6.935  0.00  0.00     0.034 A 
ATOM      9  C   UNL d   1       0.218  -1.373  -2.289  0.00  0.00     0.034 A 
ATOM     10  C   UNL d   1      -0.288   1.055  -3.688  0.00  0.00     0.014 A 
ATOM     11  C   UNL d   1      -1.370   0.317  -6.675  0.00  0.00     0.014 A 
ATOM     12  C   UNL d   1      -1.810  -0.283  -7.862  0.00  0.00     0.027 A 
ATOM     13  C   UNL d   1       0.165   1.075  -2.363  0.00  0.00     0.027 A 
ENDROOT
BRANCH   5  14
ATOM     14  S   UNL d   1      -2.328  -2.433  -9.532  0.00  0.00     0.298 S 
ATOM     15  O   UNL d   1      -2.690  -1.359 -10.438  0.00  0.00    -0.193 OA
ATOM     16  O   UNL d   1      -1.288  -3.377  -9.876  0.00  0.00    -0.193 OA
BRANCH  14  17
ATOM     17  O   UNL d   1      -3.689  -3.271  -9.193  0.00  0.00    -0.272 OA
BRANCH  17  18
ATOM     18  C   UNL d   1      -4.259  -3.989 -10.282  0.00  0.00     0.190 C 
BRANCH  18  19
ATOM     19  C   UNL d   1      -5.551  -4.698  -9.873  0.00  0.00     0.031 C 
BRANCH  19  20
ATOM     20  C   UNL d   1      -6.662  -3.768  -9.352  0.00  0.00    -0.021 C 
ATOM     21  C   UNL d   1      -7.074  -2.717 -10.385  0.00  0.00     0.009 C 
ATOM     22  C   UNL d   1      -7.891  -4.588  -8.945  0.00  0.00     0.009 C 
ENDBRANCH  19  20
ENDBRANCH  18  19
ENDBRANCH  17  18
ENDBRANCH  14  17
ENDBRANCH   5  14
BRANCH   6  23
ATOM     23  S   UNL d   1       0.939  -0.080   0.025  0.00  0.00     0.298 S 
ATOM     24  O   UNL d   1      -0.085  -0.753   0.798  0.00  0.00    -0.193 OA
ATOM     25  O   UNL d   1       1.328   1.284   0.326  0.00  0.00    -0.193 OA
BRANCH  23  26
ATOM     26  O   UNL d   1       2.288  -0.996   0.062  0.00  0.00    -0.272 OA
BRANCH  26  27
ATOM     27  C   UNL d   1       2.929  -1.133   1.323  0.00  0.00     0.190 C 
BRANCH  27  28
ATOM     28  C   UNL d   1       4.205  -1.962   1.182  0.00  0.00     0.031 C 
BRANCH  28  29
ATOM     29  C   UNL d   1       5.236  -1.378   0.196  0.00  0.00    -0.021 C 
ATOM     30  C   UNL d   1       5.708   0.016   0.611  0.00  0.00     0.009 C 
ATOM     31  C   UNL d   1       6.443  -2.313   0.076  0.00  0.00     0.009 C 
ENDBRANCH  28  29
ENDBRANCH  27  28
ENDBRANCH  26  27
ENDBRANCH  23  26
ENDBRANCH   6  23
TORSDOF 10
