REMARK  4 active torsions:
REMARK  status: ('A' for Active; 'I' for Inactive)
REMARK    1  A    between atoms: S_7  and  C_1 
REMARK    2  A    between atoms: C_15  and  S_7 
REMARK       I    between atoms: N_8  and  C_13 
REMARK    3  A    between atoms: C_11  and  N_8 
REMARK    4  A    between atoms: C_13  and  C_15 
ROOT
ATOM      1  N   UNL d   1      -0.469  -6.170   3.628  0.00  0.00    -0.191 NA
ATOM      2  C   UNL d   1      -0.764  -6.755   2.675  0.00  0.00     0.102 C 
ATOM      3  C   UNL d   1      -1.562  -6.711   0.336  0.00  0.00     0.055 A 
ATOM      4  C   UNL d   1      -1.142  -7.432   1.467  0.00  0.00     0.071 A 
ATOM      5  C   UNL d   1      -1.167  -8.835   1.460  0.00  0.00     0.025 A 
ATOM      6  C   UNL d   1      -1.993  -7.422  -0.794  0.00  0.00     0.031 A 
ATOM      7  C   UNL d   1      -1.583  -9.527   0.324  0.00  0.00     0.002 A 
ATOM      8  C   UNL d   1      -1.994  -8.820  -0.803  0.00  0.00     0.002 A 
ENDROOT
BRANCH   3   9
ATOM      9  N   UNL d   1      -1.514  -5.293   0.323  0.00  0.00    -0.325 N 
ATOM     10  C   UNL d   1      -2.447  -4.492  -0.310  0.00  0.00     0.231 C 
ATOM     11  O   UNL d   1      -3.486  -4.928  -0.809  0.00  0.00    -0.272 OA
ATOM     12  H   UNL d   1      -0.912  -4.822   0.995  0.00  0.00     0.169 HD
BRANCH  10  13
ATOM     13  C   UNL d   1      -2.201  -2.991  -0.293  0.00  0.00     0.185 C 
BRANCH  13  14
ATOM     14  S   UNL d   1      -0.501  -2.485   0.114  0.00  0.00    -0.082 SA
BRANCH  14  15
ATOM     15  C   UNL d   1      -0.672  -0.769  -0.043  0.00  0.00     0.172 A 
ATOM     16  N   UNL d   1       0.350   0.134   0.027  0.00  0.00    -0.260 N 
ATOM     17  N   UNL d   1      -0.145   1.378  -0.118  0.00  0.00    -0.005 NA
ATOM     18  C   UNL d   1       1.759  -0.050   0.226  0.00  0.00     0.177 C 
ATOM     19  N   UNL d   1      -1.450   1.217  -0.285  0.00  0.00    -0.007 NA
ATOM     20  N   UNL d   1      -1.792  -0.113  -0.241  0.00  0.00    -0.265 N 
ATOM     21  HN  UNL d   1      -2.726  -0.510  -0.342  1.00  0.00     0.186 HD
ENDBRANCH  14  15
ENDBRANCH  13  14
ENDBRANCH  10  13
ENDBRANCH   3   9
TORSDOF 4
