REMARK  3 active torsions:
REMARK  status: ('A' for Active; 'I' for Inactive)
REMARK    1  A    between atoms: N_7  and  C_1 
REMARK    2  A    between atoms: C_11  and  C_6 
REMARK       I    between atoms: C_8  and  N_7 
REMARK       I    between atoms: N_10  and  C_8 
REMARK    3  A    between atoms: C_9  and  N_10 
ROOT
ATOM      1  N   UNL d   1      -0.442  -2.197  -0.262  0.00  0.00    -0.293 N 
ATOM      2  C   UNL d   1      -0.299  -3.235  -1.215  0.00  0.00     0.326 C 
ATOM      3  N   UNL d   1       0.711  -3.130  -2.122  0.00  0.00    -0.309 N 
ATOM      4  O   UNL d   1      -1.130  -4.120  -1.099  0.00  0.00    -0.247 OA
ATOM      5  H   UNL d   1      -1.286  -2.344   0.280  0.00  0.00     0.172 HD
ATOM      6  H   UNL d   1       1.274  -2.300  -2.109  0.00  0.00     0.170 HD
ENDROOT
BRANCH   1   7
ATOM      7  C   UNL d   1       0.329  -1.092   0.064  0.00  0.00     0.127 C 
ATOM      8  C   UNL d   1       1.610  -0.732  -0.298  0.00  0.00     0.077 C 
ATOM      9  C   UNL d   1       1.807   0.573   0.234  0.00  0.00     0.037 C 
ATOM     10  N   UNL d   1       0.769   0.932   0.998  0.00  0.00    -0.301 N 
ATOM     11  N   UNL d   1      -0.089  -0.088   0.908  0.00  0.00    -0.281 N 
ATOM     12  HN  UNL d   1       0.658   1.794   1.531  1.00  0.00     0.187 HD
ATOM     13  C   UNL d   1      -1.347   0.003   1.612  0.00  0.00     0.179 C 
BRANCH   9  14
ATOM     14  C   UNL d   1       2.932   1.570   0.001  0.00  0.00    -0.007 C 
ATOM     15  C   UNL d   1       4.075   0.977  -0.846  0.00  0.00     0.021 C 
ATOM     16  C   UNL d   1       2.362   2.789  -0.761  0.00  0.00     0.021 C 
ATOM     17  C   UNL d   1       3.527   2.048   1.340  0.00  0.00     0.021 C 
ENDBRANCH   9  14
ENDBRANCH   1   7
BRANCH   3  18
ATOM     18  C   UNL d   1       1.128  -4.152  -3.005  0.00  0.00     0.039 A 
ATOM     19  C   UNL d   1       0.350  -5.273  -3.313  0.00  0.00     0.053 A 
ATOM     20  C   UNL d   1       0.881  -6.303  -4.095  0.00  0.00     0.037 A 
ATOM     21 CL   UNL d   1      -0.085  -7.683  -4.449  0.00  0.00    -0.084 Cl
ATOM     22  C   UNL d   1       2.184  -6.233  -4.575  0.00  0.00     0.048 A 
ATOM     23  C   UNL d   1       2.941  -5.099  -4.305  0.00  0.00     0.037 A 
ATOM     24  C   UNL d   1       2.413  -4.049  -3.547  0.00  0.00     0.053 A 
ATOM     25 CL   UNL d   1       4.562  -5.001  -4.871  0.00  0.00    -0.084 Cl
ENDBRANCH   3  18
TORSDOF 3
