REMARK  3 active torsions:
REMARK  status: ('A' for Active; 'I' for Inactive)
REMARK    1  A    between atoms: O_2  and  C_1 
REMARK    2  A    between atoms: C_5  and  C_1 
REMARK    3  A    between atoms: C_4  and  O_2 
ROOT
ATOM      1  C   UNL d   1      -1.396  -1.714   2.222  0.00  0.00     0.045 A 
ATOM      2  C   UNL d   1      -1.147  -0.912   0.941  0.00  0.00     0.182 C 
ATOM      3  N   UNL d   1      -2.315  -2.716   2.089  0.00  0.00    -0.367 N 
ATOM      4  HN  UNL d   1      -2.581  -3.061   1.167  1.00  0.00     0.165 HD
ATOM      5  C   UNL d   1      -0.997  -1.254   3.481  0.00  0.00    -0.033 A 
ATOM      6  C   UNL d   1      -1.909   0.424   1.082  0.00  0.00     0.039 C 
ATOM      7  C   UNL d   1      -2.862  -3.239   3.207  0.00  0.00     0.088 A 
ATOM      8  C   UNL d   1      -1.581  -1.833   4.619  0.00  0.00     0.010 A 
ATOM      9  C   UNL d   1      -0.135  -0.035   3.641  0.00  0.00     0.040 C 
ATOM     10  C   UNL d   1      -2.542  -2.825   4.483  0.00  0.00     0.018 A 
ATOM     11  C   UNL d   1      -1.191   1.514   1.892  0.00  0.00     0.003 C 
ATOM     12  C   UNL d   1      -0.964   1.220   3.378  0.00  0.00     0.005 C 
ENDROOT
BRANCH   2  13
ATOM     13  O   UNL d   1       0.168  -0.623   0.383  0.00  0.00    -0.306 OA
BRANCH  13  14
ATOM     14  C   UNL d   1       1.132  -1.561   0.406  0.00  0.00     0.294 C 
ATOM     15  O   UNL d   1       1.217  -2.476   1.214  0.00  0.00    -0.259 OA
BRANCH  14  16
ATOM     16  C   UNL d   1       2.097  -1.423  -0.731  0.00  0.00     0.039 A 
ATOM     17  C   UNL d   1       3.156  -2.344  -0.816  0.00  0.00     0.019 A 
ATOM     18  C   UNL d   1       4.037  -2.343  -1.903  0.00  0.00     0.025 A 
ATOM     19  C   UNL d   1       3.872  -1.412  -2.924  0.00  0.00     0.034 A 
ATOM     20  C   UNL d   1       2.843  -0.473  -2.854  0.00  0.00     0.025 A 
ATOM     21 CL   UNL d   1       4.931  -1.436  -4.282  0.00  0.00    -0.084 Cl
ATOM     22  C   UNL d   1       1.958  -0.473  -1.760  0.00  0.00     0.019 A 
ENDBRANCH  14  16
ENDBRANCH  13  14
ENDBRANCH   2  13
TORSDOF 3
