REMARK  2 active torsions:
REMARK  status: ('A' for Active; 'I' for Inactive)
REMARK    1  A    between atoms: C_6  and  C_9 
REMARK    2  A    between atoms: C_7  and  C_6 
ROOT
ATOM      1  C   UNL d   1      -1.183  -0.578   0.019  0.00  0.00     0.027 A 
ATOM      2  C   UNL d   1      -0.011  -1.478  -0.056  0.00  0.00     0.194 A 
ATOM      3  C   UNL d   1      -0.701   0.738   0.107  0.00  0.00    -0.011 A 
ATOM      4  C   UNL d   1       1.188  -0.613  -0.020  0.00  0.00     0.026 A 
ATOM      5  C   UNL d   1       0.746   0.719   0.069  0.00  0.00    -0.011 A 
ATOM      6  C   UNL d   1      -2.528  -0.892  -0.017  0.00  0.00     0.031 A 
ATOM      7  C   UNL d   1      -3.436   0.174   0.037  0.00  0.00     0.016 A 
ATOM      8  C   UNL d   1      -1.595   1.790   0.207  0.00  0.00     0.014 A 
ATOM      9  O   UNL d   1      -0.030  -2.689  -0.142  0.00  0.00    -0.287 OA
ATOM     10  C   UNL d   1      -2.968   1.501   0.187  0.00  0.00     0.016 A 
ATOM     11  C   UNL d   1       2.521  -0.968  -0.077  0.00  0.00     0.016 A 
ATOM     12  C   UNL d   1       1.674   1.745   0.087  0.00  0.00     0.013 A 
ATOM     13  C   UNL d   1       3.454   0.070  -0.054  0.00  0.00     0.001 A 
ATOM     14  C   UNL d   1       3.034   1.413   0.023  0.00  0.00     0.001 A 
ENDROOT
BRANCH   7  15
ATOM     15  C   UNL d   1      -4.889  -0.141  -0.092  0.00  0.00     0.193 C 
ATOM     16  O   UNL d   1      -5.273  -1.265   0.215  0.00  0.00    -0.287 OA
BRANCH  15  17
ATOM     17  C   UNL d   1      -5.851   0.839  -0.672  0.00  0.00     0.032 A 
ATOM     18  C   UNL d   1      -7.159   0.991  -0.189  0.00  0.00     0.025 A 
ATOM     19 BR   UNL d   1      -7.838   0.077   1.332  0.00  0.00    -0.050 Br
ATOM     20  C   UNL d   1      -8.032   1.895  -0.811  0.00  0.00     0.020 A 
ATOM     21  C   UNL d   1      -7.608   2.658  -1.899  0.00  0.00     0.001 A 
ATOM     22  C   UNL d   1      -6.314   2.511  -2.386  0.00  0.00     0.001 A 
ATOM     23  C   UNL d   1      -5.447   1.593  -1.790  0.00  0.00     0.017 A 
ENDBRANCH  15  17
ENDBRANCH   7  15
TORSDOF 2
