REMARK  4 active torsions:
REMARK  status: ('A' for Active; 'I' for Inactive)
REMARK    1  A    between atoms: N_3  and  C_1 
REMARK       I    between atoms: C_2  and  N_3 
REMARK    2  A    between atoms: C_11  and  C_2 
REMARK    3  A    between atoms: S_9  and  C_11 
REMARK    4  A    between atoms: C_12  and  S_9 
ROOT
ATOM      1  C   UNL d   1      -1.314  -4.343  -0.035  0.00  0.00     0.231 C 
ATOM      2  N   UNL d   1      -2.063  -3.710  -1.015  0.00  0.00    -0.326 N 
ATOM      3  O   UNL d   1      -0.599  -3.785   0.794  0.00  0.00    -0.272 OA
ATOM      4  H   UNL d   1      -2.679  -4.316  -1.549  0.00  0.00     0.169 HD
ENDROOT
BRANCH   1   5
ATOM      5  C   UNL d   1      -1.365  -5.865  -0.101  0.00  0.00     0.182 C 
BRANCH   5   6
ATOM      6  S   UNL d   1      -3.083  -6.465  -0.230  0.00  0.00    -0.121 SA
BRANCH   6   7
ATOM      7  C   UNL d   1      -2.917  -8.238  -0.044  0.00  0.00     0.001 A 
ATOM      8  C   UNL d   1      -1.706  -8.933  -0.004  0.00  0.00     0.019 A 
ATOM      9  C   UNL d   1      -1.686 -10.327   0.133  0.00  0.00     0.008 A 
ATOM     10  C   UNL d   1      -2.877 -11.054   0.228  0.00  0.00    -0.062 A 
ATOM     11  C   UNL d   1      -4.090 -10.364   0.189  0.00  0.00     0.008 A 
ATOM     12  C   UNL d   1      -2.840 -12.546   0.367  0.00  0.00     0.048 C 
ATOM     13  C   UNL d   1      -4.108  -8.971   0.055  0.00  0.00     0.019 A 
ENDBRANCH   6   7
ENDBRANCH   5   6
ENDBRANCH   1   5
BRANCH   2  14
ATOM     14  C   UNL d   1      -2.191  -2.321  -1.234  0.00  0.00     0.037 A 
ATOM     15  C   UNL d   1      -1.419  -1.355  -0.582  0.00  0.00     0.053 A 
ATOM     16  C   UNL d   1      -1.626   0.001  -0.838  0.00  0.00     0.037 A 
ATOM     17 CL   UNL d   1      -0.673   1.181  -0.021  0.00  0.00    -0.084 Cl
ATOM     18  C   UNL d   1      -2.597   0.417  -1.743  0.00  0.00     0.048 A 
ATOM     19  C   UNL d   1      -3.353  -0.544  -2.406  0.00  0.00     0.037 A 
ATOM     20  C   UNL d   1      -3.152  -1.905  -2.162  0.00  0.00     0.053 A 
ATOM     21 CL   UNL d   1      -4.560  -0.049  -3.530  0.00  0.00    -0.084 Cl
ENDBRANCH   2  14
TORSDOF 4
