REMARK  10 active torsions:
REMARK  status: ('A' for Active; 'I' for Inactive)
REMARK    1  A    between atoms: C_8  and  C_1 
REMARK    2  A    between atoms: C_10  and  N_6 
REMARK    3  A    between atoms: C_9  and  N_19 
REMARK    4  A    between atoms: N_14  and  C_9 
REMARK    5  A    between atoms: C_12  and  C_10 
REMARK    6  A    between atoms: O_13  and  C_11 
REMARK       I    between atoms: N_20  and  C_12 
REMARK    7  A    between atoms: C_15  and  O_13 
REMARK    8  A    between atoms: C_17  and  N_14 
REMARK    9  A    between atoms: N_19  and  N_20 
REMARK   10  A    between atoms: S_27  and  C_23 
ROOT
ATOM      1  C   UNL d   1      -1.048   0.101   0.469  0.00  0.00     0.147 A 
ATOM      2  N   UNL d   1      -0.023   0.954   0.659  0.00  0.00    -0.268 N 
ATOM      3  HN  UNL d   1       0.100   1.683   1.362  1.00  0.00     0.190 HD
ATOM      4  N   UNL d   1      -0.841  -0.740  -0.599  0.00  0.00    -0.266 N 
ATOM      5  HN  UNL d   1      -1.465  -1.481  -0.918  1.00  0.00     0.186 HD
ATOM      6  N   UNL d   1       0.793   0.572  -0.340  0.00  0.00    -0.207 N 
ATOM      7  N   UNL d   1       0.322  -0.403  -1.133  0.00  0.00    -0.002 NA
ENDROOT
BRANCH   6   8
ATOM      8  C   UNL d   1       2.007   1.285  -0.620  0.00  0.00     0.271 C 
BRANCH   8   9
ATOM      9  C   UNL d   1       3.196   0.386  -0.454  0.00  0.00     0.257 C 
ATOM     10  N   UNL d   1       3.830   0.289   0.754  0.00  0.00    -0.266 N 
ATOM     11  H   UNL d   1       4.621  -0.359   0.804  0.00  0.00     0.190 HD
ATOM     12  O   UNL d   1       3.640  -0.274  -1.408  0.00  0.00    -0.270 OA
BRANCH  10  13
ATOM     13  N   UNL d   1       3.590   1.068   1.900  0.00  0.00    -0.273 N 
ATOM     14  H   UNL d   1       3.293   2.028   1.747  0.00  0.00     0.189 HD
BRANCH  13  15
ATOM     15  C   UNL d   1       4.464   0.918   2.966  0.00  0.00     0.191 C 
ATOM     16  S   UNL d   1       5.499  -0.377   3.189  0.00  0.00    -0.039 SA
BRANCH  15  17
ATOM     17  N   UNL d   1       4.564   1.989   3.808  0.00  0.00    -0.331 N 
ATOM     18  H   UNL d   1       5.437   2.047   4.330  0.00  0.00     0.168 HD
BRANCH  17  19
ATOM     19  C   UNL d   1       3.576   2.909   4.225  0.00  0.00     0.051 A 
ATOM     20  C   UNL d   1       3.984   4.143   4.773  0.00  0.00     0.026 A 
ATOM     21  C   UNL d   1       3.036   4.955   5.406  0.00  0.00     0.021 A 
ATOM     22  C   UNL d   1       1.694   4.570   5.462  0.00  0.00     0.002 A 
ATOM     23  C   UNL d   1       1.288   3.381   4.858  0.00  0.00     0.002 A 
ATOM     24  C   UNL d   1       2.225   2.551   4.240  0.00  0.00     0.031 A 
BRANCH  20  25
ATOM     25  S   UNL d   1       5.668   4.764   4.681  0.00  0.00    -0.132 SA
ATOM     26  C   UNL d   1       6.040   4.529   2.912  0.00  0.00     0.095 C 
ENDBRANCH  20  25
ENDBRANCH  17  19
ENDBRANCH  15  17
ENDBRANCH  13  15
ENDBRANCH  10  13
ENDBRANCH   8   9
ENDBRANCH   6   8
BRANCH   1  27
ATOM     27  C   UNL d   1      -2.171  -0.026   1.375  0.00  0.00     0.044 C 
ATOM     28  C   UNL d   1      -2.845   1.065   1.949  0.00  0.00     0.090 C 
ATOM     29  C   UNL d   1      -3.690   0.837   3.047  0.00  0.00     0.038 C 
ATOM     30  C   UNL d   1      -3.953  -0.456   3.500  0.00  0.00     0.003 C 
ATOM     31  C   UNL d   1      -3.404  -1.544   2.833  0.00  0.00     0.001 C 
ATOM     32  C   UNL d   1      -2.519  -1.331   1.777  0.00  0.00     0.018 C 
BRANCH  28  33
ATOM     33  O   UNL d   1      -2.765   2.401   1.613  0.00  0.00    -0.308 OA
BRANCH  33  34
ATOM     34  C   UNL d   1      -2.525   2.824   0.326  0.00  0.00     0.098 C 
ATOM     35  C   UNL d   1      -3.055   2.300  -0.861  0.00  0.00     0.069 C 
ATOM     36  C   UNL d   1      -2.603   2.780  -2.097  0.00  0.00     0.050 C 
ATOM     37 CL   UNL d   1      -4.313   1.117  -0.898  0.00  0.00    -0.081 Cl
ATOM     38  C   UNL d   1      -1.699   3.839  -2.147  0.00  0.00     0.035 C 
ATOM     39  C   UNL d   1      -1.274   4.457  -0.975  0.00  0.00     0.026 C 
ATOM     40 CL   UNL d   1      -1.109   4.396  -3.663  0.00  0.00    -0.084 Cl
ATOM     41  C   UNL d   1      -1.686   3.948   0.257  0.00  0.00     0.041 C 
ENDBRANCH  33  34
ENDBRANCH  28  33
ENDBRANCH   1  27
TORSDOF 10
