REMARK  8 active torsions:
REMARK  status: ('A' for Active; 'I' for Inactive)
REMARK    1  A    between atoms: C_10  and  S_1 
REMARK    2  A    between atoms: N_13  and  S_1 
REMARK    3  A    between atoms: C_4  and  C_5 
REMARK    4  A    between atoms: C_6  and  S_19 
REMARK    5  A    between atoms: C_21  and  N_13 
REMARK    6  A    between atoms: S_19  and  C_27 
REMARK    7  A    between atoms: O_24  and  C_20 
REMARK    8  A    between atoms: C_27  and  C_21 
ROOT
ATOM      1  S   UNL d   1       5.362  -2.825  -1.458  0.00  0.00    -0.128 SA
ENDROOT
BRANCH   1   2
ATOM      2  C   UNL d   1       7.146  -2.654  -1.370  0.00  0.00     0.015 A 
ATOM      3  C   UNL d   1       7.766  -1.984  -2.428  0.00  0.00     0.053 A 
ATOM      4  C   UNL d   1       9.153  -1.963  -2.492  0.00  0.00     0.118 A 
ATOM      5  N   UNL d   1       9.919  -2.570  -1.546  0.00  0.00    -0.352 N 
ATOM      6  C   UNL d   1       9.330  -3.217  -0.530  0.00  0.00     0.044 A 
ATOM      7  HN  UNL d   1      10.936  -2.533  -1.608  1.00  0.00     0.166 HD
ATOM      8  C   UNL d   1       7.931  -3.295  -0.379  0.00  0.00     0.007 A 
ATOM      9  C   UNL d   1      10.149  -3.852   0.394  0.00  0.00     0.030 A 
ATOM     10  C   UNL d   1       7.412  -4.016   0.728  0.00  0.00     0.015 A 
ATOM     11  C   UNL d   1       8.255  -4.640   1.647  0.00  0.00     0.001 A 
ATOM     12  C   UNL d   1       9.629  -4.561   1.478  0.00  0.00     0.002 A 
BRANCH   4  13
ATOM     13  C   UNL d   1       9.839  -1.287  -3.671  0.00  0.00     0.432 C 
ATOM     14  F   UNL d   1      11.200  -1.349  -3.636  0.00  0.00    -0.165 F 
ATOM     15  F   UNL d   1       9.472  -1.833  -4.868  0.00  0.00    -0.165 F 
ATOM     16  F   UNL d   1       9.530   0.039  -3.767  0.00  0.00    -0.165 F 
ENDBRANCH   4  13
ENDBRANCH   1   2
BRANCH   1  17
ATOM     17  C   UNL d   1       4.809  -1.311  -0.581  0.00  0.00     0.095 C 
BRANCH  17  18
ATOM     18  C   UNL d   1       3.274  -1.292  -0.574  0.00  0.00     0.115 C 
BRANCH  18  19
ATOM     19  N   UNL d   1       2.721  -2.480   0.115  0.00  0.00    -0.215 NA
ATOM     20  H   UNL d   1       3.134  -3.368  -0.180  0.00  0.00     0.140 HD
BRANCH  19  21
ATOM     21  S   UNL d   1       1.035  -2.585   0.211  0.00  0.00     0.241 S 
ATOM     22  O   UNL d   1       0.730  -3.758   1.004  0.00  0.00    -0.206 OA
ATOM     23  O   UNL d   1       0.539  -1.273   0.550  0.00  0.00    -0.206 OA
BRANCH  21  24
ATOM     24  C   UNL d   1       0.548  -2.958  -1.461  0.00  0.00     0.074 A 
ATOM     25  C   UNL d   1       1.042  -4.112  -2.081  0.00  0.00     0.027 A 
ATOM     26  C   UNL d   1       0.628  -4.440  -3.379  0.00  0.00     0.038 A 
ATOM     27  C   UNL d   1      -0.283  -3.624  -4.051  0.00  0.00     0.068 A 
ATOM     28  C   UNL d   1      -0.791  -2.488  -3.411  0.00  0.00     0.038 A 
ATOM     29  C   UNL d   1      -0.370  -2.141  -2.124  0.00  0.00     0.027 A 
BRANCH  27  30
ATOM     30  O   UNL d   1      -0.789  -3.864  -5.299  0.00  0.00    -0.356 OA
ATOM     31  C   UNL d   1       0.074  -4.543  -6.205  0.00  0.00     0.210 C 
ENDBRANCH  27  30
ENDBRANCH  21  24
ENDBRANCH  19  21
ENDBRANCH  18  19
ENDBRANCH  17  18
ENDBRANCH   1  17
TORSDOF 8
