REMARK  6 active torsions:
REMARK  status: ('A' for Active; 'I' for Inactive)
REMARK    1  A    between atoms: C_2  and  C_1 
REMARK       I    between atoms: N_9  and  C_2 
REMARK    2  A    between atoms: C_3  and  C_10 
REMARK    3  A    between atoms: C_14  and  C_4 
REMARK    4  A    between atoms: N_12  and  N_9 
REMARK    5  A    between atoms: C_15  and  C_14 
REMARK    6  A    between atoms: C_16  and  C_15 
ROOT
ATOM      1  C   UNL d   1       2.071   1.279   0.020  0.00  0.00     0.050 A 
ATOM      2  N   UNL d   1       2.047  -1.155   0.010  0.00  0.00    -0.373 N 
ATOM      3  HN  UNL d   1       2.549  -2.043   0.017  1.00  0.00     0.164 HD
ATOM      4  C   UNL d   1       0.673   1.294  -0.015  0.00  0.00     0.040 A 
ATOM      5  C   UNL d   1      -0.025   0.084  -0.035  0.00  0.00     0.034 A 
ATOM      6  C   UNL d   1       2.701   0.036   0.029  0.00  0.00     0.104 A 
ATOM      7  C   UNL d   1       0.699  -1.100  -0.019  0.00  0.00     0.108 A 
ENDROOT
BRANCH   1   8
ATOM      8  C   UNL d   1       2.926   2.495   0.086  0.00  0.00     0.267 C 
ATOM      9  O   UNL d   1       4.150   2.387   0.142  0.00  0.00    -0.266 OA
ATOM     10  N   UNL d   1       2.293   3.735   0.109  0.00  0.00    -0.290 N 
ATOM     11  H   UNL d   1       1.301   3.839  -0.086  0.00  0.00     0.183 HD
BRANCH  10  12
ATOM     12  N   UNL d   1       3.077   4.907   0.172  0.00  0.00    -0.247 NA
ATOM     13  H   UNL d   1       4.062   4.604   0.195  0.00  0.00     0.143 HD
ATOM     14  H   UNL d   1       2.928   5.346   1.083  0.00  0.00     0.143 HD
ENDBRANCH  10  12
ENDBRANCH   1   8
BRANCH   5  15
ATOM     15  C   UNL d   1      -1.451   0.057  -0.052  0.00  0.00    -0.066 C 
ATOM     16  C   UNL d   1      -2.650   0.010  -0.045  0.00  0.00    -0.101 C 
BRANCH  16  17
ATOM     17  C   UNL d   1      -4.117  -0.060  -0.005  0.00  0.00     0.094 C 
BRANCH  17  18
ATOM     18  C   UNL d   1      -4.685   1.071   0.849  0.00  0.00     0.012 C 
BRANCH  18  19
ATOM     19  C   UNL d   1      -6.210   1.014   0.907  0.00  0.00    -0.004 C 
ATOM     20  C   UNL d   1      -6.768   2.143   1.758  0.00  0.00     0.005 C 
ENDBRANCH  18  19
ENDBRANCH  17  18
ENDBRANCH  16  17
ENDBRANCH   5  15
TORSDOF 6
