REMARK  4 active torsions:
REMARK  status: ('A' for Active; 'I' for Inactive)
REMARK    1  A    between atoms: N_3  and  C_1 
REMARK    2  A    between atoms: N_4  and  C_2 
REMARK    3  A    between atoms: N_9  and  C_5 
REMARK    4  A    between atoms: O_16  and  C_8 
REMARK       I    between atoms: C_10  and  N_9 
ROOT
ATOM      1  C   UNL d   1       1.343  -0.070   0.183  0.00  0.00     0.132 A 
ATOM      2  C   UNL d   1      -1.401   0.116  -0.136  0.00  0.00     0.138 A 
ATOM      3  C   UNL d   1       0.594  -1.257   0.146  0.00  0.00     0.070 A 
ATOM      4  C   UNL d   1      -0.793  -1.149  -0.016  0.00  0.00     0.071 A 
ATOM      5  C   UNL d   1       0.730   1.195   0.091  0.00  0.00     0.077 A 
ATOM      6  C   UNL d   1      -0.660   1.299  -0.058  0.00  0.00     0.103 A 
ENDROOT
BRANCH   3   7
ATOM      7  N   UNL d   1       1.217  -2.530   0.223  0.00  0.00    -0.325 N 
ATOM      8  C   UNL d   1       0.630  -3.676   0.722  0.00  0.00     0.218 C 
ATOM      9  O   UNL d   1      -0.472  -3.728   1.258  0.00  0.00    -0.274 OA
ATOM     10  C   UNL d   1       1.483  -4.909   0.578  0.00  0.00     0.117 C 
ATOM     11  H   UNL d   1       2.225  -2.559   0.061  0.00  0.00     0.169 HD
ENDBRANCH   3   7
BRANCH   1  12
ATOM     12  N   UNL d   1       2.787  -0.104   0.392  0.00  0.00    -0.113 N 
ATOM     13  O   UNL d   1       3.421  -1.018  -0.157  0.00  0.00    -0.532 OA
ATOM     14  O   UNL d   1       3.279   0.765   1.123  0.00  0.00    -0.532 OA
ENDBRANCH   1  12
BRANCH   2  15
ATOM     15  N   UNL d   1      -2.814   0.129  -0.446  0.00  0.00    -0.113 N 
ATOM     16  O   UNL d   1      -3.576  -0.379   0.386  0.00  0.00    -0.532 OA
ATOM     17  O   UNL d   1      -3.154   0.634  -1.525  0.00  0.00    -0.532 OA
ENDBRANCH   2  15
BRANCH   6  18
ATOM     18  O   UNL d   1      -1.097   2.585  -0.175  0.00  0.00    -0.353 OA
ATOM     19  C   UNL d   1      -2.303   2.936   0.500  0.00  0.00     0.210 C 
ENDBRANCH   6  18
TORSDOF 4
