REMARK  1 active torsions:
REMARK  status: ('A' for Active; 'I' for Inactive)
REMARK    1  A    between atoms: C_4  and  C_1 
ROOT
ATOM      1  C   UNL d   1       2.156   0.133   0.029  0.00  0.00     0.040 A 
ATOM      2  S   UNL d   1       1.355  -1.383  -0.012  0.00  0.00    -0.087 SA
ATOM      3  C   UNL d   1       1.253   1.188   0.008  0.00  0.00    -0.031 A 
ATOM      4  C   UNL d   1      -0.124   0.719   0.004  0.00  0.00    -0.012 A 
ATOM      5  C   UNL d   1      -0.205  -0.672  -0.003  0.00  0.00     0.016 A 
ATOM      6  C   UNL d   1       1.584   2.648  -0.015  0.00  0.00     0.050 C 
ATOM      7  C   UNL d   1      -1.342   1.449   0.003  0.00  0.00     0.013 A 
ATOM      8  C   UNL d   1      -1.444  -1.344  -0.006  0.00  0.00     0.019 A 
ATOM      9  C   UNL d   1      -2.574   0.790   0.003  0.00  0.00     0.001 A 
ATOM     10  C   UNL d   1      -2.623  -0.595  -0.000  0.00  0.00     0.001 A 
ENDROOT
BRANCH   1  11
ATOM     11  C   UNL d   1       3.593   0.180   0.070  0.00  0.00     0.067 A 
ATOM     12  N   UNL d   1       4.402  -0.761  -0.514  0.00  0.00    -0.300 N 
ATOM     13  N   UNL d   1       5.717  -0.503  -0.399  0.00  0.00    -0.311 N 
ATOM     14  H   UNL d   1       4.113  -1.594  -1.017  0.00  0.00     0.187 HD
ATOM     15  C   UNL d   1       5.751   0.622   0.316  0.00  0.00     0.109 A 
ATOM     16  HN  UNL d   1       6.501  -1.040  -0.770  1.00  0.00     0.186 HD
ATOM     17  C   UNL d   1       4.463   1.080   0.652  0.00  0.00     0.051 A 
ENDBRANCH   1  11
TORSDOF 1
