REMARK  4 active torsions:
REMARK  status: ('A' for Active; 'I' for Inactive)
REMARK    1  A    between atoms: C_7  and  C_1 
REMARK    2  A    between atoms: C_9  and  C_3 
REMARK       I    between atoms: N_14  and  C_7 
REMARK       I    between atoms: C_11  and  N_13 
REMARK    3  A    between atoms: O_15  and  C_11 
REMARK    4  A    between atoms: C_20  and  O_15 
ROOT
ATOM      1  C   UNL d   1       2.314  -0.445  -0.695  0.00  0.00     0.266 C 
ATOM      2  C   UNL d   1       6.208   3.181  -1.687  0.00  0.00     0.363 C 
ATOM      3  N   UNL d   1       5.554   2.262  -0.883  0.00  0.00    -0.326 N 
ATOM      4  N   UNL d   1       2.936   0.713  -1.154  0.00  0.00    -0.345 N 
ATOM      5  O   UNL d   1       6.350   4.361  -1.399  0.00  0.00    -0.238 OA
ATOM      6  O   UNL d   1       2.760  -1.559  -0.996  0.00  0.00    -0.266 OA
ATOM      7  C   UNL d   1       5.435   0.842  -1.228  0.00  0.00     0.148 C 
ATOM      8  C   UNL d   1       4.139   0.541  -1.986  0.00  0.00     0.146 C 
ATOM      9  C   UNL d   1       3.416   2.563   0.476  0.00  0.00     0.040 C 
ATOM     10  C   UNL d   1       4.944   2.687   0.373  0.00  0.00     0.129 C 
ATOM     11  C   UNL d   1       2.652   2.096  -0.762  0.00  0.00     0.128 C 
ENDROOT
BRANCH   1  12
ATOM     12  C   UNL d   1       1.106  -0.411   0.201  0.00  0.00     0.094 C 
ATOM     13  N   UNL d   1       0.240   0.666   0.528  0.00  0.00    -0.261 NA
ATOM     14  C   UNL d   1      -0.651   0.186   1.612  0.00  0.00     0.211 C 
ATOM     15  H   UNL d   1      -0.305   0.898  -0.300  0.00  0.00     0.130 HD
ATOM     16  C   UNL d   1      -2.122   0.509   1.533  0.00  0.00     0.050 C 
ATOM     17  N   UNL d   1      -0.459  -1.280   1.547  0.00  0.00    -0.341 N 
ATOM     18  C   UNL d   1      -3.060  -0.393   1.896  0.00  0.00     0.040 C 
ATOM     19 CL   UNL d   1      -2.568   2.122   1.117  0.00  0.00    -0.085 Cl
ATOM     20  C   UNL d   1      -2.682  -1.763   2.271  0.00  0.00     0.064 C 
ATOM     21  C   UNL d   1      -1.416  -2.155   2.014  0.00  0.00     0.108 C 
ATOM     22  C   UNL d   1       0.659  -1.544   0.782  0.00  0.00     0.121 C 
BRANCH  20  23
ATOM     23  C   UNL d   1      -3.701  -2.693   2.870  0.00  0.00     0.418 C 
ATOM     24  F   UNL d   1      -4.843  -2.055   3.236  0.00  0.00    -0.166 F 
ATOM     25  F   UNL d   1      -4.060  -3.678   2.008  0.00  0.00    -0.166 F 
ATOM     26  F   UNL d   1      -3.226  -3.303   3.987  0.00  0.00    -0.166 F 
ENDBRANCH  20  23
ENDBRANCH   1  12
BRANCH   2  27
ATOM     27  O   UNL d   1       6.693   2.613  -2.827  0.00  0.00    -0.294 OA
BRANCH  27  28
ATOM     28  C   UNL d   1       7.573   3.338  -3.724  0.00  0.00     0.061 C 
ATOM     29  C   UNL d   1       8.864   3.760  -3.011  0.00  0.00     0.046 C 
ATOM     30  C   UNL d   1       7.926   2.317  -4.819  0.00  0.00     0.046 C 
ATOM     31  C   UNL d   1       6.873   4.534  -4.380  0.00  0.00     0.046 C 
ENDBRANCH  27  28
ENDBRANCH   2  27
TORSDOF 4
