REMARK  5 active torsions:
REMARK  status: ('A' for Active; 'I' for Inactive)
REMARK    1  A    between atoms: C_10  and  N_1 
REMARK    2  A    between atoms: C_4  and  O_12 
REMARK       I    between atoms: N_11  and  C_4 
REMARK    3  A    between atoms: O_12  and  N_8 
REMARK    4  A    between atoms: C_16  and  C_10 
REMARK    5  A    between atoms: C_14  and  N_11 
ROOT
ATOM      1  N   UNL d   1      -0.010   0.054   1.342  0.00  0.00     0.102 N 
ATOM      2  C   UNL d   1       0.002  -1.165   0.518  0.00  0.00     0.229 C 
ATOM      3  C   UNL d   1       0.059   1.235   0.464  0.00  0.00     0.229 C 
ATOM      4  C   UNL d   1      -1.667   0.041  -1.042  0.00  0.00     0.015 C 
ATOM      5  C   UNL d   1      -1.162  -1.269  -0.472  0.00  0.00     0.090 C 
ATOM      6  C   UNL d   1      -1.146   1.356  -0.478  0.00  0.00     0.090 C 
ATOM      7  N   UNL d   1      -2.642  -0.026  -1.915  0.00  0.00    -0.264 N 
ATOM      8  HN  UNL d   1      -2.991  -0.881  -2.347  1.00  0.00     0.194 HD
ATOM      9  C   UNL d   1       1.376  -1.278  -0.170  0.00  0.00     0.036 C 
ATOM     10  C   UNL d   1       1.408   1.257  -0.282  0.00  0.00     0.036 C 
ATOM     11  C   UNL d   1       1.769  -0.049  -0.980  0.00  0.00     0.004 C 
ENDROOT
BRANCH   7  12
ATOM     12  O   UNL d   1      -3.131   1.274  -2.161  0.00  0.00    -0.181 OA
BRANCH  12  13
ATOM     13  C   UNL d   1      -4.219   1.338  -3.018  0.00  0.00     0.387 C 
ATOM     14  N   UNL d   1      -4.529   0.160  -3.667  0.00  0.00    -0.301 N 
ATOM     15  H   UNL d   1      -4.010  -0.635  -3.321  0.00  0.00     0.171 HD
ATOM     16  O   UNL d   1      -4.799   2.403  -3.143  0.00  0.00    -0.236 OA
BRANCH  14  17
ATOM     17  C   UNL d   1      -5.403   0.018  -4.767  0.00  0.00     0.037 A 
ATOM     18  C   UNL d   1      -5.969   1.109  -5.440  0.00  0.00     0.031 A 
ATOM     19  C   UNL d   1      -6.746   0.931  -6.590  0.00  0.00     0.026 A 
ATOM     20  C   UNL d   1      -6.978  -0.352  -7.070  0.00  0.00     0.034 A 
ATOM     21  C   UNL d   1      -6.457  -1.454  -6.397  0.00  0.00     0.026 A 
ATOM     22 CL   UNL d   1      -7.895  -0.570  -8.512  0.00  0.00    -0.084 Cl
ATOM     23  C   UNL d   1      -5.667  -1.270  -5.251  0.00  0.00     0.031 A 
ENDBRANCH  14  17
ENDBRANCH  12  13
ENDBRANCH   7  12
BRANCH   1  24
ATOM     24  C   UNL d   1      -1.139   0.146   2.289  0.00  0.00     0.312 C 
BRANCH  24  25
ATOM     25  C   UNL d   1      -1.216  -0.977   3.299  0.00  0.00    -0.030 A 
ATOM     26  C   UNL d   1      -0.165  -1.220   4.195  0.00  0.00     0.009 A 
ATOM     27  C   UNL d   1      -0.265  -2.242   5.141  0.00  0.00     0.001 A 
ATOM     28  C   UNL d   1      -1.415  -3.027   5.206  0.00  0.00     0.000 A 
ATOM     29  C   UNL d   1      -2.468  -2.793   4.324  0.00  0.00     0.001 A 
ATOM     30  C   UNL d   1      -2.369  -1.774   3.376  0.00  0.00     0.009 A 
ENDBRANCH  24  25
ENDBRANCH   1  24
TORSDOF 5
