REMARK  2 active torsions:
REMARK  status: ('A' for Active; 'I' for Inactive)
REMARK       I    between atoms: N_2  and  C_1 
REMARK       I    between atoms: N_4  and  C_1 
REMARK    1  A    between atoms: C_5  and  N_3 
REMARK    2  A    between atoms: C_13  and  N_4 
ROOT
ATOM      1  C   UNL d   1       1.008   0.061   0.127  0.00  0.00     0.323 C 
ATOM      2  N   UNL d   1       0.398  -1.042   0.705  0.00  0.00    -0.331 N 
ATOM      3  N   UNL d   1      -0.354  -3.535   1.883  0.00  0.00    -0.378 N 
ATOM      4  N   UNL d   1       0.601   0.367  -1.150  0.00  0.00    -0.309 N 
ATOM      5  O   UNL d   1       1.876   0.689   0.737  0.00  0.00    -0.247 OA
ATOM      6  C   UNL d   1       0.735  -1.345   2.107  0.00  0.00     0.147 C 
ATOM      7  C   UNL d   1      -0.732  -1.822   0.167  0.00  0.00     0.147 C 
ATOM      8  C   UNL d   1       0.859  -2.855   2.372  0.00  0.00     0.143 C 
ATOM      9  C   UNL d   1      -0.598  -3.334   0.450  0.00  0.00     0.143 C 
ATOM     10  H   UNL d   1      -0.308   0.046  -1.428  0.00  0.00     0.170 HD
ENDROOT
BRANCH   4  11
ATOM     11  C   UNL d   1       1.223   1.275  -2.036  0.00  0.00     0.036 A 
ATOM     12  C   UNL d   1       2.496   1.818  -1.821  0.00  0.00     0.032 A 
ATOM     13  C   UNL d   1       3.068   2.684  -2.756  0.00  0.00     0.044 A 
ATOM     14  C   UNL d   1       2.369   3.002  -3.910  0.00  0.00     0.116 A 
ATOM     15  C   UNL d   1       1.107   2.475  -4.147  0.00  0.00     0.044 A 
ATOM     16  F   UNL d   1       2.918   3.827  -4.812  0.00  0.00    -0.206 F 
ATOM     17  C   UNL d   1       0.535   1.607  -3.212  0.00  0.00     0.032 A 
ENDBRANCH   4  11
BRANCH   3  18
ATOM     18  C   UNL d   1      -0.832  -4.643   2.559  0.00  0.00     0.032 A 
ATOM     19  C   UNL d   1      -1.187  -5.832   1.920  0.00  0.00     0.046 A 
ATOM     20  C   UNL d   1      -1.731  -6.872   2.664  0.00  0.00     0.089 A 
ATOM     21  N   UNL d   1      -1.953  -6.816   3.991  0.00  0.00    -0.375 N 
ATOM     22  C   UNL d   1      -1.609  -5.666   4.599  0.00  0.00     0.089 A 
ATOM     23  HN  UNL d   1      -2.358  -7.599   4.504  1.00  0.00     0.164 HD
ATOM     24  C   UNL d   1      -1.050  -4.581   3.939  0.00  0.00     0.046 A 
ENDBRANCH   3  18
TORSDOF 2
