REMARK  8 active torsions:
REMARK  status: ('A' for Active; 'I' for Inactive)
REMARK    1  A    between atoms: C_1  and  O_8 
REMARK    2  A    between atoms: C_2  and  O_12 
REMARK    3  A    between atoms: C_3  and  O_15 
REMARK    4  A    between atoms: N_4  and  C_9 
REMARK    5  A    between atoms: C_6  and  O_17 
REMARK    6  A    between atoms: C_7  and  C_20 
REMARK    7  A    between atoms: C_16  and  O_8 
REMARK    8  A    between atoms: O_21  and  C_20 
ROOT
ATOM      1  C   UNL d   1       1.086   1.446  -0.170  0.00  0.00     0.298 C 
ATOM      2  C   UNL d   1       1.178  -0.032   0.263  0.00  0.00     0.205 C 
ATOM      3  C   UNL d   1      -0.080  -0.760  -0.221  0.00  0.00     0.183 C 
ATOM      4  O   UNL d   1      -0.113   2.026   0.358  0.00  0.00    -0.348 OA
ATOM      5  C   UNL d   1      -1.378  -0.054   0.185  0.00  0.00     0.180 C 
ATOM      6  C   UNL d   1      -1.300   1.433  -0.182  0.00  0.00     0.179 C 
ENDROOT
BRANCH   1   7
ATOM      7  O   UNL d   1       2.222   2.166   0.324  0.00  0.00    -0.318 OA
BRANCH   7   8
ATOM      8  C   UNL d   1       2.464   3.391  -0.243  0.00  0.00     0.072 A 
ATOM      9  C   UNL d   1       1.638   4.045  -1.164  0.00  0.00     0.039 A 
ATOM     10  C   UNL d   1       2.004   5.285  -1.695  0.00  0.00     0.039 A 
ATOM     11  C   UNL d   1       3.200   5.884  -1.289  0.00  0.00     0.103 A 
ATOM     12  C   UNL d   1       4.026   5.252  -0.352  0.00  0.00     0.039 A 
ATOM     13  C   UNL d   1       3.651   4.007   0.167  0.00  0.00     0.039 A 
BRANCH  11  14
ATOM     14  N   UNL d   1       3.586   7.182  -1.855  0.00  0.00    -0.116 N 
ATOM     15  O   UNL d   1       4.639   7.697  -1.449  0.00  0.00    -0.532 OA
ATOM     16  O   UNL d   1       2.843   7.685  -2.707  0.00  0.00    -0.532 OA
ENDBRANCH  11  14
ENDBRANCH   7   8
ENDBRANCH   1   7
BRANCH   2  17
ATOM     17  O   UNL d   1       2.320  -0.680  -0.319  0.00  0.00    -0.388 OA
ATOM     18  H   UNL d   1       2.140  -1.641  -0.294  0.00  0.00     0.210 HD
ENDBRANCH   2  17
BRANCH   3  19
ATOM     19  O   UNL d   1      -0.080  -2.119   0.253  0.00  0.00    -0.390 OA
ATOM     20  H   UNL d   1      -0.113  -2.105   1.228  0.00  0.00     0.210 HD
ENDBRANCH   3  19
BRANCH   6  21
ATOM     21  C   UNL d   1      -2.491   2.230   0.361  0.00  0.00     0.198 C 
BRANCH  21  22
ATOM     22  O   UNL d   1      -2.451   2.279   1.789  0.00  0.00    -0.398 OA
ATOM     23  H   UNL d   1      -1.583   2.668   2.014  0.00  0.00     0.209 HD
ENDBRANCH  21  22
ENDBRANCH   6  21
BRANCH   5  24
ATOM     24  O   UNL d   1      -2.468  -0.667  -0.510  0.00  0.00    -0.390 OA
ATOM     25  H   UNL d   1      -2.265  -1.621  -0.581  0.00  0.00     0.210 HD
ENDBRANCH   5  24
TORSDOF 8
