REMARK  5 active torsions:
REMARK  status: ('A' for Active; 'I' for Inactive)
REMARK    1  A    between atoms: C_2  and  S_1 
REMARK    2  A    between atoms: N_5  and  S_1 
REMARK    3  A    between atoms: C_10  and  C_14 
REMARK    4  A    between atoms: O_21  and  C_10 
REMARK    5  A    between atoms: C_24  and  O_21 
ROOT
ATOM      1  S   UNL d   1       1.070   0.002  -0.119  0.00  0.00     0.250 S 
ATOM      2  O   UNL d   1       0.826   1.007   0.895  0.00  0.00    -0.205 OA
ATOM      3  O   UNL d   1       0.436  -1.295  -0.046  0.00  0.00    -0.205 OA
ENDROOT
BRANCH   1   4
ATOM      4  C   UNL d   1       2.842  -0.360  -0.091  0.00  0.00     0.122 A 
ATOM      5  S   UNL d   1       3.828   0.838   0.621  0.00  0.00    -0.076 SA
ATOM      6  C   UNL d   1       5.272  -0.047   0.350  0.00  0.00     0.017 A 
ATOM      7  C   UNL d   1       6.580   0.328   0.720  0.00  0.00     0.021 A 
ATOM      8  C   UNL d   1       5.014  -1.245  -0.317  0.00  0.00    -0.009 A 
ATOM      9  C   UNL d   1       7.646  -0.516   0.401  0.00  0.00     0.025 A 
ATOM     10  C   UNL d   1       7.416  -1.702  -0.277  0.00  0.00     0.035 A 
ATOM     11  C   UNL d   1       6.121  -2.076  -0.639  0.00  0.00     0.037 A 
ATOM     12 CL   UNL d   1       8.739  -2.729  -0.677  0.00  0.00    -0.084 Cl
ATOM     13  C   UNL d   1       3.596  -1.432  -0.563  0.00  0.00    -0.021 A 
ATOM     14  C   UNL d   1       3.062  -2.650  -1.253  0.00  0.00     0.051 C 
ENDBRANCH   1   4
BRANCH   1  15
ATOM     15  N   UNL d   1       0.699   0.684  -1.660  0.00  0.00    -0.206 NA
ATOM     16  C   UNL d   1       1.062  -0.190  -2.804  0.00  0.00     0.108 C 
ATOM     17  C   UNL d   1       0.640   0.405  -4.142  0.00  0.00     0.030 C 
ATOM     18  C   UNL d   1       1.123   1.849  -4.315  0.00  0.00     0.088 C 
ATOM     19  C   UNL d   1       0.580   2.668  -3.141  0.00  0.00     0.030 C 
ATOM     20  C   UNL d   1       1.066   2.113  -1.803  0.00  0.00     0.108 C 
BRANCH  18  21
ATOM     21  C   UNL d   1       2.647   1.938  -4.389  0.00  0.00     0.263 C 
ATOM     22  O   UNL d   1       3.401   0.976  -4.425  0.00  0.00    -0.265 OA
BRANCH  21  23
ATOM     23  O   UNL d   1       3.044   3.240  -4.358  0.00  0.00    -0.322 OA
BRANCH  23  24
ATOM     24  C   UNL d   1       4.424   3.478  -4.043  0.00  0.00     0.174 C 
ATOM     25  C   UNL d   1       5.220   3.819  -5.285  0.00  0.00     0.034 C 
ENDBRANCH  23  24
ENDBRANCH  21  23
ENDBRANCH  18  21
ENDBRANCH   1  15
TORSDOF 5
