REMARK  3 active torsions:
REMARK  status: ('A' for Active; 'I' for Inactive)
REMARK    1  A    between atoms: C_9  and  C_4 
REMARK    2  A    between atoms: C_5  and  C_8 
REMARK    3  A    between atoms: N_14  and  C_6 
ROOT
ATOM      1  C   UNL d   1      -1.257   0.586  -0.591  0.00  0.00     0.081 A 
ATOM      2  N   UNL d   1      -0.175  -1.095   0.500  0.00  0.00    -0.298 N 
ATOM      3  HN  UNL d   1       0.042  -1.961   0.992  1.00  0.00     0.187 HD
ATOM      4  C   UNL d   1      -1.355  -0.715  -0.020  0.00  0.00     0.062 A 
ATOM      5  C   UNL d   1       0.048   0.967  -0.422  0.00  0.00     0.115 A 
ATOM      6  N   UNL d   1       0.653  -0.073   0.225  0.00  0.00    -0.285 N 
ATOM      7  H   UNL d   1       1.621  -0.148   0.509  0.00  0.00     0.188 HD
ENDROOT
BRANCH   4   8
ATOM      8  C   UNL d   1      -2.526  -1.591   0.028  0.00  0.00    -0.007 A 
ATOM      9  C   UNL d   1      -2.676  -2.518   1.071  0.00  0.00     0.029 A 
ATOM     10  C   UNL d   1      -3.776  -3.390   1.114  0.00  0.00     0.048 A 
ATOM     11  C   UNL d   1      -4.735  -3.321   0.092  0.00  0.00     0.016 A 
ATOM     12  C   UNL d   1      -4.598  -2.402  -0.947  0.00  0.00     0.002 A 
ATOM     13  C   UNL d   1      -3.499  -1.541  -0.979  0.00  0.00     0.014 A 
BRANCH  10  14
ATOM     14  C   UNL d   1      -3.928  -4.397   2.226  0.00  0.00     0.417 C 
ATOM     15  F   UNL d   1      -2.926  -4.360   3.148  0.00  0.00    -0.166 F 
ATOM     16  F   UNL d   1      -5.084  -4.224   2.928  0.00  0.00    -0.166 F 
ATOM     17  F   UNL d   1      -3.964  -5.678   1.765  0.00  0.00    -0.166 F 
ENDBRANCH  10  14
ENDBRANCH   4   8
BRANCH   5  18
ATOM     18  N   UNL d   1       0.707   2.084  -0.771  0.00  0.00    -0.384 N 
ATOM     19  H   UNL d   1       0.238   2.850  -1.251  0.00  0.00     0.157 HD
ATOM     20  H   UNL d   1       1.694   2.245  -0.598  0.00  0.00     0.157 HD
ENDBRANCH   5  18
TORSDOF 3
