REMARK  5 active torsions:
REMARK  status: ('A' for Active; 'I' for Inactive)
REMARK    1  A    between atoms: N_2  and  C_1 
REMARK    2  A    between atoms: N_4  and  C_1 
REMARK    3  A    between atoms: C_3  and  N_2 
REMARK    4  A    between atoms: C_8  and  N_4 
REMARK    5  A    between atoms: C_10  and  N_4 
ROOT
ATOM      1  C   UNL d   1       1.308  -0.136   0.230  0.00  0.00     0.179 C 
ATOM      2  S   UNL d   1       2.963   0.023  -0.084  0.00  0.00    -0.040 SA
ENDROOT
BRANCH   1   3
ATOM      3  N   UNL d   1       0.531   0.920   0.721  0.00  0.00    -0.331 N 
ATOM      4  H   UNL d   1       0.023   0.644   1.557  0.00  0.00     0.168 HD
BRANCH   3   5
ATOM      5  C   UNL d   1       0.803   2.315   0.651  0.00  0.00     0.062 A 
ATOM      6  C   UNL d   1       0.597   3.085   1.815  0.00  0.00     0.061 A 
ATOM      7 CL   UNL d   1      -0.002   2.359   3.271  0.00  0.00    -0.082 Cl
ATOM      8  C   UNL d   1       0.882   4.451   1.838  0.00  0.00     0.026 A 
ATOM      9  C   UNL d   1       1.359   5.076   0.693  0.00  0.00     0.002 A 
ATOM     10  C   UNL d   1       1.499   4.344  -0.486  0.00  0.00     0.009 A 
ATOM     11  C   UNL d   1       1.183   2.972  -0.536  0.00  0.00    -0.034 A 
ATOM     12  C   UNL d   1       1.215   2.323  -1.895  0.00  0.00     0.050 C 
ENDBRANCH   3   5
ENDBRANCH   1   3
BRANCH   1  13
ATOM     13  N   UNL d   1       0.528  -1.327   0.053  0.00  0.00    -0.324 N 
BRANCH  13  14
ATOM     14  C   UNL d   1       1.116  -2.646  -0.071  0.00  0.00     0.036 A 
ATOM     15  C   UNL d   1       2.224  -3.023   0.705  0.00  0.00     0.029 A 
ATOM     16  C   UNL d   1       2.813  -4.285   0.572  0.00  0.00     0.002 A 
ATOM     17  C   UNL d   1       2.281  -5.216  -0.310  0.00  0.00     0.000 A 
ATOM     18  C   UNL d   1       1.150  -4.888  -1.049  0.00  0.00     0.002 A 
ATOM     19  C   UNL d   1       0.573  -3.619  -0.926  0.00  0.00     0.029 A 
ENDBRANCH  13  14
BRANCH  13  20
ATOM     20  C   UNL d   1      -0.924  -1.207  -0.227  0.00  0.00     0.127 C 
ATOM     21  C   UNL d   1      -1.794  -1.957   0.775  0.00  0.00     0.027 C 
ENDBRANCH  13  20
ENDBRANCH   1  13
TORSDOF 5
