REMARK  5 active torsions:
REMARK  status: ('A' for Active; 'I' for Inactive)
REMARK    1  A    between atoms: C_11  and  C_1 
REMARK    2  A    between atoms: O_12  and  C_2 
REMARK    3  A    between atoms: C_6  and  C_3 
REMARK    4  A    between atoms: O_13  and  C_4 
REMARK    5  A    between atoms: O_14  and  C_5 
ROOT
ATOM      1  C   UNL d   1      -0.697  -0.785   0.757  0.00  0.00     0.055 C 
ATOM      2  C   UNL d   1       0.246  -1.198  -0.115  0.00  0.00     0.035 C 
ATOM      3  C   UNL d   1      -1.123  -1.631   1.831  0.00  0.00     0.100 C 
ATOM      4  N   UNL d   1      -1.484  -2.313   2.702  0.00  0.00    -0.191 NA
ENDROOT
BRANCH   1   5
ATOM      5  C   UNL d   1      -1.337   0.549   0.601  0.00  0.00    -0.015 A 
ATOM      6  C   UNL d   1      -2.700   0.726   0.892  0.00  0.00     0.013 A 
ATOM      7  C   UNL d   1      -3.302   1.983   0.792  0.00  0.00     0.001 A 
ATOM      8  C   UNL d   1      -2.552   3.086   0.395  0.00  0.00     0.000 A 
ATOM      9  C   UNL d   1      -1.200   2.935   0.103  0.00  0.00     0.001 A 
ATOM     10  C   UNL d   1      -0.596   1.679   0.211  0.00  0.00     0.013 A 
ENDBRANCH   1   5
BRANCH   2  11
ATOM     11  C   UNL d   1       0.939  -2.489  -0.037  0.00  0.00    -0.029 A 
ATOM     12  C   UNL d   1       0.519  -3.557  -0.829  0.00  0.00     0.051 A 
ATOM     13  C   UNL d   1       1.144  -4.807  -0.738  0.00  0.00     0.105 A 
ATOM     14  C   UNL d   1       2.230  -4.983   0.138  0.00  0.00     0.135 A 
ATOM     15  C   UNL d   1       2.715  -3.877   0.870  0.00  0.00     0.105 A 
ATOM     16  C   UNL d   1       2.033  -2.654   0.817  0.00  0.00     0.051 A 
BRANCH  13  17
ATOM     17  O   UNL d   1       0.627  -5.723  -1.618  0.00  0.00    -0.353 OA
ATOM     18  C   UNL d   1       0.603  -7.078  -1.189  0.00  0.00     0.210 C 
ENDBRANCH  13  17
BRANCH  14  19
ATOM     19  O   UNL d   1       2.883  -6.191   0.141  0.00  0.00    -0.351 OA
ATOM     20  C   UNL d   1       3.068  -6.769   1.434  0.00  0.00     0.210 C 
ENDBRANCH  14  19
BRANCH  15  21
ATOM     21  O   UNL d   1       3.870  -4.057   1.593  0.00  0.00    -0.353 OA
ATOM     22  C   UNL d   1       4.596  -2.885   1.946  0.00  0.00     0.210 C 
ENDBRANCH  15  21
ENDBRANCH   2  11
TORSDOF 5
