REMARK  3 active torsions:
REMARK  status: ('A' for Active; 'I' for Inactive)
REMARK    1  A    between atoms: O_12  and  C_6 
REMARK    2  A    between atoms: C_9  and  N_7 
REMARK    3  A    between atoms: C_13  and  C_8 
ROOT
ATOM      1  C   UNL d   1       0.249  -3.089   0.693  0.00  0.00     0.126 A 
ATOM      2  N   UNL d   1       1.307  -2.459   1.317  0.00  0.00    -0.279 N 
ATOM      3  N   UNL d   1       2.193  -3.321   1.868  0.00  0.00    -0.277 N 
ATOM      4  HN  UNL d   1       3.046  -3.110   2.386  1.00  0.00     0.189 HD
ATOM      5  C   UNL d   1       0.488  -4.441   0.849  0.00  0.00     0.107 A 
ATOM      6  C   UNL d   1       1.681  -4.505   1.570  0.00  0.00     0.158 A 
ATOM      7  N   UNL d   1      -0.756  -2.433   0.056  0.00  0.00    -0.341 N 
ATOM      8  C   UNL d   1       1.527  -1.048   1.520  0.00  0.00     0.179 C 
ATOM      9  H   UNL d   1      -0.641  -1.477  -0.265  0.00  0.00     0.167 HD
ENDROOT
BRANCH   7  10
ATOM     10  C   UNL d   1      -2.111  -2.833   0.039  0.00  0.00     0.033 A 
ATOM     11  C   UNL d   1      -2.662  -3.676   1.010  0.00  0.00     0.030 A 
ATOM     12  C   UNL d   1      -4.002  -4.065   0.957  0.00  0.00     0.010 A 
ATOM     13  C   UNL d   1      -4.833  -3.635  -0.084  0.00  0.00    -0.055 A 
ATOM     14  C   UNL d   1      -4.281  -2.816  -1.078  0.00  0.00     0.010 A 
ATOM     15  C   UNL d   1      -2.937  -2.422  -1.016  0.00  0.00     0.030 A 
BRANCH  13  16
ATOM     16  C   UNL d   1      -6.300  -4.024  -0.130  0.00  0.00     0.010 C 
ATOM     17  C   UNL d   1      -6.484  -5.541  -0.219  0.00  0.00     0.015 C 
ATOM     18  C   UNL d   1      -7.058  -3.458   1.076  0.00  0.00     0.015 C 
ENDBRANCH  13  16
ENDBRANCH   7  10
BRANCH   6  19
ATOM     19  O   UNL d   1       2.357  -5.579   1.983  0.00  0.00    -0.345 OA
ATOM     20  H   UNL d   1       1.894  -6.380   1.693  0.00  0.00     0.219 HD
ENDBRANCH   6  19
TORSDOF 3
