REMARK  1 active torsions:
REMARK  status: ('A' for Active; 'I' for Inactive)
REMARK    1  A    between atoms: C_8  and  C_2 
ROOT
ATOM      1  N   UNL d   1       1.814  -1.063  -0.094  0.00  0.00    -0.348 N 
ATOM      2  C   UNL d   1       0.576  -1.623   0.411  0.00  0.00     0.151 C 
ATOM      3  C   UNL d   1       2.104   0.270  -0.091  0.00  0.00     0.222 C 
ATOM      4  C   UNL d   1      -0.596  -0.711   0.096  0.00  0.00    -0.024 A 
ATOM      5  C   UNL d   1      -0.399   0.680   0.072  0.00  0.00    -0.041 A 
ATOM      6  C   UNL d   1       0.988   1.244   0.243  0.00  0.00     0.142 C 
ATOM      7  O   UNL d   1       3.256   0.646  -0.310  0.00  0.00    -0.273 OA
ATOM      8  C   UNL d   1      -1.885  -1.227  -0.107  0.00  0.00     0.010 A 
ATOM      9  C   UNL d   1      -1.498   1.535  -0.074  0.00  0.00     0.008 A 
ATOM     10  C   UNL d   1      -2.970  -0.368  -0.282  0.00  0.00     0.001 A 
ATOM     11  C   UNL d   1      -2.778   1.011  -0.248  0.00  0.00     0.001 A 
ATOM     12  H   UNL d   1       2.607  -1.676  -0.225  0.00  0.00     0.163 HD
ENDROOT
BRANCH   2  13
ATOM     13  C   UNL d   1       0.640  -1.979   1.895  0.00  0.00    -0.031 A 
ATOM     14  C   UNL d   1       1.442  -1.277   2.812  0.00  0.00     0.009 A 
ATOM     15  C   UNL d   1       1.396  -1.569   4.178  0.00  0.00     0.001 A 
ATOM     16  C   UNL d   1       0.552  -2.567   4.652  0.00  0.00     0.000 A 
ATOM     17  C   UNL d   1      -0.237  -3.288   3.760  0.00  0.00     0.001 A 
ATOM     18  C   UNL d   1      -0.191  -2.999   2.394  0.00  0.00     0.009 A 
ENDBRANCH   2  13
TORSDOF 1
