REMARK  7 active torsions:
REMARK  status: ('A' for Active; 'I' for Inactive)
REMARK    1  A    between atoms: N_7  and  C_1 
REMARK       I    between atoms: C_2  and  N_5 
REMARK    2  A    between atoms: C_6  and  C_2 
REMARK    3  A    between atoms: N_5  and  C_4 
REMARK    4  A    between atoms: O_17  and  C_8 
REMARK    5  A    between atoms: O_18  and  C_10 
REMARK    6  A    between atoms: C_23  and  O_17 
REMARK    7  A    between atoms: C_24  and  O_18 
ROOT
ATOM      1  C   UNL d   1       1.723  -0.190   0.040  0.00  0.00     0.067 C 
ATOM      2  C   UNL d   1       0.886  -1.331   0.009  0.00  0.00     0.071 C 
ATOM      3  C   UNL d   1      -1.114  -0.009  -0.232  0.00  0.00     0.071 C 
ATOM      4  C   UNL d   1       1.092   1.059  -0.059  0.00  0.00     0.097 C 
ATOM      5  C   UNL d   1      -0.288   1.113  -0.296  0.00  0.00     0.071 C 
ATOM      6  C   UNL d   1      -0.519  -1.264  -0.067  0.00  0.00     0.097 C 
ENDROOT
BRANCH   3   7
ATOM      7  N   UNL d   1      -2.522   0.125  -0.320  0.00  0.00    -0.320 N 
ATOM      8  C   UNL d   1      -3.236   1.313  -0.166  0.00  0.00     0.263 C 
ATOM      9  O   UNL d   1      -2.727   2.383   0.163  0.00  0.00    -0.267 OA
ATOM     10  H   UNL d   1      -3.048  -0.739  -0.394  0.00  0.00     0.169 HD
BRANCH   8  11
ATOM     11  C   UNL d   1      -4.676   1.242  -0.370  0.00  0.00     0.072 A 
ATOM     12  S   UNL d   1      -5.492  -0.177  -0.856  0.00  0.00    -0.097 SA
ATOM     13  C   UNL d   1      -7.015   0.603  -0.781  0.00  0.00     0.050 A 
ATOM     14  C   UNL d   1      -6.911   1.924  -0.431  0.00  0.00     0.009 A 
ATOM     15  C   UNL d   1      -5.558   2.301  -0.212  0.00  0.00     0.025 A 
ENDBRANCH   8  11
ENDBRANCH   3   7
BRANCH   6  16
ATOM     16  O   UNL d   1      -1.344  -2.364   0.050  0.00  0.00    -0.349 OA
BRANCH  16  17
ATOM     17  C   UNL d   1      -0.699  -3.557   0.522  0.00  0.00     0.171 C 
ATOM     18  C   UNL d   1      -1.724  -4.603   0.920  0.00  0.00     0.034 C 
ENDBRANCH  16  17
ENDBRANCH   6  16
BRANCH   4  19
ATOM     19  O   UNL d   1       1.827   2.225   0.030  0.00  0.00    -0.349 OA
BRANCH  19  20
ATOM     20  C   UNL d   1       1.071   3.371   0.461  0.00  0.00     0.171 C 
ATOM     21  C   UNL d   1       2.003   4.457   0.957  0.00  0.00     0.034 C 
ENDBRANCH  19  20
ENDBRANCH   4  19
BRANCH   1  22
ATOM     22  N   UNL d   1       3.083  -0.410   0.231  0.00  0.00    -0.374 N 
ATOM     23  C   UNL d   1       3.952   0.551   0.925  0.00  0.00     0.149 C 
ATOM     24  C   UNL d   1       4.855   1.298  -0.065  0.00  0.00     0.187 C 
ATOM     25  O   UNL d   1       5.614   0.377  -0.872  0.00  0.00    -0.388 OA
ATOM     26  C   UNL d   1       4.722  -0.453  -1.634  0.00  0.00     0.187 C 
ATOM     27  C   UNL d   1       3.798  -1.280  -0.724  0.00  0.00     0.149 C 
ENDBRANCH   1  22
TORSDOF 7
