REMARK  2 active torsions:
REMARK  status: ('A' for Active; 'I' for Inactive)
REMARK    1  A    between atoms: C_2  and  N_1 
REMARK    2  A    between atoms: N_19  and  C_14 
ROOT
ATOM      1  N   UNL d   1       2.335  -0.072   0.002  0.00  0.00    -0.072 N 
ATOM      2  C   UNL d   1       1.705   1.167   0.014  0.00  0.00     0.280 A 
ATOM      3  C   UNL d   1       1.690  -1.306  -0.070  0.00  0.00     0.280 A 
ATOM      4  C   UNL d   1       0.221   1.151  -0.013  0.00  0.00     0.045 A 
ATOM      5  C   UNL d   1      -0.484  -0.054   0.027  0.00  0.00     0.008 A 
ATOM      6  C   UNL d   1       0.209  -1.276   0.013  0.00  0.00     0.045 A 
ATOM      7  C   UNL d   1      -1.912  -0.038   0.099  0.00  0.00     0.003 A 
ATOM      8  C   UNL d   1      -2.622   1.214   0.054  0.00  0.00     0.040 A 
ATOM      9  C   UNL d   1      -0.460   2.366  -0.067  0.00  0.00     0.020 A 
ATOM     10  C   UNL d   1      -1.852   2.389  -0.053  0.00  0.00     0.031 A 
ATOM     11  O   UNL d   1       2.246  -2.396  -0.182  0.00  0.00    -0.266 OA
ATOM     12  O   UNL d   1       2.268   2.260  -0.045  0.00  0.00    -0.266 OA
ATOM     13  C   UNL d   1      -0.469  -2.496   0.097  0.00  0.00     0.018 A 
ATOM     14  C   UNL d   1      -2.543  -1.297   0.260  0.00  0.00     0.014 A 
ATOM     15  C   UNL d   1      -1.846  -2.505   0.236  0.00  0.00     0.002 A 
ENDROOT
BRANCH   1  16
ATOM     16  C   UNL d   1       3.717  -0.077   0.172  0.00  0.00     0.697 A 
ATOM     17  N   UNL d   1       4.360   0.533   1.152  0.00  0.00    -0.189 N 
ATOM     18  C   UNL d   1       5.684   0.210   1.005  0.00  0.00     0.076 A 
ATOM     19  HN  UNL d   1       3.952   1.126   1.875  1.00  0.00     0.184 HD
ATOM     20  C   UNL d   1       6.784   0.544   1.812  0.00  0.00     0.032 A 
ATOM     21  C   UNL d   1       5.881  -0.564  -0.132  0.00  0.00     0.078 A 
ATOM     22  C   UNL d   1       8.058   0.108   1.429  0.00  0.00     0.002 A 
ATOM     23  C   UNL d   1       8.236  -0.641   0.264  0.00  0.00     0.002 A 
ATOM     24  C   UNL d   1       7.149  -0.996  -0.543  0.00  0.00     0.032 A 
ATOM     25  N   UNL d   1       4.615  -0.729  -0.652  0.00  0.00    -0.185 N 
ATOM     26  C   UNL d   1       4.348  -1.351  -1.927  0.00  0.00     0.175 C 
ENDBRANCH   1  16
BRANCH   8  27
ATOM     27  N   UNL d   1      -4.016   1.310   0.157  0.00  0.00    -0.389 N 
ATOM     28  C   UNL d   1      -4.640   2.535   0.658  0.00  0.00     0.149 C 
ATOM     29  C   UNL d   1      -4.882   0.494  -0.693  0.00  0.00     0.149 C 
ENDBRANCH   8  27
TORSDOF 2
