REMARK  3 active torsions:
REMARK  status: ('A' for Active; 'I' for Inactive)
REMARK    1  A    between atoms: O_2  and  C_1 
REMARK       I    between atoms: N_4  and  C_1 
REMARK    2  A    between atoms: C_6  and  O_2 
REMARK    3  A    between atoms: N_5  and  N_4 
ROOT
ATOM      1  C   UNL d   1       0.965  -0.289   0.313  0.00  0.00     0.380 C 
ATOM      2  O   UNL d   1       2.066  -0.622   0.738  0.00  0.00    -0.237 OA
ATOM      3  N   UNL d   1       0.133   0.604   0.963  0.00  0.00    -0.269 N 
ATOM      4  H   UNL d   1      -0.691   0.932   0.468  0.00  0.00     0.185 HD
ENDROOT
BRANCH   1   5
ATOM      5  O   UNL d   1       0.367  -0.709  -0.870  0.00  0.00    -0.261 OA
BRANCH   5   6
ATOM      6  C   UNL d   1       0.992  -1.596  -1.774  0.00  0.00     0.081 A 
ATOM      7  C   UNL d   1       1.897  -2.584  -1.394  0.00  0.00     0.037 A 
ATOM      8  C   UNL d   1       2.453  -3.415  -2.369  0.00  0.00     0.003 A 
ATOM      9  C   UNL d   1       2.088  -3.272  -3.708  0.00  0.00     0.000 A 
ATOM     10  C   UNL d   1       1.157  -2.301  -4.078  0.00  0.00     0.003 A 
ATOM     11  C   UNL d   1       0.604  -1.463  -3.109  0.00  0.00     0.037 A 
ENDBRANCH   5   6
ENDBRANCH   1   5
BRANCH   3  12
ATOM     12  N   UNL d   1       0.558   1.262   2.141  0.00  0.00    -0.245 NA
ATOM     13  H   UNL d   1       1.581   1.155   2.194  0.00  0.00     0.143 HD
ATOM     14  H   UNL d   1       0.216   0.721   2.940  0.00  0.00     0.143 HD
ENDBRANCH   3  12
TORSDOF 3
