REMARK  5 active torsions:
REMARK  status: ('A' for Active; 'I' for Inactive)
REMARK    1  A    between atoms: N_2  and  S_1 
REMARK    2  A    between atoms: C_9  and  S_1 
REMARK       I    between atoms: C_4  and  N_2 
REMARK    3  A    between atoms: C_5  and  C_4 
REMARK    4  A    between atoms: C_6  and  C_14 
REMARK    5  A    between atoms: C_16  and  C_7 
ROOT
ATOM      1  C   UNL d   1       1.817   2.390   1.992  0.00  0.00     0.049 A 
ATOM      2  N   UNL d   1       2.043   2.349   4.405  0.00  0.00    -0.373 N 
ATOM      3  HN  UNL d   1       1.697   2.601   5.330  1.00  0.00     0.164 HD
ATOM      4  C   UNL d   1       3.033   1.712   1.858  0.00  0.00     0.040 A 
ATOM      5  C   UNL d   1       3.713   1.303   3.002  0.00  0.00     0.034 A 
ATOM      6  C   UNL d   1       1.381   2.706   3.275  0.00  0.00     0.104 A 
ATOM      7  C   UNL d   1       3.184   1.642   4.243  0.00  0.00     0.108 A 
ENDROOT
BRANCH   1   8
ATOM      8  C   UNL d   1       0.958   2.690   0.812  0.00  0.00     0.264 C 
ATOM      9  N   UNL d   1      -0.003   3.699   0.893  0.00  0.00    -0.279 N 
ATOM     10  HN  UNL d   1       0.141   4.393   1.625  1.00  0.00     0.179 HD
ATOM     11  O   UNL d   1       1.153   2.039  -0.206  0.00  0.00    -0.267 OA
BRANCH   9  12
ATOM     12  S   UNL d   1      -1.248   3.894   0.018  0.00  0.00     0.055 S 
ATOM     13  O   UNL d   1      -2.087   5.072   0.165  0.00  0.00    -0.245 OA
ATOM     14  C   UNL d   1      -0.888   3.826  -1.719  0.00  0.00     0.142 C 
BRANCH  12  15
ATOM     15  C   UNL d   1      -2.336   2.500   0.291  0.00  0.00     0.038 A 
ATOM     16  C   UNL d   1      -3.562   2.730   0.923  0.00  0.00     0.022 A 
ATOM     17  C   UNL d   1      -4.496   1.700   1.015  0.00  0.00     0.001 A 
ATOM     18  C   UNL d   1      -4.207   0.443   0.484  0.00  0.00     0.000 A 
ATOM     19  C   UNL d   1      -2.971   0.206  -0.119  0.00  0.00     0.001 A 
ATOM     20  C   UNL d   1      -2.030   1.232  -0.216  0.00  0.00     0.022 A 
ENDBRANCH  12  15
ENDBRANCH   9  12
ENDBRANCH   1   8
BRANCH   5  21
ATOM     21  C   UNL d   1       4.879   0.475   2.905  0.00  0.00    -0.060 C 
ATOM     22  C   UNL d   1       5.802  -0.284   2.851  0.00  0.00    -0.061 C 
BRANCH  22  23
ATOM     23  C   UNL d   1       6.902  -1.203   2.830  0.00  0.00     0.018 A 
ATOM     24  C   UNL d   1       6.995  -2.192   3.809  0.00  0.00     0.020 A 
ATOM     25  C   UNL d   1       8.089  -3.062   3.824  0.00  0.00     0.001 A 
ATOM     26  C   UNL d   1       9.084  -2.942   2.855  0.00  0.00     0.000 A 
ATOM     27  C   UNL d   1       8.978  -1.970   1.860  0.00  0.00     0.001 A 
ATOM     28  C   UNL d   1       7.884  -1.101   1.845  0.00  0.00     0.020 A 
ENDBRANCH  22  23
ENDBRANCH   5  21
TORSDOF 5
