REMARK  3 active torsions:
REMARK  status: ('A' for Active; 'I' for Inactive)
REMARK    1  A    between atoms: C_4  and  C_1 
REMARK    2  A    between atoms: C_7  and  N_3 
REMARK    3  A    between atoms: C_13  and  C_7 
ROOT
ATOM      1  C   UNL d   1      -0.357  -0.763   1.218  0.00  0.00     0.115 C 
ATOM      2  C   UNL d   1       0.799   0.167   1.181  0.00  0.00     0.262 C 
ATOM      3  N   UNL d   1       1.137   0.670  -0.082  0.00  0.00    -0.320 N 
ATOM      4  C   UNL d   1      -1.120  -0.904   0.116  0.00  0.00     0.023 C 
ATOM      5  C   UNL d   1       0.321   0.504  -1.187  0.00  0.00     0.094 C 
ATOM      6  O   UNL d   1       1.418   0.451   2.200  0.00  0.00    -0.267 OA
ATOM      7  C   UNL d   1      -0.804  -0.213  -1.105  0.00  0.00     0.018 C 
ENDROOT
BRANCH   3   8
ATOM      8  C   UNL d   1       2.422   1.358  -0.229  0.00  0.00     0.170 C 
BRANCH   8   9
ATOM      9  C   UNL d   1       3.552   0.359  -0.394  0.00  0.00    -0.040 A 
ATOM     10  C   UNL d   1       3.914  -0.117  -1.662  0.00  0.00     0.010 A 
ATOM     11  C   UNL d   1       4.891  -1.108  -1.793  0.00  0.00     0.024 A 
ATOM     12  C   UNL d   1       5.507  -1.632  -0.658  0.00  0.00     0.034 A 
ATOM     13  C   UNL d   1       5.164  -1.166   0.608  0.00  0.00     0.024 A 
ATOM     14 CL   UNL d   1       6.686  -2.874  -0.820  0.00  0.00    -0.084 Cl
ATOM     15  C   UNL d   1       4.193  -0.171   0.738  0.00  0.00     0.010 A 
ENDBRANCH   8   9
ENDBRANCH   3   8
BRANCH   1  16
ATOM     16  C   UNL d   1      -0.572  -1.554   2.456  0.00  0.00     0.422 C 
ATOM     17  F   UNL d   1       0.398  -1.480   3.398  0.00  0.00    -0.166 F 
ATOM     18  F   UNL d   1      -1.738  -1.208   3.066  0.00  0.00    -0.166 F 
ATOM     19  F   UNL d   1      -0.693  -2.880   2.158  0.00  0.00    -0.166 F 
ENDBRANCH   1  16
TORSDOF 3
