REMARK  2 active torsions:
REMARK  status: ('A' for Active; 'I' for Inactive)
REMARK    1  A    between atoms: N_7  and  C_2 
REMARK    2  A    between atoms: C_12  and  C_3 
ROOT
ATOM      1  C   UNL d   1       0.106   1.076  -0.001  0.00  0.00     0.048 A 
ATOM      2  C   UNL d   1       1.438   1.569   0.187  0.00  0.00     0.097 A 
ATOM      3  C   UNL d   1      -1.211   1.666  -0.238  0.00  0.00    -0.003 A 
ATOM      4  C   UNL d   1      -0.018  -0.313   0.003  0.00  0.00     0.089 A 
ATOM      5  C   UNL d   1      -2.210   0.709  -0.305  0.00  0.00     0.065 A 
ATOM      6  S   UNL d   1      -1.617  -0.874  -0.150  0.00  0.00    -0.082 SA
ATOM      7  N   UNL d   1       2.435   0.638   0.265  0.00  0.00    -0.342 N 
ATOM      8  HN  UNL d   1       3.403   0.944   0.367  1.00  0.00     0.167 HD
ATOM      9  N   UNL d   1       0.961  -1.225   0.109  0.00  0.00    -0.346 N 
ATOM     10  HN  UNL d   1       0.802  -2.232   0.111  1.00  0.00     0.167 HD
ATOM     11  C   UNL d   1       2.158  -0.667   0.210  0.00  0.00     0.182 A 
ENDROOT
BRANCH   3  12
ATOM     12  C   UNL d   1      -1.592   3.063  -0.421  0.00  0.00    -0.024 A 
ATOM     13  C   UNL d   1      -1.011   3.829  -1.436  0.00  0.00     0.013 A 
ATOM     14  C   UNL d   1      -1.347   5.179  -1.569  0.00  0.00     0.007 A 
ATOM     15  C   UNL d   1      -2.268   5.780  -0.704  0.00  0.00    -0.062 A 
ATOM     16  C   UNL d   1      -2.872   5.003   0.291  0.00  0.00     0.007 A 
ATOM     17  C   UNL d   1      -2.537   7.254  -0.780  0.00  0.00     0.048 C 
ATOM     18  C   UNL d   1      -2.543   3.653   0.425  0.00  0.00     0.013 A 
ENDBRANCH   3  12
BRANCH   2  19
ATOM     19  N   UNL d   1       1.825   2.924   0.220  0.00  0.00    -0.269 NA
ATOM     20  C   UNL d   1       1.196   3.730   1.274  0.00  0.00     0.097 C 
ATOM     21  C   UNL d   1       1.397   5.207   0.921  0.00  0.00     0.015 C 
ATOM     22  C   UNL d   1       2.881   5.549   0.830  0.00  0.00     0.002 C 
ATOM     23  C   UNL d   1       3.612   4.587  -0.105  0.00  0.00     0.015 C 
ATOM     24  C   UNL d   1       3.291   3.121   0.193  0.00  0.00     0.097 C 
ENDBRANCH   2  19
TORSDOF 2
