REMARK  4 active torsions:
REMARK  status: ('A' for Active; 'I' for Inactive)
REMARK    1  A    between atoms: C_14  and  C_3 
REMARK    2  A    between atoms: C_17  and  C_4 
REMARK    3  A    between atoms: C_16  and  C_5 
REMARK    4  A    between atoms: C_8  and  C_11 
ROOT
ATOM      1  N   UNL d   1       1.344   0.346  -0.160  0.00  0.00    -0.337 N 
ATOM      2  HN  UNL d   1       2.303   0.655  -0.318  1.00  0.00     0.167 HD
ATOM      3  C   UNL d   1       0.337   1.228   0.018  0.00  0.00     0.147 A 
ATOM      4  C   UNL d   1       1.018  -0.980  -0.119  0.00  0.00     0.073 A 
ATOM      5  C   UNL d   1      -0.296  -1.401   0.133  0.00  0.00     0.086 A 
ATOM      6  N   UNL d   1      -1.269  -0.471   0.249  0.00  0.00    -0.296 N 
ATOM      7  HN  UNL d   1      -2.238  -0.759   0.380  1.00  0.00     0.187 HD
ATOM      8  N   UNL d   1      -0.950   0.856   0.191  0.00  0.00    -0.283 N 
ATOM      9  HN  UNL d   1      -1.680   1.563   0.277  1.00  0.00     0.188 HD
ENDROOT
BRANCH   3  10
ATOM     10  C   UNL d   1       0.660   2.671   0.132  0.00  0.00     0.078 A 
ATOM     11  N   UNL d   1      -0.384   3.531   0.304  0.00  0.00    -0.362 N 
ATOM     12  C   UNL d   1      -0.123   4.847   0.484  0.00  0.00     0.104 A 
ATOM     13  HN  UNL d   1      -1.345   3.189   0.296  1.00  0.00     0.165 HD
ATOM     14  C   UNL d   1       1.149   5.386   0.503  0.00  0.00     0.063 A 
ATOM     15  C   UNL d   1       2.218   4.505   0.312  0.00  0.00     0.020 A 
ATOM     16  C   UNL d   1       1.973   3.143   0.121  0.00  0.00     0.034 A 
BRANCH  14  17
ATOM     17  C   UNL d   1       1.363   6.848   0.739  0.00  0.00     0.418 C 
ATOM     18  F   UNL d   1       0.210   7.550   0.909  0.00  0.00    -0.166 F 
ATOM     19  F   UNL d   1       2.116   7.093   1.846  0.00  0.00    -0.166 F 
ATOM     20  F   UNL d   1       2.017   7.450  -0.296  0.00  0.00    -0.166 F 
ENDBRANCH  14  17
ENDBRANCH   3  10
BRANCH   4  21
ATOM     21  C   UNL d   1       2.179  -1.889  -0.292  0.00  0.00    -0.007 A 
ATOM     22  C   UNL d   1       3.410  -1.594   0.326  0.00  0.00     0.014 A 
ATOM     23  C   UNL d   1       4.466  -2.508   0.324  0.00  0.00     0.001 A 
ATOM     24  C   UNL d   1       4.321  -3.742  -0.301  0.00  0.00     0.000 A 
ATOM     25  C   UNL d   1       3.142  -4.033  -0.981  0.00  0.00     0.001 A 
ATOM     26  C   UNL d   1       2.101  -3.101  -1.008  0.00  0.00     0.014 A 
ENDBRANCH   4  21
BRANCH   5  27
ATOM     27  C   UNL d   1      -0.761  -2.789   0.337  0.00  0.00    -0.006 A 
ATOM     28  C   UNL d   1      -0.054  -3.709   1.134  0.00  0.00     0.014 A 
ATOM     29  C   UNL d   1      -0.450  -5.046   1.227  0.00  0.00     0.001 A 
ATOM     30  C   UNL d   1      -1.599  -5.476   0.576  0.00  0.00     0.000 A 
ATOM     31  C   UNL d   1      -2.362  -4.571  -0.157  0.00  0.00     0.001 A 
ATOM     32  C   UNL d   1      -1.946  -3.241  -0.274  0.00  0.00     0.014 A 
ENDBRANCH   5  27
TORSDOF 4
