REMARK  5 active torsions:
REMARK  status: ('A' for Active; 'I' for Inactive)
REMARK    1  A    between atoms: C_7  and  C_1 
REMARK    2  A    between atoms: C_10  and  N_5 
REMARK       I    between atoms: N_8  and  C_7 
REMARK       I    between atoms: C_9  and  N_8 
REMARK    3  A    between atoms: O_20  and  C_9 
REMARK    4  A    between atoms: C_11  and  C_10 
REMARK    5  A    between atoms: C_21  and  O_20 
ROOT
ATOM      1  C   UNL d   1      -0.603  -1.272   0.082  0.00  0.00     0.116 C 
ATOM      2  N   UNL d   1      -0.855   1.117  -0.224  0.00  0.00    -0.274 N 
ATOM      3  C   UNL d   1       0.498   1.334  -0.202  0.00  0.00     0.329 C 
ATOM      4  C   UNL d   1      -1.455  -0.108  -0.244  0.00  0.00     0.266 C 
ATOM      5  N   UNL d   1       1.273   0.211   0.045  0.00  0.00    -0.302 N 
ATOM      6  C   UNL d   1       0.712  -1.046   0.208  0.00  0.00     0.118 C 
ATOM      7  O   UNL d   1       0.945   2.458  -0.410  0.00  0.00    -0.246 OA
ATOM      8  O   UNL d   1      -2.638  -0.245  -0.545  0.00  0.00    -0.267 OA
ATOM      9  H   UNL d   1      -1.424   1.914  -0.466  0.00  0.00     0.173 HD
ENDROOT
BRANCH   1  10
ATOM     10  C   UNL d   1      -1.121  -2.666   0.239  0.00  0.00     0.266 C 
ATOM     11  N   UNL d   1      -2.396  -2.854  -0.254  0.00  0.00    -0.269 N 
ATOM     12  C   UNL d   1      -3.216  -3.948  -0.146  0.00  0.00     0.367 C 
ATOM     13  H   UNL d   1      -2.856  -2.082  -0.728  0.00  0.00     0.174 HD
ATOM     14  O   UNL d   1      -4.276  -4.000  -0.762  0.00  0.00    -0.238 OA
ATOM     15  O   UNL d   1      -0.409  -3.541   0.719  0.00  0.00    -0.267 OA
BRANCH  12  16
ATOM     16  O   UNL d   1      -2.780  -4.890   0.724  0.00  0.00    -0.304 OA
BRANCH  16  17
ATOM     17  C   UNL d   1      -3.709  -5.945   1.014  0.00  0.00     0.176 C 
ATOM     18  C   UNL d   1      -4.777  -5.452   1.977  0.00  0.00     0.034 C 
ENDBRANCH  16  17
ENDBRANCH  12  16
ENDBRANCH   1  10
BRANCH   5  19
ATOM     19  C   UNL d   1       2.729   0.355   0.040  0.00  0.00     0.198 C 
BRANCH  19  20
ATOM     20  C   UNL d   1       3.256   0.060  -1.321  0.00  0.00     0.070 A 
ATOM     21  O   UNL d   1       3.609  -1.235  -1.573  0.00  0.00    -0.325 OA
ATOM     22  C   UNL d   1       4.066  -1.281  -2.850  0.00  0.00     0.142 A 
ATOM     23  C   UNL d   1       4.012  -0.034  -3.427  0.00  0.00     0.027 A 
ATOM     24  C   UNL d   1       3.483   0.834  -2.441  0.00  0.00     0.036 A 
ENDBRANCH  19  20
ENDBRANCH   5  19
TORSDOF 5
