REMARK  2 active torsions:
REMARK  status: ('A' for Active; 'I' for Inactive)
REMARK    1  A    between atoms: C_13  and  C_4 
REMARK    2  A    between atoms: N_10  and  C_8 
ROOT
ATOM      1  C   UNL d   1      -0.716  -0.783   0.046  0.00  0.00     0.058 C 
ATOM      2  C   UNL d   1      -0.911   0.729   0.043  0.00  0.00     0.174 C 
ATOM      3  N   UNL d   1       0.666  -1.112   0.080  0.00  0.00    -0.280 NA
ATOM      4  C   UNL d   1      -1.698  -1.696  -0.010  0.00  0.00     0.038 C 
ATOM      5  C   UNL d   1       0.447   1.430  -0.018  0.00  0.00     0.064 C 
ATOM      6  C   UNL d   1       1.385  -0.634  -1.139  0.00  0.00     0.096 C 
ATOM      7  C   UNL d   1       1.353  -0.541   1.277  0.00  0.00     0.096 C 
ATOM      8  O   UNL d   1      -1.965   1.320   0.133  0.00  0.00    -0.291 OA
ATOM      9  C   UNL d   1       1.204   0.997   1.250  0.00  0.00     0.027 C 
ATOM     10  C   UNL d   1       1.173   0.890  -1.266  0.00  0.00     0.027 C 
ENDROOT
BRANCH   4  11
ATOM     11  C   UNL d   1      -3.125  -1.405  -0.119  0.00  0.00    -0.034 A 
ATOM     12  C   UNL d   1      -3.732  -1.298  -1.366  0.00  0.00     0.013 A 
ATOM     13  C   UNL d   1      -5.115  -1.063  -1.466  0.00  0.00     0.030 A 
ATOM     14  C   UNL d   1      -5.944  -0.916  -0.340  0.00  0.00     0.029 A 
ATOM     15  C   UNL d   1      -5.289  -1.008   0.903  0.00  0.00     0.030 A 
ATOM     16  C   UNL d   1      -3.909  -1.247   1.018  0.00  0.00     0.013 A 
BRANCH  14  17
ATOM     17  N   UNL d   1      -7.316  -0.732  -0.436  0.00  0.00    -0.390 N 
ATOM     18  C   UNL d   1      -8.075   0.020   0.563  0.00  0.00     0.149 C 
ATOM     19  C   UNL d   1      -8.071  -0.998  -1.660  0.00  0.00     0.149 C 
ENDBRANCH  14  17
ENDBRANCH   4  11
TORSDOF 2
