REMARK  5 active torsions:
REMARK  status: ('A' for Active; 'I' for Inactive)
REMARK    1  A    between atoms: C_3  and  C_1 
REMARK       I    between atoms: N_9  and  C_3 
REMARK    2  A    between atoms: C_6  and  O_12 
REMARK       I    between atoms: C_8  and  N_10 
REMARK       I    between atoms: N_11  and  C_8 
REMARK    3  A    between atoms: N_10  and  N_9 
REMARK    4  A    between atoms: C_22  and  N_11 
REMARK    5  A    between atoms: O_12  and  C_15 
ROOT
ATOM      1  C   UNL d   1      -3.788  -0.207   0.098  0.00  0.00     0.286 C 
ATOM      2  N   UNL d   1      -4.399  -1.391   0.458  0.00  0.00    -0.261 N 
ATOM      3  O   UNL d   1      -4.435   0.804  -0.171  0.00  0.00    -0.264 OA
ATOM      4  H   UNL d   1      -3.886  -2.221   0.747  0.00  0.00     0.190 HD
ENDROOT
BRANCH   1   5
ATOM      5  C   UNL d   1      -2.340  -0.244   0.065  0.00  0.00     0.103 A 
ATOM      6  N   UNL d   1      -1.589   0.892  -0.149  0.00  0.00    -0.351 N 
ATOM      7  C   UNL d   1      -0.243   0.611  -0.111  0.00  0.00     0.043 A 
ATOM      8  H   UNL d   1      -1.990   1.810  -0.293  0.00  0.00     0.166 HD
ATOM      9  C   UNL d   1       0.870   1.451  -0.236  0.00  0.00     0.033 A 
ATOM     10  C   UNL d   1      -0.121  -0.759   0.100  0.00  0.00    -0.004 A 
ATOM     11  C   UNL d   1       2.144   0.869  -0.148  0.00  0.00     0.039 A 
ATOM     12  C   UNL d   1       2.299  -0.506   0.017  0.00  0.00     0.079 A 
ATOM     13  C   UNL d   1       1.169  -1.322   0.167  0.00  0.00     0.051 A 
ATOM     14  C   UNL d   1      -1.438  -1.284   0.213  0.00  0.00     0.049 A 
BRANCH  12  15
ATOM     15  O   UNL d   1       3.488  -1.159   0.153  0.00  0.00    -0.255 OA
BRANCH  15  16
ATOM     16  C   UNL d   1       4.606  -0.754  -0.626  0.00  0.00     0.530 C 
ATOM     17  F   UNL d   1       4.381   0.304  -1.431  0.00  0.00    -0.144 F 
ATOM     18  F   UNL d   1       5.631  -0.453   0.202  0.00  0.00    -0.144 F 
ATOM     19  F   UNL d   1       4.990  -1.793  -1.402  0.00  0.00    -0.144 F 
ENDBRANCH  15  16
ENDBRANCH  12  15
ENDBRANCH   1   5
BRANCH   2  20
ATOM     20  N   UNL d   1      -5.798  -1.450   0.629  0.00  0.00    -0.248 N 
ATOM     21  C   UNL d   1      -6.316  -2.709   0.903  0.00  0.00     0.339 C 
ATOM     22  N   UNL d   1      -7.690  -2.699   0.998  0.00  0.00    -0.308 N 
ATOM     23  O   UNL d   1      -5.568  -3.671   1.065  0.00  0.00    -0.245 OA
ATOM     24  H   UNL d   1      -8.130  -1.791   0.970  0.00  0.00     0.170 HD
ATOM     25  H   UNL d   1      -6.323  -0.806   0.045  0.00  0.00     0.192 HD
BRANCH  22  26
ATOM     26  C   UNL d   1      -8.541  -3.808   1.207  0.00  0.00     0.036 A 
ATOM     27  C   UNL d   1      -8.090  -5.126   1.303  0.00  0.00     0.029 A 
ATOM     28  C   UNL d   1      -8.995  -6.183   1.457  0.00  0.00     0.002 A 
ATOM     29  C   UNL d   1     -10.361  -5.931   1.522  0.00  0.00     0.000 A 
ATOM     30  C   UNL d   1     -10.823  -4.620   1.451  0.00  0.00     0.002 A 
ATOM     31  C   UNL d   1      -9.918  -3.563   1.299  0.00  0.00     0.029 A 
ENDBRANCH  22  26
ENDBRANCH   2  20
TORSDOF 5
