REMARK  5 active torsions:
REMARK  status: ('A' for Active; 'I' for Inactive)
REMARK    1  A    between atoms: C_5  and  C_1 
REMARK    2  A    between atoms: C_14  and  N_2 
REMARK    3  A    between atoms: S_19  and  C_6 
REMARK    4  A    between atoms: C_11  and  C_12 
REMARK    5  A    between atoms: C_30  and  S_19 
ROOT
ATOM      1  N   UNL d   1       1.377   2.630   3.232  0.00  0.00    -0.197 NA
ATOM      2  C   UNL d   1       1.511   2.792   2.093  0.00  0.00     0.069 C 
ATOM      3  C   UNL d   1       1.718   3.003   0.651  0.00  0.00     0.206 C 
ENDROOT
BRANCH   3   4
ATOM      4  S   UNL d   1       2.385   1.530  -0.194  0.00  0.00    -0.078 SA
BRANCH   4   5
ATOM      5  C   UNL d   1       1.047   0.437  -0.010  0.00  0.00     0.168 A 
ATOM      6  N   UNL d   1       1.124  -0.947   0.062  0.00  0.00    -0.274 N 
ATOM      7  C   UNL d   1      -0.220  -1.355   0.103  0.00  0.00     0.158 A 
ATOM      8  N   UNL d   1      -0.989  -0.283  -0.013  0.00  0.00    -0.281 N 
ATOM      9  N   UNL d   1      -0.202   0.828  -0.076  0.00  0.00    -0.278 N 
ATOM     10  HN  UNL d   1      -2.008  -0.289  -0.050  1.00  0.00     0.188 HD
ATOM     11  HN  UNL d   1      -0.527   1.791  -0.159  1.00  0.00     0.189 HD
BRANCH   6  12
ATOM     12  C   UNL d   1       2.287  -1.774   0.138  0.00  0.00     0.043 A 
ATOM     13  C   UNL d   1       2.309  -3.017  -0.515  0.00  0.00     0.032 A 
ATOM     14  C   UNL d   1       3.332  -3.932  -0.255  0.00  0.00     0.026 A 
ATOM     15  C   UNL d   1       4.360  -3.589   0.618  0.00  0.00     0.034 A 
ATOM     16  C   UNL d   1       4.395  -2.326   1.200  0.00  0.00     0.026 A 
ATOM     17 CL   UNL d   1       5.571  -4.747   1.010  0.00  0.00    -0.084 Cl
ATOM     18  C   UNL d   1       3.359  -1.415   0.964  0.00  0.00     0.032 A 
ENDBRANCH   6  12
BRANCH   7  19
ATOM     19  C   UNL d   1      -0.721  -2.713   0.376  0.00  0.00     0.100 A 
ATOM     20  N   UNL d   1       0.079  -3.447   1.198  0.00  0.00    -0.361 N 
ATOM     21  C   UNL d   1      -0.263  -4.727   1.464  0.00  0.00     0.104 A 
ATOM     22  HN  UNL d   1       0.920  -3.038   1.605  1.00  0.00     0.165 HD
ATOM     23  C   UNL d   1      -1.416  -5.326   0.992  0.00  0.00     0.065 A 
ATOM     24  C   UNL d   1      -2.256  -4.551   0.185  0.00  0.00     0.043 A 
ATOM     25  C   UNL d   1      -1.910  -3.232  -0.137  0.00  0.00     0.065 A 
ATOM     26 CL   UNL d   1      -2.964  -2.370  -1.194  0.00  0.00    -0.082 Cl
BRANCH  23  27
ATOM     27  C   UNL d   1      -1.702  -6.752   1.345  0.00  0.00     0.418 C 
ATOM     28  F   UNL d   1      -2.928  -7.176   0.939  0.00  0.00    -0.166 F 
ATOM     29  F   UNL d   1      -0.804  -7.609   0.787  0.00  0.00    -0.166 F 
ATOM     30  F   UNL d   1      -1.650  -6.976   2.686  0.00  0.00    -0.166 F 
ENDBRANCH  23  27
ENDBRANCH   7  19
ENDBRANCH   4   5
ENDBRANCH   3   4
TORSDOF 5
