REMARK  5 active torsions:
REMARK  status: ('A' for Active; 'I' for Inactive)
REMARK    1  A    between atoms: N_2  and  S_1 
REMARK    2  A    between atoms: C_3  and  S_1 
REMARK    3  A    between atoms: C_7  and  N_2 
REMARK    4  A    between atoms: C_10  and  N_2 
REMARK    5  A    between atoms: C_13  and  C_7 
ROOT
ATOM      1  S   UNL d   1       1.335  -0.086   0.046  0.00  0.00     0.261 S 
ATOM      2  O   UNL d   1       0.578  -1.254   0.423  0.00  0.00    -0.200 OA
ATOM      3  O   UNL d   1       2.746  -0.035   0.352  0.00  0.00    -0.200 OA
ENDROOT
BRANCH   1   4
ATOM      4  N   UNL d   1       0.545   1.353   0.611  0.00  0.00    -0.298 N 
BRANCH   4   5
ATOM      5  C   UNL d   1      -0.961   1.334   0.456  0.00  0.00     0.174 C 
BRANCH   5   6
ATOM      6  C   UNL d   1      -1.748   0.460   1.423  0.00  0.00    -0.040 A 
ATOM      7  C   UNL d   1      -2.033   0.847   2.743  0.00  0.00     0.009 A 
ATOM      8  C   UNL d   1      -2.608  -0.046   3.652  0.00  0.00     0.001 A 
ATOM      9  C   UNL d   1      -2.934  -1.337   3.250  0.00  0.00     0.000 A 
ATOM     10  C   UNL d   1      -2.735  -1.714   1.927  0.00  0.00     0.001 A 
ATOM     11  C   UNL d   1      -2.171  -0.815   1.018  0.00  0.00     0.009 A 
ENDBRANCH   5   6
ENDBRANCH   4   5
BRANCH   4  12
ATOM     12  C   UNL d   1       1.027   1.938   1.932  0.00  0.00     0.088 C 
ATOM     13  C   UNL d   1       2.542   2.176   1.977  0.00  0.00     0.032 C 
ATOM     14  C   UNL d   1       0.415   3.327   2.198  0.00  0.00     0.032 C 
ENDBRANCH   4  12
ENDBRANCH   1   4
BRANCH   1  15
ATOM     15  C   UNL d   1       1.304   0.020  -1.742  0.00  0.00     0.080 A 
ATOM     16  C   UNL d   1       2.121   0.974  -2.361  0.00  0.00     0.037 A 
ATOM     17  C   UNL d   1       2.419   0.875  -3.731  0.00  0.00    -0.025 A 
ATOM     18  C   UNL d   1       3.283   1.787  -4.359  0.00  0.00     0.012 A 
ATOM     19  C   UNL d   1       1.880  -0.195  -4.485  0.00  0.00    -0.026 A 
ATOM     20  C   UNL d   1       3.622   1.644  -5.706  0.00  0.00     0.001 A 
ATOM     21  C   UNL d   1       3.104   0.585  -6.444  0.00  0.00     0.001 A 
ATOM     22  C   UNL d   1       2.238  -0.329  -5.838  0.00  0.00     0.012 A 
ATOM     23  C   UNL d   1       1.029  -1.120  -3.855  0.00  0.00     0.014 A 
ATOM     24  C   UNL d   1       0.742  -1.017  -2.488  0.00  0.00     0.026 A 
ENDBRANCH   1  15
TORSDOF 5
