REMARK  2 active torsions:
REMARK  status: ('A' for Active; 'I' for Inactive)
REMARK    1  A    between atoms: C_8  and  S_1 
REMARK    2  A    between atoms: N_14  and  C_2 
ROOT
ATOM      1  C   UNL d   1      -1.026   1.358   5.951  0.00  0.00     0.143 A 
ATOM      2  N   UNL d   1      -0.646   2.369   5.214  0.00  0.00    -0.336 N 
ATOM      3  HN  UNL d   1      -0.613   3.340   5.526  1.00  0.00     0.168 HD
ATOM      4  S   UNL d   1      -1.055  -0.165   5.165  0.00  0.00    -0.052 SA
ATOM      5  C   UNL d   1      -0.437   0.560   3.732  0.00  0.00     0.036 A 
ATOM      6  C   UNL d   1      -0.293   1.931   3.950  0.00  0.00     0.051 A 
ATOM      7  C   UNL d   1       0.416   0.782   1.500  0.00  0.00     0.060 A 
ATOM      8  C   UNL d   1      -0.100  -0.043   2.509  0.00  0.00     0.044 A 
ATOM      9  C   UNL d   1       0.193   2.740   2.900  0.00  0.00     0.032 A 
ATOM     10  C   UNL d   1       0.546   2.160   1.677  0.00  0.00     0.026 A 
ENDROOT
BRANCH   7  11
ATOM     11  S   UNL d   1       0.880   0.054  -0.056  0.00  0.00     0.171 S 
ATOM     12  O   UNL d   1       0.818   1.096  -1.062  0.00  0.00    -0.223 OA
ATOM     13  O   UNL d   1       0.119  -1.172  -0.204  0.00  0.00    -0.223 OA
ATOM     14  C   UNL d   1       2.584  -0.378   0.188  0.00  0.00     0.167 C 
ENDBRANCH   7  11
BRANCH   1  15
ATOM     15  N   UNL d   1      -1.376   1.484   7.240  0.00  0.00    -0.380 N 
ATOM     16  H   UNL d   1      -1.926   0.754   7.675  0.00  0.00     0.158 HD
ATOM     17  H   UNL d   1      -1.568   2.423   7.569  0.00  0.00     0.158 HD
ENDBRANCH   1  15
TORSDOF 2
