REMARK  9 active torsions:
REMARK  status: ('A' for Active; 'I' for Inactive)
REMARK    1  A    between atoms: N_3  and  C_1 
REMARK    2  A    between atoms: N_12  and  C_1 
REMARK    3  A    between atoms: C_2  and  N_11 
REMARK    4  A    between atoms: N_4  and  C_2 
REMARK    5  A    between atoms: C_5  and  N_3 
REMARK    6  A    between atoms: C_6  and  N_4 
REMARK    7  A    between atoms: N_11  and  C_18 
REMARK    8  A    between atoms: C_17  and  N_12 
REMARK    9  A    between atoms: C_18  and  C_17 
ROOT
ATOM      1  C   UNL d   1       3.214  -0.445  -1.549  0.00  0.00     0.141 C 
ENDROOT
BRANCH   1   2
ATOM      2  N   UNL d   1       3.067  -0.083  -2.954  0.00  0.00    -0.365 N 
ATOM      3  H   UNL d   1       2.973   0.903  -3.171  0.00  0.00     0.161 HD
BRANCH   2   4
ATOM      4  C   UNL d   1       3.289  -0.862  -4.052  0.00  0.00     0.172 C 
ATOM      5  S   UNL d   1       3.323  -0.088  -5.534  0.00  0.00    -0.041 SA
BRANCH   4   6
ATOM      6  N   UNL d   1       3.415  -2.203  -3.818  0.00  0.00    -0.332 N 
ATOM      7  H   UNL d   1       2.754  -2.594  -3.156  0.00  0.00     0.168 HD
BRANCH   6   8
ATOM      8  C   UNL d   1       4.167  -3.161  -4.533  0.00  0.00     0.056 A 
ATOM      9  C   UNL d   1       3.819  -4.521  -4.456  0.00  0.00     0.060 A 
ATOM     10 CL   UNL d   1       2.408  -5.034  -3.595  0.00  0.00    -0.082 Cl
ATOM     11  C   UNL d   1       4.594  -5.495  -5.092  0.00  0.00     0.026 A 
ATOM     12  C   UNL d   1       5.741  -5.123  -5.793  0.00  0.00     0.002 A 
ATOM     13  C   UNL d   1       6.110  -3.782  -5.856  0.00  0.00     0.002 A 
ATOM     14  C   UNL d   1       5.330  -2.809  -5.229  0.00  0.00     0.031 A 
ENDBRANCH   6   8
ENDBRANCH   4   6
ENDBRANCH   2   4
ENDBRANCH   1   2
BRANCH   1  15
ATOM     15  C   UNL d   1       4.632  -0.217  -0.998  0.00  0.00     0.141 C 
BRANCH  15  16
ATOM     16  N   UNL d   1       5.695  -1.040  -1.568  0.00  0.00    -0.365 N 
ATOM     17  H   UNL d   1       6.215  -0.635  -2.338  0.00  0.00     0.161 HD
BRANCH  16  18
ATOM     18  C   UNL d   1       5.954  -2.364  -1.342  0.00  0.00     0.172 C 
ATOM     19  S   UNL d   1       4.972  -3.437  -0.524  0.00  0.00    -0.041 SA
BRANCH  18  20
ATOM     20  N   UNL d   1       7.115  -2.829  -1.898  0.00  0.00    -0.332 N 
ATOM     21  H   UNL d   1       7.124  -3.826  -2.102  0.00  0.00     0.168 HD
BRANCH  20  22
ATOM     22  C   UNL d   1       8.405  -2.233  -1.856  0.00  0.00     0.056 A 
ATOM     23  C   UNL d   1       9.467  -2.844  -2.546  0.00  0.00     0.060 A 
ATOM     24 CL   UNL d   1       9.208  -4.242  -3.533  0.00  0.00    -0.082 Cl
ATOM     25  C   UNL d   1      10.767  -2.336  -2.454  0.00  0.00     0.026 A 
ATOM     26  C   UNL d   1      11.027  -1.225  -1.652  0.00  0.00     0.002 A 
ATOM     27  C   UNL d   1       9.986  -0.621  -0.951  0.00  0.00     0.002 A 
ATOM     28  C   UNL d   1       8.683  -1.119  -1.054  0.00  0.00     0.031 A 
ENDBRANCH  20  22
ENDBRANCH  18  20
ENDBRANCH  16  18
ENDBRANCH  15  16
ENDBRANCH   1  15
TORSDOF 9
