REMARK  3 active torsions:
REMARK  status: ('A' for Active; 'I' for Inactive)
REMARK    1  A    between atoms: C_5  and  S_1 
REMARK    2  A    between atoms: C_10  and  C_9 
REMARK    3  A    between atoms: O_31  and  C_29 
ROOT
ATOM      1  C   UNL d   2       1.366  -0.720   2.511  0.00  0.00     0.135 C 
ATOM      2  O   UNL d   2       0.578  -0.347   3.359  0.00  0.00    -0.650 OA
ATOM      3  C   UNL d   2       2.858  -0.687   2.628  0.00  0.00     0.125 C 
ENDROOT
BRANCH   1   4
ATOM      4  O   UNL d   2       0.966  -1.381   1.402  0.00  0.00    -0.777 OA
ATOM      5  H   UNL d   2       1.703  -1.457   0.766  0.00  0.00     0.167 HD
ENDBRANCH   1   4
TORSDOF 3
