REMARK  20 active torsions:
REMARK  status: ('A' for Active; 'I' for Inactive)
REMARK       I    between atoms: N_2  and  C_1 
REMARK    1  A    between atoms: C_8  and  C_1 
REMARK    2  A    between atoms: C_5  and  N_2 
REMARK       I    between atoms: C_3  and  N_7 
REMARK    3  A    between atoms: O_15  and  C_3 
REMARK    4  A    between atoms: O_9  and  C_4 
REMARK    5  A    between atoms: C_5  and  C_4 
REMARK    6  A    between atoms: C_11  and  C_5 
REMARK       I    between atoms: C_6  and  N_17 
REMARK    7  A    between atoms: O_16  and  C_6 
REMARK    8  A    between atoms: N_7  and  C_8 
REMARK    9  A    between atoms: C_25  and  C_8 
REMARK   10  A    between atoms: C_18  and  O_9 
REMARK   11  A    between atoms: C_21  and  C_11 
REMARK   12  A    between atoms: C_19  and  O_15 
REMARK   13  A    between atoms: C_20  and  O_16 
REMARK   14  A    between atoms: N_17  and  C_26 
REMARK   15  A    between atoms: C_22  and  C_18 
REMARK   16  A    between atoms: C_23  and  C_19 
REMARK   17  A    between atoms: C_24  and  C_20 
REMARK   18  A    between atoms: C_35  and  C_25 
REMARK   19  A    between atoms: C_26  and  C_36 
REMARK   20  A    between atoms: C_36  and  C_35 
ROOT
ATOM      1  C   UNL d   1       2.055   1.022   1.394  0.00  0.00     0.179 C 
ENDROOT
BRANCH   1   2
ATOM      2  N   UNL d   1       3.204   0.466   2.111  0.00  0.00    -0.324 N 
ATOM      3  C   UNL d   1       3.353  -0.883   2.369  0.00  0.00     0.361 C 
ATOM      4  O   UNL d   1       2.738  -1.785   1.826  0.00  0.00    -0.238 OA
ATOM      5  H   UNL d   1       3.665   1.039   2.800  0.00  0.00     0.165 HD
BRANCH   3   6
ATOM      6  O   UNL d   1       4.264  -1.015   3.362  0.00  0.00    -0.299 OA
BRANCH   6   7
ATOM      7  C   UNL d   1       4.558  -2.337   3.857  0.00  0.00     0.219 C 
BRANCH   7   8
ATOM      8  C   UNL d   1       6.051  -2.578   3.808  0.00  0.00    -0.034 A 
ATOM      9  C   UNL d   1       6.939  -1.714   4.471  0.00  0.00     0.009 A 
ATOM     10  C   UNL d   1       8.319  -1.926   4.415  0.00  0.00     0.001 A 
ATOM     11  C   UNL d   1       8.830  -3.010   3.708  0.00  0.00     0.000 A 
ATOM     12  C   UNL d   1       7.962  -3.889   3.063  0.00  0.00     0.001 A 
ATOM     13  C   UNL d   1       6.582  -3.676   3.115  0.00  0.00     0.009 A 
ENDBRANCH   7   8
ENDBRANCH   6   7
ENDBRANCH   3   6
ENDBRANCH   1   2
BRANCH   1  14
ATOM     14  C   UNL d   1       2.327   2.288   0.520  0.00  0.00     0.241 C 
ATOM     15  N   UNL d   1       3.593   2.420  -0.006  0.00  0.00    -0.345 N 
ATOM     16  H   UNL d   1       4.241   1.641   0.094  0.00  0.00     0.163 HD
ATOM     17  O   UNL d   1       1.433   3.082   0.228  0.00  0.00    -0.271 OA
BRANCH  15  18
ATOM     18  C   UNL d   1       3.935   3.466  -0.994  0.00  0.00     0.188 C 
BRANCH  18  19
ATOM     19  C   UNL d   1       3.921   4.927  -0.498  0.00  0.00     0.074 C 
BRANCH  19  20
ATOM     20  C   UNL d   1       4.690   5.282   0.754  0.00  0.00    -0.056 A 
ATOM     21  C   UNL d   1       5.738   6.212   0.718  0.00  0.00     0.007 A 
ATOM     22  C   UNL d   1       6.267   6.723   1.907  0.00  0.00     0.001 A 
ATOM     23  C   UNL d   1       5.771   6.295   3.137  0.00  0.00     0.000 A 
ATOM     24  C   UNL d   1       4.776   5.326   3.185  0.00  0.00     0.001 A 
ATOM     25  C   UNL d   1       4.242   4.827   2.000  0.00  0.00     0.007 A 
ENDBRANCH  19  20
ENDBRANCH  18  19
BRANCH  18  26
ATOM     26  C   UNL d   1       5.267   3.149  -1.686  0.00  0.00     0.282 C 
ATOM     27  O   UNL d   1       6.022   2.251  -1.335  0.00  0.00    -0.263 OA
BRANCH  26  28
ATOM     28  O   UNL d   1       5.443   3.951  -2.771  0.00  0.00    -0.315 OA
BRANCH  28  29
ATOM     29  C   UNL d   1       6.550   3.648  -3.630  0.00  0.00     0.217 C 
BRANCH  29  30
ATOM     30  C   UNL d   1       6.011   3.245  -4.979  0.00  0.00    -0.034 A 
ATOM     31  C   UNL d   1       5.798   4.196  -5.989  0.00  0.00     0.009 A 
ATOM     32  C   UNL d   1       5.316   3.804  -7.239  0.00  0.00     0.001 A 
ATOM     33  C   UNL d   1       5.030   2.462  -7.489  0.00  0.00     0.000 A 
ATOM     34  C   UNL d   1       5.213   1.513  -6.485  0.00  0.00     0.001 A 
ATOM     35  C   UNL d   1       5.694   1.903  -5.234  0.00  0.00     0.009 A 
ENDBRANCH  29  30
ENDBRANCH  28  29
ENDBRANCH  26  28
ENDBRANCH  18  26
ENDBRANCH  15  18
ENDBRANCH   1  14
BRANCH   1  36
ATOM     36  C   UNL d   1       0.904   1.303   2.385  0.00  0.00     0.035 C 
BRANCH  36  37
ATOM     37  C   UNL d   1       1.276   2.328   3.474  0.00  0.00     0.004 C 
BRANCH  37  38
ATOM     38  C   UNL d   1       0.152   2.600   4.473  0.00  0.00     0.020 C 
BRANCH  38  39
ATOM     39  C   UNL d   1      -0.245   1.335   5.217  0.00  0.00     0.125 C 
BRANCH  39  40
ATOM     40  N   UNL d   1      -1.238   1.599   6.219  0.00  0.00    -0.337 N 
ATOM     41  C   UNL d   1      -0.905   1.784   7.523  0.00  0.00     0.360 C 
ATOM     42  O   UNL d   1       0.236   1.890   7.949  0.00  0.00    -0.239 OA
ATOM     43  H   UNL d   1      -2.218   1.453   6.020  0.00  0.00     0.164 HD
BRANCH  41  44
ATOM     44  O   UNL d   1      -2.030   1.726   8.267  0.00  0.00    -0.299 OA
BRANCH  44  45
ATOM     45  C   UNL d   1      -1.807   1.457   9.650  0.00  0.00     0.219 C 
BRANCH  45  46
ATOM     46  C   UNL d   1      -2.154   2.646  10.498  0.00  0.00    -0.034 A 
ATOM     47  C   UNL d   1      -3.470   2.845  10.936  0.00  0.00     0.009 A 
ATOM     48  C   UNL d   1      -3.779   3.911  11.778  0.00  0.00     0.001 A 
ATOM     49  C   UNL d   1      -2.781   4.801  12.175  0.00  0.00     0.000 A 
ATOM     50  C   UNL d   1      -1.474   4.629  11.719  0.00  0.00     0.001 A 
ATOM     51  C   UNL d   1      -1.162   3.560  10.879  0.00  0.00     0.009 A 
ENDBRANCH  45  46
ENDBRANCH  44  45
ENDBRANCH  41  44
ENDBRANCH  39  40
ENDBRANCH  38  39
ENDBRANCH  37  38
ENDBRANCH  36  37
ENDBRANCH   1  36
TORSDOF 20
