REMARK  4 active torsions:
REMARK  status: ('A' for Active; 'I' for Inactive)
REMARK    1  A    between atoms: C_2  and  C_1 
REMARK    2  A    between atoms: C_4  and  C_2 
REMARK    3  A    between atoms: N_9  and  C_6 
REMARK    4  A    between atoms: C_7  and  N_9 
ROOT
ATOM      1  N   UNL d   1      -1.485   3.225  -1.780  0.00  0.00    -0.364 N 
ATOM      2  H   UNL d   1      -1.598   4.144  -1.359  0.00  0.00     0.165 HD
ENDROOT
BRANCH   1   3
ATOM      3  C   UNL d   1      -2.079   3.086  -3.054  0.00  0.00     0.053 A 
ATOM      4  C   UNL d   1      -2.370   4.225  -3.835  0.00  0.00     0.062 A 
ATOM      5  C   UNL d   1      -2.911   4.109  -5.120  0.00  0.00     0.045 A 
ATOM      6 CL   UNL d   1      -2.053   5.815  -3.226  0.00  0.00    -0.082 Cl
ATOM      7  C   UNL d   1      -3.171   2.845  -5.639  0.00  0.00     0.012 A 
ATOM      8  C   UNL d   1      -2.888   1.705  -4.897  0.00  0.00     0.021 A 
ATOM      9 BR   UNL d   1      -3.908   2.676  -7.373  0.00  0.00    -0.051 Br
ATOM     10  C   UNL d   1      -2.338   1.827  -3.618  0.00  0.00     0.032 A 
ENDBRANCH   1   3
BRANCH   1  11
ATOM     11  C   UNL d   1      -0.743   2.296  -1.097  0.00  0.00     0.092 C 
ATOM     12  C   UNL d   1      -0.291   2.381   0.160  0.00  0.00     0.077 C 
BRANCH  12  13
ATOM     13  C   UNL d   1       0.536   1.270   0.725  0.00  0.00     0.256 C 
ATOM     14  O   UNL d   1       0.815   0.289   0.030  0.00  0.00    -0.283 OA
BRANCH  13  15
ATOM     15  C   UNL d   1       1.003   1.422   2.171  0.00  0.00     0.455 C 
ATOM     16  F   UNL d   1       0.561   2.571   2.758  0.00  0.00    -0.163 F 
ATOM     17  F   UNL d   1       2.360   1.445   2.275  0.00  0.00    -0.163 F 
ATOM     18  F   UNL d   1       0.569   0.404   2.963  0.00  0.00    -0.163 F 
ENDBRANCH  13  15
ENDBRANCH  12  13
ENDBRANCH   1  11
TORSDOF 4
