REMARK  1 active torsions:
REMARK  status: ('A' for Active; 'I' for Inactive)
REMARK    1  A    between atoms: C_9  and  C_5 
ROOT
ATOM      1  C   UNL d   1      -1.199  -0.726   0.056  0.00  0.00     0.047 A 
ATOM      2  C   UNL d   1      -1.813   0.652   0.118  0.00  0.00     0.257 A 
ATOM      3  N   UNL d   1      -0.730   1.519   0.084  0.00  0.00    -0.322 N 
ATOM      4  C   UNL d   1       0.256  -0.549   0.018  0.00  0.00     0.006 A 
ATOM      5  C   UNL d   1      -1.873  -1.885   0.018  0.00  0.00     0.049 C 
ATOM      6  C   UNL d   1       0.476   0.831   0.035  0.00  0.00     0.046 A 
ATOM      7  O   UNL d   1      -2.980   0.976   0.209  0.00  0.00    -0.267 OA
ATOM      8  C   UNL d   1       1.327  -1.426  -0.021  0.00  0.00     0.015 A 
ATOM      9  C   UNL d   1       1.739   1.387   0.015  0.00  0.00     0.030 A 
ATOM     10  C   UNL d   1       2.620  -0.884  -0.038  0.00  0.00     0.001 A 
ATOM     11  C   UNL d   1       2.823   0.509  -0.019  0.00  0.00     0.002 A 
ATOM     12  H   UNL d   1      -0.843   2.521   0.110  0.00  0.00     0.169 HD
ENDROOT
BRANCH   5  13
ATOM     13  C   UNL d   1      -3.283  -1.999   0.013  0.00  0.00     0.049 A 
ATOM     14  N   UNL d   1      -3.968  -2.125  -1.162  0.00  0.00    -0.351 N 
ATOM     15  C   UNL d   1      -5.234  -2.062  -0.814  0.00  0.00     0.180 A 
ATOM     16  HN  UNL d   1      -3.583  -2.242  -2.099  1.00  0.00     0.166 HD
ATOM     17  N   UNL d   1      -5.380  -1.965   0.542  0.00  0.00    -0.360 N 
ATOM     18  C   UNL d   1      -4.128  -1.951   1.094  0.00  0.00     0.118 A 
ATOM     19  H   UNL d   1      -6.256  -1.880   1.038  0.00  0.00     0.166 HD
ENDBRANCH   5  13
TORSDOF 1
