REMARK  5 active torsions:
REMARK  status: ('A' for Active; 'I' for Inactive)
REMARK    1  A    between atoms: N_2  and  S_1 
REMARK    2  A    between atoms: C_12  and  S_1 
REMARK    3  A    between atoms: C_3  and  N_2 
REMARK       I    between atoms: C_4  and  N_15 
REMARK       I    between atoms: N_9  and  C_4 
REMARK    4  A    between atoms: C_10  and  N_9 
REMARK    5  A    between atoms: N_15  and  C_23 
ROOT
ATOM      1  C   UNL d   1      -0.199  -1.371  -0.335  0.00  0.00     0.075 A 
ATOM      2  C   UNL d   1       0.338  -2.276  -1.254  0.00  0.00     0.027 A 
ATOM      3  C   UNL d   1      -1.152  -1.794   0.589  0.00  0.00     0.027 A 
ATOM      4  C   UNL d   1      -0.913  -4.082  -0.202  0.00  0.00     0.036 A 
ATOM      5  C   UNL d   1      -0.023  -3.629  -1.187  0.00  0.00     0.031 A 
ATOM      6  C   UNL d   1      -1.514  -3.142   0.642  0.00  0.00     0.031 A 
ENDROOT
BRANCH   1   7
ATOM      7  S   UNL d   1       0.543   0.237  -0.137  0.00  0.00     0.248 S 
ATOM      8  O   UNL d   1       0.232   0.674   1.211  0.00  0.00    -0.205 OA
ATOM      9  O   UNL d   1       1.920   0.130  -0.571  0.00  0.00    -0.205 OA
BRANCH   7  10
ATOM     10  N   UNL d   1      -0.371   1.216  -1.143  0.00  0.00    -0.151 NA
ATOM     11  H   UNL d   1      -0.697   2.002  -0.588  0.00  0.00     0.149 HD
BRANCH  10  12
ATOM     12  C   UNL d   1       0.371   1.685  -2.224  0.00  0.00     0.171 A 
ATOM     13  N   UNL d   1       0.444   0.898  -3.299  0.00  0.00    -0.336 N 
ATOM     14  C   UNL d   1       1.268   1.332  -4.271  0.00  0.00     0.009 A 
ATOM     15  HN  UNL d   1      -0.085   0.030  -3.378  1.00  0.00     0.168 HD
ATOM     16  C   UNL d   1       1.351   0.506  -5.518  0.00  0.00     0.068 C 
ATOM     17  C   UNL d   1       2.027   2.484  -4.145  0.00  0.00     0.049 A 
ATOM     18  C   UNL d   1       1.882   3.203  -2.972  0.00  0.00     0.009 A 
ATOM     19  N   UNL d   1       1.026   2.828  -2.002  0.00  0.00    -0.336 N 
ATOM     20  C   UNL d   1       2.713   4.427  -2.729  0.00  0.00     0.068 C 
ATOM     21  HN  UNL d   1       0.886   3.380  -1.155  1.00  0.00     0.168 HD
ENDBRANCH  10  12
ENDBRANCH   7  10
ENDBRANCH   1   7
BRANCH   4  22
ATOM     22  N   UNL d   1      -1.097  -5.479  -0.068  0.00  0.00    -0.309 N 
ATOM     23  C   UNL d   1      -1.936  -6.109   0.833  0.00  0.00     0.325 C 
ATOM     24  N   UNL d   1      -1.805  -7.493   0.796  0.00  0.00    -0.308 N 
ATOM     25  O   UNL d   1      -2.736  -5.530   1.567  0.00  0.00    -0.247 OA
ATOM     26  H   UNL d   1      -1.461  -7.858  -0.076  0.00  0.00     0.170 HD
ATOM     27  H   UNL d   1      -0.500  -6.066  -0.631  0.00  0.00     0.170 HD
BRANCH  24  28
ATOM     28  C   UNL d   1      -2.650  -8.330   1.573  0.00  0.00     0.043 A 
ATOM     29  C   UNL d   1      -3.268  -9.464   1.009  0.00  0.00    -0.013 A 
ATOM     30  C   UNL d   1      -4.241 -10.136   1.783  0.00  0.00     0.042 A 
ATOM     31  C   UNL d   1      -3.034  -9.890  -0.417  0.00  0.00     0.052 C 
ATOM     32 CL   UNL d   1      -5.181 -11.438   1.132  0.00  0.00    -0.084 Cl
ATOM     33  C   UNL d   1      -4.528  -9.749   3.096  0.00  0.00     0.024 A 
ATOM     34  C   UNL d   1      -3.842  -8.689   3.671  0.00  0.00     0.004 A 
ATOM     35  C   UNL d   1      -2.910  -7.987   2.912  0.00  0.00     0.030 A 
ENDBRANCH  24  28
ENDBRANCH   4  22
TORSDOF 5
