REMARK  2 active torsions:
REMARK  status: ('A' for Active; 'I' for Inactive)
REMARK    1  A    between atoms: C_11  and  C_1 
REMARK    2  A    between atoms: C_13  and  C_9 
ROOT
ATOM      1  C   UNL d   1       0.824  -1.483   0.216  0.00  0.00     0.144 A 
ATOM      2  N   UNL d   1      -0.357  -0.752   0.287  0.00  0.00    -0.235 N 
ATOM      3  C   UNL d   1      -0.323   0.647   0.269  0.00  0.00     0.129 A 
ATOM      4  N   UNL d   1       0.841   1.352   0.178  0.00  0.00    -0.340 N 
ATOM      5  HN  UNL d   1       0.850   2.372   0.178  1.00  0.00     0.167 HD
ATOM      6  C   UNL d   1       2.002  -0.835   0.123  0.00  0.00     0.067 A 
ATOM      7  N   UNL d   1      -1.638  -1.201   0.336  0.00  0.00    -0.297 N 
ATOM      8  HN  UNL d   1      -1.952  -2.169   0.403  1.00  0.00     0.187 HD
ATOM      9  C   UNL d   1       1.941   0.660   0.092  0.00  0.00     0.046 A 
ATOM     10  C   UNL d   1      -1.629   1.072   0.285  0.00  0.00     0.076 A 
ATOM     11  C   UNL d   1      -2.399  -0.105   0.278  0.00  0.00     0.026 A 
ATOM     12  C   UNL d   1      -3.875  -0.207   0.184  0.00  0.00     0.070 C 
ENDROOT
BRANCH   9  13
ATOM     13  C   UNL d   1       3.220   1.376  -0.140  0.00  0.00    -0.006 A 
ATOM     14  C   UNL d   1       3.186   2.481  -1.004  0.00  0.00     0.053 A 
ATOM     15  C   UNL d   1       4.377   3.106  -1.296  0.00  0.00     0.105 A 
ATOM     16  O   UNL d   1       4.532   4.158  -2.143  0.00  0.00    -0.323 OA
ATOM     17  C   UNL d   1       5.568   2.687  -0.749  0.00  0.00     0.105 A 
ATOM     18  C   UNL d   1       5.963   4.331  -2.098  0.00  0.00     0.352 A 
ATOM     19  O   UNL d   1       6.621   3.428  -1.186  0.00  0.00    -0.323 OA
ATOM     20  C   UNL d   1       5.630   1.628   0.133  0.00  0.00     0.040 A 
ATOM     21  C   UNL d   1       4.439   0.962   0.440  0.00  0.00     0.016 A 
ENDBRANCH   9  13
BRANCH   1  22
ATOM     22  C   UNL d   1       0.711  -2.960   0.203  0.00  0.00     0.434 C 
ATOM     23  F   UNL d   1      -0.275  -3.445  -0.588  0.00  0.00    -0.165 F 
ATOM     24  F   UNL d   1       1.863  -3.529  -0.263  0.00  0.00    -0.165 F 
ATOM     25  F   UNL d   1       0.531  -3.467   1.449  0.00  0.00    -0.165 F 
ENDBRANCH   1  22
TORSDOF 2
