REMARK  7 active torsions:
REMARK  status: ('A' for Active; 'I' for Inactive)
REMARK    1  A    between atoms: N_5  and  S_1 
REMARK    2  A    between atoms: C_10  and  S_1 
REMARK    3  A    between atoms: N_11  and  N_5 
REMARK    4  A    between atoms: C_6  and  C_15 
REMARK    5  A    between atoms: C_7  and  S_19 
REMARK       I    between atoms: C_14  and  N_11 
REMARK    6  A    between atoms: C_24  and  C_14 
REMARK    7  A    between atoms: S_19  and  C_24 
ROOT
ATOM      1  N   UNL d   1       0.872   2.665  -0.710  0.00  0.00    -0.260 N 
ATOM      2  C   UNL d   1       0.302   3.662  -1.487  0.00  0.00     0.246 C 
ATOM      3  O   UNL d   1      -0.568   3.396  -2.313  0.00  0.00    -0.271 OA
ATOM      4  H   UNL d   1       1.603   2.832  -0.020  0.00  0.00     0.190 HD
ENDROOT
BRANCH   1   5
ATOM      5  N   UNL d   1       0.410   1.290  -0.888  0.00  0.00    -0.220 N 
ATOM      6  H   UNL d   1      -0.330   1.103  -1.573  0.00  0.00     0.200 HD
BRANCH   5   7
ATOM      7  S   UNL d   1       1.072   0.079   0.071  0.00  0.00     0.276 S 
ATOM      8  O   UNL d   1       0.630   0.318   1.429  0.00  0.00    -0.199 OA
ATOM      9  O   UNL d   1       2.485   0.013  -0.238  0.00  0.00    -0.199 OA
BRANCH   7  10
ATOM     10  C   UNL d   1       0.312  -1.424  -0.505  0.00  0.00     0.081 A 
ATOM     11  C   UNL d   1       0.939  -2.175  -1.509  0.00  0.00     0.041 A 
ATOM     12  C   UNL d   1       0.460  -3.456  -1.838  0.00  0.00     0.049 A 
ATOM     13  C   UNL d   1      -0.657  -3.961  -1.152  0.00  0.00     0.016 A 
ATOM     14  C   UNL d   1      -1.282  -3.208  -0.155  0.00  0.00     0.002 A 
ATOM     15  C   UNL d   1      -0.795  -1.941   0.175  0.00  0.00     0.025 A 
BRANCH  12  16
ATOM     16  C   UNL d   1       1.148  -4.313  -2.876  0.00  0.00     0.417 C 
ATOM     17  F   UNL d   1       2.216  -3.704  -3.461  0.00  0.00    -0.166 F 
ATOM     18  F   UNL d   1       1.621  -5.479  -2.356  0.00  0.00    -0.166 F 
ATOM     19  F   UNL d   1       0.316  -4.667  -3.894  0.00  0.00    -0.166 F 
ENDBRANCH  12  16
ENDBRANCH   7  10
ENDBRANCH   5   7
ENDBRANCH   1   5
BRANCH   2  20
ATOM     20  C   UNL d   1       0.863   5.061  -1.197  0.00  0.00     0.185 C 
BRANCH  20  21
ATOM     21  S   UNL d   1       0.035   6.313  -2.230  0.00  0.00    -0.102 SA
BRANCH  21  22
ATOM     22  C   UNL d   1       0.876   7.814  -1.794  0.00  0.00     0.090 A 
ATOM     23  C   UNL d   1       0.524   9.026  -2.404  0.00  0.00     0.065 A 
ATOM     24  S   UNL d   1      -0.685   9.381  -3.580  0.00  0.00    -0.096 SA
ATOM     25  C   UNL d   1       1.223  10.182  -2.058  0.00  0.00     0.059 A 
ATOM     26  C   UNL d   1      -0.270  11.030  -3.629  0.00  0.00     0.059 A 
ATOM     27  C   UNL d   1       0.772  11.345  -2.779  0.00  0.00    -0.027 A 
ATOM     28  C   UNL d   1       1.337  12.721  -2.651  0.00  0.00     0.051 C 
ATOM     29  N   UNL d   1       2.223  10.172  -1.141  0.00  0.00    -0.351 N 
ATOM     30  C   UNL d   1       2.474   8.973  -0.606  0.00  0.00     0.181 A 
ATOM     31  HN  UNL d   1       2.740  11.012  -0.880  1.00  0.00     0.166 HD
ATOM     32  N   UNL d   1       1.869   7.805  -0.878  0.00  0.00    -0.346 N 
ATOM     33  HN  UNL d   1       2.149   6.943  -0.409  1.00  0.00     0.167 HD
ENDBRANCH  21  22
ENDBRANCH  20  21
ENDBRANCH   2  20
TORSDOF 7
