REMARK  5 active torsions:
REMARK  status: ('A' for Active; 'I' for Inactive)
REMARK       I    between atoms: C_2  and  N_1 
REMARK       I    between atoms: C_3  and  N_1 
REMARK       I    between atoms: N_7  and  C_2 
REMARK    1  A    between atoms: C_5  and  C_3 
REMARK    2  A    between atoms: O_8  and  C_4 
REMARK    3  A    between atoms: C_14  and  N_7 
REMARK    4  A    between atoms: C_17  and  O_8 
REMARK    5  A    between atoms: O_20  and  C_9 
ROOT
ATOM      1  N   UNL d   1       0.958   0.587  -0.137  0.00  0.00    -0.275 N 
ATOM      2  C   UNL d   1      -0.014   0.120  -0.987  0.00  0.00     0.327 C 
ATOM      3  C   UNL d   1       2.326   0.659  -0.324  0.00  0.00     0.259 C 
ATOM      4  N   UNL d   1       0.423  -0.324  -2.209  0.00  0.00    -0.309 N 
ATOM      5  O   UNL d   1      -1.168   0.137  -0.577  0.00  0.00    -0.247 OA
ATOM      6  O   UNL d   1       2.909   0.247  -1.319  0.00  0.00    -0.267 OA
ATOM      7  H   UNL d   1       0.546   0.973   0.697  0.00  0.00     0.173 HD
ATOM      8  H   UNL d   1       1.433  -0.391  -2.310  0.00  0.00     0.170 HD
ENDROOT
BRANCH   3   9
ATOM      9  C   UNL d   1       3.067   1.343   0.769  0.00  0.00     0.035 A 
ATOM     10  C   UNL d   1       2.680   1.217   2.110  0.00  0.00     0.056 A 
ATOM     11  C   UNL d   1       3.304   1.977   3.113  0.00  0.00     0.103 A 
ATOM     12  C   UNL d   1       4.380   2.813   2.764  0.00  0.00     0.101 A 
ATOM     13  C   UNL d   1       4.790   2.884   1.422  0.00  0.00     0.040 A 
ATOM     14  C   UNL d   1       4.139   2.160   0.425  0.00  0.00     0.020 A 
BRANCH  11  15
ATOM     15  O   UNL d   1       2.909   1.895   4.422  0.00  0.00    -0.343 OA
BRANCH  15  16
ATOM     16  C   UNL d   1       1.527   1.649   4.702  0.00  0.00     0.129 C 
ATOM     17  C   UNL d   1       0.599   2.739   4.165  0.00  0.00     0.032 C 
ATOM     18  C   UNL d   1      -0.593   2.780   5.112  0.00  0.00     0.002 C 
ATOM     19  C   UNL d   1      -0.170   2.042   6.378  0.00  0.00     0.002 C 
ATOM     20  C   UNL d   1       1.310   1.733   6.212  0.00  0.00     0.032 C 
ENDBRANCH  15  16
ENDBRANCH  11  15
BRANCH  12  21
ATOM     21  O   UNL d   1       5.137   3.625   3.564  0.00  0.00    -0.353 OA
ATOM     22  C   UNL d   1       4.800   3.760   4.934  0.00  0.00     0.210 C 
ENDBRANCH  12  21
ENDBRANCH   3   9
BRANCH   4  23
ATOM     23  C   UNL d   1      -0.376  -0.845  -3.244  0.00  0.00     0.036 A 
ATOM     24  C   UNL d   1      -1.768  -0.718  -3.275  0.00  0.00     0.031 A 
ATOM     25  C   UNL d   1      -2.517  -1.336  -4.280  0.00  0.00     0.026 A 
ATOM     26  C   UNL d   1      -1.872  -2.079  -5.263  0.00  0.00     0.034 A 
ATOM     27  C   UNL d   1      -0.482  -2.170  -5.275  0.00  0.00     0.026 A 
ATOM     28 CL   UNL d   1      -2.798  -2.899  -6.457  0.00  0.00    -0.084 Cl
ATOM     29  C   UNL d   1       0.266  -1.542  -4.274  0.00  0.00     0.031 A 
ENDBRANCH   4  23
TORSDOF 5
