REMARK  3 active torsions:
REMARK  status: ('A' for Active; 'I' for Inactive)
REMARK    1  A    between atoms: N_2  and  S_1 
REMARK    2  A    between atoms: C_4  and  S_1 
REMARK    3  A    between atoms: C_8  and  C_3 
ROOT
ATOM      1  N   UNL d   1       0.381   0.273  -1.348  0.00  0.00    -0.236 N 
ATOM      2  C   UNL d   1       0.006  -0.809  -2.275  0.00  0.00     0.280 C 
ATOM      3  O   UNL d   1      -0.445  -0.175  -3.516  0.00  0.00    -0.318 OA
ATOM      4  C   UNL d   1       0.324   1.469  -2.087  0.00  0.00     0.081 A 
ATOM      5  C   UNL d   1      -0.176   1.161  -3.341  0.00  0.00     0.099 A 
ATOM      6  C   UNL d   1       0.582   2.780  -1.735  0.00  0.00     0.033 A 
ATOM      7  C   UNL d   1      -0.380   2.125  -4.312  0.00  0.00     0.039 A 
ATOM      8  C   UNL d   1       0.381   3.775  -2.699  0.00  0.00     0.002 A 
ATOM      9  C   UNL d   1      -0.087   3.449  -3.982  0.00  0.00     0.003 A 
ENDROOT
BRANCH   1  10
ATOM     10  S   UNL d   1       1.206   0.039   0.069  0.00  0.00     0.269 S 
ATOM     11  O   UNL d   1       1.627   1.293   0.656  0.00  0.00    -0.200 OA
ATOM     12  O   UNL d   1       2.186  -1.008  -0.126  0.00  0.00    -0.200 OA
BRANCH  10  13
ATOM     13  C   UNL d   1      -0.013  -0.625   1.186  0.00  0.00     0.103 A 
ATOM     14  C   UNL d   1       0.209  -1.909   1.713  0.00  0.00     0.050 A 
ATOM     15  C   UNL d   1      -0.624  -2.403   2.716  0.00  0.00     0.035 A 
ATOM     16 CL   UNL d   1      -0.332  -3.961   3.381  0.00  0.00    -0.084 Cl
ATOM     17  C   UNL d   1      -1.678  -1.633   3.199  0.00  0.00     0.025 A 
ATOM     18  C   UNL d   1      -1.906  -0.363   2.667  0.00  0.00     0.027 A 
ATOM     19  C   UNL d   1      -1.076   0.150   1.659  0.00  0.00     0.057 A 
ATOM     20 CL   UNL d   1      -1.466   1.726   1.080  0.00  0.00    -0.083 Cl
ENDBRANCH  10  13
ENDBRANCH   1  10
BRANCH   2  21
ATOM     21  C   UNL d   1       1.087  -1.798  -2.674  0.00  0.00    -0.007 A 
ATOM     22  C   UNL d   1       2.308  -1.361  -3.226  0.00  0.00     0.037 A 
ATOM     23  C   UNL d   1       3.324  -2.270  -3.540  0.00  0.00     0.056 A 
ATOM     24 CL   UNL d   1       4.798  -1.638  -4.184  0.00  0.00    -0.083 Cl
ATOM     25  C   UNL d   1       3.125  -3.636  -3.323  0.00  0.00     0.055 A 
ATOM     26  C   UNL d   1       1.906  -4.085  -2.808  0.00  0.00     0.026 A 
ATOM     27 CL   UNL d   1       4.337  -4.818  -3.668  0.00  0.00    -0.083 Cl
ATOM     28  C   UNL d   1       0.893  -3.175  -2.488  0.00  0.00     0.013 A 
ENDBRANCH   2  21
TORSDOF 3
