REMARK  3 active torsions:
REMARK  status: ('A' for Active; 'I' for Inactive)
REMARK    1  A    between atoms: C_9  and  C_3 
REMARK    2  A    between atoms: S_12  and  C_4 
REMARK    3  A    between atoms: C_10  and  C_11 
ROOT
ATOM      1  N   UNL d   1       1.007   0.023   0.695  0.00  0.00    -0.282 N 
ATOM      2  HN  UNL d   1       1.828   0.054   1.300  1.00  0.00     0.188 HD
ATOM      3  C   UNL d   1       0.566  -1.072   0.123  0.00  0.00     0.145 C 
ATOM      4  C   UNL d   1      -0.953   1.054  -0.293  0.00  0.00     0.173 C 
ATOM      5  N   UNL d   1      -1.398  -0.020  -0.879  0.00  0.00    -0.277 N 
ATOM      6  HN  UNL d   1      -2.277  -0.063  -1.395  1.00  0.00     0.189 HD
ATOM      7  N   UNL d   1      -0.547  -1.092  -0.723  0.00  0.00    -0.282 N 
ATOM      8  N   UNL d   1       0.243   1.123   0.389  0.00  0.00    -0.277 N 
ATOM      9  H   UNL d   1      -0.925  -1.994  -0.990  0.00  0.00     0.188 HD
ATOM     10  H   UNL d   1       0.458   1.997   0.852  0.00  0.00     0.189 HD
ENDROOT
BRANCH   3  11
ATOM     11  C   UNL d   1       1.247  -2.364   0.439  0.00  0.00     0.011 A 
ATOM     12  C   UNL d   1       1.830  -2.538   1.694  0.00  0.00     0.016 A 
ATOM     13  C   UNL d   1       2.379  -3.774   2.048  0.00  0.00     0.009 A 
ATOM     14  C   UNL d   1       2.371  -4.864   1.156  0.00  0.00    -0.051 A 
ATOM     15  C   UNL d   1       1.805  -4.655  -0.114  0.00  0.00     0.009 A 
ATOM     16  C   UNL d   1       1.250  -3.421  -0.473  0.00  0.00     0.016 A 
BRANCH  14  17
ATOM     17  C   UNL d   1       2.975  -6.215   1.582  0.00  0.00    -0.024 C 
ATOM     18  C   UNL d   1       2.894  -7.304   0.489  0.00  0.00     0.019 C 
ATOM     19  C   UNL d   1       4.466  -6.025   1.932  0.00  0.00     0.019 C 
ATOM     20  C   UNL d   1       2.229  -6.759   2.820  0.00  0.00     0.019 C 
ENDBRANCH  14  17
ENDBRANCH   3  11
BRANCH   4  21
ATOM     21  S   UNL d   1      -1.894   2.529  -0.286  0.00  0.00    -0.096 SA
ATOM     22  C   UNL d   1      -3.463   1.916  -0.937  0.00  0.00     0.099 C 
ENDBRANCH   4  21
TORSDOF 3
