REMARK  4 active torsions:
REMARK  status: ('A' for Active; 'I' for Inactive)
REMARK    1  A    between atoms: C_8  and  C_1 
REMARK    2  A    between atoms: C_10  and  N_6 
REMARK    3  A    between atoms: C_11  and  C_7 
REMARK       I    between atoms: N_9  and  C_8 
REMARK    4  A    between atoms: C_13  and  N_9 
ROOT
ATOM      1  C   UNL d   1      -0.119  -1.014   0.124  0.00  0.00     0.191 C 
ATOM      2  N   UNL d   1       1.193  -0.631  -0.100  0.00  0.00    -0.321 N 
ATOM      3  HN  UNL d   1       2.002  -1.229  -0.273  1.00  0.00     0.169 HD
ATOM      4  N   UNL d   1      -0.944   0.014   0.376  0.00  0.00    -0.272 N 
ATOM      5  HN  UNL d   1      -1.909  -0.011   0.705  1.00  0.00     0.189 HD
ATOM      6  N   UNL d   1      -0.179   1.088   0.088  0.00  0.00    -0.237 N 
ATOM      7  C   UNL d   1       1.152   0.693  -0.036  0.00  0.00     0.139 C 
ENDROOT
BRANCH   1   8
ATOM      8  C   UNL d   1      -0.582  -2.420   0.083  0.00  0.00     0.291 C 
ATOM      9  N   UNL d   1       0.455  -3.332  -0.105  0.00  0.00    -0.320 N 
ATOM     10  H   UNL d   1       1.387  -2.932  -0.089  0.00  0.00     0.169 HD
ATOM     11  O   UNL d   1      -1.764  -2.715   0.222  0.00  0.00    -0.264 OA
BRANCH   9  12
ATOM     12  C   UNL d   1       0.333  -4.736  -0.190  0.00  0.00     0.035 A 
ATOM     13  C   UNL d   1      -0.888  -5.391  -0.375  0.00  0.00     0.029 A 
ATOM     14  C   UNL d   1      -0.956  -6.788  -0.396  0.00  0.00     0.002 A 
ATOM     15  C   UNL d   1       0.199  -7.546  -0.235  0.00  0.00     0.000 A 
ATOM     16  C   UNL d   1       1.427  -6.905  -0.083  0.00  0.00     0.002 A 
ATOM     17  C   UNL d   1       1.496  -5.506  -0.075  0.00  0.00     0.029 A 
ENDBRANCH   9  12
ENDBRANCH   1   8
BRANCH   7  18
ATOM     18  C   UNL d   1       2.323   1.583  -0.049  0.00  0.00     0.010 A 
ATOM     19  C   UNL d   1       3.437   1.250  -0.830  0.00  0.00     0.015 A 
ATOM     20  C   UNL d   1       4.540   2.106  -0.901  0.00  0.00     0.001 A 
ATOM     21  C   UNL d   1       4.545   3.304  -0.186  0.00  0.00     0.000 A 
ATOM     22  C   UNL d   1       3.463   3.630   0.625  0.00  0.00     0.001 A 
ATOM     23  C   UNL d   1       2.369   2.764   0.710  0.00  0.00     0.015 A 
ENDBRANCH   7  18
BRANCH   6  24
ATOM     24  C   UNL d   1      -0.784   2.358  -0.096  0.00  0.00     0.058 A 
ATOM     25  C   UNL d   1      -1.934   2.685   0.636  0.00  0.00     0.031 A 
ATOM     26  C   UNL d   1      -2.515   3.946   0.490  0.00  0.00     0.002 A 
ATOM     27  C   UNL d   1      -1.979   4.864  -0.413  0.00  0.00     0.000 A 
ATOM     28  C   UNL d   1      -0.862   4.525  -1.173  0.00  0.00     0.002 A 
ATOM     29  C   UNL d   1      -0.262   3.274  -1.018  0.00  0.00     0.031 A 
ENDBRANCH   6  24
TORSDOF 4
