REMARK  4 active torsions:
REMARK  status: ('A' for Active; 'I' for Inactive)
REMARK    1  A    between atoms: C_9  and  N_1 
REMARK    2  A    between atoms: C_5  and  C_4 
REMARK    3  A    between atoms: C_8  and  C_6 
REMARK    4  A    between atoms: O_19  and  C_16 
ROOT
ATOM      1  N   UNL d   1       0.142  -1.106   0.126  0.00  0.00    -0.283 N 
ATOM      2  N   UNL d   1       1.147  -0.184   0.039  0.00  0.00    -0.301 N 
ATOM      3  HN  UNL d   1       2.149  -0.380   0.046  1.00  0.00     0.187 HD
ATOM      4  C   UNL d   1      -1.195  -0.514   0.046  0.00  0.00     0.150 A 
ATOM      5  C   UNL d   1       0.593   0.987  -0.053  0.00  0.00     0.038 A 
ATOM      6  C   UNL d   1      -0.914   0.985  -0.064  0.00  0.00     0.091 A 
ENDROOT
BRANCH   4   7
ATOM      7  C   UNL d   1      -2.087  -0.893   1.225  0.00  0.00     0.010 A 
ATOM      8  C   UNL d   1      -1.714  -0.695   2.575  0.00  0.00     0.044 A 
ATOM      9 CL   UNL d   1      -0.249   0.085   3.069  0.00  0.00    -0.084 Cl
ATOM     10  C   UNL d   1      -2.543  -1.106   3.631  0.00  0.00     0.024 A 
ATOM     11  C   UNL d   1      -3.761  -1.722   3.378  0.00  0.00     0.003 A 
ATOM     12  C   UNL d   1      -4.163  -1.911   2.064  0.00  0.00     0.024 A 
ATOM     13  C   UNL d   1      -3.348  -1.492   1.002  0.00  0.00     0.044 A 
ATOM     14 CL   UNL d   1      -4.008  -1.734  -0.583  0.00  0.00    -0.084 Cl
ENDBRANCH   4   7
BRANCH   1  15
ATOM     15  C   UNL d   1       0.428  -2.469   0.064  0.00  0.00     0.051 A 
ATOM     16  C   UNL d   1       1.651  -2.962   0.544  0.00  0.00     0.031 A 
ATOM     17  C   UNL d   1       1.944  -4.331   0.547  0.00  0.00     0.002 A 
ATOM     18  C   UNL d   1       1.021  -5.240   0.045  0.00  0.00     0.000 A 
ATOM     19  C   UNL d   1      -0.187  -4.780  -0.465  0.00  0.00     0.002 A 
ATOM     20  C   UNL d   1      -0.477  -3.410  -0.452  0.00  0.00     0.031 A 
ENDBRANCH   1  15
BRANCH   5  21
ATOM     21  C   UNL d   1       1.362   2.250  -0.143  0.00  0.00    -0.012 A 
ATOM     22  C   UNL d   1       2.761   2.206  -0.117  0.00  0.00     0.016 A 
ATOM     23  C   UNL d   1       3.512   3.386  -0.196  0.00  0.00     0.037 A 
ATOM     24  C   UNL d   1       2.867   4.619  -0.300  0.00  0.00     0.068 A 
ATOM     25  C   UNL d   1       1.473   4.661  -0.343  0.00  0.00     0.037 A 
ATOM     26  C   UNL d   1       0.719   3.487  -0.257  0.00  0.00     0.016 A 
BRANCH  24  27
ATOM     27  O   UNL d   1       3.484   5.834  -0.402  0.00  0.00    -0.356 OA
ATOM     28  C   UNL d   1       4.797   5.914   0.141  0.00  0.00     0.210 C 
ENDBRANCH  24  27
ENDBRANCH   5  21
TORSDOF 4
