REMARK  5 active torsions:
REMARK  status: ('A' for Active; 'I' for Inactive)
REMARK    1  A    between atoms: C_10  and  C_1 
REMARK    2  A    between atoms: C_18  and  C_2 
REMARK    3  A    between atoms: C_3  and  C_11 
REMARK    4  A    between atoms: C_4  and  N_5 
REMARK    5  A    between atoms: N_9  and  C_10 
ROOT
ATOM      1  N   UNL d   1       3.616  -1.928  -0.330  0.00  0.00    -0.364 N 
ATOM      2  N   UNL d   1       3.365   1.011  -0.254  0.00  0.00     0.096 N 
ATOM      3  C   UNL d   1       2.890  -1.237  -1.402  0.00  0.00     0.154 C 
ATOM      4  C   UNL d   1       3.678  -1.231   0.956  0.00  0.00     0.154 C 
ATOM      5  C   UNL d   1       4.120   0.241   0.758  0.00  0.00     0.292 C 
ATOM      6  C   UNL d   1       3.354   0.233  -1.516  0.00  0.00     0.292 C 
ENDROOT
BRANCH   2   7
ATOM      7  C   UNL d   1       2.033   1.373   0.239  0.00  0.00     0.315 C 
BRANCH   7   8
ATOM      8  C   UNL d   1       1.315   2.275  -0.716  0.00  0.00     0.016 A 
ATOM      9  C   UNL d   1       1.724   3.521  -1.303  0.00  0.00     0.067 A 
ATOM     10  N   UNL d   1       0.788   3.969  -2.160  0.00  0.00    -0.300 N 
ATOM     11  N   UNL d   1      -0.200   3.074  -2.089  0.00  0.00    -0.311 N 
ATOM     12  HN  UNL d   1       0.825   4.809  -2.738  1.00  0.00     0.187 HD
ATOM     13  C   UNL d   1       0.053   2.050  -1.233  0.00  0.00     0.118 A 
ATOM     14  H   UNL d   1      -1.024   3.227  -2.659  0.00  0.00     0.186 HD
BRANCH   9  15
ATOM     15  C   UNL d   1       2.952   4.297  -1.099  0.00  0.00    -0.007 A 
ATOM     16  C   UNL d   1       3.581   4.919  -2.190  0.00  0.00     0.014 A 
ATOM     17  C   UNL d   1       4.728   5.694  -2.007  0.00  0.00     0.001 A 
ATOM     18  C   UNL d   1       5.257   5.865  -0.729  0.00  0.00     0.000 A 
ATOM     19  C   UNL d   1       4.639   5.259   0.364  0.00  0.00     0.001 A 
ATOM     20  C   UNL d   1       3.489   4.484   0.180  0.00  0.00     0.014 A 
ENDBRANCH   9  15
ENDBRANCH   7   8
ENDBRANCH   2   7
BRANCH   1  21
ATOM     21  C   UNL d   1       3.777  -3.295  -0.451  0.00  0.00     0.103 A 
ATOM     22  C   UNL d   1       3.773  -4.149   0.650  0.00  0.00     0.064 A 
ATOM     23  C   UNL d   1       4.038  -5.519   0.497  0.00  0.00     0.052 A 
ATOM     24  C   UNL d   1       4.322  -6.002  -0.778  0.00  0.00     0.033 A 
ATOM     25  C   UNL d   1       4.290  -5.107  -1.826  0.00  0.00     0.090 A 
ATOM     26  N   UNL d   1       4.012  -3.794  -1.683  0.00  0.00    -0.352 N 
ATOM     27  HN  UNL d   1       3.979  -3.184  -2.500  1.00  0.00     0.166 HD
BRANCH  23  28
ATOM     28  C   UNL d   1       4.033  -6.447   1.679  0.00  0.00     0.417 C 
ATOM     29  F   UNL d   1       3.658  -5.847   2.842  0.00  0.00    -0.166 F 
ATOM     30  F   UNL d   1       3.184  -7.498   1.512  0.00  0.00    -0.166 F 
ATOM     31  F   UNL d   1       5.258  -6.991   1.917  0.00  0.00    -0.166 F 
ENDBRANCH  23  28
ENDBRANCH   1  21
TORSDOF 5
