REMARK  5 active torsions:
REMARK  status: ('A' for Active; 'I' for Inactive)
REMARK    1  A    between atoms: C_3  and  C_1 
REMARK    2  A    between atoms: C_8  and  C_3 
REMARK    3  A    between atoms: C_10  and  C_8 
REMARK    4  A    between atoms: N_9  and  C_10 
REMARK    5  A    between atoms: C_11  and  N_9 
ROOT
ATOM      1  C   UNL d   1       0.356   5.113  -0.064  0.00  0.00     0.100 C 
ENDROOT
BRANCH   1   2
ATOM      2  N   UNL d   1       1.473   6.053  -0.214  0.00  0.00    -0.293 NA
ATOM      3  H   UNL d   1       1.183   7.011  -0.016  0.00  0.00     0.127 HD
BRANCH   2   4
ATOM      4  C   UNL d   1       2.233   6.042  -1.392  0.00  0.00     0.008 A 
ATOM      5  C   UNL d   1       1.747   5.634  -2.639  0.00  0.00     0.023 A 
ATOM      6  C   UNL d   1       2.568   5.650  -3.771  0.00  0.00     0.002 A 
ATOM      7  C   UNL d   1       3.882   6.101  -3.675  0.00  0.00     0.000 A 
ATOM      8  C   UNL d   1       4.365   6.558  -2.453  0.00  0.00     0.002 A 
ATOM      9  C   UNL d   1       3.539   6.543  -1.327  0.00  0.00     0.023 A 
ENDBRANCH   2   4
ENDBRANCH   1   2
BRANCH   1  10
ATOM     10  C   UNL d   1       0.872   3.678  -0.004  0.00  0.00     0.099 C 
BRANCH  10  11
ATOM     11  C   UNL d   1      -0.249   2.678   0.202  0.00  0.00     0.167 C 
ATOM     12  O   UNL d   1      -1.411   3.063   0.343  0.00  0.00    -0.292 OA
BRANCH  11  13
ATOM     13  C   UNL d   1       0.149   1.272   0.216  0.00  0.00     0.050 A 
ATOM     14  S   UNL d   1      -1.041   0.059   0.454  0.00  0.00    -0.098 SA
ATOM     15  C   UNL d   1       0.114  -1.197   0.344  0.00  0.00     0.050 A 
ATOM     16  C   UNL d   1       1.383  -0.713   0.129  0.00  0.00     0.009 A 
ATOM     17  C   UNL d   1       1.405   0.710   0.056  0.00  0.00     0.023 A 
ENDBRANCH  11  13
ENDBRANCH  10  11
ENDBRANCH   1  10
TORSDOF 5
