REMARK  6 active torsions:
REMARK  status: ('A' for Active; 'I' for Inactive)
REMARK    1  A    between atoms: C_5  and  C_1 
REMARK    2  A    between atoms: O_18  and  C_2 
REMARK    3  A    between atoms: C_4  and  O_11 
REMARK    4  A    between atoms: O_19  and  C_5 
REMARK    5  A    between atoms: O_11  and  C_12 
REMARK    6  A    between atoms: C_21  and  O_19 
ROOT
ATOM      1  C   UNL d   1      -2.309  -0.380  -0.068  0.00  0.00     0.088 A 
ATOM      2  C   UNL d   1      -1.424   0.700  -0.088  0.00  0.00     0.096 A 
ATOM      3  C   UNL d   1      -0.030   0.478  -0.086  0.00  0.00     0.028 A 
ATOM      4  N   UNL d   1      -0.432  -1.905  -0.073  0.00  0.00    -0.364 N 
ATOM      5  HN  UNL d   1      -0.080  -2.862  -0.082  1.00  0.00     0.165 HD
ATOM      6  C   UNL d   1      -1.763  -1.651  -0.066  0.00  0.00     0.108 A 
ATOM      7  C   UNL d   1       0.409  -0.861  -0.069  0.00  0.00     0.045 A 
ATOM      8  C   UNL d   1       0.917   1.530  -0.069  0.00  0.00     0.053 A 
ATOM      9  C   UNL d   1       2.280   1.259   0.027  0.00  0.00     0.079 A 
ATOM     10  C   UNL d   1       1.773  -1.110  -0.036  0.00  0.00     0.033 A 
ATOM     11  C   UNL d   1       2.700  -0.069   0.010  0.00  0.00     0.039 A 
ENDROOT
BRANCH   1  12
ATOM     12  C   UNL d   1      -3.765  -0.168   0.049  0.00  0.00     0.297 C 
ATOM     13  O   UNL d   1      -4.254   0.946   0.160  0.00  0.00    -0.259 OA
BRANCH  12  14
ATOM     14  O   UNL d   1      -4.414  -1.351   0.124  0.00  0.00    -0.318 OA
BRANCH  14  15
ATOM     15  C   UNL d   1      -5.737  -1.303   0.677  0.00  0.00     0.174 C 
ATOM     16  C   UNL d   1      -5.616  -1.427   2.185  0.00  0.00     0.034 C 
ENDBRANCH  14  15
ENDBRANCH  12  14
ENDBRANCH   1  12
BRANCH   2  17
ATOM     17  O   UNL d   1      -1.864   2.004  -0.071  0.00  0.00    -0.359 OA
ATOM     18  H   UNL d   1      -2.843   2.020   0.011  0.00  0.00     0.217 HD
ENDBRANCH   2  17
BRANCH   9  19
ATOM     19  O   UNL d   1       3.281   2.173   0.116  0.00  0.00    -0.255 OA
BRANCH  19  20
ATOM     20  C   UNL d   1       3.014   3.452   0.677  0.00  0.00     0.530 C 
ATOM     21  F   UNL d   1       1.884   3.502   1.413  0.00  0.00    -0.144 F 
ATOM     22  F   UNL d   1       4.044   3.780   1.491  0.00  0.00    -0.144 F 
ATOM     23  F   UNL d   1       2.945   4.373  -0.307  0.00  0.00    -0.144 F 
ENDBRANCH  19  20
ENDBRANCH   9  19
TORSDOF 6
