REMARK  7 active torsions:
REMARK  status: ('A' for Active; 'I' for Inactive)
REMARK    1  A    between atoms: C_8  and  C_1 
REMARK    2  A    between atoms: C_7  and  C_2 
REMARK    3  A    between atoms: C_9  and  C_3 
REMARK    4  A    between atoms: O_12  and  C_7 
REMARK    5  A    between atoms: O_13  and  C_8 
REMARK    6  A    between atoms: C_19  and  O_12 
REMARK    7  A    between atoms: C_18  and  O_13 
ROOT
ATOM      1  C   UNL d   1      -1.298  -0.983   0.145  0.00  0.00     0.052 C 
ATOM      2  C   UNL d   1       1.268  -1.005   0.133  0.00  0.00     0.052 C 
ATOM      3  C   UNL d   1      -0.016  -1.818  -0.048  0.00  0.00     0.100 C 
ATOM      4  C   UNL d   1      -1.234   0.372   0.086  0.00  0.00     0.018 C 
ATOM      5  C   UNL d   1       1.224   0.348   0.079  0.00  0.00     0.018 C 
ATOM      6  N   UNL d   1       0.005   0.985  -0.057  0.00  0.00    -0.362 N 
ATOM      7  C   UNL d   1      -2.367   1.368   0.160  0.00  0.00     0.069 C 
ATOM      8  C   UNL d   1       2.432   1.248   0.150  0.00  0.00     0.069 C 
ATOM      9  H   UNL d   1       0.015   2.002  -0.077  0.00  0.00     0.165 HD
ENDROOT
BRANCH   3  10
ATOM     10  C   UNL d   1      -0.036  -2.479  -1.441  0.00  0.00    -0.045 A 
ATOM     11  C   UNL d   1      -0.115  -3.874  -1.574  0.00  0.00     0.008 A 
ATOM     12  C   UNL d   1      -0.139  -4.467  -2.840  0.00  0.00     0.001 A 
ATOM     13  C   UNL d   1      -0.097  -3.678  -3.988  0.00  0.00     0.000 A 
ATOM     14  C   UNL d   1      -0.030  -2.292  -3.874  0.00  0.00     0.001 A 
ATOM     15  C   UNL d   1       0.002  -1.699  -2.612  0.00  0.00     0.008 A 
ENDBRANCH   3  10
BRANCH   2  16
ATOM     16  C   UNL d   1       2.555  -1.729   0.285  0.00  0.00     0.292 C 
ATOM     17  O   UNL d   1       3.654  -1.259   0.020  0.00  0.00    -0.259 OA
BRANCH  16  18
ATOM     18  O   UNL d   1       2.344  -2.999   0.714  0.00  0.00    -0.318 OA
BRANCH  18  19
ATOM     19  C   UNL d   1       3.471  -3.877   0.574  0.00  0.00     0.174 C 
ATOM     20  C   UNL d   1       3.428  -4.486  -0.816  0.00  0.00     0.034 C 
ENDBRANCH  18  19
ENDBRANCH  16  18
ENDBRANCH   2  16
BRANCH   1  21
ATOM     21  C   UNL d   1      -2.507  -1.832   0.342  0.00  0.00     0.292 C 
ATOM     22  O   UNL d   1      -2.462  -3.014   0.674  0.00  0.00    -0.259 OA
BRANCH  21  23
ATOM     23  O   UNL d   1      -3.631  -1.163   0.011  0.00  0.00    -0.318 OA
BRANCH  23  24
ATOM     24  C   UNL d   1      -4.807  -1.946  -0.220  0.00  0.00     0.174 C 
ATOM     25  C   UNL d   1      -4.835  -2.283  -1.699  0.00  0.00     0.034 C 
ENDBRANCH  23  24
ENDBRANCH  21  23
ENDBRANCH   1  21
TORSDOF 7
