REMARK  0 active torsions:
REMARK  status: ('A' for Active; 'I' for Inactive)
ROOT
ATOM      1  C   UNL d   1      -0.703   1.237   0.001  0.00  0.00     0.080 A 
ATOM      2  C   UNL d   1      -1.409   0.018   0.000  0.00  0.00     0.079 A 
ATOM      3  C   UNL d   1       0.709   1.241   0.001  0.00  0.00     0.074 A 
ATOM      4  C   UNL d   1      -0.700  -1.190   0.001  0.00  0.00     0.058 A 
ATOM      5  C   UNL d   1       1.401   0.019  -0.001  0.00  0.00     0.031 A 
ATOM      6  C   UNL d   1       0.697  -1.189  -0.000  0.00  0.00     0.045 A 
ATOM      7 CL   UNL d   1      -1.578   2.745   0.003  0.00  0.00    -0.081 Cl
ATOM      8 CL   UNL d   1       1.576   2.749   0.002  0.00  0.00    -0.081 Cl
ATOM      9 CL   UNL d   1      -3.149  -0.002  -0.002  0.00  0.00    -0.081 Cl
ATOM     10 CL   UNL d   1      -1.482  -2.734   0.003  0.00  0.00    -0.082 Cl
ATOM     11  I   UNL d   1       3.501  -0.139  -0.007  0.00  0.00    -0.043 I 
ENDROOT
TORSDOF 0
