REMARK  3 active torsions:
REMARK  status: ('A' for Active; 'I' for Inactive)
REMARK    1  A    between atoms: N_9  and  C_3 
REMARK    2  A    between atoms: C_8  and  N_4 
REMARK    3  A    between atoms: S_10  and  C_7 
ROOT
ATOM      1  N   UNL d   1      -0.372  -1.147  -0.201  0.00  0.00    -0.311 N 
ATOM      2  HN  UNL d   1      -0.741  -2.077  -0.398  1.00  0.00     0.170 HD
ATOM      3  C   UNL d   1       0.876  -0.746  -0.217  0.00  0.00     0.179 C 
ATOM      4  N   UNL d   1       0.926   0.629   0.035  0.00  0.00    -0.228 N 
ATOM      5  N   UNL d   1      -0.313   1.058   0.388  0.00  0.00    -0.270 N 
ATOM      6  HN  UNL d   1      -0.598   1.969   0.746  1.00  0.00     0.190 HD
ATOM      7  C   UNL d   1      -1.059  -0.021   0.145  0.00  0.00     0.161 C 
ENDROOT
BRANCH   4   8
ATOM      8  C   UNL d   1       2.022   1.526  -0.038  0.00  0.00     0.059 A 
ATOM      9  C   UNL d   1       3.125   1.249  -0.856  0.00  0.00     0.031 A 
ATOM     10  C   UNL d   1       4.192   2.148  -0.916  0.00  0.00     0.002 A 
ATOM     11  C   UNL d   1       4.167   3.316  -0.154  0.00  0.00     0.000 A 
ATOM     12  C   UNL d   1       3.065   3.601   0.650  0.00  0.00     0.002 A 
ATOM     13  C   UNL d   1       1.983   2.719   0.697  0.00  0.00     0.031 A 
ENDBRANCH   4   8
BRANCH   3  14
ATOM     14  N   UNL d   1       1.950  -1.558  -0.352  0.00  0.00    -0.272 NA
ATOM     15  H   UNL d   1       1.740  -2.549  -0.260  0.00  0.00     0.127 HD
ATOM     16  H   UNL d   1       2.804  -1.308   0.134  0.00  0.00     0.127 HD
ENDBRANCH   3  14
BRANCH   7  17
ATOM     17  S   UNL d   1      -2.795   0.044   0.294  0.00  0.00    -0.097 SA
ATOM     18  C   UNL d   1      -3.231  -1.635  -0.201  0.00  0.00     0.099 C 
ENDBRANCH   7  17
TORSDOF 3
