REMARK  5 active torsions:
REMARK  status: ('A' for Active; 'I' for Inactive)
REMARK       I    between atoms: N_3  and  C_1 
REMARK    1  A    between atoms: C_7  and  C_1 
REMARK    2  A    between atoms: C_2  and  C_6 
REMARK    3  A    between atoms: O_8  and  C_2 
REMARK    4  A    between atoms: C_6  and  N_3 
REMARK    5  A    between atoms: C_9  and  C_7 
ROOT
ATOM      1  C   UNL d   1       0.993   0.141  -0.024  0.00  0.00     0.222 C 
ATOM      2  N   UNL d   1       0.317  -0.230   1.114  0.00  0.00    -0.351 N 
ATOM      3  O   UNL d   1       0.399   0.511  -1.035  0.00  0.00    -0.273 OA
ATOM      4  H   UNL d   1       0.809  -0.481   1.968  0.00  0.00     0.163 HD
ENDROOT
BRANCH   1   5
ATOM      5  C   UNL d   1       2.505   0.032   0.051  0.00  0.00     0.141 C 
BRANCH   5   6
ATOM      6  C   UNL d   1       3.275   1.328   0.166  0.00  0.00    -0.050 A 
ATOM      7  C   UNL d   1       4.590   1.283   0.662  0.00  0.00     0.007 A 
ATOM      8  C   UNL d   1       5.382   2.433   0.706  0.00  0.00     0.001 A 
ATOM      9  C   UNL d   1       4.873   3.646   0.251  0.00  0.00     0.000 A 
ATOM     10  C   UNL d   1       3.573   3.708  -0.245  0.00  0.00     0.001 A 
ATOM     11  C   UNL d   1       2.781   2.557  -0.293  0.00  0.00     0.007 A 
ENDBRANCH   5   6
ENDBRANCH   1   5
BRANCH   2  12
ATOM     12  C   UNL d   1      -1.133  -0.242   1.130  0.00  0.00     0.232 C 
BRANCH  12  13
ATOM     13  C   UNL d   1      -1.685  -0.632   2.492  0.00  0.00     0.158 C 
ATOM     14  O   UNL d   1      -0.990  -0.896   3.463  0.00  0.00    -0.649 OA
BRANCH  13  15
ATOM     15  O   UNL d   1      -3.037  -0.668   2.530  0.00  0.00    -0.775 OA
ATOM     16  H   UNL d   1      -3.469  -0.437   1.685  0.00  0.00     0.167 HD
ENDBRANCH  13  15
ENDBRANCH  12  13
ENDBRANCH   2  12
TORSDOF 5
