REMARK  4 active torsions:
REMARK  status: ('A' for Active; 'I' for Inactive)
REMARK    1  A    between atoms: N_2  and  C_1 
REMARK       I    between atoms: C_8  and  N_2 
REMARK    2  A    between atoms: N_5  and  C_3 
REMARK    3  A    between atoms: C_4  and  C_6 
REMARK    4  A    between atoms: O_15  and  C_4 
REMARK       I    between atoms: C_9  and  N_5 
ROOT
ATOM      1  C   UNL d   1       1.508  -0.242   0.176  0.00  0.00     0.062 A 
ATOM      2  C   UNL d   1       0.669  -1.362   0.007  0.00  0.00     0.061 A 
ATOM      3  C   UNL d   1      -0.420   1.256   0.121  0.00  0.00     0.041 A 
ATOM      4  C   UNL d   1       0.962   1.054   0.208  0.00  0.00     0.049 A 
ATOM      5  C   UNL d   1      -0.717  -1.137  -0.139  0.00  0.00     0.033 A 
ATOM      6  C   UNL d   1      -1.255   0.156  -0.061  0.00  0.00     0.020 A 
ENDROOT
BRANCH   1   7
ATOM      7  N   UNL d   1       2.893  -0.378   0.375  0.00  0.00    -0.326 N 
ATOM      8  C   UNL d   1       3.848   0.313  -0.338  0.00  0.00     0.218 C 
ATOM      9  O   UNL d   1       3.625   1.127  -1.232  0.00  0.00    -0.274 OA
ATOM     10  C   UNL d   1       5.251  -0.025   0.097  0.00  0.00     0.117 C 
ATOM     11  H   UNL d   1       3.200  -1.281   0.737  0.00  0.00     0.169 HD
ENDBRANCH   1   7
BRANCH   2  12
ATOM     12  N   UNL d   1       1.068  -2.719  -0.132  0.00  0.00    -0.326 N 
ATOM     13  C   UNL d   1       2.272  -3.322   0.170  0.00  0.00     0.218 C 
ATOM     14  O   UNL d   1       3.208  -2.820   0.784  0.00  0.00    -0.274 OA
ATOM     15  C   UNL d   1       2.341  -4.759  -0.273  0.00  0.00     0.117 C 
ATOM     16  H   UNL d   1       0.343  -3.346  -0.458  0.00  0.00     0.169 HD
ENDBRANCH   2  12
BRANCH   3  17
ATOM     17  C   UNL d   1      -0.940   2.644   0.276  0.00  0.00     0.293 C 
ATOM     18  O   UNL d   1      -0.224   3.621   0.421  0.00  0.00    -0.259 OA
BRANCH  17  19
ATOM     19  O   UNL d   1      -2.298   2.653   0.280  0.00  0.00    -0.323 OA
ATOM     20  C   UNL d   1      -2.860   3.947   0.506  0.00  0.00     0.213 C 
ENDBRANCH  17  19
ENDBRANCH   3  17
TORSDOF 4
