REMARK  3 active torsions:
REMARK  status: ('A' for Active; 'I' for Inactive)
REMARK    1  A    between atoms: C_2  and  S_1 
REMARK    2  A    between atoms: N_4  and  S_1 
REMARK    3  A    between atoms: C_15  and  N_6 
ROOT
ATOM      1  N   UNL d   1       0.243  -1.045   0.121  0.00  0.00    -0.303 N 
ATOM      2  N   UNL d   1      -0.300  -1.526   2.911  0.00  0.00    -0.378 N 
ATOM      3  C   UNL d   1      -0.794  -0.270   0.866  0.00  0.00     0.155 C 
ATOM      4  C   UNL d   1       0.462  -2.402   0.710  0.00  0.00     0.155 C 
ATOM      5  C   UNL d   1       0.692  -2.385   2.240  0.00  0.00     0.143 C 
ATOM      6  C   UNL d   1      -0.423  -0.172   2.355  0.00  0.00     0.143 C 
ENDROOT
BRANCH   1   7
ATOM      7  S   UNL d   1       1.595  -0.171  -0.397  0.00  0.00     0.267 S 
ATOM      8  O   UNL d   1       1.786   0.967   0.475  0.00  0.00    -0.200 OA
ATOM      9  O   UNL d   1       2.675  -1.083  -0.708  0.00  0.00    -0.200 OA
BRANCH   7  10
ATOM     10  C   UNL d   1       1.130   0.552  -1.958  0.00  0.00     0.121 A 
ATOM     11  S   UNL d   1       0.761  -0.557  -3.213  0.00  0.00    -0.064 SA
ATOM     12  C   UNL d   1       0.424   0.699  -4.292  0.00  0.00     0.075 A 
ATOM     13 CL   UNL d   1      -0.042   0.332  -5.903  0.00  0.00    -0.076 Cl
ATOM     14  C   UNL d   1       0.560   1.947  -3.742  0.00  0.00     0.033 A 
ATOM     15  C   UNL d   1       0.972   1.863  -2.377  0.00  0.00     0.035 A 
ENDBRANCH   7  10
ENDBRANCH   1   7
BRANCH   2  16
ATOM     16  C   UNL d   1      -1.099  -1.959   3.948  0.00  0.00     0.030 A 
ATOM     17  C   UNL d   1      -0.644  -2.881   4.900  0.00  0.00     0.029 A 
ATOM     18  C   UNL d   1      -1.449  -3.296   5.969  0.00  0.00     0.002 A 
ATOM     19  C   UNL d   1      -2.741  -2.800   6.106  0.00  0.00     0.000 A 
ATOM     20  C   UNL d   1      -3.225  -1.892   5.173  0.00  0.00     0.002 A 
ATOM     21  C   UNL d   1      -2.412  -1.483   4.112  0.00  0.00     0.029 A 
ENDBRANCH   2  16
TORSDOF 3
