REMARK  5 active torsions:
REMARK  status: ('A' for Active; 'I' for Inactive)
REMARK    1  A    between atoms: O_2  and  C_1 
REMARK    2  A    between atoms: N_5  and  C_1 
REMARK    3  A    between atoms: C_3  and  O_2 
REMARK    4  A    between atoms: C_11  and  N_5 
REMARK    5  A    between atoms: C_12  and  N_5 
ROOT
ATOM      1  C   UNL d   1      -0.973  -0.523   1.191  0.00  0.00     0.122 A 
ATOM      2  C   UNL d   1      -1.761  -1.679   1.170  0.00  0.00     0.069 A 
ATOM      3  C   UNL d   1      -1.460   0.650   1.776  0.00  0.00     0.069 A 
ATOM      4 CL   UNL d   1      -0.492   2.059   2.013  0.00  0.00    -0.081 Cl
ATOM      5 CL   UNL d   1      -1.162  -3.168   0.536  0.00  0.00    -0.081 Cl
ATOM      6  C   UNL d   1      -3.555  -0.478   2.259  0.00  0.00     0.003 A 
ATOM      7  C   UNL d   1      -2.766   0.675   2.285  0.00  0.00     0.027 A 
ATOM      8  C   UNL d   1      -3.051  -1.655   1.709  0.00  0.00     0.027 A 
ENDROOT
BRANCH   1   9
ATOM      9  O   UNL d   1       0.386  -0.661   0.778  0.00  0.00    -0.281 OA
BRANCH   9  10
ATOM     10  C   UNL d   1       1.123   0.086  -0.146  0.00  0.00     0.217 C 
ATOM     11  S   UNL d   1       0.409   1.034  -1.318  0.00  0.00    -0.033 SA
BRANCH  10  12
ATOM     12  N   UNL d   1       2.492  -0.113  -0.014  0.00  0.00    -0.353 N 
BRANCH  12  13
ATOM     13  C   UNL d   1       3.302   1.002   0.485  0.00  0.00     0.121 C 
ATOM     14  C   UNL d   1       4.571   1.236  -0.317  0.00  0.00     0.026 C 
ENDBRANCH  12  13
BRANCH  12  15
ATOM     15  C   UNL d   1       3.008  -1.476   0.119  0.00  0.00     0.121 C 
ATOM     16  C   UNL d   1       3.023  -2.043   1.530  0.00  0.00     0.026 C 
ENDBRANCH  12  15
ENDBRANCH  10  12
ENDBRANCH   9  10
ENDBRANCH   1   9
TORSDOF 5
