REMARK  3 active torsions:
REMARK  status: ('A' for Active; 'I' for Inactive)
REMARK    1  A    between atoms: C_12  and  C_3 
REMARK    2  A    between atoms: C_13  and  C_4 
REMARK    3  A    between atoms: C_7  and  C_9 
ROOT
ATOM      1  N   UNL d   1       1.275   0.163  -0.066  0.00  0.00    -0.321 N 
ATOM      2  HN  UNL d   1       2.281   0.304  -0.148  1.00  0.00     0.169 HD
ATOM      3  C   UNL d   1       0.271   1.114   0.003  0.00  0.00     0.154 A 
ATOM      4  C   UNL d   1       0.609  -0.967   0.001  0.00  0.00     0.156 A 
ATOM      5  N   UNL d   1      -0.962   0.587   0.096  0.00  0.00    -0.241 N 
ATOM      6  HN  UNL d   1      -1.853   1.080   0.153  1.00  0.00     0.196 HD
ATOM      7  O   UNL d   1      -0.741  -0.788   0.096  0.00  0.00    -0.222 OA
ENDROOT
BRANCH   3   8
ATOM      8  C   UNL d   1       0.572   2.548  -0.005  0.00  0.00     0.078 A 
ATOM      9  N   UNL d   1      -0.464   3.420   0.120  0.00  0.00    -0.362 N 
ATOM     10  C   UNL d   1      -0.173   4.741   0.147  0.00  0.00     0.104 A 
ATOM     11  HN  UNL d   1      -1.426   3.089   0.191  1.00  0.00     0.165 HD
ATOM     12  C   UNL d   1       1.111   5.256   0.055  0.00  0.00     0.063 A 
ATOM     13  C   UNL d   1       2.162   4.346  -0.084  0.00  0.00     0.020 A 
ATOM     14  C   UNL d   1       1.892   2.980  -0.115  0.00  0.00     0.034 A 
BRANCH  12  15
ATOM     15  C   UNL d   1       1.357   6.732   0.114  0.00  0.00     0.418 C 
ATOM     16  F   UNL d   1       0.223   7.472   0.256  0.00  0.00    -0.166 F 
ATOM     17  F   UNL d   1       2.163   7.081   1.155  0.00  0.00    -0.166 F 
ATOM     18  F   UNL d   1       1.972   7.202  -1.006  0.00  0.00    -0.166 F 
ENDBRANCH  12  15
ENDBRANCH   3   8
BRANCH   4  19
ATOM     19  C   UNL d   1       1.122  -2.377   0.002  0.00  0.00     0.016 C 
ATOM     20  C   UNL d   1       2.657  -2.373  -0.119  0.00  0.00     0.023 C 
ATOM     21  C   UNL d   1       0.732  -3.072   1.317  0.00  0.00     0.023 C 
ATOM     22  C   UNL d   1       0.534  -3.150  -1.189  0.00  0.00     0.023 C 
ENDBRANCH   4  19
TORSDOF 3
