REMARK  6 active torsions:
REMARK  status: ('A' for Active; 'I' for Inactive)
REMARK    1  A    between atoms: C_13  and  C_1 
REMARK    2  A    between atoms: C_2  and  N_12 
REMARK    3  A    between atoms: N_8  and  C_2 
REMARK    4  A    between atoms: O_16  and  C_4 
REMARK    5  A    between atoms: N_12  and  N_6 
REMARK    6  A    between atoms: C_15  and  N_8 
ROOT
ATOM      1  N   UNL d   1       0.693   4.115   0.244  0.00  0.00    -0.309 N 
ATOM      2  HN  UNL d   1       1.608   3.706   0.438  1.00  0.00     0.186 HD
ATOM      3  C   UNL d   1      -0.393   3.408   0.241  0.00  0.00     0.121 C 
ENDROOT
BRANCH   1   4
ATOM      4  N   UNL d   1       0.532   5.438  -0.029  0.00  0.00    -0.276 N 
ATOM      5  H   UNL d   1      -0.358   5.768  -0.388  0.00  0.00     0.189 HD
BRANCH   4   6
ATOM      6  C   UNL d   1       1.578   6.334   0.051  0.00  0.00     0.191 C 
ATOM      7  S   UNL d   1       2.963   6.142   0.968  0.00  0.00    -0.039 SA
BRANCH   6   8
ATOM      8  N   UNL d   1       1.394   7.513  -0.631  0.00  0.00    -0.332 N 
ATOM      9  H   UNL d   1       1.982   8.275  -0.309  0.00  0.00     0.168 HD
BRANCH   8  10
ATOM     10  C   UNL d   1       0.804   7.689  -1.901  0.00  0.00     0.034 A 
ATOM     11  C   UNL d   1       0.500   8.994  -2.303  0.00  0.00     0.032 A 
ATOM     12  C   UNL d   1      -0.032   9.233  -3.573  0.00  0.00     0.044 A 
ATOM     13  C   UNL d   1      -0.225   8.171  -4.448  0.00  0.00     0.116 A 
ATOM     14  C   UNL d   1       0.097   6.873  -4.075  0.00  0.00     0.044 A 
ATOM     15  F   UNL d   1      -0.714   8.405  -5.673  0.00  0.00    -0.206 F 
ATOM     16  C   UNL d   1       0.607   6.629  -2.797  0.00  0.00     0.032 A 
ENDBRANCH   8  10
ENDBRANCH   6   8
ENDBRANCH   4   6
ENDBRANCH   1   4
BRANCH   3  17
ATOM     17  C   UNL d   1      -0.328   1.937   0.349  0.00  0.00     0.017 A 
ATOM     18  C   UNL d   1      -1.500   1.173   0.362  0.00  0.00     0.099 A 
ATOM     19  C   UNL d   1      -1.411  -0.224   0.350  0.00  0.00     0.069 A 
ATOM     20 CL   UNL d   1      -2.845  -1.184   0.338  0.00  0.00    -0.081 Cl
ATOM     21  C   UNL d   1      -0.170  -0.858   0.323  0.00  0.00     0.050 A 
ATOM     22  C   UNL d   1       0.992  -0.088   0.329  0.00  0.00     0.036 A 
ATOM     23  C   UNL d   1       0.920   1.302   0.347  0.00  0.00     0.039 A 
ATOM     24 CL   UNL d   1       2.526  -0.864   0.284  0.00  0.00    -0.084 Cl
BRANCH  18  25
ATOM     25  O   UNL d   1      -2.719   1.797   0.377  0.00  0.00    -0.358 OA
ATOM     26  H   UNL d   1      -3.407   1.103   0.424  0.00  0.00     0.217 HD
ENDBRANCH  18  25
ENDBRANCH   3  17
TORSDOF 6
