REMARK  4 active torsions:
REMARK  status: ('A' for Active; 'I' for Inactive)
REMARK    1  A    between atoms: C_2  and  C_1 
REMARK       I    between atoms: N_3  and  C_1 
REMARK    2  A    between atoms: C_7  and  N_3 
REMARK    3  A    between atoms: O_12  and  C_5 
REMARK    4  A    between atoms: O_13  and  C_6 
ROOT
ATOM      1  C   UNL d   1       0.686   0.343   0.045  0.00  0.00     0.261 C 
ATOM      2  N   UNL d   1       2.054   0.555   0.149  0.00  0.00    -0.323 N 
ATOM      3  O   UNL d   1      -0.161   1.217  -0.135  0.00  0.00    -0.267 OA
ATOM      4  H   UNL d   1       2.627  -0.265   0.299  0.00  0.00     0.169 HD
ENDROOT
BRANCH   1   5
ATOM      5  C   UNL d   1       0.204  -1.067   0.181  0.00  0.00     0.098 A 
ATOM      6  C   UNL d   1       0.631  -1.882   1.250  0.00  0.00     0.086 A 
ATOM      7  C   UNL d   1       0.013  -3.124   1.455  0.00  0.00     0.038 A 
ATOM      8  C   UNL d   1      -1.023  -3.550   0.625  0.00  0.00     0.005 A 
ATOM      9  C   UNL d   1      -1.429  -2.760  -0.446  0.00  0.00     0.038 A 
ATOM     10  C   UNL d   1      -0.825  -1.519  -0.676  0.00  0.00     0.086 A 
BRANCH   6  11
ATOM     11  O   UNL d   1       1.660  -1.428   2.036  0.00  0.00    -0.355 OA
ATOM     12  C   UNL d   1       1.723  -1.956   3.359  0.00  0.00     0.210 C 
ENDBRANCH   6  11
BRANCH  10  13
ATOM     13  O   UNL d   1      -1.145  -0.746  -1.765  0.00  0.00    -0.355 OA
ATOM     14  C   UNL d   1      -2.481  -0.851  -2.245  0.00  0.00     0.210 C 
ENDBRANCH  10  13
ENDBRANCH   1   5
BRANCH   2  15
ATOM     15  C   UNL d   1       2.718   1.806   0.088  0.00  0.00     0.035 A 
ATOM     16  C   UNL d   1       2.050   3.035   0.047  0.00  0.00     0.032 A 
ATOM     17  C   UNL d   1       2.757   4.239  -0.029  0.00  0.00     0.044 A 
ATOM     18  C   UNL d   1       4.143   4.218  -0.066  0.00  0.00     0.116 A 
ATOM     19  C   UNL d   1       4.831   3.014  -0.012  0.00  0.00     0.044 A 
ATOM     20  F   UNL d   1       4.820   5.370  -0.154  0.00  0.00    -0.206 F 
ATOM     21  C   UNL d   1       4.121   1.808   0.073  0.00  0.00     0.032 A 
ENDBRANCH   2  15
TORSDOF 4
