REMARK  3 active torsions:
REMARK  status: ('A' for Active; 'I' for Inactive)
REMARK    1  A    between atoms: C_14  and  N_9 
REMARK    2  A    between atoms: C_15  and  C_12 
REMARK    3  A    between atoms: C_18  and  C_14 
ROOT
ATOM      1  N   UNL d   1       1.222  -0.567  -0.022  0.00  0.00    -0.203 N 
ATOM      2  C   UNL d   1      -1.196  -0.619  -0.018  0.00  0.00     0.062 A 
ATOM      3  C   UNL d   1       1.203   0.823   0.037  0.00  0.00     0.133 A 
ATOM      4  C   UNL d   1      -1.132   0.711   0.049  0.00  0.00     0.116 A 
ATOM      5  C   UNL d   1       0.063  -1.389  -0.055  0.00  0.00     0.278 A 
ATOM      6  N   UNL d   1       2.495  -1.049  -0.042  0.00  0.00    -0.293 N 
ATOM      7  HN  UNL d   1       2.792  -2.024  -0.079  1.00  0.00     0.187 HD
ATOM      8  N   UNL d   1       0.010   1.460   0.078  0.00  0.00    -0.336 N 
ATOM      9  N   UNL d   1      -3.330   0.086   0.060  0.00  0.00    -0.338 N 
ATOM     10  C   UNL d   1      -2.522   1.206   0.090  0.00  0.00     0.271 A 
ATOM     11  C   UNL d   1       2.503   1.241   0.041  0.00  0.00     0.077 A 
ATOM     12  C   UNL d   1       3.275   0.047  -0.003  0.00  0.00     0.037 A 
ATOM     13  C   UNL d   1      -2.574  -1.150  -0.042  0.00  0.00     0.173 A 
ATOM     14  O   UNL d   1       0.116  -2.609  -0.103  0.00  0.00    -0.265 OA
ATOM     15  O   UNL d   1      -2.838   2.381   0.149  0.00  0.00    -0.266 OA
ATOM     16  H   UNL d   1      -0.114   2.472   0.120  0.00  0.00     0.168 HD
ENDROOT
BRANCH   9  17
ATOM     17  C   UNL d   1      -4.777   0.142   0.010  0.00  0.00     0.165 C 
BRANCH  17  18
ATOM     18  C   UNL d   1      -5.301   0.186  -1.404  0.00  0.00    -0.040 A 
ATOM     19  C   UNL d   1      -5.634  -0.994  -2.083  0.00  0.00     0.009 A 
ATOM     20  C   UNL d   1      -6.091  -0.947  -3.402  0.00  0.00     0.001 A 
ATOM     21  C   UNL d   1      -6.224   0.277  -4.054  0.00  0.00     0.000 A 
ATOM     22  C   UNL d   1      -5.903   1.458  -3.388  0.00  0.00     0.001 A 
ATOM     23  C   UNL d   1      -5.441   1.413  -2.072  0.00  0.00     0.009 A 
ENDBRANCH  17  18
ENDBRANCH   9  17
BRANCH  12  24
ATOM     24  C   UNL d   1       4.797  -0.043  -0.005  0.00  0.00    -0.007 C 
ATOM     25  C   UNL d   1       5.304  -1.499  -0.043  0.00  0.00     0.021 C 
ATOM     26  C   UNL d   1       5.364   0.693  -1.237  0.00  0.00     0.021 C 
ATOM     27  C   UNL d   1       5.362   0.623   1.268  0.00  0.00     0.021 C 
ENDBRANCH  12  24
TORSDOF 3
