REMARK  3 active torsions:
REMARK  status: ('A' for Active; 'I' for Inactive)
REMARK    1  A    between atoms: C_10  and  N_3 
REMARK    2  A    between atoms: C_7  and  C_4 
REMARK    3  A    between atoms: C_9  and  C_5 
ROOT
ATOM      1  N   UNL d   1       1.158  -0.169   0.084  0.00  0.00    -0.301 N 
ATOM      2  HN  UNL d   1       2.158  -0.361   0.131  1.00  0.00     0.187 HD
ATOM      3  N   UNL d   1       0.152  -1.092   0.080  0.00  0.00    -0.283 N 
ATOM      4  C   UNL d   1       0.599   1.002   0.015  0.00  0.00     0.038 A 
ATOM      5  C   UNL d   1      -1.185  -0.505   0.001  0.00  0.00     0.147 A 
ATOM      6  C   UNL d   1      -0.906   0.995  -0.000  0.00  0.00     0.091 A 
ENDROOT
BRANCH   4   7
ATOM      7  C   UNL d   1       1.358   2.274  -0.046  0.00  0.00    -0.011 A 
ATOM      8  C   UNL d   1       2.757   2.242  -0.074  0.00  0.00     0.025 A 
ATOM      9  C   UNL d   1       3.504   3.432  -0.122  0.00  0.00    -0.025 A 
ATOM     10  C   UNL d   1       4.908   3.420  -0.144  0.00  0.00     0.012 A 
ATOM     11  C   UNL d   1       2.828   4.675  -0.143  0.00  0.00    -0.026 A 
ATOM     12  C   UNL d   1       5.633   4.612  -0.176  0.00  0.00     0.001 A 
ATOM     13  C   UNL d   1       4.965   5.835  -0.186  0.00  0.00     0.001 A 
ATOM     14  C   UNL d   1       3.571   5.865  -0.174  0.00  0.00     0.012 A 
ATOM     15  C   UNL d   1       1.428   4.694  -0.130  0.00  0.00     0.013 A 
ATOM     16  C   UNL d   1       0.697   3.505  -0.082  0.00  0.00     0.014 A 
ENDBRANCH   4   7
BRANCH   3  17
ATOM     17  C   UNL d   1       0.426  -2.458   0.030  0.00  0.00     0.051 A 
ATOM     18  C   UNL d   1       1.627  -2.967   0.549  0.00  0.00     0.031 A 
ATOM     19  C   UNL d   1       1.892  -4.341   0.567  0.00  0.00     0.002 A 
ATOM     20  C   UNL d   1       0.969  -5.236   0.037  0.00  0.00     0.000 A 
ATOM     21  C   UNL d   1      -0.219  -4.757  -0.504  0.00  0.00     0.002 A 
ATOM     22  C   UNL d   1      -0.488  -3.385  -0.498  0.00  0.00     0.031 A 
ENDBRANCH   3  17
BRANCH   5  23
ATOM     23  C   UNL d   1      -2.082  -0.897   1.167  0.00  0.00    -0.033 A 
ATOM     24  C   UNL d   1      -1.560  -1.180   2.442  0.00  0.00     0.011 A 
ATOM     25  C   UNL d   1      -2.398  -1.549   3.495  0.00  0.00     0.024 A 
ATOM     26  C   UNL d   1      -3.772  -1.620   3.289  0.00  0.00     0.034 A 
ATOM     27  C   UNL d   1      -4.313  -1.324   2.040  0.00  0.00     0.024 A 
ATOM     28 CL   UNL d   1      -4.809  -2.072   4.585  0.00  0.00    -0.084 Cl
ATOM     29  C   UNL d   1      -3.473  -0.964   0.983  0.00  0.00     0.011 A 
ENDBRANCH   5  23
TORSDOF 3
