REMARK  6 active torsions:
REMARK  status: ('A' for Active; 'I' for Inactive)
REMARK    1  A    between atoms: C_7  and  C_1 
REMARK    2  A    between atoms: S_13  and  C_6 
REMARK    3  A    between atoms: C_12  and  C_7 
REMARK    4  A    between atoms: C_14  and  C_12 
REMARK    5  A    between atoms: C_16  and  S_13 
REMARK    6  A    between atoms: C_20  and  C_16 
ROOT
ATOM      1  C   UNL d   1       7.653   2.487   0.798  0.00  0.00     0.144 A 
ATOM      2  N   UNL d   1       6.323   2.317   0.811  0.00  0.00    -0.337 N 
ATOM      3  HN  UNL d   1       5.726   2.860   1.434  1.00  0.00     0.168 HD
ATOM      4  N   UNL d   1       8.502   1.825  -0.003  0.00  0.00    -0.347 N 
ATOM      5  HN  UNL d   1       9.507   2.001   0.011  1.00  0.00     0.167 HD
ATOM      6  C   UNL d   1       5.807   1.401  -0.030  0.00  0.00     0.035 A 
ATOM      7  C   UNL d   1       7.949   0.916  -0.825  0.00  0.00     0.092 A 
ATOM      8  C   UNL d   1       6.596   0.656  -0.878  0.00  0.00     0.046 A 
ENDROOT
BRANCH   6   9
ATOM      9  C   UNL d   1       4.344   1.225  -0.020  0.00  0.00     0.031 C 
BRANCH   9  10
ATOM     10  C   UNL d   1       3.513   2.026   0.668  0.00  0.00     0.021 C 
BRANCH  10  11
ATOM     11  C   UNL d   1       2.090   1.883   0.672  0.00  0.00     0.012 A 
ATOM     12  S   UNL d   1       1.289   2.316   2.137  0.00  0.00    -0.089 SA
ATOM     13  C   UNL d   1      -0.269   1.980   1.516  0.00  0.00     0.016 A 
ATOM     14  C   UNL d   1      -1.498   2.119   2.194  0.00  0.00     0.019 A 
ATOM     15  C   UNL d   1      -0.202   1.536   0.199  0.00  0.00    -0.012 A 
ATOM     16  C   UNL d   1      -2.682   1.797   1.527  0.00  0.00     0.001 A 
ATOM     17  C   UNL d   1      -2.647   1.346   0.217  0.00  0.00     0.001 A 
ATOM     18  C   UNL d   1      -1.425   1.215  -0.449  0.00  0.00     0.013 A 
ATOM     19  C   UNL d   1       1.166   1.504  -0.299  0.00  0.00    -0.033 A 
ATOM     20  C   UNL d   1       1.459   1.135  -1.722  0.00  0.00     0.050 C 
ENDBRANCH  10  11
ENDBRANCH   9  10
ENDBRANCH   6   9
BRANCH   1  21
ATOM     21  S   UNL d   1       8.297   3.616   1.998  0.00  0.00    -0.089 SA
BRANCH  21  22
ATOM     22  C   UNL d   1       9.730   4.273   1.092  0.00  0.00     0.121 C 
BRANCH  22  23
ATOM     23  C   UNL d   1      10.393   5.362   1.908  0.00  0.00    -0.047 A 
ATOM     24  C   UNL d   1      11.397   5.043   2.835  0.00  0.00     0.031 A 
ATOM     25  C   UNL d   1      11.937   6.034   3.655  0.00  0.00     0.034 A 
ATOM     26 CL   UNL d   1      13.151   5.625   4.804  0.00  0.00    -0.084 Cl
ATOM     27  C   UNL d   1      11.489   7.350   3.563  0.00  0.00     0.024 A 
ATOM     28  C   UNL d   1      10.499   7.680   2.638  0.00  0.00     0.002 A 
ATOM     29  C   UNL d   1       9.953   6.692   1.815  0.00  0.00     0.008 A 
ENDBRANCH  22  23
ENDBRANCH  21  22
ENDBRANCH   1  21
TORSDOF 6
