REMARK  5 active torsions:
REMARK  status: ('A' for Active; 'I' for Inactive)
REMARK    1  A    between atoms: N_2  and  C_1 
REMARK    2  A    between atoms: N_3  and  C_8 
REMARK    3  A    between atoms: C_5  and  C_17 
REMARK    4  A    between atoms: S_13  and  C_10 
REMARK    5  A    between atoms: C_17  and  S_13 
ROOT
ATOM      1  C   UNL d   1       1.615   3.657   1.072  0.00  0.00     0.122 A 
ATOM      2  C   UNL d   1       1.313   4.113   2.366  0.00  0.00     0.073 A 
ATOM      3  C   UNL d   1       2.355   4.232   3.284  0.00  0.00     0.105 A 
ATOM      4  C   UNL d   1       2.925   3.348   0.648  0.00  0.00     0.034 A 
ATOM      5  C   UNL d   1       3.657   3.857   2.926  0.00  0.00     0.037 A 
ATOM      6  C   UNL d   1       3.937   3.427   1.617  0.00  0.00     0.023 A 
ENDROOT
BRANCH   4   7
ATOM      7  S   UNL d   1       3.276   3.069  -1.091  0.00  0.00    -0.123 SA
BRANCH   7   8
ATOM      8  C   UNL d   1       4.794   2.090  -1.151  0.00  0.00     0.119 C 
BRANCH   8   9
ATOM      9  C   UNL d   1       6.138   2.782  -1.092  0.00  0.00    -0.030 A 
ATOM     10  C   UNL d   1       6.505   4.190  -1.242  0.00  0.00    -0.010 A 
ATOM     11  C   UNL d   1       7.880   4.384  -1.030  0.00  0.00     0.015 A 
ATOM     12  C   UNL d   1       5.749   5.356  -1.547  0.00  0.00     0.037 A 
ATOM     13  C   UNL d   1       8.480   5.662  -1.053  0.00  0.00     0.021 A 
ATOM     14  S   UNL d   1       8.705   2.903  -0.769  0.00  0.00    -0.101 SA
ATOM     15  C   UNL d   1       7.697   6.778  -1.334  0.00  0.00     0.025 A 
ATOM     16  C   UNL d   1       6.348   6.621  -1.593  0.00  0.00     0.035 A 
ATOM     17 CL   UNL d   1       5.392   8.000  -1.981  0.00  0.00    -0.084 Cl
ATOM     18  C   UNL d   1       7.276   2.008  -0.916  0.00  0.00     0.059 A 
ENDBRANCH   8   9
ENDBRANCH   7   8
ENDBRANCH   4   7
BRANCH   1  19
ATOM     19  N   UNL d   1       0.488   3.478   0.175  0.00  0.00    -0.114 N 
ATOM     20  O   UNL d   1      -0.120   4.501  -0.169  0.00  0.00    -0.532 OA
ATOM     21  O   UNL d   1       0.180   2.316  -0.110  0.00  0.00    -0.532 OA
ENDBRANCH   1  19
BRANCH   3  22
ATOM     22  N   UNL d   1       2.086   4.781   4.620  0.00  0.00    -0.116 N 
ATOM     23  O   UNL d   1       0.951   5.221   4.840  0.00  0.00    -0.532 OA
ATOM     24  O   UNL d   1       3.017   4.777   5.440  0.00  0.00    -0.532 OA
ENDBRANCH   3  22
TORSDOF 5
