REMARK  3 active torsions:
REMARK  status: ('A' for Active; 'I' for Inactive)
REMARK    1  A    between atoms: C_11  and  C_1 
REMARK    2  A    between atoms: C_5  and  N_14 
REMARK    3  A    between atoms: N_14  and  N_12 
ROOT
ATOM      1  C   UNL d   1       3.975   0.063  -0.033  0.00  0.00     0.121 C 
ATOM      2  N   UNL d   1       4.694  -0.964  -0.367  0.00  0.00    -0.326 N 
ATOM      3  HN  UNL d   1       4.300  -1.891  -0.533  1.00  0.00     0.180 HD
ENDROOT
BRANCH   2   4
ATOM      4  N   UNL d   1       6.026  -0.687  -0.475  0.00  0.00    -0.203 NA
ATOM      5  H   UNL d   1       6.540  -0.883   0.393  0.00  0.00     0.153 HD
BRANCH   4   6
ATOM      6  C   UNL d   1       6.708  -1.348  -1.546  0.00  0.00     0.071 A 
ATOM      7  C   UNL d   1       6.196  -1.459  -2.861  0.00  0.00     0.060 A 
ATOM      8  C   UNL d   1       6.941  -2.078  -3.874  0.00  0.00     0.049 A 
ATOM      9 CL   UNL d   1       4.671  -0.797  -3.353  0.00  0.00    -0.082 Cl
ATOM     10  C   UNL d   1       8.215  -2.564  -3.607  0.00  0.00     0.037 A 
ATOM     11  C   UNL d   1       8.766  -2.436  -2.339  0.00  0.00     0.049 A 
ATOM     12 CL   UNL d   1       9.126  -3.308  -4.862  0.00  0.00    -0.084 Cl
ATOM     13  C   UNL d   1       8.021  -1.826  -1.326  0.00  0.00     0.060 A 
ATOM     14 CL   UNL d   1       8.755  -1.687   0.238  0.00  0.00    -0.082 Cl
ENDBRANCH   4   6
ENDBRANCH   2   4
BRANCH   1  15
ATOM     15  C   UNL d   1       2.531  -0.005   0.040  0.00  0.00     0.029 A 
ATOM     16  S   UNL d   1       1.701   1.486   0.113  0.00  0.00    -0.088 SA
ATOM     17  C   UNL d   1       0.161   0.738   0.055  0.00  0.00     0.016 A 
ATOM     18  C   UNL d   1      -1.093   1.384   0.036  0.00  0.00     0.021 A 
ATOM     19  C   UNL d   1       0.275  -0.652   0.031  0.00  0.00    -0.010 A 
ATOM     20  C   UNL d   1      -2.253   0.610   0.003  0.00  0.00     0.025 A 
ATOM     21  C   UNL d   1      -2.167  -0.774  -0.009  0.00  0.00     0.035 A 
ATOM     22  C   UNL d   1      -0.925  -1.412   0.002  0.00  0.00     0.037 A 
ATOM     23 CL   UNL d   1      -3.606  -1.719  -0.041  0.00  0.00    -0.084 Cl
ATOM     24  C   UNL d   1       1.662  -1.086   0.028  0.00  0.00    -0.032 A 
ATOM     25  C   UNL d   1       2.040  -2.536   0.001  0.00  0.00     0.050 C 
ENDBRANCH   1  15
TORSDOF 3
