REMARK  4 active torsions:
REMARK  status: ('A' for Active; 'I' for Inactive)
REMARK       I    between atoms: C_2  and  N_1 
REMARK       I    between atoms: C_4  and  N_1 
REMARK    1  A    between atoms: C_6  and  N_1 
REMARK       I    between atoms: N_3  and  C_2 
REMARK    2  A    between atoms: C_8  and  N_3 
REMARK    3  A    between atoms: C_10  and  C_4 
REMARK    4  A    between atoms: C_9  and  C_6 
ROOT
ATOM      1  N   UNL d   1       2.982   1.005  -3.764  0.00  0.00    -0.197 NA
ATOM      2  C   UNL d   1       2.353   0.230  -3.177  0.00  0.00     0.068 C 
ATOM      3  C   UNL d   1       1.596  -0.750  -2.392  0.00  0.00     0.227 C 
ENDROOT
BRANCH   3   4
ATOM      4  C   UNL d   1       0.614  -0.037  -1.479  0.00  0.00     0.241 C 
ATOM      5  N   UNL d   1       1.014   0.314  -0.188  0.00  0.00    -0.263 N 
ATOM      6  C   UNL d   1       0.142   0.762   0.827  0.00  0.00     0.330 C 
ATOM      7  N   UNL d   1      -1.145   1.074   0.420  0.00  0.00    -0.308 N 
ATOM      8  O   UNL d   1       0.539   0.914   1.984  0.00  0.00    -0.246 OA
ATOM      9  H   UNL d   1      -1.242   1.233  -0.578  0.00  0.00     0.170 HD
ATOM     10  O   UNL d   1      -0.500   0.261  -1.928  0.00  0.00    -0.272 OA
BRANCH   5  11
ATOM     11  C   UNL d   1       2.418   0.260   0.227  0.00  0.00     0.201 C 
BRANCH  11  12
ATOM     12  C   UNL d   1       2.772  -1.002   0.936  0.00  0.00     0.071 A 
ATOM     13  O   UNL d   1       2.077  -2.136   0.630  0.00  0.00    -0.325 OA
ATOM     14  C   UNL d   1       2.579  -3.128   1.413  0.00  0.00     0.142 A 
ATOM     15  C   UNL d   1       3.606  -2.655   2.195  0.00  0.00     0.027 A 
ATOM     16  C   UNL d   1       3.738  -1.283   1.881  0.00  0.00     0.036 A 
ENDBRANCH  11  12
ENDBRANCH   5  11
BRANCH   7  17
ATOM     17  C   UNL d   1      -2.055   1.725   1.288  0.00  0.00     0.042 A 
ATOM     18  C   UNL d   1      -2.712   2.907   0.903  0.00  0.00    -0.035 A 
ATOM     19  C   UNL d   1      -2.567   3.556  -0.444  0.00  0.00     0.050 C 
ATOM     20  C   UNL d   1      -3.464   3.601   1.873  0.00  0.00     0.009 A 
ATOM     21  C   UNL d   1      -3.641   3.086   3.157  0.00  0.00     0.001 A 
ATOM     22  C   UNL d   1      -3.078   1.862   3.493  0.00  0.00     0.002 A 
ATOM     23  C   UNL d   1      -2.278   1.193   2.567  0.00  0.00     0.030 A 
ENDBRANCH   7  17
ENDBRANCH   3   4
TORSDOF 4
