REMARK  4 active torsions:
REMARK  status: ('A' for Active; 'I' for Inactive)
REMARK    1  A    between atoms: C_2  and  C_1 
REMARK       I    between atoms: N_3  and  C_1 
REMARK    2  A    between atoms: C_7  and  N_3 
REMARK       I    between atoms: C_4  and  N_5 
REMARK    3  A    between atoms: C_12  and  C_4 
REMARK    4  A    between atoms: N_5  and  C_6 
ROOT
ATOM      1  C   UNL d   1       0.310  -0.619  -1.168  0.00  0.00     0.059 A 
ATOM      2  C   UNL d   1       0.917  -1.890  -1.210  0.00  0.00     0.050 A 
ATOM      3  C   UNL d   1      -0.874  -0.369  -1.885  0.00  0.00     0.019 A 
ATOM      4  C   UNL d   1       0.280  -2.905  -1.938  0.00  0.00     0.030 A 
ATOM      5  C   UNL d   1      -1.470  -1.385  -2.628  0.00  0.00     0.001 A 
ATOM      6  C   UNL d   1      -0.899  -2.653  -2.646  0.00  0.00     0.002 A 
ENDROOT
BRANCH   1   7
ATOM      7  C   UNL d   1       0.967   0.522  -0.484  0.00  0.00     0.259 C 
ATOM      8  N   UNL d   1       0.133   1.343   0.240  0.00  0.00    -0.309 N 
ATOM      9  H   UNL d   1      -0.731   0.962   0.600  0.00  0.00     0.170 HD
ATOM     10  O   UNL d   1       2.189   0.622  -0.541  0.00  0.00    -0.267 OA
BRANCH   8  11
ATOM     11  C   UNL d   1       0.569   2.482   0.920  0.00  0.00     0.108 A 
ATOM     12  N   UNL d   1      -0.072   2.725   2.080  0.00  0.00    -0.346 N 
ATOM     13  C   UNL d   1       0.369   3.765   2.828  0.00  0.00     0.007 A 
ATOM     14  HN  UNL d   1      -0.857   2.149   2.383  1.00  0.00     0.167 HD
ATOM     15  C   UNL d   1      -0.214   3.912   4.202  0.00  0.00     0.068 C 
ATOM     16  C   UNL d   1       1.373   4.631   2.402  0.00  0.00     0.025 A 
ATOM     17  C   UNL d   1       1.968   4.403   1.169  0.00  0.00     0.006 A 
ATOM     18  C   UNL d   1       1.575   3.300   0.422  0.00  0.00     0.049 A 
ENDBRANCH   8  11
ENDBRANCH   1   7
BRANCH   2  19
ATOM     19  N   UNL d   1       2.126  -2.140  -0.509  0.00  0.00    -0.322 N 
ATOM     20  C   UNL d   1       3.044  -3.118  -0.838  0.00  0.00     0.256 C 
ATOM     21  O   UNL d   1       3.014  -3.858  -1.817  0.00  0.00    -0.267 OA
ATOM     22  H   UNL d   1       2.475  -1.379   0.073  0.00  0.00     0.169 HD
BRANCH  20  23
ATOM     23  C   UNL d   1       4.205  -3.224   0.075  0.00  0.00     0.032 A 
ATOM     24  C   UNL d   1       4.011  -3.462   1.438  0.00  0.00     0.017 A 
ATOM     25  C   UNL d   1       5.116  -3.680   2.261  0.00  0.00     0.001 A 
ATOM     26  C   UNL d   1       6.406  -3.647   1.725  0.00  0.00     0.000 A 
ATOM     27  C   UNL d   1       6.596  -3.398   0.365  0.00  0.00     0.001 A 
ATOM     28  C   UNL d   1       5.495  -3.196  -0.466  0.00  0.00     0.017 A 
ENDBRANCH  20  23
ENDBRANCH   2  19
TORSDOF 4
