REMARK  3 active torsions:
REMARK  status: ('A' for Active; 'I' for Inactive)
REMARK    1  A    between atoms: O_7  and  N_3 
REMARK    2  A    between atoms: C_6  and  O_7 
REMARK    3  A    between atoms: C_12  and  C_6 
ROOT
ATOM      1  C   UNL d   1       2.160   0.846   0.334  0.00  0.00     0.020 A 
ATOM      2  C   UNL d   1       1.965  -0.324   1.042  0.00  0.00     0.065 A 
ATOM      3  N   UNL d   1       0.995   2.793  -0.610  0.00  0.00    -0.261 N 
ATOM      4  HN  UNL d   1       0.182   3.219  -1.055  1.00  0.00     0.194 HD
ATOM      5  C   UNL d   1       1.000   1.585  -0.138  0.00  0.00     0.045 C 
ATOM      6  O   UNL d   1       3.136  -0.914   1.371  0.00  0.00    -0.326 OA
ATOM      7  C   UNL d   1       3.567   0.980   0.226  0.00  0.00     0.040 A 
ATOM      8  C   UNL d   1       4.113  -0.114   0.865  0.00  0.00     0.143 A 
ATOM      9  C   UNL d   1       0.687  -0.971   1.420  0.00  0.00     0.066 C 
ATOM     10  C   UNL d   1      -0.338   0.843  -0.057  0.00  0.00     0.060 C 
ATOM     11  C   UNL d   1      -0.450   0.054   1.260  0.00  0.00     0.013 C 
ENDROOT
BRANCH   3  12
ATOM     12  O   UNL d   1       2.221   3.454  -0.445  0.00  0.00    -0.195 OA
BRANCH  12  13
ATOM     13  C   UNL d   1       2.128   4.710  -0.973  0.00  0.00     0.315 C 
ATOM     14  O   UNL d   1       1.722   5.020  -2.081  0.00  0.00    -0.257 OA
BRANCH  13  15
ATOM     15  C   UNL d   1       2.649   5.674   0.028  0.00  0.00     0.041 A 
ATOM     16  C   UNL d   1       2.509   5.430   1.403  0.00  0.00     0.017 A 
ATOM     17  C   UNL d   1       2.968   6.365   2.330  0.00  0.00     0.001 A 
ATOM     18  C   UNL d   1       3.563   7.545   1.890  0.00  0.00     0.000 A 
ATOM     19  C   UNL d   1       3.690   7.801   0.523  0.00  0.00     0.001 A 
ATOM     20  C   UNL d   1       3.226   6.870  -0.411  0.00  0.00     0.017 A 
ENDBRANCH  13  15
ENDBRANCH  12  13
ENDBRANCH   3  12
TORSDOF 3
