REMARK  4 active torsions:
REMARK  status: ('A' for Active; 'I' for Inactive)
REMARK    1  A    between atoms: S_8  and  C_1 
REMARK    2  A    between atoms: C_3  and  C_2 
REMARK    3  A    between atoms: C_7  and  C_3 
REMARK    4  A    between atoms: C_5  and  S_8 
ROOT
ATOM      1  C   UNL d   1       4.260  -3.489   0.284  0.00  0.00     0.062 C 
ATOM      2  C   UNL d   1       3.309  -2.565   0.084  0.00  0.00     0.054 C 
ENDROOT
BRANCH   1   3
ATOM      3  C   UNL d   1       5.696  -3.132   0.196  0.00  0.00     0.182 C 
ATOM      4  O   UNL d   1       6.089  -2.172  -0.458  0.00  0.00    -0.288 OA
BRANCH   3   5
ATOM      5  C   UNL d   1       6.658  -4.016   0.910  0.00  0.00     0.014 A 
ATOM      6  C   UNL d   1       7.954  -4.160   0.389  0.00  0.00     0.017 A 
ATOM      7  C   UNL d   1       8.888  -4.965   1.047  0.00  0.00     0.025 A 
ATOM      8  C   UNL d   1       8.538  -5.611   2.229  0.00  0.00     0.034 A 
ATOM      9  C   UNL d   1       7.257  -5.464   2.764  0.00  0.00     0.025 A 
ATOM     10 CL   UNL d   1       9.693  -6.588   3.046  0.00  0.00    -0.084 Cl
ATOM     11  C   UNL d   1       6.317  -4.663   2.106  0.00  0.00     0.017 A 
ENDBRANCH   3   5
ENDBRANCH   1   3
BRANCH   2  12
ATOM     12  S   UNL d   1       1.647  -3.010   0.250  0.00  0.00    -0.100 SA
BRANCH  12  13
ATOM     13  C   UNL d   1       0.959  -1.686   1.246  0.00  0.00     0.028 A 
ATOM     14  C   UNL d   1      -0.307  -1.232   0.832  0.00  0.00     0.044 A 
ATOM     15  C   UNL d   1      -1.020  -0.300   1.589  0.00  0.00     0.035 A 
ATOM     16 CL   UNL d   1      -2.590   0.191   1.084  0.00  0.00    -0.084 Cl
ATOM     17  C   UNL d   1      -0.483   0.211   2.764  0.00  0.00     0.025 A 
ATOM     18  C   UNL d   1       0.774  -0.219   3.187  0.00  0.00     0.027 A 
ATOM     19  C   UNL d   1       1.488  -1.174   2.447  0.00  0.00     0.051 A 
ATOM     20 CL   UNL d   1       2.982  -1.706   3.139  0.00  0.00    -0.083 Cl
ENDBRANCH  12  13
ENDBRANCH   2  12
TORSDOF 4
