REMARK  4 active torsions:
REMARK  status: ('A' for Active; 'I' for Inactive)
REMARK    1  A    between atoms: C_2  and  C_1 
REMARK       I    between atoms: N_8  and  C_2 
REMARK       I    between atoms: C_3  and  N_9 
REMARK    2  A    between atoms: C_4  and  C_3 
REMARK    3  A    between atoms: C_5  and  C_6 
REMARK    4  A    between atoms: N_9  and  N_8 
ROOT
ATOM      1  C   UNL d   1       1.058   2.466   0.260  0.00  0.00     0.271 C 
ATOM      2  N   UNL d   1       0.476   3.725   0.247  0.00  0.00    -0.263 N 
ATOM      3  O   UNL d   1       0.374   1.446   0.149  0.00  0.00    -0.266 OA
ATOM      4  H   UNL d   1       0.966   4.617   0.229  0.00  0.00     0.190 HD
ENDROOT
BRANCH   2   5
ATOM      5  N   UNL d   1      -0.922   3.804   0.070  0.00  0.00    -0.263 N 
ATOM      6  C   UNL d   1      -1.510   5.048  -0.100  0.00  0.00     0.271 C 
ATOM      7  O   UNL d   1      -0.857   6.087  -0.043  0.00  0.00    -0.266 OA
ATOM      8  H   UNL d   1      -1.435   2.926   0.123  0.00  0.00     0.190 HD
BRANCH   6   9
ATOM      9  C   UNL d   1      -2.983   5.054  -0.393  0.00  0.00     0.044 A 
ATOM     10  C   UNL d   1      -3.866   6.040   0.149  0.00  0.00    -0.010 A 
ATOM     11  C   UNL d   1      -5.231   6.011  -0.252  0.00  0.00    -0.025 A 
ATOM     12  C   UNL d   1      -3.493   7.047   1.071  0.00  0.00     0.013 A 
ATOM     13  C   UNL d   1      -6.142   6.953   0.252  0.00  0.00     0.012 A 
ATOM     14  C   UNL d   1      -5.678   5.040  -1.159  0.00  0.00     0.012 A 
ATOM     15  C   UNL d   1      -5.739   7.931   1.158  0.00  0.00     0.001 A 
ATOM     16  C   UNL d   1      -4.414   7.977   1.567  0.00  0.00     0.001 A 
ATOM     17  C   UNL d   1      -4.809   4.085  -1.675  0.00  0.00     0.002 A 
ATOM     18  C   UNL d   1      -3.468   4.091  -1.296  0.00  0.00     0.018 A 
ENDBRANCH   6   9
ENDBRANCH   2   5
BRANCH   1  19
ATOM     19  C   UNL d   1       2.538   2.344   0.405  0.00  0.00     0.049 A 
ATOM     20  C   UNL d   1       3.130   1.065   0.385  0.00  0.00     0.032 A 
ATOM     21  C   UNL d   1       4.519   0.902   0.526  0.00  0.00    -0.003 A 
ATOM     22  C   UNL d   1       5.262   2.074   0.670  0.00  0.00     0.100 A 
ATOM     23  N   UNL d   1       4.733   3.324   0.702  0.00  0.00    -0.373 N 
ATOM     24  C   UNL d   1       3.386   3.428   0.575  0.00  0.00     0.104 A 
ATOM     25  HN  UNL d   1       5.322   4.149   0.816  1.00  0.00     0.164 HD
BRANCH  21  26
ATOM     26  C   UNL d   1       5.152  -0.431   0.495  0.00  0.00     0.016 A 
ATOM     27  S   UNL d   1       6.579  -0.748   1.410  0.00  0.00    -0.101 SA
ATOM     28  C   UNL d   1       6.697  -2.349   0.833  0.00  0.00     0.050 A 
ATOM     29  C   UNL d   1       5.656  -2.668  -0.007  0.00  0.00     0.008 A 
ATOM     30  C   UNL d   1       4.761  -1.571  -0.189  0.00  0.00     0.020 A 
ENDBRANCH  21  26
ENDBRANCH   1  19
TORSDOF 4
