REMARK  4 active torsions:
REMARK  status: ('A' for Active; 'I' for Inactive)
REMARK    1  A    between atoms: C_2  and  C_1 
REMARK       I    between atoms: N_3  and  C_2 
REMARK       I    between atoms: C_7  and  N_3 
REMARK    2  A    between atoms: N_8  and  C_4 
REMARK    3  A    between atoms: C_11  and  N_8 
REMARK    4  A    between atoms: O_17  and  C_12 
ROOT
ATOM      1  C   UNL d   1       1.073  -0.088  -0.494  0.00  0.00     0.122 C 
ATOM      2  C   UNL d   1       0.310  -0.901   0.265  0.00  0.00     0.116 C 
ATOM      3  C   UNL d   1       0.489   0.678  -1.538  0.00  0.00     0.106 C 
ATOM      4  N   UNL d   1      -0.063   1.242  -2.390  0.00  0.00    -0.191 NA
ENDROOT
BRANCH   1   5
ATOM      5  C   UNL d   1       2.554  -0.174  -0.285  0.00  0.00     0.249 C 
ATOM      6  N   UNL d   1       3.422   0.482  -1.114  0.00  0.00    -0.194 NA
ATOM      7  C   UNL d   1       3.457   1.857  -1.233  0.00  0.00     0.200 C 
ATOM      8  H   UNL d   1       4.348   0.103  -0.953  0.00  0.00     0.139 HD
ATOM      9  O   UNL d   1       2.515   2.605  -0.996  0.00  0.00    -0.280 OA
ATOM     10  C   UNL d   1       4.763   2.381  -1.784  0.00  0.00     0.111 C 
ATOM     11  O   UNL d   1       3.044  -0.901   0.585  0.00  0.00    -0.273 OA
ENDBRANCH   1   5
BRANCH   2  12
ATOM     12  N   UNL d   1      -1.054  -1.117   0.224  0.00  0.00    -0.364 N 
ATOM     13  H   UNL d   1      -1.573  -0.601  -0.483  0.00  0.00     0.165 HD
BRANCH  12  14
ATOM     14  C   UNL d   1      -1.784  -2.139   0.856  0.00  0.00     0.032 A 
ATOM     15  C   UNL d   1      -1.318  -2.853   1.967  0.00  0.00     0.032 A 
ATOM     16  C   UNL d   1      -2.050  -3.920   2.507  0.00  0.00     0.039 A 
ATOM     17  C   UNL d   1      -3.260  -4.303   1.934  0.00  0.00     0.068 A 
ATOM     18  C   UNL d   1      -3.754  -3.581   0.850  0.00  0.00     0.039 A 
ATOM     19  C   UNL d   1      -3.023  -2.516   0.313  0.00  0.00     0.032 A 
BRANCH  17  20
ATOM     20  O   UNL d   1      -4.049  -5.335   2.358  0.00  0.00    -0.356 OA
ATOM     21  C   UNL d   1      -3.387  -6.358   3.093  0.00  0.00     0.210 C 
ENDBRANCH  17  20
ENDBRANCH  12  14
ENDBRANCH   2  12
TORSDOF 4
