REMARK  4 active torsions:
REMARK  status: ('A' for Active; 'I' for Inactive)
REMARK    1  A    between atoms: N_9  and  C_3 
REMARK    2  A    between atoms: C_7  and  C_4 
REMARK       I    between atoms: C_11  and  N_10 
REMARK    3  A    between atoms: O_21  and  C_11 
REMARK    4  A    between atoms: C_26  and  O_21 
ROOT
ATOM      1  N   UNL d   1       0.772   1.643  -0.253  0.00  0.00    -0.350 N 
ATOM      2  HN  UNL d   1       0.129   2.424  -0.385  1.00  0.00     0.166 HD
ATOM      3  C   UNL d   1       2.595  -0.452   0.087  0.00  0.00     0.045 A 
ATOM      4  C   UNL d   1       1.438   1.135  -1.315  0.00  0.00     0.119 A 
ATOM      5  C   UNL d   1       0.952   1.124   0.981  0.00  0.00     0.067 A 
ATOM      6  C   UNL d   1       1.843   0.046   1.193  0.00  0.00     0.019 A 
ATOM      7  C   UNL d   1       2.362   0.105  -1.172  0.00  0.00     0.064 A 
ATOM      8  C   UNL d   1       0.246   1.626   2.086  0.00  0.00     0.061 A 
ATOM      9 CL   UNL d   1      -0.861   2.952   1.899  0.00  0.00    -0.082 Cl
ATOM     10  C   UNL d   1       1.914  -0.515   2.497  0.00  0.00     0.016 A 
ATOM     11  C   UNL d   1       1.213   0.011   3.576  0.00  0.00     0.003 A 
ATOM     12  C   UNL d   1       0.382   1.093   3.373  0.00  0.00     0.026 A 
ENDROOT
BRANCH   3  13
ATOM     13  N   UNL d   1       3.512  -1.495   0.253  0.00  0.00    -0.377 N 
ATOM     14  C   UNL d   1       3.828  -2.425  -0.848  0.00  0.00     0.143 C 
ATOM     15  C   UNL d   1       4.314  -3.770  -0.257  0.00  0.00     0.148 C 
ATOM     16  N   UNL d   1       5.362  -3.584   0.760  0.00  0.00    -0.325 N 
ATOM     17  C   UNL d   1       5.095  -2.565   1.776  0.00  0.00     0.148 C 
ATOM     18  C   UNL d   1       6.544  -4.285   0.805  0.00  0.00     0.362 C 
ATOM     19  C   UNL d   1       4.689  -1.234   1.117  0.00  0.00     0.143 C 
ATOM     20  O   UNL d   1       7.403  -4.114   1.662  0.00  0.00    -0.238 OA
BRANCH  18  21
ATOM     21  O   UNL d   1       6.682  -5.134  -0.246  0.00  0.00    -0.304 OA
BRANCH  21  22
ATOM     22  C   UNL d   1       8.006  -5.645  -0.443  0.00  0.00     0.176 C 
ATOM     23  C   UNL d   1       8.803  -4.628  -1.242  0.00  0.00     0.034 C 
ENDBRANCH  21  22
ENDBRANCH  18  21
ENDBRANCH   3  13
BRANCH   4  24
ATOM     24  C   UNL d   1       1.166   1.692  -2.706  0.00  0.00     0.432 C 
ATOM     25  F   UNL d   1       0.201   2.652  -2.754  0.00  0.00    -0.165 F 
ATOM     26  F   UNL d   1       2.278   2.250  -3.270  0.00  0.00    -0.165 F 
ATOM     27  F   UNL d   1       0.766   0.722  -3.581  0.00  0.00    -0.165 F 
ENDBRANCH   4  24
TORSDOF 4
