REMARK  7 active torsions:
REMARK  status: ('A' for Active; 'I' for Inactive)
REMARK    1  A    between atoms: O_21  and  C_1 
REMARK    2  A    between atoms: O_22  and  C_2 
REMARK    3  A    between atoms: O_23  and  C_3 
REMARK    4  A    between atoms: N_13  and  C_6 
REMARK    5  A    between atoms: C_7  and  O_15 
REMARK       I    between atoms: C_14  and  N_13 
REMARK    6  A    between atoms: C_17  and  C_14 
REMARK    7  A    between atoms: O_15  and  C_17 
ROOT
ATOM      1  N   UNL d   1      -2.730   0.318  -0.271  0.00  0.00    -0.325 N 
ATOM      2  C   UNL d   1      -3.581  -0.327  -1.132  0.00  0.00     0.246 C 
ATOM      3  O   UNL d   1      -4.801  -0.116  -1.042  0.00  0.00    -0.271 OA
ATOM      4  H   UNL d   1      -3.132   1.150   0.150  0.00  0.00     0.169 HD
ENDROOT
BRANCH   1   5
ATOM      5  C   UNL d   1      -1.353   0.100  -0.149  0.00  0.00     0.040 C 
ATOM      6  C   UNL d   1      -0.481   1.176  -0.157  0.00  0.00     0.069 C 
ATOM      7  C   UNL d   1       0.909   0.967  -0.147  0.00  0.00     0.106 C 
ATOM      8  C   UNL d   1       1.417  -0.344  -0.042  0.00  0.00     0.135 C 
ATOM      9  C   UNL d   1       0.516  -1.416   0.145  0.00  0.00     0.106 C 
ATOM     10  C   UNL d   1      -0.858  -1.183   0.042  0.00  0.00     0.069 C 
BRANCH   7  11
ATOM     11  O   UNL d   1       1.584   2.152  -0.269  0.00  0.00    -0.353 OA
ATOM     12  C   UNL d   1       3.001   2.157  -0.258  0.00  0.00     0.210 C 
ENDBRANCH   7  11
BRANCH   8  13
ATOM     13  O   UNL d   1       2.776  -0.532   0.008  0.00  0.00    -0.351 OA
ATOM     14  C   UNL d   1       3.309  -1.535  -0.860  0.00  0.00     0.210 C 
ENDBRANCH   8  13
BRANCH   9  15
ATOM     15  O   UNL d   1       1.025  -2.656   0.451  0.00  0.00    -0.353 OA
ATOM     16  C   UNL d   1       0.128  -3.604   1.025  0.00  0.00     0.210 C 
ENDBRANCH   9  15
ENDBRANCH   1   5
BRANCH   2  17
ATOM     17  C   UNL d   1      -3.014  -1.195  -2.256  0.00  0.00     0.278 C 
BRANCH  17  18
ATOM     18  O   UNL d   1      -2.530  -0.321  -3.271  0.00  0.00    -0.340 OA
BRANCH  18  19
ATOM     19  C   UNL d   1      -1.902  -0.862  -4.360  0.00  0.00     0.092 A 
ATOM     20  C   UNL d   1      -1.581  -2.215  -4.501  0.00  0.00     0.064 A 
ATOM     21  C   UNL d   1      -0.924  -2.673  -5.652  0.00  0.00     0.058 A 
ATOM     22 CL   UNL d   1      -0.564  -4.361  -5.745  0.00  0.00    -0.082 Cl
ATOM     23  C   UNL d   1      -0.584  -1.779  -6.672  0.00  0.00     0.057 A 
ATOM     24  C   UNL d   1      -0.901  -0.427  -6.542  0.00  0.00     0.052 A 
ATOM     25 CL   UNL d   1       0.226  -2.281  -8.113  0.00  0.00    -0.082 Cl
ATOM     26  C   UNL d   1      -1.554   0.027  -5.392  0.00  0.00     0.069 A 
ATOM     27 CL   UNL d   1      -1.923   1.713  -5.289  0.00  0.00    -0.081 Cl
ENDBRANCH  18  19
ENDBRANCH  17  18
ENDBRANCH   2  17
TORSDOF 7
