REMARK  2 active torsions:
REMARK  status: ('A' for Active; 'I' for Inactive)
REMARK    1  A    between atoms: C_2  and  C_3 
REMARK       I    between atoms: C_3  and  N_5 
REMARK    2  A    between atoms: N_5  and  C_7 
ROOT
ATOM      1  C   UNL d   1      -4.199  -0.425   1.298  0.00  0.00     0.277 C 
ATOM      2  N   UNL d   1      -3.096  -1.222   0.939  0.00  0.00    -0.345 N 
ATOM      3  O   UNL d   1      -4.285   0.736   0.893  0.00  0.00    -0.265 OA
ATOM      4  C   UNL d   1      -3.060  -2.674   1.097  0.00  0.00     0.153 C 
ENDROOT
BRANCH   2   5
ATOM      5  C   UNL d   1      -1.951  -0.635   0.228  0.00  0.00     0.101 C 
ATOM      6  C   UNL d   1      -1.273   0.531   0.946  0.00  0.00     0.165 C 
ATOM      7  S   UNL d   1      -0.167   1.186  -0.287  0.00  0.00     0.146 S 
ATOM      8  O   UNL d   1       1.099   0.487  -0.172  0.00  0.00    -0.228 OA
ATOM      9  O   UNL d   1      -0.250   2.630  -0.288  0.00  0.00    -0.228 OA
ATOM     10  C   UNL d   1      -1.022   0.544  -1.719  0.00  0.00     0.142 C 
ATOM     11  C   UNL d   1      -2.275  -0.150  -1.194  0.00  0.00     0.041 C 
ENDBRANCH   2   5
BRANCH   1  12
ATOM     12  C   UNL d   1      -5.242  -0.989   2.136  0.00  0.00     0.144 A 
ATOM     13  O   UNL d   1      -4.933  -1.905   3.108  0.00  0.00    -0.298 OA
ATOM     14  C   UNL d   1      -6.093  -2.253   3.722  0.00  0.00     0.122 A 
ATOM     15 BR   UNL d   1      -6.218  -3.529   5.076  0.00  0.00    -0.023 Br
ATOM     16  C   UNL d   1      -7.147  -1.544   3.196  0.00  0.00     0.048 A 
ATOM     17  C   UNL d   1      -6.595  -0.708   2.195  0.00  0.00     0.046 A 
ENDBRANCH   1  12
TORSDOF 2
