REMARK  5 active torsions:
REMARK  status: ('A' for Active; 'I' for Inactive)
REMARK    1  A    between atoms: N_2  and  S_1 
REMARK    2  A    between atoms: C_12  and  S_1 
REMARK    3  A    between atoms: C_3  and  N_9 
REMARK    4  A    between atoms: C_7  and  C_4 
REMARK    5  A    between atoms: O_28  and  C_24 
ROOT
ATOM      1  N   UNL d   1       0.652  -0.307   1.383  0.00  0.00    -0.203 NA
ATOM      2  N   UNL d   1       2.471  -2.088   2.760  0.00  0.00    -0.378 N 
ATOM      3  C   UNL d   1       1.591   0.230   2.420  0.00  0.00     0.127 C 
ATOM      4  C   UNL d   1       0.280  -1.715   1.688  0.00  0.00     0.127 C 
ATOM      5  C   UNL d   1       2.847  -0.664   2.597  0.00  0.00     0.138 C 
ATOM      6  C   UNL d   1       1.527  -2.600   1.748  0.00  0.00     0.138 C 
ENDROOT
BRANCH   2   7
ATOM      7  C   UNL d   1       3.173  -2.938   3.615  0.00  0.00     0.045 A 
ATOM      8  C   UNL d   1       3.462  -2.473   4.908  0.00  0.00     0.064 A 
ATOM      9  C   UNL d   1       4.016  -3.318   5.866  0.00  0.00     0.119 A 
ATOM     10  N   UNL d   1       4.273  -4.621   5.602  0.00  0.00    -0.352 N 
ATOM     11  C   UNL d   1       4.031  -5.091   4.372  0.00  0.00     0.045 A 
ATOM     12  HN  UNL d   1       4.646  -5.234   6.327  1.00  0.00     0.166 HD
ATOM     13  C   UNL d   1       3.529  -4.293   3.316  0.00  0.00     0.017 A 
ATOM     14  C   UNL d   1       4.289  -6.439   4.156  0.00  0.00     0.030 A 
ATOM     15  C   UNL d   1       3.442  -4.912   2.039  0.00  0.00     0.016 A 
ATOM     16  C   UNL d   1       3.687  -6.271   1.844  0.00  0.00     0.001 A 
ATOM     17  C   UNL d   1       4.095  -7.043   2.915  0.00  0.00     0.002 A 
BRANCH   9  18
ATOM     18  C   UNL d   1       4.303  -2.761   7.252  0.00  0.00     0.432 C 
ATOM     19  F   UNL d   1       4.802  -3.670   8.137  0.00  0.00    -0.165 F 
ATOM     20  F   UNL d   1       5.207  -1.737   7.224  0.00  0.00    -0.165 F 
ATOM     21  F   UNL d   1       3.189  -2.239   7.846  0.00  0.00    -0.165 F 
ENDBRANCH   9  18
ENDBRANCH   2   7
BRANCH   1  22
ATOM     22  S   UNL d   1       1.041   0.023  -0.243  0.00  0.00     0.243 S 
ATOM     23  O   UNL d   1       0.319  -0.902  -1.090  0.00  0.00    -0.206 OA
ATOM     24  O   UNL d   1       2.477   0.185  -0.348  0.00  0.00    -0.206 OA
BRANCH  22  25
ATOM     25  C   UNL d   1       0.282   1.607  -0.447  0.00  0.00     0.074 A 
ATOM     26  C   UNL d   1       1.048   2.720  -0.789  0.00  0.00     0.027 A 
ATOM     27  C   UNL d   1       0.426   3.964  -0.918  0.00  0.00     0.038 A 
ATOM     28  C   UNL d   1      -0.950   4.088  -0.702  0.00  0.00     0.068 A 
ATOM     29  C   UNL d   1      -1.712   2.957  -0.397  0.00  0.00     0.038 A 
ATOM     30  C   UNL d   1      -1.100   1.714  -0.262  0.00  0.00     0.027 A 
BRANCH  28  31
ATOM     31  O   UNL d   1      -1.657   5.254  -0.803  0.00  0.00    -0.356 OA
ATOM     32  C   UNL d   1      -0.929   6.433  -0.474  0.00  0.00     0.210 C 
ENDBRANCH  28  31
ENDBRANCH  22  25
ENDBRANCH   1  22
TORSDOF 5
