REMARK  6 active torsions:
REMARK  status: ('A' for Active; 'I' for Inactive)
REMARK    1  A    between atoms: C_2  and  C_1 
REMARK       I    between atoms: N_3  and  C_1 
REMARK    2  A    between atoms: N_4  and  C_2 
REMARK    3  A    between atoms: C_6  and  N_3 
REMARK    4  A    between atoms: C_9  and  N_4 
REMARK    5  A    between atoms: C_12  and  C_9 
REMARK    6  A    between atoms: S_11  and  C_10 
ROOT
ATOM      1  C   UNL d   1       1.068  -0.249   0.061  0.00  0.00     0.283 C 
ATOM      2  N   UNL d   1       0.488   0.903  -0.444  0.00  0.00    -0.321 N 
ATOM      3  O   UNL d   1       2.261  -0.487   0.202  0.00  0.00    -0.265 OA
ATOM      4  H   UNL d   1      -0.526   0.924  -0.439  0.00  0.00     0.169 HD
ENDROOT
BRANCH   1   5
ATOM      5  C   UNL d   1       0.074  -1.327   0.495  0.00  0.00     0.165 C 
ATOM      6  S   UNL d   1      -1.257  -1.617  -0.468  0.00  0.00    -0.055 SA
BRANCH   5   7
ATOM      7  N   UNL d   1       0.290  -2.067   1.633  0.00  0.00    -0.372 N 
ATOM      8  H   UNL d   1      -0.289  -2.896   1.715  0.00  0.00     0.161 HD
BRANCH   7   9
ATOM      9  C   UNL d   1       1.403  -1.942   2.559  0.00  0.00     0.159 C 
BRANCH   9  10
ATOM     10  C   UNL d   1       1.146  -2.649   3.873  0.00  0.00    -0.041 A 
ATOM     11  C   UNL d   1       2.231  -3.064   4.662  0.00  0.00     0.009 A 
ATOM     12  C   UNL d   1       2.022  -3.709   5.885  0.00  0.00     0.001 A 
ATOM     13  C   UNL d   1       0.727  -3.948   6.338  0.00  0.00     0.000 A 
ATOM     14  C   UNL d   1      -0.360  -3.522   5.580  0.00  0.00     0.001 A 
ATOM     15  C   UNL d   1      -0.153  -2.862   4.369  0.00  0.00     0.009 A 
ENDBRANCH   9  10
ENDBRANCH   7   9
ENDBRANCH   5   7
ENDBRANCH   1   5
BRANCH   2  16
ATOM     16  C   UNL d   1       1.148   2.005  -1.027  0.00  0.00     0.036 A 
ATOM     17  C   UNL d   1       2.525   2.044  -1.253  0.00  0.00     0.048 A 
ATOM     18  C   UNL d   1       3.138   3.174  -1.810  0.00  0.00     0.002 A 
ATOM     19  C   UNL d   1       2.343   4.259  -2.191  0.00  0.00     0.018 A 
ATOM     20  C   UNL d   1       0.963   4.222  -1.995  0.00  0.00     0.004 A 
ATOM     21  C   UNL d   1       0.368   3.100  -1.412  0.00  0.00     0.029 A 
BRANCH  18  22
ATOM     22  S   UNL d   1       4.903   3.284  -2.075  0.00  0.00    -0.134 SA
ATOM     23  C   UNL d   1       5.533   2.319  -0.671  0.00  0.00     0.095 C 
ENDBRANCH  18  22
ENDBRANCH   2  16
TORSDOF 6
