REMARK  3 active torsions:
REMARK  status: ('A' for Active; 'I' for Inactive)
REMARK    1  A    between atoms: C_2  and  S_1 
REMARK    2  A    between atoms: N_3  and  S_1 
REMARK    3  A    between atoms: C_7  and  N_3 
ROOT
ATOM      1  S   UNL d   1       0.849  -0.003  -0.032  0.00  0.00     0.264 S 
ATOM      2  O   UNL d   1       0.116   0.251  -1.251  0.00  0.00    -0.200 OA
ATOM      3  O   UNL d   1       2.296   0.034  -0.027  0.00  0.00    -0.200 OA
ENDROOT
BRANCH   1   4
ATOM      4  C   UNL d   1       0.335  -1.592   0.586  0.00  0.00     0.096 A 
ATOM      5  C   UNL d   1      -1.004  -1.928   0.826  0.00  0.00     0.029 A 
ATOM      6  I   UNL d   1      -2.670  -0.689   0.483  0.00  0.00    -0.043 I 
ATOM      7  C   UNL d   1      -1.309  -3.200   1.337  0.00  0.00     0.020 A 
ATOM      8  C   UNL d   1      -0.300  -4.133   1.582  0.00  0.00     0.001 A 
ATOM      9  C   UNL d   1       1.025  -3.809   1.313  0.00  0.00     0.002 A 
ATOM     10  C   UNL d   1       1.343  -2.544   0.819  0.00  0.00     0.027 A 
ENDBRANCH   1   4
BRANCH   1  11
ATOM     11  N   UNL d   1       0.305   1.081   1.118  0.00  0.00    -0.281 N 
ATOM     12  H   UNL d   1      -0.526   1.621   0.883  0.00  0.00     0.179 HD
BRANCH  11  13
ATOM     13  C   UNL d   1       0.849   1.131   2.421  0.00  0.00     0.042 A 
ATOM     14  C   UNL d   1       2.038   1.825   2.646  0.00  0.00     0.032 A 
ATOM     15  C   UNL d   1       2.524   1.972   3.948  0.00  0.00     0.026 A 
ATOM     16  C   UNL d   1       1.820   1.416   5.015  0.00  0.00     0.034 A 
ATOM     17  C   UNL d   1       0.639   0.710   4.791  0.00  0.00     0.026 A 
ATOM     18 CL   UNL d   1       2.401   1.618   6.621  0.00  0.00    -0.084 Cl
ATOM     19  C   UNL d   1       0.147   0.574   3.490  0.00  0.00     0.032 A 
ENDBRANCH  11  13
ENDBRANCH   1  11
TORSDOF 3
