REMARK  4 active torsions:
REMARK  status: ('A' for Active; 'I' for Inactive)
REMARK    1  A    between atoms: C_8  and  C_2 
REMARK    2  A    between atoms: N_7  and  C_10 
REMARK       I    between atoms: N_18  and  C_8 
REMARK    3  A    between atoms: N_12  and  N_18 
REMARK    4  A    between atoms: C_14  and  C_21 
ROOT
ATOM      1  C   UNL d   1       2.109  -2.412   0.136  0.00  0.00     0.289 C 
ATOM      2  N   UNL d   1       1.218  -3.477   0.037  0.00  0.00    -0.265 N 
ATOM      3  O   UNL d   1       3.319  -2.557   0.293  0.00  0.00    -0.264 OA
ATOM      4  H   UNL d   1       0.244  -3.279   0.244  0.00  0.00     0.190 HD
ENDROOT
BRANCH   1   5
ATOM      5  C   UNL d   1       1.471  -1.111   0.107  0.00  0.00     0.132 A 
ATOM      6  N   UNL d   1       1.940   0.009   0.782  0.00  0.00    -0.301 N 
ATOM      7  C   UNL d   1       1.041   1.043   0.532  0.00  0.00     0.118 A 
ATOM      8  C   UNL d   1       3.061   0.174   1.600  0.00  0.00     0.099 A 
ATOM      9  N   UNL d   1       0.077   0.653  -0.271  0.00  0.00    -0.343 N 
ATOM     10  C   UNL d   1       1.278   2.326   1.139  0.00  0.00    -0.017 A 
ATOM     11  C   UNL d   1       0.342  -0.661  -0.571  0.00  0.00     0.040 A 
ATOM     12  HN  UNL d   1      -0.708   1.213  -0.605  1.00  0.00     0.167 HD
ATOM     13  C   UNL d   1      -0.550  -1.332  -1.550  0.00  0.00     0.071 C 
ATOM     14  C   UNL d   1       0.384   3.519   0.924  0.00  0.00     0.052 C 
ATOM     15  C   UNL d   1       2.371   2.459   1.927  0.00  0.00     0.012 A 
ATOM     16  C   UNL d   1       3.295   1.366   2.172  0.00  0.00     0.018 A 
ENDBRANCH   1   5
BRANCH   2  17
ATOM     17  N   UNL d   1       1.536  -4.804   0.163  0.00  0.00    -0.308 N 
ATOM     18  C   UNL d   1       2.644  -5.227  -0.365  0.00  0.00     0.121 C 
ATOM     19  HN  UNL d   1       0.917  -5.445   0.660  1.00  0.00     0.186 HD
BRANCH  18  20
ATOM     20  C   UNL d   1       3.034  -6.652  -0.233  0.00  0.00     0.014 A 
ATOM     21  C   UNL d   1       3.990  -7.270  -1.045  0.00  0.00     0.114 A 
ATOM     22  C   UNL d   1       4.324  -8.625  -0.879  0.00  0.00     0.037 A 
ATOM     23  C   UNL d   1       3.696  -9.371   0.118  0.00  0.00     0.002 A 
ATOM     24  C   UNL d   1       2.748  -8.768   0.943  0.00  0.00     0.001 A 
ATOM     25  C   UNL d   1       2.419  -7.419   0.770  0.00  0.00     0.015 A 
BRANCH  21  26
ATOM     26  N   UNL d   1       4.644  -6.553  -2.124  0.00  0.00    -0.115 N 
ATOM     27  O   UNL d   1       3.921  -5.970  -2.939  0.00  0.00    -0.532 OA
ATOM     28  O   UNL d   1       5.880  -6.614  -2.169  0.00  0.00    -0.532 OA
ENDBRANCH  21  26
ENDBRANCH  18  20
ENDBRANCH   2  17
TORSDOF 4
