REMARK  5 active torsions:
REMARK  status: ('A' for Active; 'I' for Inactive)
REMARK    1  A    between atoms: C_8  and  C_3 
REMARK    2  A    between atoms: C_11  and  C_4 
REMARK    3  A    between atoms: O_7  and  C_11 
REMARK    4  A    between atoms: C_9  and  O_7 
REMARK    5  A    between atoms: O_12  and  C_10 
ROOT
ATOM      1  N   UNL d   1       1.155  -0.345   1.164  0.00  0.00    -0.351 N 
ATOM      2  HN  UNL d   1       1.580  -0.692   2.024  1.00  0.00     0.166 HD
ATOM      3  C   UNL d   1       1.172   0.975   0.752  0.00  0.00     0.049 A 
ATOM      4  C   UNL d   1       0.511  -1.090   0.289  0.00  0.00     0.075 A 
ATOM      5  S   UNL d   1      -0.102  -0.254  -1.080  0.00  0.00    -0.084 SA
ATOM      6  C   UNL d   1       0.541   1.206  -0.456  0.00  0.00     0.082 A 
ENDROOT
BRANCH   4   7
ATOM      7  C   UNL d   1       0.240  -2.548   0.476  0.00  0.00     0.240 C 
BRANCH   7   8
ATOM      8  O   UNL d   1       1.335  -3.284  -0.086  0.00  0.00    -0.342 OA
BRANCH   8   9
ATOM      9  C   UNL d   1       1.569  -4.508   0.483  0.00  0.00     0.102 A 
ATOM     10  C   UNL d   1       2.853  -5.079   0.410  0.00  0.00     0.101 A 
ATOM     11  C   UNL d   1       3.085  -6.305   1.051  0.00  0.00     0.039 A 
ATOM     12  C   UNL d   1       2.081  -6.968   1.750  0.00  0.00     0.003 A 
ATOM     13  C   UNL d   1       0.807  -6.426   1.793  0.00  0.00     0.003 A 
ATOM     14  C   UNL d   1       0.548  -5.223   1.144  0.00  0.00     0.039 A 
BRANCH  10  15
ATOM     15  O   UNL d   1       3.984  -4.606  -0.194  0.00  0.00    -0.353 OA
ATOM     16  C   UNL d   1       3.960  -3.363  -0.873  0.00  0.00     0.210 C 
ENDBRANCH  10  15
ENDBRANCH   8   9
ENDBRANCH   7   8
ENDBRANCH   4   7
BRANCH   3  17
ATOM     17  C   UNL d   1       1.831   2.006   1.542  0.00  0.00    -0.009 A 
ATOM     18  C   UNL d   1       2.911   1.659   2.367  0.00  0.00     0.014 A 
ATOM     19  C   UNL d   1       3.576   2.630   3.117  0.00  0.00     0.001 A 
ATOM     20  C   UNL d   1       3.161   3.959   3.061  0.00  0.00     0.000 A 
ATOM     21  C   UNL d   1       2.077   4.314   2.260  0.00  0.00     0.001 A 
ATOM     22  C   UNL d   1       1.412   3.345   1.506  0.00  0.00     0.014 A 
ENDBRANCH   3  17
TORSDOF 5
