REMARK  10 active torsions:
REMARK  status: ('A' for Active; 'I' for Inactive)
REMARK    1  A    between atoms: C_2  and  N_1 
REMARK    2  A    between atoms: N_8  and  C_2 
REMARK    3  A    between atoms: C_15  and  C_3 
REMARK    4  A    between atoms: C_5  and  C_11 
REMARK    5  A    between atoms: C_18  and  N_8 
REMARK    6  A    between atoms: O_28  and  C_10 
REMARK    7  A    between atoms: O_29  and  C_13 
REMARK    8  A    between atoms: C_22  and  C_15 
REMARK    9  A    between atoms: O_30  and  C_16 
REMARK   10  A    between atoms: O_31  and  C_20 
ROOT
ATOM      1  N   UNL d   1       2.178   0.725   0.347  0.00  0.00    -0.349 N 
ATOM      2  C   UNL d   1       1.197   1.202  -0.667  0.00  0.00     0.124 C 
ATOM      3  C   UNL d   1      -0.136   0.509  -0.396  0.00  0.00    -0.026 A 
ATOM      4  C   UNL d   1      -0.145  -0.865  -0.114  0.00  0.00    -0.045 A 
ATOM      5  C   UNL d   1      -1.344   1.220  -0.378  0.00  0.00     0.049 A 
ATOM      6  C   UNL d   1       2.176  -0.707   0.713  0.00  0.00     0.130 C 
ATOM      7  C   UNL d   1      -2.559   0.586  -0.069  0.00  0.00     0.102 A 
ATOM      8  C   UNL d   1      -1.353  -1.515   0.130  0.00  0.00     0.047 A 
ATOM      9  C   UNL d   1      -2.562  -0.803   0.167  0.00  0.00     0.102 A 
ATOM     10  C   UNL d   1       1.176  -1.579  -0.052  0.00  0.00     0.059 C 
ENDROOT
BRANCH   1  11
ATOM     11  C   UNL d   1       3.044   1.592   1.022  0.00  0.00     0.175 C 
ATOM     12  S   UNL d   1       3.996   2.735   0.254  0.00  0.00    -0.041 SA
BRANCH  11  13
ATOM     13  N   UNL d   1       2.931   1.455   2.397  0.00  0.00    -0.333 N 
ATOM     14  H   UNL d   1       1.969   1.406   2.710  0.00  0.00     0.168 HD
BRANCH  13  15
ATOM     15  C   UNL d   1       3.902   1.643   3.397  0.00  0.00     0.035 A 
ATOM     16  C   UNL d   1       5.235   1.274   3.202  0.00  0.00     0.045 A 
ATOM     17  C   UNL d   1       6.138   1.270   4.280  0.00  0.00     0.050 A 
ATOM     18  C   UNL d   1       5.700   1.704   5.541  0.00  0.00     0.016 A 
ATOM     19  C   UNL d   1       4.380   2.109   5.729  0.00  0.00     0.003 A 
ATOM     20  C   UNL d   1       3.478   2.053   4.665  0.00  0.00     0.029 A 
BRANCH  17  21
ATOM     21  C   UNL d   1       7.540   0.740   4.114  0.00  0.00     0.417 C 
ATOM     22  F   UNL d   1       7.834   0.350   2.842  0.00  0.00    -0.166 F 
ATOM     23  F   UNL d   1       8.493   1.650   4.458  0.00  0.00    -0.166 F 
ATOM     24  F   UNL d   1       7.772  -0.350   4.895  0.00  0.00    -0.166 F 
ENDBRANCH  17  21
ENDBRANCH  13  15
ENDBRANCH  11  13
ENDBRANCH   1  11
BRANCH   2  25
ATOM     25  C   UNL d   1       1.710   1.006  -2.117  0.00  0.00     0.068 C 
BRANCH  25  26
ATOM     26  C   UNL d   1       0.750   1.430  -3.208  0.00  0.00    -0.053 A 
ATOM     27  C   UNL d   1      -0.125   0.492  -3.786  0.00  0.00     0.046 A 
ATOM     28  C   UNL d   1      -0.995   0.839  -4.834  0.00  0.00     0.102 A 
ATOM     29  C   UNL d   1      -0.996   2.166  -5.297  0.00  0.00     0.101 A 
ATOM     30  C   UNL d   1      -0.124   3.100  -4.716  0.00  0.00     0.040 A 
ATOM     31  C   UNL d   1       0.735   2.743  -3.677  0.00  0.00     0.010 A 
BRANCH  28  32
ATOM     32  O   UNL d   1      -1.821  -0.063  -5.450  0.00  0.00    -0.353 OA
ATOM     33  C   UNL d   1      -1.800  -1.413  -5.005  0.00  0.00     0.210 C 
ENDBRANCH  28  32
BRANCH  29  34
ATOM     34  O   UNL d   1      -1.731   2.705  -6.321  0.00  0.00    -0.353 OA
ATOM     35  C   UNL d   1      -2.926   2.043  -6.710  0.00  0.00     0.210 C 
ENDBRANCH  29  34
ENDBRANCH  25  26
ENDBRANCH   2  25
BRANCH   7  36
ATOM     36  O   UNL d   1      -3.743   1.263   0.045  0.00  0.00    -0.353 OA
ATOM     37  C   UNL d   1      -3.770   2.652  -0.249  0.00  0.00     0.210 C 
ENDBRANCH   7  36
BRANCH   9  38
ATOM     38  O   UNL d   1      -3.624  -1.622   0.457  0.00  0.00    -0.353 OA
ATOM     39  C   UNL d   1      -4.919  -1.055   0.577  0.00  0.00     0.210 C 
ENDBRANCH   9  38
TORSDOF 10
