REMARK  5 active torsions:
REMARK  status: ('A' for Active; 'I' for Inactive)
REMARK    1  A    between atoms: S_10  and  C_1 
REMARK    2  A    between atoms: C_8  and  C_4 
REMARK    3  A    between atoms: O_11  and  C_5 
REMARK    4  A    between atoms: C_12  and  S_10 
REMARK    5  A    between atoms: C_17  and  O_11 
ROOT
ATOM      1  O   UNL d   1       2.261  -0.082  -2.197  0.00  0.00    -0.406 OA
ATOM      2  C   UNL d   1       3.573  -0.113  -1.670  0.00  0.00     0.197 C 
ATOM      3  H   UNL d   1       2.043   0.852  -2.359  0.00  0.00     0.208 HD
ENDROOT
TORSDOF 5
