REMARK  7 active torsions:
REMARK  status: ('A' for Active; 'I' for Inactive)
REMARK    1  A    between atoms: C_2  and  S_1 
REMARK    2  A    between atoms: N_5  and  S_1 
REMARK    3  A    between atoms: C_15  and  N_5 
REMARK       I    between atoms: C_6  and  N_9 
REMARK    4  A    between atoms: C_13  and  C_6 
REMARK    5  A    between atoms: C_14  and  C_7 
REMARK    6  A    between atoms: N_9  and  C_14 
REMARK    7  A    between atoms: C_16  and  C_15 
ROOT
ATOM      1  C   UNL d   1       0.615  -1.713  -0.262  0.00  0.00     0.115 A 
ATOM      2  S   UNL d   1      -0.806  -2.146  -1.108  0.00  0.00    -0.080 SA
ATOM      3  C   UNL d   1       1.334  -2.831   0.119  0.00  0.00     0.033 A 
ATOM      4  C   UNL d   1      -0.491  -3.824  -0.934  0.00  0.00     0.002 A 
ATOM      5  C   UNL d   1       0.698  -4.045  -0.266  0.00  0.00     0.018 A 
ENDROOT
BRANCH   1   6
ATOM      6  S   UNL d   1       0.945   0.025  -0.011  0.00  0.00     0.248 S 
ATOM      7  O   UNL d   1       1.907   0.029   1.070  0.00  0.00    -0.205 OA
ATOM      8  O   UNL d   1      -0.332   0.690   0.089  0.00  0.00    -0.205 OA
BRANCH   6   9
ATOM      9  N   UNL d   1       1.764   0.583  -1.376  0.00  0.00    -0.211 NA
ATOM     10  H   UNL d   1       2.517  -0.045  -1.653  0.00  0.00     0.140 HD
BRANCH   9  11
ATOM     11  C   UNL d   1       0.930   1.060  -2.482  0.00  0.00     0.143 C 
BRANCH  11  12
ATOM     12  C   UNL d   1       1.730   1.561  -3.666  0.00  0.00    -0.044 A 
ATOM     13  C   UNL d   1       1.175   1.477  -4.953  0.00  0.00     0.008 A 
ATOM     14  C   UNL d   1       1.847   2.005  -6.058  0.00  0.00     0.001 A 
ATOM     15  C   UNL d   1       3.081   2.628  -5.890  0.00  0.00     0.000 A 
ATOM     16  C   UNL d   1       3.643   2.725  -4.618  0.00  0.00     0.001 A 
ATOM     17  C   UNL d   1       2.969   2.202  -3.511  0.00  0.00     0.008 A 
ENDBRANCH  11  12
ENDBRANCH   9  11
ENDBRANCH   6   9
ENDBRANCH   1   6
BRANCH   4  18
ATOM     18  C   UNL d   1      -1.444  -4.849  -1.467  0.00  0.00     0.169 C 
BRANCH  18  19
ATOM     19  N   UNL d   1      -1.053  -5.162  -2.822  0.00  0.00    -0.352 N 
ATOM     20  C   UNL d   1      -1.359  -6.384  -3.380  0.00  0.00     0.251 C 
ATOM     21  O   UNL d   1      -1.943  -7.274  -2.773  0.00  0.00    -0.268 OA
ATOM     22  H   UNL d   1      -0.836  -4.388  -3.433  0.00  0.00     0.163 HD
BRANCH  20  23
ATOM     23  C   UNL d   1      -0.955  -6.583  -4.802  0.00  0.00     0.032 A 
ATOM     24  C   UNL d   1       0.122  -5.889  -5.370  0.00  0.00     0.017 A 
ATOM     25  C   UNL d   1       0.490  -6.132  -6.695  0.00  0.00     0.001 A 
ATOM     26  C   UNL d   1      -0.207  -7.071  -7.455  0.00  0.00     0.000 A 
ATOM     27  C   UNL d   1      -1.274  -7.771  -6.892  0.00  0.00     0.001 A 
ATOM     28  C   UNL d   1      -1.646  -7.532  -5.568  0.00  0.00     0.017 A 
ENDBRANCH  20  23
ENDBRANCH  18  19
ENDBRANCH   4  18
TORSDOF 7
