REMARK  5 active torsions:
REMARK  status: ('A' for Active; 'I' for Inactive)
REMARK    1  A    between atoms: C_3  and  C_1 
REMARK    2  A    between atoms: N_4  and  C_2 
REMARK    3  A    between atoms: O_8  and  C_3 
REMARK    4  A    between atoms: C_6  and  N_4 
REMARK    5  A    between atoms: C_15  and  O_8 
ROOT
ATOM      1  N   UNL d   1       1.096   0.199   2.187  0.00  0.00    -0.360 N 
ATOM      2  H   UNL d   1       0.655   0.693   2.960  0.00  0.00     0.166 HD
ENDROOT
BRANCH   1   3
ATOM      3  C   UNL d   1       0.274   0.080   1.063  0.00  0.00     0.011 C 
ATOM      4  C   UNL d   1       0.801  -0.045  -0.170  0.00  0.00     0.106 C 
ATOM      5  C   UNL d   1      -1.204   0.156   1.368  0.00  0.00     0.068 C 
BRANCH   4   6
ATOM      6  C   UNL d   1       0.088  -0.258  -1.449  0.00  0.00     0.284 C 
ATOM      7  O   UNL d   1      -1.116  -0.324  -1.615  0.00  0.00    -0.260 OA
BRANCH   6   8
ATOM      8  O   UNL d   1       1.043  -0.504  -2.385  0.00  0.00    -0.318 OA
BRANCH   8   9
ATOM      9  C   UNL d   1       0.586  -1.178  -3.564  0.00  0.00     0.174 C 
ATOM     10  C   UNL d   1       0.631  -2.672  -3.295  0.00  0.00     0.034 C 
ENDBRANCH   8   9
ENDBRANCH   6   8
ENDBRANCH   4   6
ENDBRANCH   1   3
BRANCH   1  11
ATOM     11  C   UNL d   1       1.981  -0.798   2.668  0.00  0.00     0.032 A 
ATOM     12  C   UNL d   1       2.179  -2.033   2.034  0.00  0.00     0.031 A 
ATOM     13  C   UNL d   1       3.139  -2.939   2.500  0.00  0.00     0.026 A 
ATOM     14  C   UNL d   1       3.919  -2.613   3.604  0.00  0.00     0.034 A 
ATOM     15  C   UNL d   1       3.736  -1.397   4.256  0.00  0.00     0.026 A 
ATOM     16 CL   UNL d   1       5.128  -3.706   4.152  0.00  0.00    -0.084 Cl
ATOM     17  C   UNL d   1       2.775  -0.495   3.786  0.00  0.00     0.031 A 
ENDBRANCH   1  11
TORSDOF 5
