REMARK  4 active torsions:
REMARK  status: ('A' for Active; 'I' for Inactive)
REMARK    1  A    between atoms: C_2  and  C_1 
REMARK       I    between atoms: N_3  and  C_1 
REMARK    2  A    between atoms: C_4  and  N_3 
REMARK    3  A    between atoms: N_10  and  C_5 
REMARK    4  A    between atoms: N_11  and  C_6 
ROOT
ATOM      1  C   UNL d   1       0.929   0.263   0.131  0.00  0.00     0.258 C 
ATOM      2  N   UNL d   1       0.257   0.582  -1.034  0.00  0.00    -0.321 N 
ATOM      3  O   UNL d   1       2.144   0.084   0.228  0.00  0.00    -0.267 OA
ATOM      4  H   UNL d   1      -0.662   0.987  -0.921  0.00  0.00     0.169 HD
ENDROOT
BRANCH   2   5
ATOM      5  C   UNL d   1       0.779   0.599  -2.359  0.00  0.00     0.056 A 
ATOM      6  C   UNL d   1       1.940  -0.079  -2.800  0.00  0.00     0.033 A 
ATOM      7  C   UNL d   1       2.284  -0.021  -4.162  0.00  0.00     0.032 A 
ATOM      8  C   UNL d   1       1.554   0.739  -5.082  0.00  0.00    -0.060 A 
ATOM      9  C   UNL d   1       0.429   1.429  -4.635  0.00  0.00     0.009 A 
ATOM     10  C   UNL d   1       1.987   0.774  -6.516  0.00  0.00     0.048 C 
ATOM     11  C   UNL d   1       0.039   1.345  -3.293  0.00  0.00     0.032 A 
BRANCH   6  12
ATOM     12  N   UNL d   1       2.624  -1.040  -2.025  0.00  0.00    -0.301 NA
ATOM     13  H   UNL d   1       2.594  -0.782  -1.033  0.00  0.00     0.124 HD
ATOM     14  H   UNL d   1       3.590  -1.159  -2.309  0.00  0.00     0.124 HD
ENDBRANCH   6  12
ENDBRANCH   2   5
BRANCH   1  15
ATOM     15  C   UNL d   1       0.110   0.167   1.378  0.00  0.00     0.053 A 
ATOM     16  C   UNL d   1       0.710   0.439   2.628  0.00  0.00     0.021 A 
ATOM     17  C   UNL d   1      -0.065   0.314   3.789  0.00  0.00     0.024 A 
ATOM     18  C   UNL d   1      -1.374  -0.162   3.727  0.00  0.00     0.002 A 
ATOM     19  C   UNL d   1      -1.944  -0.483   2.498  0.00  0.00     0.001 A 
ATOM     20  C   UNL d   1      -1.208  -0.318   1.323  0.00  0.00     0.019 A 
BRANCH  16  21
ATOM     21  N   UNL d   1       1.983   1.040   2.740  0.00  0.00    -0.302 NA
ATOM     22  H   UNL d   1       2.556   0.827   1.913  0.00  0.00     0.124 HD
ATOM     23  H   UNL d   1       2.473   0.794   3.593  0.00  0.00     0.124 HD
ENDBRANCH  16  21
ENDBRANCH   1  15
TORSDOF 4
