REMARK  8 active torsions:
REMARK  status: ('A' for Active; 'I' for Inactive)
REMARK    1  A    between atoms: C_3  and  N_1 
REMARK       I    between atoms: C_2  and  N_5 
REMARK    2  A    between atoms: C_10  and  C_2 
REMARK    3  A    between atoms: C_14  and  C_3 
REMARK    4  A    between atoms: C_15  and  C_3 
REMARK    5  A    between atoms: C_4  and  C_16 
REMARK       I    between atoms: N_9  and  C_4 
REMARK    6  A    between atoms: N_5  and  N_9 
REMARK    7  A    between atoms: S_11  and  C_8 
REMARK    8  A    between atoms: C_16  and  S_11 
ROOT
ATOM      1  N   UNL d   1       0.308   0.913  -0.198  0.00  0.00     0.104 N 
ATOM      2  C   UNL d   1      -1.014   0.315   0.124  0.00  0.00     0.290 C 
ATOM      3  C   UNL d   1       0.940  -0.338   0.321  0.00  0.00     0.290 C 
ATOM      4  C   UNL d   1      -0.374  -1.089  -0.042  0.00  0.00     0.104 C 
ENDROOT
BRANCH   4   5
ATOM      5  S   UNL d   1      -0.302  -1.715  -1.791  0.00  0.00    -0.151 SA
BRANCH   5   6
ATOM      6  C   UNL d   1      -1.872  -2.614  -1.863  0.00  0.00     0.178 C 
BRANCH   6   7
ATOM      7  C   UNL d   1      -3.049  -1.669  -1.790  0.00  0.00     0.245 C 
ATOM      8  N   UNL d   1      -3.481  -1.166  -2.997  0.00  0.00    -0.267 N 
ATOM      9  H   UNL d   1      -3.097  -1.427  -3.906  0.00  0.00     0.190 HD
ATOM     10  O   UNL d   1      -3.577  -1.354  -0.718  0.00  0.00    -0.271 OA
BRANCH   8  11
ATOM     11  N   UNL d   1      -4.543  -0.255  -2.996  0.00  0.00    -0.263 N 
ATOM     12  C   UNL d   1      -5.006   0.236  -4.198  0.00  0.00     0.270 C 
ATOM     13  O   UNL d   1      -4.531  -0.088  -5.284  0.00  0.00    -0.266 OA
ATOM     14  H   UNL d   1      -4.776   0.160  -2.094  0.00  0.00     0.190 HD
BRANCH  12  15
ATOM     15  C   UNL d   1      -6.129   1.211  -4.117  0.00  0.00     0.033 A 
ATOM     16  C   UNL d   1      -6.230   2.208  -5.096  0.00  0.00     0.019 A 
ATOM     17  C   UNL d   1      -7.293   3.116  -5.072  0.00  0.00     0.025 A 
ATOM     18  C   UNL d   1      -8.265   3.018  -4.077  0.00  0.00     0.034 A 
ATOM     19  C   UNL d   1      -8.179   2.023  -3.103  0.00  0.00     0.025 A 
ATOM     20 CL   UNL d   1      -9.587   4.119  -4.060  0.00  0.00    -0.084 Cl
ATOM     21  C   UNL d   1      -7.111   1.118  -3.119  0.00  0.00     0.019 A 
ENDBRANCH  12  15
ENDBRANCH   8  11
ENDBRANCH   6   7
ENDBRANCH   5   6
ENDBRANCH   4   5
BRANCH   1  22
ATOM     22  C   UNL d   1       0.664   2.079   0.641  0.00  0.00     0.289 C 
BRANCH  22  23
ATOM     23  C   UNL d   1       2.029   2.637   0.211  0.00  0.00    -0.021 A 
ATOM     24  C   UNL d   1       2.241   3.089  -1.105  0.00  0.00     0.010 A 
ATOM     25  C   UNL d   1       3.446   3.689  -1.474  0.00  0.00     0.001 A 
ATOM     26  C   UNL d   1       4.467   3.829  -0.539  0.00  0.00     0.000 A 
ATOM     27  C   UNL d   1       4.291   3.353   0.760  0.00  0.00     0.001 A 
ATOM     28  C   UNL d   1       3.080   2.760   1.134  0.00  0.00     0.010 A 
ENDBRANCH  22  23
BRANCH  22  29
ATOM     29  C   UNL d   1      -0.377   3.210   0.645  0.00  0.00    -0.021 A 
ATOM     30  C   UNL d   1      -0.507   4.021   1.788  0.00  0.00     0.010 A 
ATOM     31  C   UNL d   1      -1.422   5.076   1.819  0.00  0.00     0.001 A 
ATOM     32  C   UNL d   1      -2.217   5.342   0.708  0.00  0.00     0.000 A 
ATOM     33  C   UNL d   1      -2.090   4.563  -0.440  0.00  0.00     0.001 A 
ATOM     34  C   UNL d   1      -1.171   3.511  -0.475  0.00  0.00     0.010 A 
ENDBRANCH  22  29
ENDBRANCH   1  22
TORSDOF 8
