REMARK  0 active torsions:
REMARK  status: ('A' for Active; 'I' for Inactive)
ROOT
ATOM      1  N   UNL d   1       2.412  -0.603   0.004  0.00  0.00    -0.275 N 
ATOM      2  C   UNL d   1       1.300  -1.409   0.043  0.00  0.00     0.261 A 
ATOM      3  C   UNL d   1      -0.003  -0.717   0.051  0.00  0.00     0.059 A 
ATOM      4  C   UNL d   1       2.417   0.763   0.010  0.00  0.00     0.327 A 
ATOM      5  N   UNL d   1       1.200   1.377   0.024  0.00  0.00    -0.308 N 
ATOM      6  C   UNL d   1      -0.009   0.677   0.026  0.00  0.00     0.052 A 
ATOM      7  C   UNL d   1      -1.202  -1.434   0.064  0.00  0.00     0.026 A 
ATOM      8  O   UNL d   1       1.381  -2.633   0.063  0.00  0.00    -0.267 OA
ATOM      9  O   UNL d   1       3.462   1.407  -0.001  0.00  0.00    -0.247 OA
ATOM     10  C   UNL d   1      -1.218   1.368  -0.008  0.00  0.00     0.031 A 
ATOM     11  C   UNL d   1      -2.424  -0.749   0.032  0.00  0.00    -0.061 A 
ATOM     12  C   UNL d   1      -2.420   0.654  -0.017  0.00  0.00     0.009 A 
ATOM     13  C   UNL d   1      -3.724  -1.497   0.020  0.00  0.00     0.048 C 
ATOM     14  H   UNL d   1       3.310  -1.061  -0.013  0.00  0.00     0.173 HD
ATOM     15  H   UNL d   1       1.213   2.389   0.023  0.00  0.00     0.170 HD
ENDROOT
TORSDOF 0
