REMARK  7 active torsions:
REMARK  status: ('A' for Active; 'I' for Inactive)
REMARK    1  A    between atoms: C_8  and  C_1 
REMARK    2  A    between atoms: C_16  and  N_4 
REMARK    3  A    between atoms: S_17  and  C_5 
REMARK    4  A    between atoms: C_7  and  C_9 
REMARK    5  A    between atoms: N_20  and  C_8 
REMARK    6  A    between atoms: C_9  and  O_13 
REMARK    7  A    between atoms: O_13  and  N_11 
ROOT
ATOM      1  C   UNL d   1      -0.657   2.545  -0.049  0.00  0.00     0.113 C 
ATOM      2  N   UNL d   1      -0.343   1.507   0.658  0.00  0.00    -0.245 N 
ATOM      3  HN  UNL d   1      -1.010   0.945   1.186  1.00  0.00     0.196 HD
ENDROOT
BRANCH   1   4
ATOM      4  C   UNL d   1      -2.061   2.927  -0.118  0.00  0.00     0.056 A 
ATOM      5  C   UNL d   1      -2.700   4.164  -0.381  0.00  0.00     0.099 A 
ATOM      6  N   UNL d   1      -4.027   4.078  -0.382  0.00  0.00    -0.287 N 
ATOM      7  N   UNL d   1      -4.293   2.782  -0.084  0.00  0.00    -0.266 N 
ATOM      8  HN  UNL d   1      -4.698   4.823  -0.567  1.00  0.00     0.188 HD
ATOM      9  C   UNL d   1      -3.130   2.070   0.097  0.00  0.00     0.134 A 
BRANCH   5  10
ATOM     10  S   UNL d   1      -1.905   5.709  -0.627  0.00  0.00    -0.114 SA
ATOM     11  C   UNL d   1      -3.300   6.794  -1.004  0.00  0.00     0.097 C 
ENDBRANCH   5  10
BRANCH   7  12
ATOM     12  C   UNL d   1      -5.639   2.321   0.002  0.00  0.00     0.056 A 
ATOM     13  C   UNL d   1      -5.938   0.989   0.319  0.00  0.00     0.031 A 
ATOM     14  C   UNL d   1      -7.270   0.569   0.391  0.00  0.00     0.002 A 
ATOM     15  C   UNL d   1      -8.309   1.468   0.150  0.00  0.00     0.000 A 
ATOM     16  C   UNL d   1      -8.020   2.792  -0.165  0.00  0.00     0.002 A 
ATOM     17  C   UNL d   1      -6.692   3.220  -0.239  0.00  0.00     0.031 A 
ENDBRANCH   7  12
ENDBRANCH   1   4
BRANCH   1  18
ATOM     18  N   UNL d   1       0.192   3.333  -0.769  0.00  0.00    -0.286 NA
ATOM     19  H   UNL d   1      -0.100   4.292  -0.930  0.00  0.00     0.125 HD
ATOM     20  H   UNL d   1       1.160   3.255  -0.479  0.00  0.00     0.125 HD
ENDBRANCH   1  18
BRANCH   2  21
ATOM     21  O   UNL d   1       1.048   1.254   0.603  0.00  0.00    -0.193 OA
BRANCH  21  22
ATOM     22  C   UNL d   1       1.389   0.340   1.556  0.00  0.00     0.316 C 
ATOM     23  O   UNL d   1       0.652  -0.186   2.381  0.00  0.00    -0.257 OA
BRANCH  22  24
ATOM     24  C   UNL d   1       2.811  -0.071   1.435  0.00  0.00     0.063 A 
ATOM     25  C   UNL d   1       3.877   0.778   1.099  0.00  0.00     0.052 A 
ATOM     26  C   UNL d   1       5.187   0.277   1.054  0.00  0.00     0.048 A 
ATOM     27 CL   UNL d   1       3.687   2.469   0.786  0.00  0.00    -0.083 Cl
ATOM     28  C   UNL d   1       5.439  -1.061   1.355  0.00  0.00     0.035 A 
ATOM     29  C   UNL d   1       4.394  -1.911   1.702  0.00  0.00     0.025 A 
ATOM     30 CL   UNL d   1       7.050  -1.661   1.315  0.00  0.00    -0.084 Cl
ATOM     31  C   UNL d   1       3.089  -1.417   1.743  0.00  0.00     0.021 A 
ENDBRANCH  22  24
ENDBRANCH  21  22
ENDBRANCH   2  21
TORSDOF 7
