REMARK  2 active torsions:
REMARK  status: ('A' for Active; 'I' for Inactive)
REMARK       I    between atoms: N_3  and  C_1 
REMARK       I    between atoms: N_5  and  C_1 
REMARK    1  A    between atoms: C_7  and  N_3 
REMARK    2  A    between atoms: C_13  and  N_5 
ROOT
ATOM      1  C   UNL d   1       1.076   0.028  -0.119  0.00  0.00     0.325 C 
ATOM      2  N   UNL d   1       0.498   1.039   0.638  0.00  0.00    -0.309 N 
ATOM      3  N   UNL d   1       0.224  -1.058  -0.246  0.00  0.00    -0.309 N 
ATOM      4  O   UNL d   1       2.207   0.076  -0.589  0.00  0.00    -0.247 OA
ATOM      5  H   UNL d   1      -0.354   0.807   1.125  0.00  0.00     0.170 HD
ATOM      6  H   UNL d   1      -0.737  -0.918   0.022  0.00  0.00     0.170 HD
ENDROOT
BRANCH   2   7
ATOM      7  C   UNL d   1       1.121   2.254   1.010  0.00  0.00     0.039 A 
ATOM      8  C   UNL d   1       2.311   2.715   0.442  0.00  0.00     0.069 A 
ATOM      9  C   UNL d   1       2.927   3.871   0.921  0.00  0.00     0.104 A 
ATOM     10  O   UNL d   1       4.121   4.212   0.338  0.00  0.00    -0.346 OA
ATOM     11  C   UNL d   1       2.334   4.612   1.943  0.00  0.00     0.102 A 
ATOM     12  C   UNL d   1       4.850   5.127   1.160  0.00  0.00     0.202 C 
ATOM     13  C   UNL d   1       3.944   6.252   1.629  0.00  0.00     0.202 C 
ATOM     14  O   UNL d   1       2.887   5.754   2.460  0.00  0.00    -0.346 OA
ATOM     15  C   UNL d   1       1.129   4.184   2.494  0.00  0.00     0.042 A 
ATOM     16  C   UNL d   1       0.520   3.013   2.024  0.00  0.00     0.032 A 
ENDBRANCH   2   7
BRANCH   3  17
ATOM     17  C   UNL d   1       0.540  -2.314  -0.815  0.00  0.00     0.036 A 
ATOM     18  C   UNL d   1       1.817  -2.671  -1.260  0.00  0.00     0.029 A 
ATOM     19  C   UNL d   1       2.061  -3.940  -1.796  0.00  0.00     0.002 A 
ATOM     20  C   UNL d   1       1.031  -4.869  -1.885  0.00  0.00     0.000 A 
ATOM     21  C   UNL d   1      -0.244  -4.530  -1.441  0.00  0.00     0.002 A 
ATOM     22  C   UNL d   1      -0.489  -3.260  -0.909  0.00  0.00     0.029 A 
ENDBRANCH   3  17
TORSDOF 2
