REMARK  7 active torsions:
REMARK  status: ('A' for Active; 'I' for Inactive)
REMARK    1  A    between atoms: C_8  and  C_5 
REMARK    2  A    between atoms: N_7  and  C_10 
REMARK       I    between atoms: N_15  and  C_8 
REMARK    3  A    between atoms: N_12  and  C_17 
REMARK    4  A    between atoms: C_23  and  N_15 
REMARK    5  A    between atoms: C_24  and  N_15 
REMARK    6  A    between atoms: C_26  and  C_23 
REMARK    7  A    between atoms: C_25  and  C_24 
ROOT
ATOM      1  C   UNL d   1      -0.719   0.640  -0.222  0.00  0.00     0.005 A 
ATOM      2  C   UNL d   1       1.122  -0.813  -0.158  0.00  0.00     0.028 A 
ATOM      3  C   UNL d   1       0.729   0.519  -0.412  0.00  0.00    -0.010 A 
ATOM      4  C   UNL d   1      -1.222  -0.655   0.024  0.00  0.00     0.030 A 
ATOM      5  C   UNL d   1      -1.641   1.685  -0.226  0.00  0.00     0.046 C 
ATOM      6  C   UNL d   1      -0.093  -1.589   0.128  0.00  0.00     0.194 A 
ATOM      7  C   UNL d   1       2.417  -1.292  -0.257  0.00  0.00     0.052 A 
ATOM      8  C   UNL d   1       3.379  -0.381  -0.696  0.00  0.00     0.103 A 
ATOM      9  C   UNL d   1       1.697   1.395  -0.878  0.00  0.00     0.016 A 
ATOM     10  C   UNL d   1      -2.565  -0.982   0.140  0.00  0.00     0.062 C 
ATOM     11  C   UNL d   1      -3.017   1.367  -0.194  0.00  0.00     0.064 C 
ATOM     12  C   UNL d   1      -3.486   0.050  -0.006  0.00  0.00     0.195 C 
ATOM     13  O   UNL d   1      -0.164  -2.775   0.378  0.00  0.00    -0.287 OA
ATOM     14  C   UNL d   1       3.022   0.944  -1.029  0.00  0.00     0.037 A 
ENDROOT
BRANCH   5  15
ATOM     15  C   UNL d   1      -1.272   3.119  -0.309  0.00  0.00     0.254 C 
ATOM     16  N   UNL d   1      -1.761   4.039   0.642  0.00  0.00    -0.348 N 
ATOM     17  O   UNL d   1      -0.562   3.449  -1.256  0.00  0.00    -0.267 OA
BRANCH  16  18
ATOM     18  C   UNL d   1      -1.365   5.446   0.469  0.00  0.00     0.125 C 
BRANCH  18  19
ATOM     19  C   UNL d   1      -0.366   5.955   1.512  0.00  0.00     0.015 C 
ATOM     20  C   UNL d   1       0.982   5.256   1.434  0.00  0.00     0.006 C 
ENDBRANCH  18  19
ENDBRANCH  16  18
BRANCH  16  21
ATOM     21  C   UNL d   1      -2.466   3.684   1.895  0.00  0.00     0.125 C 
BRANCH  21  22
ATOM     22  C   UNL d   1      -3.668   4.575   2.245  0.00  0.00     0.015 C 
ATOM     23  C   UNL d   1      -4.783   4.540   1.210  0.00  0.00     0.006 C 
ENDBRANCH  21  22
ENDBRANCH  16  21
ENDBRANCH   5  15
BRANCH  12  24
ATOM     24  N   UNL d   1      -4.896  -0.260   0.041  0.00  0.00     0.039 N 
ATOM     25  O   UNL d   1      -5.668   0.845   0.085  0.00  0.00    -0.062 OA
ATOM     26  H   UNL d   1      -5.106  -0.871  -0.777  0.00  0.00     0.366 HD
ATOM     27  H   UNL d   1      -5.068  -0.931   0.819  0.00  0.00     0.366 HD
ENDBRANCH  12  24
BRANCH   8  28
ATOM     28  N   UNL d   1       4.775  -0.818  -0.833  0.00  0.00    -0.116 N 
ATOM     29  O   UNL d   1       5.089  -1.900  -0.323  0.00  0.00    -0.532 OA
ATOM     30  O   UNL d   1       5.554  -0.070  -1.442  0.00  0.00    -0.532 OA
ENDBRANCH   8  28
TORSDOF 7
