REMARK  4 active torsions:
REMARK  status: ('A' for Active; 'I' for Inactive)
REMARK    1  A    between atoms: N_9  and  C_3 
REMARK    2  A    between atoms: C_16  and  C_4 
REMARK    3  A    between atoms: C_8  and  C_11 
REMARK    4  A    between atoms: C_13  and  N_12 
ROOT
ATOM      1  N   UNL d   1      -0.147   2.880   0.038  0.00  0.00    -0.266 NA
ATOM      2  N   UNL d   1       0.970   5.513   0.730  0.00  0.00    -0.366 N 
ATOM      3  C   UNL d   1       0.248   3.256   1.429  0.00  0.00     0.116 C 
ATOM      4  C   UNL d   1       0.143   4.771   1.690  0.00  0.00     0.139 C 
ATOM      5  C   UNL d   1       0.573   4.658  -1.559  0.00  0.00     0.035 C 
ATOM      6  C   UNL d   1       0.860   3.277  -0.971  0.00  0.00     0.098 C 
ATOM      7  C   UNL d   1       0.341   5.786  -0.558  0.00  0.00     0.125 C 
ENDROOT
BRANCH   1   8
ATOM      8  C   UNL d   1      -0.418   1.484  -0.052  0.00  0.00     0.108 A 
ATOM      9  N   UNL d   1       0.163   0.663   0.851  0.00  0.00    -0.331 N 
ATOM     10  C   UNL d   1      -0.106  -0.651   0.789  0.00  0.00     0.118 A 
ATOM     11  HN  UNL d   1       0.791   1.034   1.563  1.00  0.00     0.168 HD
ATOM     12  N   UNL d   1      -0.922  -1.211  -0.120  0.00  0.00    -0.344 N 
ATOM     13  C   UNL d   1      -1.508  -0.387  -1.020  0.00  0.00     0.032 A 
ATOM     14  HN  UNL d   1      -1.093  -2.216  -0.132  1.00  0.00     0.167 HD
ATOM     15  C   UNL d   1      -2.432  -1.050  -1.999  0.00  0.00     0.070 C 
ATOM     16  C   UNL d   1      -1.282   0.984  -1.033  0.00  0.00     0.094 A 
ATOM     17 CL   UNL d   1      -2.069   2.010  -2.182  0.00  0.00    -0.079 Cl
BRANCH  10  18
ATOM     18  C   UNL d   1       0.529  -1.527   1.780  0.00  0.00     0.023 A 
ATOM     19  C   UNL d   1       1.367  -1.023   2.779  0.00  0.00     0.102 A 
ATOM     20  N   UNL d   1       1.995  -1.768   3.726  0.00  0.00    -0.374 N 
ATOM     21  C   UNL d   1       1.783  -3.098   3.685  0.00  0.00     0.087 A 
ATOM     22  HN  UNL d   1       2.597  -1.342   4.431  1.00  0.00     0.164 HD
ATOM     23  C   UNL d   1       0.972  -3.715   2.750  0.00  0.00     0.018 A 
ATOM     24  C   UNL d   1       0.344  -2.918   1.794  0.00  0.00     0.018 A 
ENDBRANCH  10  18
ENDBRANCH   1   8
BRANCH   2  25
ATOM     25  C   UNL d   1       1.980   6.329   1.198  0.00  0.00     0.102 A 
ATOM     26  N   UNL d   1       1.951   6.754   2.478  0.00  0.00    -0.352 N 
ATOM     27  C   UNL d   1       2.962   7.532   2.935  0.00  0.00     0.106 A 
ATOM     28  HN  UNL d   1       1.180   6.494   3.092  1.00  0.00     0.166 HD
ATOM     29  C   UNL d   1       4.058   7.903   2.176  0.00  0.00     0.063 A 
ATOM     30  C   UNL d   1       4.101   7.442   0.863  0.00  0.00     0.021 A 
ATOM     31  C   UNL d   1       3.054   6.662   0.372  0.00  0.00     0.049 A 
BRANCH  29  32
ATOM     32  C   UNL d   1       5.149   8.747   2.752  0.00  0.00     0.418 C 
ATOM     33  F   UNL d   1       4.911   9.156   4.029  0.00  0.00    -0.166 F 
ATOM     34  F   UNL d   1       6.346   8.099   2.785  0.00  0.00    -0.166 F 
ATOM     35  F   UNL d   1       5.362   9.883   2.032  0.00  0.00    -0.166 F 
ENDBRANCH  29  32
ENDBRANCH   2  25
TORSDOF 4
