REMARK  4 active torsions:
REMARK  status: ('A' for Active; 'I' for Inactive)
REMARK    1  A    between atoms: C_6  and  C_1 
REMARK    2  A    between atoms: C_10  and  C_4 
REMARK       I    between atoms: N_8  and  C_6 
REMARK    3  A    between atoms: N_9  and  N_8 
REMARK    4  A    between atoms: C_12  and  N_9 
ROOT
ATOM      1  C   UNL d   1      -0.087  -1.314   0.127  0.00  0.00     0.093 A 
ATOM      2  N   UNL d   1      -1.261   0.640  -0.018  0.00  0.00    -0.259 N 
ATOM      3  HN  UNL d   1      -2.020   1.321  -0.066  1.00  0.00     0.195 HD
ATOM      4  C   UNL d   1      -1.389  -0.689   0.143  0.00  0.00     0.083 A 
ATOM      5  O   UNL d   1       0.073   0.908  -0.107  0.00  0.00    -0.241 OA
ATOM      6  C   UNL d   1       0.782  -0.243  -0.014  0.00  0.00     0.090 A 
ATOM      7  C   UNL d   1       2.245  -0.045  -0.104  0.00  0.00     0.080 C 
ENDROOT
BRANCH   1   8
ATOM      8  C   UNL d   1       0.237  -2.733   0.222  0.00  0.00     0.271 C 
ATOM      9  N   UNL d   1       1.541  -3.033   0.589  0.00  0.00    -0.282 N 
ATOM     10  H   UNL d   1       2.293  -2.364   0.530  0.00  0.00     0.184 HD
ATOM     11  O   UNL d   1      -0.580  -3.629   0.009  0.00  0.00    -0.266 OA
BRANCH   9  12
ATOM     12  N   UNL d   1       1.953  -4.372   0.587  0.00  0.00    -0.203 NA
ATOM     13  H   UNL d   1       1.178  -5.024   0.407  0.00  0.00     0.153 HD
BRANCH  12  14
ATOM     14  C   UNL d   1       2.735  -4.768   1.699  0.00  0.00     0.027 A 
ATOM     15  C   UNL d   1       3.196  -3.882   2.686  0.00  0.00     0.027 A 
ATOM     16  C   UNL d   1       4.049  -4.316   3.707  0.00  0.00     0.026 A 
ATOM     17  C   UNL d   1       4.470  -5.641   3.740  0.00  0.00     0.034 A 
ATOM     18  C   UNL d   1       4.038  -6.537   2.767  0.00  0.00     0.026 A 
ATOM     19 CL   UNL d   1       5.539  -6.168   4.980  0.00  0.00    -0.084 Cl
ATOM     20  C   UNL d   1       3.176  -6.100   1.754  0.00  0.00     0.027 A 
ENDBRANCH  12  14
ENDBRANCH   9  12
ENDBRANCH   1   8
BRANCH   4  21
ATOM     21  C   UNL d   1      -2.738  -1.238   0.336  0.00  0.00    -0.006 A 
ATOM     22  C   UNL d   1      -3.838  -0.615  -0.280  0.00  0.00     0.014 A 
ATOM     23  C   UNL d   1      -5.142  -1.067  -0.058  0.00  0.00     0.001 A 
ATOM     24  C   UNL d   1      -5.366  -2.155   0.779  0.00  0.00     0.000 A 
ATOM     25  C   UNL d   1      -4.288  -2.784   1.398  0.00  0.00     0.001 A 
ATOM     26  C   UNL d   1      -2.985  -2.321   1.188  0.00  0.00     0.014 A 
ENDBRANCH   4  21
TORSDOF 4
