REMARK  5 active torsions:
REMARK  status: ('A' for Active; 'I' for Inactive)
REMARK    1  A    between atoms: O_2  and  S_1 
REMARK    2  A    between atoms: C_3  and  S_1 
REMARK    3  A    between atoms: C_4  and  O_2 
REMARK    4  A    between atoms: N_5  and  C_6 
REMARK    5  A    between atoms: N_8  and  C_9 
REMARK       I    between atoms: C_13  and  N_8 
ROOT
ATOM      1  S   UNL d   1      -1.035   0.697   0.142  0.00  0.00     0.303 S 
ATOM      2  O   UNL d   1      -2.054   1.726   0.055  0.00  0.00    -0.193 OA
ATOM      3  O   UNL d   1      -1.207  -0.450   1.017  0.00  0.00    -0.193 OA
ENDROOT
BRANCH   1   4
ATOM      4  O   UNL d   1       0.426   1.364   0.393  0.00  0.00    -0.227 OA
BRANCH   4   5
ATOM      5  C   UNL d   1       0.753   2.088   1.520  0.00  0.00     0.116 A 
ATOM      6  C   UNL d   1       2.099   2.049   1.965  0.00  0.00     0.065 A 
ATOM      7  C   UNL d   1       2.413   2.832   3.097  0.00  0.00     0.032 A 
ATOM      8  C   UNL d   1       1.466   3.623   3.751  0.00  0.00     0.002 A 
ATOM      9  C   UNL d   1       0.162   3.653   3.287  0.00  0.00     0.003 A 
ATOM     10  C   UNL d   1      -0.194   2.891   2.177  0.00  0.00     0.040 A 
BRANCH   6  11
ATOM     11  N   UNL d   1       3.117   1.332   1.346  0.00  0.00    -0.379 N 
ATOM     12  C   UNL d   1       3.167   1.112  -0.099  0.00  0.00     0.123 C 
ATOM     13  C   UNL d   1       4.564   1.454  -0.621  0.00  0.00     0.020 C 
ATOM     14  C   UNL d   1       5.660   0.728   0.154  0.00  0.00     0.003 C 
ATOM     15  C   UNL d   1       5.519   0.982   1.653  0.00  0.00     0.020 C 
ATOM     16  C   UNL d   1       4.119   0.608   2.138  0.00  0.00     0.123 C 
ENDBRANCH   6  11
ENDBRANCH   4   5
ENDBRANCH   1   4
BRANCH   1  17
ATOM     17  C   UNL d   1      -0.870   0.051  -1.517  0.00  0.00     0.088 A 
ATOM     18  C   UNL d   1      -0.423  -1.254  -1.730  0.00  0.00     0.052 A 
ATOM     19  C   UNL d   1      -0.327  -1.735  -3.042  0.00  0.00     0.062 A 
ATOM     20 CL   UNL d   1       0.244  -3.353  -3.273  0.00  0.00    -0.082 Cl
ATOM     21  C   UNL d   1      -0.695  -0.935  -4.145  0.00  0.00     0.056 A 
ATOM     22  C   UNL d   1      -1.143   0.367  -3.899  0.00  0.00     0.033 A 
ATOM     23  C   UNL d   1      -1.234   0.861  -2.597  0.00  0.00     0.028 A 
BRANCH  21  24
ATOM     24  N   UNL d   1      -0.578  -1.462  -5.457  0.00  0.00    -0.326 N 
ATOM     25  C   UNL d   1      -1.081  -0.908  -6.620  0.00  0.00     0.218 C 
ATOM     26  O   UNL d   1      -1.796   0.086  -6.699  0.00  0.00    -0.274 OA
ATOM     27  C   UNL d   1      -0.671  -1.641  -7.872  0.00  0.00     0.117 C 
ATOM     28  H   UNL d   1      -0.154  -2.383  -5.517  0.00  0.00     0.169 HD
ENDBRANCH  21  24
ENDBRANCH   1  17
TORSDOF 5
