REMARK  4 active torsions:
REMARK  status: ('A' for Active; 'I' for Inactive)
REMARK    1  A    between atoms: C_5  and  C_1 
REMARK    2  A    between atoms: C_2  and  N_4 
REMARK    3  A    between atoms: N_14  and  C_2 
REMARK    4  A    between atoms: N_4  and  C_3 
ROOT
ATOM      1  C   UNL d   1       0.419  -2.559   2.926  0.00  0.00     0.057 A 
ATOM      2  C   UNL d   1       0.651  -0.701   1.347  0.00  0.00     0.050 A 
ATOM      3  C   UNL d   1       0.771  -2.067   1.667  0.00  0.00     0.047 A 
ATOM      4  C   UNL d   1      -0.049  -1.635   3.884  0.00  0.00     0.060 A 
ATOM      5  C   UNL d   1       0.165   0.189   2.314  0.00  0.00     0.018 A 
ATOM      6  C   UNL d   1      -0.179  -0.276   3.581  0.00  0.00     0.027 A 
ATOM      7 CL   UNL d   1      -0.478  -2.147   5.484  0.00  0.00    -0.082 Cl
ENDROOT
BRANCH   1   8
ATOM      8  N   UNL d   1       0.508  -3.922   3.312  0.00  0.00    -0.332 N 
ATOM      9  H   UNL d   1       0.192  -4.083   4.262  0.00  0.00     0.168 HD
BRANCH   8  10
ATOM     10  C   UNL d   1       0.862  -5.073   2.651  0.00  0.00     0.170 C 
ATOM     11  S   UNL d   1       1.298  -5.353   1.074  0.00  0.00    -0.041 SA
BRANCH  10  12
ATOM     12  N   UNL d   1       0.803  -6.165   3.472  0.00  0.00    -0.376 N 
ATOM     13  H   UNL d   1       0.890  -6.080   4.476  0.00  0.00     0.158 HD
ATOM     14  H   UNL d   1       1.122  -7.041   3.071  0.00  0.00     0.158 HD
ENDBRANCH  10  12
ENDBRANCH   8  10
ENDBRANCH   1   8
BRANCH   2  15
ATOM     15  C   UNL d   1       1.040  -0.193  -0.023  0.00  0.00     0.417 C 
ATOM     16  F   UNL d   1       1.543  -1.155  -0.844  0.00  0.00    -0.166 F 
ATOM     17  F   UNL d   1       1.991   0.779   0.039  0.00  0.00    -0.166 F 
ATOM     18  F   UNL d   1      -0.013   0.356  -0.689  0.00  0.00    -0.166 F 
ENDBRANCH   2  15
TORSDOF 4
