REMARK  3 active torsions:
REMARK  status: ('A' for Active; 'I' for Inactive)
REMARK    1  A    between atoms: C_5  and  N_1 
REMARK    2  A    between atoms: C_3  and  C_9 
REMARK    3  A    between atoms: C_7  and  C_5 
ROOT
ATOM      1  N   UNL d   1       0.834   1.288  -0.071  0.00  0.00    -0.312 N 
ATOM      2  C   UNL d   1      -0.503   0.765  -0.031  0.00  0.00     0.055 A 
ATOM      3  C   UNL d   1       1.956   0.536   0.290  0.00  0.00     0.234 C 
ATOM      4  C   UNL d   1      -1.612   1.629  -0.020  0.00  0.00     0.047 A 
ATOM      5  S   UNL d   1       0.579  -1.805  -0.060  0.00  0.00    -0.118 SA
ATOM      6  C   UNL d   1      -2.931   1.141   0.020  0.00  0.00     0.050 A 
ATOM      7  C   UNL d   1      -0.746  -0.621  -0.020  0.00  0.00     0.028 A 
ATOM      8  C   UNL d   1       1.739  -0.829   0.904  0.00  0.00     0.182 C 
ATOM      9  O   UNL d   1       3.103   0.998   0.233  0.00  0.00    -0.272 OA
ATOM     10  C   UNL d   1      -3.142  -0.242   0.009  0.00  0.00     0.017 A 
ATOM     11  C   UNL d   1      -2.057  -1.116  -0.020  0.00  0.00     0.021 A 
ENDROOT
BRANCH   1  12
ATOM     12  C   UNL d   1       1.075   2.600  -0.692  0.00  0.00     0.172 C 
BRANCH  12  13
ATOM     13  C   UNL d   1       1.030   3.801   0.238  0.00  0.00    -0.018 A 
ATOM     14  C   UNL d   1       0.605   5.065  -0.217  0.00  0.00     0.043 A 
ATOM     15  C   UNL d   1       0.683   6.194   0.605  0.00  0.00     0.048 A 
ATOM     16 CL   UNL d   1      -0.021   5.304  -1.812  0.00  0.00    -0.084 Cl
ATOM     17  C   UNL d   1       1.194   6.077   1.892  0.00  0.00     0.035 A 
ATOM     18  C   UNL d   1       1.612   4.840   2.370  0.00  0.00     0.024 A 
ATOM     19 CL   UNL d   1       1.335   7.471   2.888  0.00  0.00    -0.084 Cl
ATOM     20  C   UNL d   1       1.536   3.712   1.548  0.00  0.00     0.012 A 
ENDBRANCH  12  13
ENDBRANCH   1  12
BRANCH   6  21
ATOM     21  C   UNL d   1      -4.109   2.083   0.097  0.00  0.00     0.417 C 
ATOM     22  F   UNL d   1      -3.753   3.398   0.100  0.00  0.00    -0.166 F 
ATOM     23  F   UNL d   1      -4.971   1.929  -0.944  0.00  0.00    -0.166 F 
ATOM     24  F   UNL d   1      -4.845   1.895   1.227  0.00  0.00    -0.166 F 
ENDBRANCH   6  21
TORSDOF 3
