REMARK  3 active torsions:
REMARK  status: ('A' for Active; 'I' for Inactive)
REMARK    1  A    between atoms: N_2  and  S_1 
REMARK    2  A    between atoms: C_13  and  S_1 
REMARK    3  A    between atoms: C_7  and  C_3 
ROOT
ATOM      1  N   UNL d   1       0.258   0.472  -1.675  0.00  0.00    -0.245 N 
ATOM      2  C   UNL d   1      -0.147   1.729  -3.451  0.00  0.00    -0.006 A 
ATOM      3  C   UNL d   1       0.232   1.765  -2.131  0.00  0.00     0.122 A 
ATOM      4  C   UNL d   1      -0.106  -0.419  -2.667  0.00  0.00     0.061 A 
ATOM      5  C   UNL d   1      -0.382   0.362  -3.800  0.00  0.00     0.003 A 
ATOM      6  C   UNL d   1      -0.228  -1.821  -2.697  0.00  0.00     0.031 A 
ATOM      7  C   UNL d   1      -0.786  -0.282  -4.990  0.00  0.00     0.014 A 
ATOM      8  C   UNL d   1      -0.642  -2.428  -3.887  0.00  0.00     0.002 A 
ATOM      9  C   UNL d   1      -0.916  -1.673  -5.020  0.00  0.00     0.001 A 
ENDROOT
BRANCH   2  10
ATOM     10  C   UNL d   1      -0.335   2.857  -4.300  0.00  0.00     0.031 C 
ATOM     11  C   UNL d   1       0.455   3.930  -4.467  0.00  0.00     0.045 A 
ATOM     12  C   UNL d   1       1.796   4.231  -3.843  0.00  0.00     0.257 A 
ATOM     13  C   UNL d   1       0.160   5.031  -5.395  0.00  0.00     0.006 A 
ATOM     14  N   UNL d   1       2.194   5.431  -4.419  0.00  0.00    -0.322 N 
ATOM     15  O   UNL d   1       2.427   3.582  -3.032  0.00  0.00    -0.267 OA
ATOM     16  C   UNL d   1       1.252   5.900  -5.330  0.00  0.00     0.046 A 
ATOM     17  H   UNL d   1       3.069   5.879  -4.193  0.00  0.00     0.169 HD
ATOM     18  C   UNL d   1       1.331   7.048  -6.092  0.00  0.00     0.030 A 
ATOM     19  C   UNL d   1       0.260   7.327  -6.944  0.00  0.00     0.002 A 
ATOM     20  C   UNL d   1      -0.853   6.469  -7.008  0.00  0.00     0.001 A 
ATOM     21  C   UNL d   1      -0.910   5.309  -6.228  0.00  0.00     0.015 A 
ENDBRANCH   2  10
BRANCH   1  22
ATOM     22  S   UNL d   1       0.928   0.045  -0.164  0.00  0.00     0.269 S 
ATOM     23  O   UNL d   1       0.205  -1.134   0.276  0.00  0.00    -0.200 OA
ATOM     24  O   UNL d   1       0.960   1.257   0.632  0.00  0.00    -0.200 OA
BRANCH  22  25
ATOM     25  C   UNL d   1       2.595  -0.403  -0.559  0.00  0.00     0.080 A 
ATOM     26  C   UNL d   1       3.433   0.534  -1.168  0.00  0.00     0.026 A 
ATOM     27  C   UNL d   1       4.718   0.155  -1.554  0.00  0.00     0.008 A 
ATOM     28  C   UNL d   1       5.174  -1.150  -1.325  0.00  0.00    -0.062 A 
ATOM     29  C   UNL d   1       4.336  -2.067  -0.676  0.00  0.00     0.008 A 
ATOM     30  C   UNL d   1       6.534  -1.559  -1.809  0.00  0.00     0.048 C 
ATOM     31  C   UNL d   1       3.047  -1.696  -0.288  0.00  0.00     0.026 A 
ENDBRANCH  22  25
ENDBRANCH   1  22
TORSDOF 3
