REMARK  3 active torsions:
REMARK  status: ('A' for Active; 'I' for Inactive)
REMARK       I    between atoms: N_2  and  C_1 
REMARK       I    between atoms: N_6  and  C_1 
REMARK       I    between atoms: C_3  and  N_2 
REMARK    1  A    between atoms: C_7  and  C_3 
REMARK    2  A    between atoms: C_10  and  N_6 
REMARK    3  A    between atoms: O_16  and  C_11 
ROOT
ATOM      1  N   UNL d   1       5.802   0.928  -0.481  0.00  0.00    -0.197 NA
ATOM      2  C   UNL d   1       5.215   0.205  -1.171  0.00  0.00     0.068 C 
ATOM      3  C   UNL d   1       4.421  -0.686  -2.010  0.00  0.00     0.227 C 
ENDROOT
BRANCH   3   4
ATOM      4  C   UNL d   1       2.923  -0.552  -1.831  0.00  0.00     0.238 C 
ATOM      5  N   UNL d   1       2.442   0.329  -0.880  0.00  0.00    -0.278 N 
ATOM      6  C   UNL d   1       1.127   0.646  -0.584  0.00  0.00     0.327 C 
ATOM      7  H   UNL d   1       3.074   0.862  -0.295  0.00  0.00     0.173 HD
ATOM      8  N   UNL d   1       0.185   0.011  -1.349  0.00  0.00    -0.309 N 
ATOM      9  O   UNL d   1       0.923   1.460   0.312  0.00  0.00    -0.247 OA
ATOM     10  H   UNL d   1       0.557  -0.639  -2.039  0.00  0.00     0.170 HD
ATOM     11  O   UNL d   1       2.168  -1.238  -2.528  0.00  0.00    -0.272 OA
BRANCH   8  12
ATOM     12  C   UNL d   1      -1.214   0.148  -1.315  0.00  0.00     0.036 A 
ATOM     13  C   UNL d   1      -1.901   0.971  -0.422  0.00  0.00     0.032 A 
ATOM     14  C   UNL d   1      -3.301   1.050  -0.459  0.00  0.00     0.039 A 
ATOM     15  C   UNL d   1      -4.024   0.306  -1.390  0.00  0.00     0.068 A 
ATOM     16  C   UNL d   1      -3.339  -0.501  -2.296  0.00  0.00     0.039 A 
ATOM     17  C   UNL d   1      -1.945  -0.590  -2.252  0.00  0.00     0.032 A 
BRANCH  15  18
ATOM     18  O   UNL d   1      -5.383   0.317  -1.532  0.00  0.00    -0.356 OA
ATOM     19  C   UNL d   1      -6.123   0.638  -0.360  0.00  0.00     0.210 C 
ENDBRANCH  15  18
ENDBRANCH   8  12
ENDBRANCH   3   4
TORSDOF 3
