REMARK  2 active torsions:
REMARK  status: ('A' for Active; 'I' for Inactive)
REMARK    1  A    between atoms: C_2  and  C_1 
REMARK    2  A    between atoms: C_10  and  C_5 
ROOT
ATOM      1  C   UNL d   1       0.160  -1.169  -0.009  0.00  0.00     0.091 A 
ATOM      2  N   UNL d   1       1.359  -0.635   0.098  0.00  0.00    -0.349 N 
ATOM      3  HN  UNL d   1       2.221  -1.169   0.215  1.00  0.00     0.166 HD
ATOM      4  C   UNL d   1       1.295   0.746   0.031  0.00  0.00     0.051 A 
ATOM      5  S   UNL d   1      -1.117  -0.031  -0.190  0.00  0.00    -0.081 SA
ATOM      6  C   UNL d   1       0.013   1.249  -0.097  0.00  0.00     0.082 A 
ENDROOT
BRANCH   1   7
ATOM      7  C   UNL d   1      -0.037  -2.646   0.003  0.00  0.00     0.074 A 
ATOM      8  C   UNL d   1      -1.189  -3.345  -0.272  0.00  0.00     0.179 A 
ATOM      9  O   UNL d   1      -0.934  -4.678  -0.167  0.00  0.00    -0.219 OA
ATOM     10  N   UNL d   1      -2.442  -3.002  -0.627  0.00  0.00    -0.377 N 
ATOM     11  N   UNL d   1       0.387  -4.876   0.186  0.00  0.00    -0.263 N 
ATOM     12  C   UNL d   1       0.922  -3.651   0.294  0.00  0.00     0.046 A 
ATOM     13  HN  UNL d   1       0.858  -5.769   0.334  1.00  0.00     0.194 HD
ATOM     14  C   UNL d   1       2.336  -3.501   0.709  0.00  0.00     0.071 C 
ATOM     15  H   UNL d   1      -2.644  -2.070  -0.972  0.00  0.00     0.158 HD
ATOM     16  H   UNL d   1      -3.057  -3.728  -0.988  0.00  0.00     0.158 HD
ENDBRANCH   1   7
BRANCH   4  17
ATOM     17  C   UNL d   1       2.498   1.580   0.026  0.00  0.00     0.013 A 
ATOM     18  C   UNL d   1       3.660   1.264   0.756  0.00  0.00     0.048 A 
ATOM     19  C   UNL d   1       4.801   2.076   0.665  0.00  0.00     0.048 A 
ATOM     20 CL   UNL d   1       3.776  -0.087   1.832  0.00  0.00    -0.083 Cl
ATOM     21  C   UNL d   1       4.790   3.209  -0.141  0.00  0.00     0.035 A 
ATOM     22  C   UNL d   1       3.651   3.547  -0.861  0.00  0.00     0.025 A 
ATOM     23 CL   UNL d   1       6.192   4.198  -0.251  0.00  0.00    -0.084 Cl
ATOM     24  C   UNL d   1       2.517   2.736  -0.782  0.00  0.00     0.017 A 
ENDBRANCH   4  17
TORSDOF 2
