REMARK  4 active torsions:
REMARK  status: ('A' for Active; 'I' for Inactive)
REMARK    1  A    between atoms: C_2  and  C_1 
REMARK    2  A    between atoms: C_11  and  C_1 
REMARK    3  A    between atoms: C_8  and  C_2 
REMARK    4  A    between atoms: N_10  and  C_11 
ROOT
ATOM      1  N   UNL d   1      -5.093   3.482   0.089  0.00  0.00    -0.191 NA
ATOM      2  C   UNL d   1      -4.494   2.489   0.090  0.00  0.00     0.101 C 
ATOM      3  N   UNL d   1      -3.809  -1.157   0.092  0.00  0.00    -0.372 N 
ATOM      4  HN  UNL d   1      -4.334  -2.032   0.092  1.00  0.00     0.164 HD
ATOM      5  C   UNL d   1      -3.763   1.262   0.090  0.00  0.00     0.061 A 
ATOM      6  C   UNL d   1      -1.694   0.022   0.090  0.00  0.00     0.034 A 
ATOM      7  C   UNL d   1      -2.365   1.246   0.090  0.00  0.00     0.046 A 
ATOM      8  C   UNL d   1      -4.433   0.046   0.091  0.00  0.00     0.110 A 
ATOM      9  C   UNL d   1      -2.453  -1.140   0.091  0.00  0.00     0.108 A 
ENDROOT
BRANCH   6  10
ATOM     10  C   UNL d   1      -0.266  -0.026   0.089  0.00  0.00    -0.064 C 
BRANCH  10  11
ATOM     11  C   UNL d   1       1.038  -0.026   0.089  0.00  0.00    -0.071 C 
BRANCH  11  12
ATOM     12  C   UNL d   1       2.558  -0.026   0.089  0.00  0.00     0.365 C 
BRANCH  12  13
ATOM     13  N   UNL d   1       3.067   1.018   0.993  0.00  0.00     0.090 N 
ATOM     14  C   UNL d   1       2.623   0.819   2.376  0.00  0.00     0.310 C 
ATOM     15  C   UNL d   1       4.530   1.047   0.950  0.00  0.00     0.310 C 
ENDBRANCH  12  13
ENDBRANCH  11  12
ENDBRANCH  10  11
ENDBRANCH   6  10
TORSDOF 4
