REMARK  9 active torsions:
REMARK  status: ('A' for Active; 'I' for Inactive)
REMARK    1  A    between atoms: C_5  and  C_1 
REMARK    2  A    between atoms: C_10  and  N_4 
REMARK       I    between atoms: C_8  and  N_12 
REMARK    3  A    between atoms: C_13  and  C_8 
REMARK    4  A    between atoms: C_9  and  C_13 
REMARK    5  A    between atoms: C_14  and  C_9 
REMARK    6  A    between atoms: C_20  and  C_9 
REMARK    7  A    between atoms: C_11  and  C_14 
REMARK    8  A    between atoms: O_24  and  C_11 
REMARK    9  A    between atoms: N_12  and  C_23 
ROOT
ATOM      1  C   UNL d   1       6.817   3.645  -0.622  0.00  0.00     0.222 C 
ATOM      2  N   UNL d   1       5.684   3.338   0.111  0.00  0.00    -0.327 N 
ATOM      3  O   UNL d   1       7.826   4.167  -0.160  0.00  0.00    -0.273 OA
ATOM      4  H   UNL d   1       4.957   2.807  -0.351  0.00  0.00     0.169 HD
ENDROOT
BRANCH   2   5
ATOM      5  C   UNL d   1       5.433   3.729   1.453  0.00  0.00     0.034 A 
ATOM      6  C   UNL d   1       6.295   4.535   2.206  0.00  0.00     0.032 A 
ATOM      7  C   UNL d   1       5.955   4.974   3.493  0.00  0.00     0.034 A 
ATOM      8  C   UNL d   1       4.733   4.606   4.057  0.00  0.00     0.056 A 
ATOM      9  C   UNL d   1       3.884   3.752   3.335  0.00  0.00     0.034 A 
ATOM     10  C   UNL d   1       4.231   3.323   2.043  0.00  0.00     0.032 A 
BRANCH   8  11
ATOM     11  N   UNL d   1       4.321   5.112   5.322  0.00  0.00    -0.267 N 
ATOM     12  N   UNL d   1       3.130   4.743   5.861  0.00  0.00    -0.290 N 
ATOM     13  C   UNL d   1       3.009   5.455   6.997  0.00  0.00     0.134 A 
ATOM     14  HN  UNL d   1       2.465   4.068   5.483  1.00  0.00     0.187 HD
ATOM     15  C   UNL d   1       4.145   6.277   7.199  0.00  0.00     0.055 A 
ATOM     16  C   UNL d   1       4.966   6.026   6.127  0.00  0.00     0.119 A 
BRANCH  13  17
ATOM     17  C   UNL d   1       1.804   5.370   7.895  0.00  0.00     0.434 C 
ATOM     18  F   UNL d   1       0.890   4.445   7.500  0.00  0.00    -0.165 F 
ATOM     19  F   UNL d   1       2.153   5.053   9.172  0.00  0.00    -0.165 F 
ATOM     20  F   UNL d   1       1.148   6.562   7.964  0.00  0.00    -0.165 F 
ENDBRANCH  13  17
ENDBRANCH   8  11
ENDBRANCH   2   5
BRANCH   1  21
ATOM     21  C   UNL d   1       6.728   3.296  -2.113  0.00  0.00     0.113 C 
BRANCH  21  22
ATOM     22  C   UNL d   1       7.988   3.824  -2.847  0.00  0.00     0.037 C 
BRANCH  22  23
ATOM     23  C   UNL d   1       9.309   3.092  -2.514  0.00  0.00     0.119 C 
BRANCH  23  24
ATOM     24  C   UNL d   1       9.330   1.592  -2.698  0.00  0.00     0.140 C 
ATOM     25  O   UNL d   1       8.391   0.889  -3.029  0.00  0.00    -0.650 OA
BRANCH  24  26
ATOM     26  O   UNL d   1      10.549   1.070  -2.413  0.00  0.00    -0.776 OA
ATOM     27  H   UNL d   1      11.202   1.740  -2.134  0.00  0.00     0.167 HD
ENDBRANCH  24  26
ENDBRANCH  23  24
ENDBRANCH  22  23
BRANCH  22  28
ATOM     28  C   UNL d   1       7.879   4.052  -4.351  0.00  0.00    -0.053 A 
ATOM     29  C   UNL d   1       8.280   5.306  -4.858  0.00  0.00     0.007 A 
ATOM     30  C   UNL d   1       8.356   5.544  -6.229  0.00  0.00     0.001 A 
ATOM     31  C   UNL d   1       8.029   4.531  -7.122  0.00  0.00     0.000 A 
ATOM     32  C   UNL d   1       7.608   3.292  -6.640  0.00  0.00     0.001 A 
ATOM     33  C   UNL d   1       7.526   3.053  -5.261  0.00  0.00     0.007 A 
ENDBRANCH  22  28
ENDBRANCH  21  22
ENDBRANCH   1  21
TORSDOF 9
