REMARK  2 active torsions:
REMARK  status: ('A' for Active; 'I' for Inactive)
REMARK    1  A    between atoms: C_2  and  C_1 
REMARK    2  A    between atoms: O_13  and  C_1 
ROOT
ATOM      1  C   UNL d   1       0.291   0.099   1.319  0.00  0.00     0.041 A 
ATOM      2  C   UNL d   1      -0.776  -0.785   1.518  0.00  0.00     0.049 A 
ATOM      3  C   UNL d   1      -1.493  -0.794   2.708  0.00  0.00     0.060 A 
ATOM      4  N   UNL d   1      -2.516  -1.659   2.853  0.00  0.00    -0.363 N 
ATOM      5  HN  UNL d   1      -2.779  -2.308   2.112  1.00  0.00     0.165 HD
ATOM      6  N   UNL d   1      -1.802   0.127   4.915  0.00  0.00    -0.363 N 
ATOM      7  HN  UNL d   1      -1.549   0.770   5.666  1.00  0.00     0.165 HD
ATOM      8  C   UNL d   1      -1.136   0.105   3.745  0.00  0.00     0.059 A 
ATOM      9  C   UNL d   1       0.637   0.987   2.340  0.00  0.00     0.020 A 
ATOM     10  C   UNL d   1      -0.078   0.980   3.541  0.00  0.00     0.033 A 
ATOM     11  C   UNL d   1      -3.174  -1.619   4.031  0.00  0.00     0.105 A 
ATOM     12  C   UNL d   1      -2.824  -0.747   5.041  0.00  0.00     0.105 A 
ENDROOT
BRANCH   1  13
ATOM     13  C   UNL d   1       1.074   0.133   0.054  0.00  0.00     0.293 C 
ATOM     14  O   UNL d   1       1.984   0.919  -0.150  0.00  0.00    -0.259 OA
BRANCH  13  15
ATOM     15  O   UNL d   1       0.626  -0.815  -0.805  0.00  0.00    -0.323 OA
ATOM     16  C   UNL d   1       1.311  -0.877  -2.058  0.00  0.00     0.213 C 
ENDBRANCH  13  15
ENDBRANCH   1  13
TORSDOF 2
