REMARK  7 active torsions:
REMARK  status: ('A' for Active; 'I' for Inactive)
REMARK    1  A    between atoms: N_2  and  S_1 
REMARK    2  A    between atoms: C_6  and  S_1 
REMARK       I    between atoms: C_4  and  N_2 
REMARK    3  A    between atoms: C_3  and  C_7 
REMARK       I    between atoms: N_10  and  C_4 
REMARK    4  A    between atoms: O_11  and  C_5 
REMARK    5  A    between atoms: C_7  and  N_10 
REMARK    6  A    between atoms: C_16  and  O_11 
REMARK    7  A    between atoms: O_27  and  C_18 
ROOT
ATOM      1  C   UNL d   1       2.595   2.276  -0.172  0.00  0.00     0.167 C 
ENDROOT
BRANCH   1   2
ATOM      2  C   UNL d   1       3.125   3.451   0.616  0.00  0.00     0.015 C 
ATOM      3  C   UNL d   1       2.596   4.751   0.461  0.00  0.00     0.085 C 
ATOM      4  C   UNL d   1       3.277   5.859   1.005  0.00  0.00     0.038 C 
ATOM      5  C   UNL d   1       4.380   5.689   1.831  0.00  0.00     0.004 C 
ATOM      6  C   UNL d   1       4.843   4.407   2.087  0.00  0.00     0.024 C 
ATOM      7  C   UNL d   1       4.237   3.301   1.475  0.00  0.00     0.044 C 
ATOM      8 CL   UNL d   1       4.933   1.758   1.836  0.00  0.00    -0.084 Cl
BRANCH   3   9
ATOM      9  O   UNL d   1       1.408   4.928  -0.242  0.00  0.00    -0.310 OA
BRANCH   9  10
ATOM     10  C   UNL d   1       0.577   5.957   0.182  0.00  0.00     0.076 A 
ATOM     11  C   UNL d   1       0.002   6.791  -0.780  0.00  0.00     0.040 A 
ATOM     12  C   UNL d   1      -0.728   7.926  -0.385  0.00  0.00     0.039 A 
ATOM     13  C   UNL d   1      -0.878   8.225   0.971  0.00  0.00     0.068 A 
ATOM     14  C   UNL d   1      -0.377   7.342   1.926  0.00  0.00     0.039 A 
ATOM     15  C   UNL d   1       0.326   6.201   1.538  0.00  0.00     0.040 A 
BRANCH  13  16
ATOM     16  O   UNL d   1      -1.524   9.317   1.481  0.00  0.00    -0.356 OA
ATOM     17  C   UNL d   1      -1.466  10.501   0.694  0.00  0.00     0.210 C 
ENDBRANCH  13  16
ENDBRANCH   9  10
ENDBRANCH   3   9
ENDBRANCH   1   2
BRANCH   1  18
ATOM     18  N   UNL d   1       1.371   1.702   0.339  0.00  0.00    -0.338 N 
ATOM     19  C   UNL d   1       1.122   0.364   0.183  0.00  0.00     0.330 C 
ATOM     20  N   UNL d   1      -0.176   0.005   0.488  0.00  0.00    -0.232 N 
ATOM     21  O   UNL d   1       1.970  -0.438  -0.186  0.00  0.00    -0.246 OA
ATOM     22  H   UNL d   1      -0.860   0.685   0.795  0.00  0.00     0.183 HD
ATOM     23  H   UNL d   1       0.589   2.328   0.486  0.00  0.00     0.164 HD
BRANCH  20  24
ATOM     24  S   UNL d   1      -0.773  -1.553   0.483  0.00  0.00     0.266 S 
ATOM     25  O   UNL d   1      -0.368  -2.250  -0.718  0.00  0.00    -0.200 OA
ATOM     26  O   UNL d   1      -2.174  -1.422   0.824  0.00  0.00    -0.200 OA
BRANCH  24  27
ATOM     27  C   UNL d   1       0.049  -2.278   1.882  0.00  0.00     0.080 A 
ATOM     28  C   UNL d   1      -0.582  -2.280   3.130  0.00  0.00     0.026 A 
ATOM     29  C   UNL d   1       0.108  -2.751   4.248  0.00  0.00     0.008 A 
ATOM     30  C   UNL d   1       1.422  -3.224   4.124  0.00  0.00    -0.062 A 
ATOM     31  C   UNL d   1       2.013  -3.285   2.855  0.00  0.00     0.008 A 
ATOM     32  C   UNL d   1       2.184  -3.643   5.347  0.00  0.00     0.048 C 
ATOM     33  C   UNL d   1       1.325  -2.823   1.732  0.00  0.00     0.026 A 
ENDBRANCH  24  27
ENDBRANCH  20  24
ENDBRANCH   1  18
TORSDOF 7
