REMARK  3 active torsions:
REMARK  status: ('A' for Active; 'I' for Inactive)
REMARK    1  A    between atoms: C_7  and  C_1 
REMARK    2  A    between atoms: C_8  and  N_4 
REMARK    3  A    between atoms: S_10  and  C_5 
ROOT
ATOM      1  C   UNL d   1      -0.360   1.251  -0.029  0.00  0.00     0.054 A 
ATOM      2  N   UNL d   1       0.993  -0.601   0.194  0.00  0.00    -0.287 N 
ATOM      3  HN  UNL d   1       1.810  -1.195   0.332  1.00  0.00     0.188 HD
ATOM      4  N   UNL d   1      -0.291  -0.991   0.024  0.00  0.00    -0.266 N 
ATOM      5  C   UNL d   1       0.954   0.731   0.142  0.00  0.00     0.099 A 
ATOM      6  C   UNL d   1      -1.123   0.095  -0.102  0.00  0.00     0.134 A 
ENDROOT
BRANCH   4   7
ATOM      7  C   UNL d   1      -0.647  -2.370  -0.011  0.00  0.00     0.056 A 
ATOM      8  C   UNL d   1      -1.967  -2.771  -0.271  0.00  0.00     0.031 A 
ATOM      9  C   UNL d   1      -2.295  -4.129  -0.306  0.00  0.00     0.002 A 
ATOM     10  C   UNL d   1      -1.316  -5.093  -0.079  0.00  0.00     0.000 A 
ATOM     11  C   UNL d   1      -0.003  -4.703   0.181  0.00  0.00     0.002 A 
ATOM     12  C   UNL d   1       0.334  -3.348   0.211  0.00  0.00     0.031 A 
ENDBRANCH   4   7
BRANCH   1  13
ATOM     13  C   UNL d   1      -0.847   2.621  -0.114  0.00  0.00     0.108 C 
ATOM     14  S   UNL d   1      -2.466   2.955  -0.319  0.00  0.00    -0.060 SA
ATOM     15  N   UNL d   1       0.042   3.648  -0.018  0.00  0.00    -0.389 N 
ATOM     16  H   UNL d   1       1.037   3.493   0.107  0.00  0.00     0.157 HD
ATOM     17  H   UNL d   1      -0.290   4.602  -0.072  0.00  0.00     0.157 HD
ENDBRANCH   1  13
BRANCH   5  18
ATOM     18  S   UNL d   1       2.433   1.669   0.273  0.00  0.00    -0.115 SA
ATOM     19  C   UNL d   1       3.683   0.390   0.520  0.00  0.00     0.097 C 
ENDBRANCH   5  18
TORSDOF 3
