REMARK  3 active torsions:
REMARK  status: ('A' for Active; 'I' for Inactive)
REMARK    1  A    between atoms: C_2  and  C_1 
REMARK       I    between atoms: N_5  and  C_2 
REMARK    2  A    between atoms: C_3  and  N_4 
REMARK    3  A    between atoms: N_4  and  N_5 
ROOT
ATOM      1  N   UNL d   1       0.589   3.560   0.276  0.00  0.00    -0.200 NA
ATOM      2  H   UNL d   1       1.171   2.819  -0.144  0.00  0.00     0.153 HD
ENDROOT
BRANCH   1   3
ATOM      3  C   UNL d   1       1.219   4.835   0.120  0.00  0.00     0.071 A 
ATOM      4  C   UNL d   1       0.587   6.072   0.381  0.00  0.00     0.058 A 
ATOM      5 CL   UNL d   1      -1.067   6.205   0.892  0.00  0.00    -0.082 Cl
ATOM      6  C   UNL d   1       1.290   7.282   0.280  0.00  0.00     0.026 A 
ATOM      7  C   UNL d   1       2.643   7.291  -0.043  0.00  0.00     0.003 A 
ATOM      8  C   UNL d   1       3.303   6.087  -0.261  0.00  0.00     0.026 A 
ATOM      9  C   UNL d   1       2.603   4.878  -0.172  0.00  0.00     0.058 A 
ATOM     10 CL   UNL d   1       3.494   3.417  -0.449  0.00  0.00    -0.082 Cl
ENDBRANCH   1   3
BRANCH   1  11
ATOM     11  N   UNL d   1      -0.721   3.505  -0.234  0.00  0.00    -0.281 N 
ATOM     12  C   UNL d   1      -1.160   2.327  -0.823  0.00  0.00     0.291 C 
ATOM     13  O   UNL d   1      -0.388   1.417  -1.120  0.00  0.00    -0.264 OA
ATOM     14  H   UNL d   1      -1.395   4.142   0.187  0.00  0.00     0.184 HD
BRANCH  12  15
ATOM     15  C   UNL d   1      -2.585   2.278  -1.039  0.00  0.00     0.168 A 
ATOM     16  O   UNL d   1      -3.344   3.363  -0.707  0.00  0.00    -0.233 OA
ATOM     17  N   UNL d   1      -4.674   3.108  -0.999  0.00  0.00    -0.272 N 
ATOM     18  C   UNL d   1      -4.693   1.872  -1.501  0.00  0.00     0.117 A 
ATOM     19  HN  UNL d   1      -5.469   3.732  -0.860  1.00  0.00     0.194 HD
ATOM     20  C   UNL d   1      -3.411   1.301  -1.548  0.00  0.00     0.064 A 
ENDBRANCH  12  15
ENDBRANCH   1  11
TORSDOF 3
