REMARK  4 active torsions:
REMARK  status: ('A' for Active; 'I' for Inactive)
REMARK    1  A    between atoms: C_7  and  C_1 
REMARK    2  A    between atoms: N_10  and  C_2 
REMARK    3  A    between atoms: C_6  and  C_3 
REMARK       I    between atoms: N_8  and  C_6 
REMARK       I    between atoms: N_12  and  C_7 
REMARK    4  A    between atoms: C_14  and  N_8 
ROOT
ATOM      1  C   UNL d   1       0.035  -1.228  -0.062  0.00  0.00     0.072 A 
ATOM      2  C   UNL d   1       1.312  -0.747   0.182  0.00  0.00     0.085 A 
ATOM      3  C   UNL d   1      -0.326   1.109  -0.006  0.00  0.00     0.082 A 
ATOM      4  C   UNL d   1      -0.909  -0.132  -0.258  0.00  0.00    -0.021 A 
ATOM      5  S   UNL d   1       1.350   0.949   0.307  0.00  0.00    -0.066 SA
ATOM      6  C   UNL d   1      -2.349  -0.352  -0.631  0.00  0.00     0.051 C 
ENDROOT
BRANCH   3   7
ATOM      7  C   UNL d   1      -0.967   2.434   0.034  0.00  0.00     0.263 C 
ATOM      8  N   UNL d   1      -0.086   3.507   0.041  0.00  0.00    -0.323 N 
ATOM      9  H   UNL d   1       0.893   3.264  -0.032  0.00  0.00     0.169 HD
ATOM     10  O   UNL d   1      -2.188   2.561   0.043  0.00  0.00    -0.267 OA
BRANCH   8  11
ATOM     11  C   UNL d   1      -0.394   4.883   0.047  0.00  0.00     0.035 A 
ATOM     12  C   UNL d   1      -1.679   5.396   0.236  0.00  0.00     0.029 A 
ATOM     13  C   UNL d   1      -1.908   6.774   0.184  0.00  0.00     0.002 A 
ATOM     14  C   UNL d   1      -0.855   7.652  -0.055  0.00  0.00     0.000 A 
ATOM     15  C   UNL d   1       0.434   7.154  -0.222  0.00  0.00     0.002 A 
ATOM     16  C   UNL d   1       0.665   5.777  -0.161  0.00  0.00     0.029 A 
ENDBRANCH   8  11
ENDBRANCH   3   7
BRANCH   1  17
ATOM     17  C   UNL d   1      -0.314  -2.653  -0.126  0.00  0.00     0.252 C 
ATOM     18  O   UNL d   1      -1.281  -3.103  -0.732  0.00  0.00    -0.268 OA
ATOM     19  N   UNL d   1       0.481  -3.496   0.602  0.00  0.00    -0.366 N 
ATOM     20  H   UNL d   1       1.111  -3.111   1.295  0.00  0.00     0.159 HD
ATOM     21  H   UNL d   1       0.142  -4.440   0.721  0.00  0.00     0.159 HD
ENDBRANCH   1  17
BRANCH   2  22
ATOM     22  N   UNL d   1       2.468  -1.446   0.320  0.00  0.00    -0.393 N 
ATOM     23  H   UNL d   1       2.541  -2.339  -0.168  0.00  0.00     0.156 HD
ATOM     24  H   UNL d   1       3.334  -0.915   0.253  0.00  0.00     0.156 HD
ENDBRANCH   2  22
TORSDOF 4
