REMARK  2 active torsions:
REMARK  status: ('A' for Active; 'I' for Inactive)
REMARK    1  A    between atoms: C_9  and  C_3 
REMARK    2  A    between atoms: O_6  and  C_9 
ROOT
ATOM      1  C   UNL d   1      -0.777  -0.186   0.022  0.00  0.00    -0.000 A 
ATOM      2  C   UNL d   1       0.473   0.528   0.068  0.00  0.00     0.022 A 
ATOM      3  C   UNL d   1      -1.020  -1.617  -0.012  0.00  0.00    -0.022 A 
ATOM      4  C   UNL d   1      -1.940   0.646   0.008  0.00  0.00    -0.024 A 
ATOM      5 BR   UNL d   1       2.195  -0.285   0.217  0.00  0.00    -0.050 Br
ATOM      6  C   UNL d   1      -0.618   2.691  -0.001  0.00  0.00     0.002 A 
ATOM      7  C   UNL d   1      -3.436  -1.268   0.025  0.00  0.00     0.002 A 
ATOM      8  C   UNL d   1       0.538   1.934   0.050  0.00  0.00     0.020 A 
ATOM      9  C   UNL d   1      -2.341  -2.114   0.013  0.00  0.00     0.010 A 
ATOM     10  C   UNL d   1      -1.846   2.047  -0.012  0.00  0.00     0.012 A 
ATOM     11  C   UNL d   1      -3.232   0.101   0.008  0.00  0.00     0.012 A 
ENDROOT
BRANCH   3  12
ATOM     12  C   UNL d   1       0.099  -2.638  -0.105  0.00  0.00     0.203 C 
BRANCH  12  13
ATOM     13  O   UNL d   1      -0.381  -3.965  -0.329  0.00  0.00    -0.396 OA
ATOM     14  H   UNL d   1       0.344  -4.454  -0.752  0.00  0.00     0.209 HD
ENDBRANCH  12  13
ENDBRANCH   3  12
TORSDOF 2
