REMARK  7 active torsions:
REMARK  status: ('A' for Active; 'I' for Inactive)
REMARK    1  A    between atoms: C_7  and  C_1 
REMARK    2  A    between atoms: C_15  and  C_2 
REMARK    3  A    between atoms: C_9  and  C_16 
REMARK    4  A    between atoms: C_18  and  N_10 
REMARK    5  A    between atoms: C_11  and  N_12 
REMARK    6  A    between atoms: N_12  and  N_13 
REMARK    7  A    between atoms: C_16  and  C_18 
ROOT
ATOM      1  C   UNL d   1       8.932   3.506  -1.227  0.00  0.00     0.052 A 
ATOM      2  N   UNL d   1      10.975   2.385  -1.524  0.00  0.00    -0.356 N 
ATOM      3  HN  UNL d   1      11.613   1.589  -1.562  1.00  0.00     0.166 HD
ATOM      4  C   UNL d   1       9.608   2.289  -1.293  0.00  0.00     0.025 A 
ATOM      5  S   UNL d   1      10.070   4.780  -1.497  0.00  0.00    -0.073 SA
ATOM      6  C   UNL d   1      11.336   3.637  -1.686  0.00  0.00     0.053 A 
ATOM      7  C   UNL d   1       9.058   0.910  -1.209  0.00  0.00     0.070 C 
ENDROOT
BRANCH   1   8
ATOM      8  C   UNL d   1       7.522   3.820  -0.995  0.00  0.00     0.036 C 
ATOM      9  N   UNL d   1       7.021   4.914  -1.504  0.00  0.00    -0.320 N 
ATOM     10  HN  UNL d   1       7.599   5.569  -2.030  1.00  0.00     0.181 HD
ATOM     11  C   UNL d   1       6.703   2.841  -0.167  0.00  0.00     0.070 C 
BRANCH   9  12
ATOM     12  N   UNL d   1       5.695   5.144  -1.302  0.00  0.00    -0.202 NA
ATOM     13  H   UNL d   1       5.464   5.535  -0.382  0.00  0.00     0.153 HD
BRANCH  12  14
ATOM     14  C   UNL d   1       4.957   5.848  -2.305  0.00  0.00     0.071 A 
ATOM     15  C   UNL d   1       5.209   5.779  -3.692  0.00  0.00     0.058 A 
ATOM     16 CL   UNL d   1       6.535   4.911  -4.395  0.00  0.00    -0.082 Cl
ATOM     17  C   UNL d   1       4.346   6.397  -4.614  0.00  0.00     0.026 A 
ATOM     18  C   UNL d   1       3.203   7.071  -4.189  0.00  0.00     0.003 A 
ATOM     19  C   UNL d   1       2.923   7.146  -2.830  0.00  0.00     0.026 A 
ATOM     20  C   UNL d   1       3.784   6.540  -1.908  0.00  0.00     0.058 A 
ATOM     21 CL   UNL d   1       3.367   6.674  -0.228  0.00  0.00    -0.082 Cl
ENDBRANCH  12  14
ENDBRANCH   9  12
ENDBRANCH   1   8
BRANCH   6  22
ATOM     22  C   UNL d   1      12.745   4.081  -1.973  0.00  0.00     0.085 C 
BRANCH  22  23
ATOM     23  C   UNL d   1      13.498   3.050  -2.822  0.00  0.00     0.138 C 
BRANCH  23  24
ATOM     24  N   UNL d   1      14.900   3.417  -3.086  0.00  0.00    -0.324 N 
ATOM     25  C   UNL d   1      15.209   4.125  -4.255  0.00  0.00     0.262 C 
ATOM     26  C   UNL d   1      16.654   4.302  -4.554  0.00  0.00     0.115 C 
ATOM     27  O   UNL d   1      14.339   4.566  -5.002  0.00  0.00    -0.267 OA
ATOM     28  C   UNL d   1      17.564   3.899  -3.647  0.00  0.00     0.023 C 
ATOM     29  C   UNL d   1      17.165   3.304  -2.401  0.00  0.00     0.018 C 
ATOM     30  C   UNL d   1      15.870   3.058  -2.168  0.00  0.00     0.094 C 
BRANCH  26  31
ATOM     31  C   UNL d   1      17.038   4.889  -5.866  0.00  0.00     0.422 C 
ATOM     32  F   UNL d   1      16.033   5.198  -6.717  0.00  0.00    -0.166 F 
ATOM     33  F   UNL d   1      17.759   6.033  -5.693  0.00  0.00    -0.166 F 
ATOM     34  F   UNL d   1      17.861   4.042  -6.550  0.00  0.00    -0.166 F 
ENDBRANCH  26  31
ENDBRANCH  23  24
ENDBRANCH  22  23
ENDBRANCH   6  22
TORSDOF 7
