REMARK  5 active torsions:
REMARK  status: ('A' for Active; 'I' for Inactive)
REMARK    1  A    between atoms: C_2  and  C_1 
REMARK       I    between atoms: N_6  and  C_2 
REMARK    2  A    between atoms: C_3  and  N_7 
REMARK    3  A    between atoms: N_4  and  C_3 
REMARK    4  A    between atoms: C_5  and  N_4 
REMARK    5  A    between atoms: N_7  and  N_6 
ROOT
ATOM      1  N   UNL d   1       1.736   3.926  -0.125  0.00  0.00    -0.273 N 
ATOM      2  H   UNL d   1       1.022   3.701   0.568  0.00  0.00     0.189 HD
ENDROOT
BRANCH   1   3
ATOM      3  C   UNL d   1       2.343   5.154  -0.026  0.00  0.00     0.191 C 
ATOM      4  S   UNL d   1       4.000   5.402   0.000  0.00  0.00    -0.039 SA
BRANCH   3   5
ATOM      5  N   UNL d   1       1.534   6.258   0.052  0.00  0.00    -0.332 N 
ATOM      6  H   UNL d   1       2.059   7.081   0.327  0.00  0.00     0.168 HD
BRANCH   5   7
ATOM      7  C   UNL d   1       0.312   6.533  -0.620  0.00  0.00     0.040 A 
ATOM      8  C   UNL d   1      -0.265   7.819  -0.525  0.00  0.00    -0.034 A 
ATOM      9  C   UNL d   1      -1.387   8.140  -1.319  0.00  0.00     0.032 A 
ATOM     10  C   UNL d   1       0.236   8.924   0.373  0.00  0.00     0.050 C 
ATOM     11  C   UNL d   1      -1.941   7.203  -2.187  0.00  0.00     0.034 A 
ATOM     12  C   UNL d   1      -1.401   5.931  -2.264  0.00  0.00     0.026 A 
ATOM     13 CL   UNL d   1      -3.273   7.635  -3.184  0.00  0.00    -0.084 Cl
ATOM     14  C   UNL d   1      -0.286   5.599  -1.486  0.00  0.00     0.032 A 
ENDBRANCH   5   7
ENDBRANCH   3   5
ENDBRANCH   1   3
BRANCH   1  15
ATOM     15  N   UNL d   1       2.448   2.829  -0.630  0.00  0.00    -0.264 N 
ATOM     16  C   UNL d   1       2.214   1.566  -0.131  0.00  0.00     0.271 C 
ATOM     17  O   UNL d   1       1.536   1.361   0.870  0.00  0.00    -0.266 OA
ATOM     18  H   UNL d   1       2.918   2.974  -1.520  0.00  0.00     0.190 HD
BRANCH  16  19
ATOM     19  C   UNL d   1       2.872   0.431  -0.853  0.00  0.00     0.055 A 
ATOM     20  C   UNL d   1       3.139   0.398  -2.229  0.00  0.00     0.049 A 
ATOM     21 CL   UNL d   1       2.661   1.646  -3.330  0.00  0.00    -0.083 Cl
ATOM     22  C   UNL d   1       3.790  -0.706  -2.795  0.00  0.00     0.025 A 
ATOM     23  C   UNL d   1       4.167  -1.789  -2.001  0.00  0.00     0.002 A 
ATOM     24  C   UNL d   1       3.884  -1.781  -0.642  0.00  0.00     0.001 A 
ATOM     25  C   UNL d   1       3.240  -0.678  -0.068  0.00  0.00     0.019 A 
ENDBRANCH  16  19
ENDBRANCH   1  15
TORSDOF 5
