REMARK  3 active torsions:
REMARK  status: ('A' for Active; 'I' for Inactive)
REMARK    1  A    between atoms: C_7  and  C_3 
REMARK    2  A    between atoms: C_8  and  C_4 
REMARK    3  A    between atoms: C_9  and  C_8 
ROOT
ATOM      1  N   UNL d   1       0.219  -0.355   0.993  0.00  0.00    -0.353 N 
ATOM      2  HN  UNL d   1       0.131  -0.687   1.953  1.00  0.00     0.166 HD
ATOM      3  C   UNL d   1       0.388   0.971   0.625  0.00  0.00     0.049 A 
ATOM      4  C   UNL d   1       0.189  -1.124  -0.077  0.00  0.00     0.055 A 
ATOM      5  S   UNL d   1       0.365  -0.303  -1.579  0.00  0.00    -0.086 SA
ATOM      6  C   UNL d   1       0.492   1.185  -0.736  0.00  0.00     0.081 A 
ENDROOT
BRANCH   4   7
ATOM      7  C   UNL d   1       0.009  -2.616  -0.043  0.00  0.00     0.103 C 
BRANCH   7   8
ATOM      8  C   UNL d   1       1.316  -3.376   0.011  0.00  0.00    -0.052 A 
ATOM      9  C   UNL d   1       2.184  -3.218   1.101  0.00  0.00     0.008 A 
ATOM     10  C   UNL d   1       3.398  -3.906   1.149  0.00  0.00     0.007 A 
ATOM     11  C   UNL d   1       3.764  -4.773   0.114  0.00  0.00    -0.062 A 
ATOM     12  C   UNL d   1       2.893  -4.945  -0.967  0.00  0.00     0.007 A 
ATOM     13  C   UNL d   1       5.084  -5.482   0.166  0.00  0.00     0.048 C 
ATOM     14  C   UNL d   1       1.680  -4.253  -1.019  0.00  0.00     0.008 A 
ENDBRANCH   7   8
ENDBRANCH   4   7
BRANCH   3  15
ATOM     15  C   UNL d   1       0.479   2.028   1.625  0.00  0.00    -0.009 A 
ATOM     16  C   UNL d   1       1.048   1.747   2.876  0.00  0.00     0.014 A 
ATOM     17  C   UNL d   1       1.164   2.745   3.847  0.00  0.00     0.001 A 
ATOM     18  C   UNL d   1       0.700   4.032   3.581  0.00  0.00     0.000 A 
ATOM     19  C   UNL d   1       0.118   4.321   2.349  0.00  0.00     0.001 A 
ATOM     20  C   UNL d   1       0.007   3.324   1.375  0.00  0.00     0.014 A 
ENDBRANCH   3  15
TORSDOF 3
