REMARK  3 active torsions:
REMARK  status: ('A' for Active; 'I' for Inactive)
REMARK    1  A    between atoms: C_6  and  C_1 
REMARK    2  A    between atoms: S_7  and  C_6 
REMARK    3  A    between atoms: C_9  and  S_7 
ROOT
ATOM      1  C   UNL d   1       1.827  -0.980  -0.047  0.00  0.00    -0.008 A 
ATOM      2  C   UNL d   1       2.454   0.129  -0.576  0.00  0.00     0.083 A 
ATOM      3  S   UNL d   1       1.588   1.567  -0.420  0.00  0.00    -0.077 SA
ATOM      4  C   UNL d   1       0.491  -0.616   0.421  0.00  0.00    -0.010 A 
ATOM      5  C   UNL d   1       0.242   0.756   0.275  0.00  0.00     0.017 A 
ATOM      6 CL   UNL d   1       3.983   0.204  -1.370  0.00  0.00    -0.076 Cl
ATOM      7  C   UNL d   1      -0.559  -1.407   0.960  0.00  0.00     0.013 A 
ATOM      8  C   UNL d   1      -0.981   1.340   0.657  0.00  0.00     0.020 A 
ATOM      9  C   UNL d   1      -1.785  -0.834   1.321  0.00  0.00     0.001 A 
ATOM     10  C   UNL d   1      -1.990   0.529   1.172  0.00  0.00     0.001 A 
ENDROOT
BRANCH   1  11
ATOM     11  C   UNL d   1       2.387  -2.381  -0.030  0.00  0.00     0.121 C 
BRANCH  11  12
ATOM     12  S   UNL d   1       3.947  -2.492   0.918  0.00  0.00    -0.125 SA
BRANCH  12  13
ATOM     13  C   UNL d   1       4.401  -4.196   0.627  0.00  0.00     0.000 A 
ATOM     14  C   UNL d   1       5.646  -4.494   0.058  0.00  0.00     0.018 A 
ATOM     15  C   UNL d   1       6.053  -5.823  -0.096  0.00  0.00     0.001 A 
ATOM     16  C   UNL d   1       5.221  -6.860   0.317  0.00  0.00     0.000 A 
ATOM     17  C   UNL d   1       3.979  -6.571   0.878  0.00  0.00     0.001 A 
ATOM     18  C   UNL d   1       3.572  -5.243   1.035  0.00  0.00     0.018 A 
ENDBRANCH  12  13
ENDBRANCH  11  12
ENDBRANCH   1  11
TORSDOF 3
