REMARK  5 active torsions:
REMARK  status: ('A' for Active; 'I' for Inactive)
REMARK    1  A    between atoms: C_3  and  C_1 
REMARK       I    between atoms: N_9  and  C_3 
REMARK    2  A    between atoms: C_6  and  O_12 
REMARK       I    between atoms: C_8  and  N_10 
REMARK       I    between atoms: N_11  and  C_8 
REMARK    3  A    between atoms: N_10  and  N_9 
REMARK    4  A    between atoms: C_21  and  N_11 
REMARK    5  A    between atoms: O_12  and  C_15 
ROOT
ATOM      1  C   UNL d   1      -3.805  -0.211   0.055  0.00  0.00     0.286 C 
ATOM      2  N   UNL d   1      -4.410  -1.405   0.378  0.00  0.00    -0.261 N 
ATOM      3  O   UNL d   1      -4.452   0.802  -0.206  0.00  0.00    -0.264 OA
ATOM      4  H   UNL d   1      -3.892  -2.224   0.689  0.00  0.00     0.190 HD
ENDROOT
BRANCH   1   5
ATOM      5  C   UNL d   1      -2.357  -0.243   0.046  0.00  0.00     0.103 A 
ATOM      6  N   UNL d   1      -1.605   0.895  -0.161  0.00  0.00    -0.351 N 
ATOM      7  C   UNL d   1      -0.258   0.615  -0.119  0.00  0.00     0.043 A 
ATOM      8  H   UNL d   1      -2.006   1.812  -0.313  0.00  0.00     0.166 HD
ATOM      9  C   UNL d   1       0.853   1.456  -0.246  0.00  0.00     0.033 A 
ATOM     10  C   UNL d   1      -0.136  -0.753   0.101  0.00  0.00    -0.004 A 
ATOM     11  C   UNL d   1       2.127   0.875  -0.151  0.00  0.00     0.039 A 
ATOM     12  C   UNL d   1       2.283  -0.498   0.024  0.00  0.00     0.079 A 
ATOM     13  C   UNL d   1       1.153  -1.314   0.175  0.00  0.00     0.051 A 
ATOM     14  C   UNL d   1      -1.453  -1.280   0.210  0.00  0.00     0.049 A 
BRANCH  12  15
ATOM     15  O   UNL d   1       3.473  -1.146   0.166  0.00  0.00    -0.255 OA
BRANCH  15  16
ATOM     16  C   UNL d   1       4.586  -0.751  -0.625  0.00  0.00     0.530 C 
ATOM     17  F   UNL d   1       4.349   0.289  -1.450  0.00  0.00    -0.144 F 
ATOM     18  F   UNL d   1       5.612  -0.427   0.192  0.00  0.00    -0.144 F 
ATOM     19  F   UNL d   1       4.972  -1.803  -1.382  0.00  0.00    -0.144 F 
ENDBRANCH  15  16
ENDBRANCH  12  15
ENDBRANCH   1   5
BRANCH   2  20
ATOM     20  N   UNL d   1      -5.807  -1.484   0.528  0.00  0.00    -0.248 N 
ATOM     21  C   UNL d   1      -6.306  -2.730   0.870  0.00  0.00     0.339 C 
ATOM     22  N   UNL d   1      -7.676  -2.748   0.982  0.00  0.00    -0.308 N 
ATOM     23  O   UNL d   1      -5.534  -3.662   1.091  0.00  0.00    -0.245 OA
ATOM     24  H   UNL d   1      -8.162  -1.907   0.711  0.00  0.00     0.170 HD
ATOM     25  H   UNL d   1      -6.348  -0.803   0.004  0.00  0.00     0.192 HD
BRANCH  22  26
ATOM     26  C   UNL d   1      -8.467  -3.803   1.492  0.00  0.00     0.036 A 
ATOM     27  C   UNL d   1      -7.937  -4.990   2.009  0.00  0.00     0.031 A 
ATOM     28  C   UNL d   1      -8.769  -5.969   2.562  0.00  0.00     0.026 A 
ATOM     29  C   UNL d   1     -10.145  -5.770   2.595  0.00  0.00     0.034 A 
ATOM     30  C   UNL d   1     -10.694  -4.605   2.066  0.00  0.00     0.026 A 
ATOM     31 CL   UNL d   1     -11.164  -6.961   3.303  0.00  0.00    -0.084 Cl
ATOM     32  C   UNL d   1      -9.858  -3.625   1.518  0.00  0.00     0.031 A 
ENDBRANCH  22  26
ENDBRANCH   2  20
TORSDOF 5
