REMARK  1 active torsions:
REMARK  status: ('A' for Active; 'I' for Inactive)
REMARK    1  A    between atoms: C_8  and  C_3 
ROOT
ATOM      1  N   UNL d   1      -1.691  -1.518  -0.541  0.00  0.00    -0.296 N 
ATOM      2  HN  UNL d   1      -2.323  -2.191  -0.975  1.00  0.00     0.187 HD
ATOM      3  C   UNL d   1      -0.563  -1.913  -0.021  0.00  0.00     0.069 A 
ATOM      4  N   UNL d   1      -2.015  -0.201  -0.499  0.00  0.00    -0.265 N 
ATOM      5  C   UNL d   1       0.400  -0.949   0.600  0.00  0.00     0.009 A 
ATOM      6  C   UNL d   1      -1.276   0.799   0.076  0.00  0.00     0.271 A 
ATOM      7  C   UNL d   1       0.004   0.387   0.673  0.00  0.00     0.046 A 
ATOM      8  O   UNL d   1      -1.643   1.966   0.086  0.00  0.00    -0.266 OA
ATOM      9  C   UNL d   1       1.672  -1.289   1.080  0.00  0.00     0.015 A 
ATOM     10  C   UNL d   1       0.823   1.355   1.275  0.00  0.00     0.018 A 
ATOM     11  C   UNL d   1       2.479  -0.334   1.710  0.00  0.00     0.001 A 
ATOM     12  C   UNL d   1       2.053   0.985   1.814  0.00  0.00     0.001 A 
ATOM     13  H   UNL d   1      -2.899   0.062  -0.923  0.00  0.00     0.190 HD
ENDROOT
BRANCH   3  14
ATOM     14  C   UNL d   1      -0.278  -3.385  -0.105  0.00  0.00    -0.007 A 
ATOM     15  C   UNL d   1      -0.677  -4.076  -1.258  0.00  0.00     0.021 A 
ATOM     16  C   UNL d   1      -0.389  -5.442  -1.425  0.00  0.00    -0.055 A 
ATOM     17  C   UNL d   1      -0.889  -6.159  -2.649  0.00  0.00     0.049 C 
ATOM     18  C   UNL d   1       0.358  -6.112  -0.438  0.00  0.00    -0.056 A 
ATOM     19  C   UNL d   1       0.683  -5.436   0.747  0.00  0.00     0.008 A 
ATOM     20  C   UNL d   1       0.794  -7.540  -0.615  0.00  0.00     0.049 C 
ATOM     21  C   UNL d   1       0.329  -4.097   0.929  0.00  0.00     0.014 A 
ENDBRANCH   3  14
TORSDOF 1
