REMARK  7 active torsions:
REMARK  status: ('A' for Active; 'I' for Inactive)
REMARK    1  A    between atoms: N_3  and  S_1 
REMARK    2  A    between atoms: C_10  and  S_1 
REMARK    3  A    between atoms: S_2  and  N_5 
REMARK    4  A    between atoms: C_11  and  S_2 
REMARK    5  A    between atoms: C_4  and  N_3 
REMARK    6  A    between atoms: N_5  and  C_26 
REMARK       I    between atoms: C_16  and  N_17 
REMARK    7  A    between atoms: N_17  and  C_27 
ROOT
ATOM      1  C   UNL d   1       0.404   1.687  -0.137  0.00  0.00     0.075 A 
ATOM      2  C   UNL d   1      -0.973   1.932  -0.140  0.00  0.00     0.026 A 
ATOM      3  C   UNL d   1       1.317   2.742  -0.213  0.00  0.00     0.026 A 
ATOM      4  C   UNL d   1      -0.527   4.284  -0.452  0.00  0.00     0.022 A 
ATOM      5  C   UNL d   1       0.846   4.045  -0.367  0.00  0.00     0.026 A 
ATOM      6  C   UNL d   1      -1.438   3.237  -0.310  0.00  0.00     0.026 A 
ENDROOT
BRANCH   4   7
ATOM      7  N   UNL d   1      -0.983   5.600  -0.736  0.00  0.00    -0.181 NA
ATOM      8  H   UNL d   1      -1.647   6.004  -0.073  0.00  0.00     0.146 HD
BRANCH   7   9
ATOM      9  S   UNL d   1      -1.503   5.925  -2.322  0.00  0.00     0.245 S 
ATOM     10  O   UNL d   1      -1.861   4.700  -3.003  0.00  0.00    -0.206 OA
ATOM     11  O   UNL d   1      -2.456   7.008  -2.184  0.00  0.00    -0.206 OA
BRANCH   9  12
ATOM     12  C   UNL d   1      -0.051   6.582  -3.106  0.00  0.00     0.075 A 
ATOM     13  C   UNL d   1       1.048   5.755  -3.342  0.00  0.00     0.027 A 
ATOM     14  C   UNL d   1       2.191   6.278  -3.955  0.00  0.00     0.031 A 
ATOM     15  C   UNL d   1       2.230   7.613  -4.380  0.00  0.00     0.034 A 
ATOM     16  C   UNL d   1       1.105   8.418  -4.177  0.00  0.00     0.031 A 
ATOM     17  C   UNL d   1      -0.032   7.909  -3.538  0.00  0.00     0.027 A 
BRANCH  15  18
ATOM     18  N   UNL d   1       3.417   8.058  -4.999  0.00  0.00    -0.328 N 
ATOM     19  C   UNL d   1       3.678   9.316  -5.511  0.00  0.00     0.218 C 
ATOM     20  O   UNL d   1       2.916  10.278  -5.519  0.00  0.00    -0.274 OA
ATOM     21  C   UNL d   1       5.059   9.440  -6.106  0.00  0.00     0.117 C 
ATOM     22  H   UNL d   1       4.156   7.371  -5.077  0.00  0.00     0.169 HD
ENDBRANCH  15  18
ENDBRANCH   9  12
ENDBRANCH   7   9
ENDBRANCH   4   7
BRANCH   1  23
ATOM     23  S   UNL d   1       0.997   0.019   0.029  0.00  0.00     0.248 S 
ATOM     24  O   UNL d   1       2.357   0.106   0.524  0.00  0.00    -0.205 OA
ATOM     25  O   UNL d   1       0.004  -0.742   0.758  0.00  0.00    -0.205 OA
BRANCH  23  26
ATOM     26  N   UNL d   1       1.126  -0.508  -1.556  0.00  0.00    -0.151 NA
ATOM     27  H   UNL d   1       1.885  -1.178  -1.626  0.00  0.00     0.149 HD
BRANCH  26  28
ATOM     28  C   UNL d   1      -0.058  -1.035  -2.062  0.00  0.00     0.171 A 
ATOM     29  N   UNL d   1      -0.970  -0.177  -2.523  0.00  0.00    -0.336 N 
ATOM     30  C   UNL d   1      -2.140  -0.724  -2.911  0.00  0.00     0.009 A 
ATOM     31  HN  UNL d   1      -0.794   0.826  -2.577  1.00  0.00     0.168 HD
ATOM     32  C   UNL d   1      -3.183   0.196  -3.473  0.00  0.00     0.068 C 
ATOM     33  C   UNL d   1      -2.395  -2.078  -2.790  0.00  0.00     0.049 A 
ATOM     34  C   UNL d   1      -1.377  -2.864  -2.278  0.00  0.00     0.009 A 
ATOM     35  N   UNL d   1      -0.178  -2.354  -1.934  0.00  0.00    -0.336 N 
ATOM     36  C   UNL d   1      -1.588  -4.328  -2.047  0.00  0.00     0.068 C 
ATOM     37  HN  UNL d   1       0.587  -2.940  -1.599  1.00  0.00     0.168 HD
ENDBRANCH  26  28
ENDBRANCH  23  26
ENDBRANCH   1  23
TORSDOF 7
