REMARK  4 active torsions:
REMARK  status: ('A' for Active; 'I' for Inactive)
REMARK    1  A    between atoms: C_10  and  S_20 
REMARK    2  A    between atoms: C_12  and  C_14 
REMARK    3  A    between atoms: C_24  and  C_15 
REMARK    4  A    between atoms: S_20  and  C_24 
ROOT
ATOM      1  N   UNL d   1      -6.477  -2.304  -0.044  0.00  0.00    -0.336 N 
ATOM      2  HN  UNL d   1      -5.617  -2.853  -0.056  1.00  0.00     0.168 HD
ATOM      3  C   UNL d   1      -6.460  -0.965   0.039  0.00  0.00     0.144 A 
ATOM      4  C   UNL d   1      -7.697  -2.888  -0.110  0.00  0.00     0.052 A 
ATOM      5  N   UNL d   1      -7.551  -0.182   0.063  0.00  0.00    -0.347 N 
ATOM      6  HN  UNL d   1      -7.480   0.834   0.123  1.00  0.00     0.167 HD
ATOM      7  C   UNL d   1      -8.873  -2.163  -0.080  0.00  0.00     0.048 A 
ATOM      8  C   UNL d   1      -8.739  -0.802   0.003  0.00  0.00     0.092 A 
ENDROOT
BRANCH   3   9
ATOM      9  S   UNL d   1      -4.912  -0.122   0.221  0.00  0.00    -0.089 SA
BRANCH   9  10
ATOM     10  C   UNL d   1      -3.868  -1.135  -0.864  0.00  0.00     0.121 C 
BRANCH  10  11
ATOM     11  C   UNL d   1      -2.511  -0.472  -1.055  0.00  0.00    -0.046 A 
ATOM     12  C   UNL d   1      -2.303   0.358  -2.184  0.00  0.00     0.041 A 
ATOM     13  C   UNL d   1      -1.038   0.974  -2.252  0.00  0.00     0.085 A 
ATOM     14  C   UNL d   1      -0.018   0.774  -1.233  0.00  0.00     0.085 A 
ATOM     15  N   UNL d   1      -0.546   1.803  -3.180  0.00  0.00    -0.240 N 
ATOM     16  N   UNL d   1       1.062   1.487  -1.572  0.00  0.00    -0.240 N 
ATOM     17  C   UNL d   1      -0.228  -0.049  -0.112  0.00  0.00     0.034 A 
ATOM     18  O   UNL d   1       0.736   2.119  -2.761  0.00  0.00    -0.156 OA
ATOM     19  HN  UNL d   1       1.943   1.552  -1.061  1.00  0.00     0.197 HD
ATOM     20  C   UNL d   1      -1.499  -0.657  -0.060  0.00  0.00     0.010 A 
ATOM     21  HN  UNL d   1      -1.018   2.134  -4.021  1.00  0.00     0.197 HD
ENDBRANCH  10  11
ENDBRANCH   9  10
ENDBRANCH   3   9
BRANCH   4  22
ATOM     22  C   UNL d   1      -7.670  -4.359  -0.178  0.00  0.00     0.031 A 
ATOM     23  S   UNL d   1      -8.956  -5.242  -0.909  0.00  0.00    -0.100 SA
ATOM     24  C   UNL d   1      -8.220  -6.746  -0.580  0.00  0.00     0.050 A 
ATOM     25  C   UNL d   1      -7.009  -6.597   0.056  0.00  0.00     0.008 A 
ATOM     26  C   UNL d   1      -6.689  -5.225   0.276  0.00  0.00     0.021 A 
ENDBRANCH   4  22
TORSDOF 4
