REMARK  4 active torsions:
REMARK  status: ('A' for Active; 'I' for Inactive)
REMARK    1  A    between atoms: C_6  and  C_1 
REMARK    2  A    between atoms: N_15  and  C_4 
REMARK       I    between atoms: N_10  and  C_6 
REMARK    3  A    between atoms: C_12  and  C_9 
REMARK    4  A    between atoms: C_17  and  N_10 
ROOT
ATOM      1  C   UNL d   1      -2.077  -0.097  -0.252  0.00  0.00     0.102 A 
ATOM      2  C   UNL d   1       0.358  -0.529  -0.232  0.00  0.00     0.088 A 
ATOM      3  S   UNL d   1      -1.058  -1.469  -0.397  0.00  0.00    -0.064 SA
ATOM      4  C   UNL d   1      -1.324   1.058  -0.112  0.00  0.00     0.061 A 
ATOM      5  C   UNL d   1       0.086   0.827  -0.093  0.00  0.00     0.026 A 
ATOM      6  N   UNL d   1       1.577  -1.112  -0.237  0.00  0.00    -0.347 N 
ATOM      7  HN  UNL d   1       1.713  -2.117  -0.346  1.00  0.00     0.167 HD
ATOM      8  C   UNL d   1       2.604  -0.240  -0.084  0.00  0.00     0.079 A 
ATOM      9  C   UNL d   1       1.193   1.690   0.049  0.00  0.00     0.019 A 
ATOM     10  C   UNL d   1       2.469   1.136   0.053  0.00  0.00     0.034 A 
ENDROOT
BRANCH   1  11
ATOM     11  C   UNL d   1      -3.538  -0.183  -0.268  0.00  0.00     0.265 C 
ATOM     12  N   UNL d   1      -4.081  -1.456  -0.382  0.00  0.00    -0.322 N 
ATOM     13  H   UNL d   1      -3.420  -2.222  -0.410  0.00  0.00     0.169 HD
ATOM     14  O   UNL d   1      -4.222   0.836  -0.152  0.00  0.00    -0.267 OA
BRANCH  12  15
ATOM     15  C   UNL d   1      -5.454  -1.799  -0.353  0.00  0.00     0.035 A 
ATOM     16  C   UNL d   1      -6.491  -0.862  -0.382  0.00  0.00     0.029 A 
ATOM     17  C   UNL d   1      -7.827  -1.265  -0.292  0.00  0.00     0.002 A 
ATOM     18  C   UNL d   1      -8.142  -2.614  -0.180  0.00  0.00     0.000 A 
ATOM     19  C   UNL d   1      -7.122  -3.562  -0.179  0.00  0.00     0.002 A 
ATOM     20  C   UNL d   1      -5.784  -3.157  -0.274  0.00  0.00     0.029 A 
ENDBRANCH  12  15
ENDBRANCH   1  11
BRANCH   4  21
ATOM     21  N   UNL d   1      -1.873   2.286   0.014  0.00  0.00    -0.397 N 
ATOM     22  H   UNL d   1      -2.891   2.397   0.054  0.00  0.00     0.156 HD
ATOM     23  H   UNL d   1      -1.351   3.139   0.174  0.00  0.00     0.156 HD
ENDBRANCH   4  21
BRANCH   8  24
ATOM     24  C   UNL d   1       3.983  -0.817  -0.048  0.00  0.00     0.172 C 
ATOM     25  O   UNL d   1       4.959  -0.075   0.070  0.00  0.00    -0.291 OA
ATOM     26  C   UNL d   1       4.163  -2.310  -0.138  0.00  0.00     0.098 C 
ENDBRANCH   8  24
TORSDOF 4
