REMARK  6 active torsions:
REMARK  status: ('A' for Active; 'I' for Inactive)
REMARK    1  A    between atoms: C_12  and  N_1 
REMARK    2  A    between atoms: S_11  and  C_2 
REMARK    3  A    between atoms: O_25  and  C_3 
REMARK    4  A    between atoms: C_8  and  C_13 
REMARK       I    between atoms: N_9  and  C_10 
REMARK    5  A    between atoms: C_10  and  C_14 
REMARK    6  A    between atoms: C_14  and  S_11 
ROOT
ATOM      1  N   UNL d   1       0.616   0.541   0.447  0.00  0.00    -0.255 N 
ATOM      2  C   UNL d   1       1.001  -0.764   0.173  0.00  0.00     0.169 A 
ATOM      3  C   UNL d   1      -0.612   0.372   1.086  0.00  0.00     0.245 A 
ATOM      4  N   UNL d   1       0.046  -1.605   0.490  0.00  0.00    -0.276 N 
ATOM      5  HN  UNL d   1       0.051  -2.612   0.322  1.00  0.00     0.189 HD
ATOM      6  N   UNL d   1      -0.959  -0.893   1.085  0.00  0.00    -0.263 N 
ATOM      7  HN  UNL d   1      -1.825  -1.278   1.462  1.00  0.00     0.190 HD
ENDROOT
BRANCH   2   8
ATOM      8  S   UNL d   1       2.604  -1.260  -0.283  0.00  0.00    -0.083 SA
BRANCH   8   9
ATOM      9  C   UNL d   1       2.475  -3.054   0.013  0.00  0.00     0.185 C 
BRANCH   9  10
ATOM     10  C   UNL d   1       3.823  -3.725  -0.199  0.00  0.00     0.229 C 
ATOM     11  N   UNL d   1       4.293  -3.911  -1.498  0.00  0.00    -0.351 N 
ATOM     12  C   UNL d   1       5.554  -4.626  -1.687  0.00  0.00     0.126 C 
ATOM     13  C   UNL d   1       3.562  -3.594  -2.723  0.00  0.00     0.126 C 
ATOM     14  C   UNL d   1       6.474  -3.853  -2.628  0.00  0.00     0.033 C 
ATOM     15  C   UNL d   1       5.790  -3.518  -3.962  0.00  0.00     0.096 C 
ATOM     16  C   UNL d   1       4.451  -2.809  -3.692  0.00  0.00     0.033 C 
ATOM     17  O   UNL d   1       4.469  -4.101   0.782  0.00  0.00    -0.273 OA
BRANCH  15  18
ATOM     18  C   UNL d   1       5.633  -4.741  -4.871  0.00  0.00     0.391 C 
ATOM     19  F   UNL d   1       6.179  -5.854  -4.339  0.00  0.00    -0.171 F 
ATOM     20  F   UNL d   1       4.340  -5.015  -5.148  0.00  0.00    -0.171 F 
ATOM     21  F   UNL d   1       6.252  -4.521  -6.055  0.00  0.00    -0.171 F 
ENDBRANCH  15  18
ENDBRANCH   9  10
ENDBRANCH   8   9
ENDBRANCH   2   8
BRANCH   1  22
ATOM     22  C   UNL d   1       1.255   1.776   0.122  0.00  0.00     0.045 A 
ATOM     23  C   UNL d   1       1.968   1.910  -1.078  0.00  0.00     0.032 A 
ATOM     24  C   UNL d   1       2.494   3.149  -1.446  0.00  0.00     0.026 A 
ATOM     25  C   UNL d   1       2.312   4.260  -0.624  0.00  0.00     0.034 A 
ATOM     26  C   UNL d   1       1.636   4.132   0.589  0.00  0.00     0.026 A 
ATOM     27 CL   UNL d   1       2.909   5.796  -1.109  0.00  0.00    -0.084 Cl
ATOM     28  C   UNL d   1       1.118   2.887   0.967  0.00  0.00     0.032 A 
ENDBRANCH   1  22
BRANCH   3  29
ATOM     29  O   UNL d   1      -1.420   1.316   1.553  0.00  0.00    -0.331 OA
ATOM     30  H   UNL d   1      -1.219   2.154   1.115  0.00  0.00     0.221 HD
ENDBRANCH   3  29
TORSDOF 6
