REMARK  5 active torsions:
REMARK  status: ('A' for Active; 'I' for Inactive)
REMARK    1  A    between atoms: C_7  and  N_1 
REMARK    2  A    between atoms: S_8  and  C_2 
REMARK    3  A    between atoms: C_16  and  S_8 
REMARK    4  A    between atoms: C_10  and  C_11 
REMARK    5  A    between atoms: C_18  and  C_16 
ROOT
ATOM      1  N   UNL d   1       0.963  -0.574   0.131  0.00  0.00    -0.241 N 
ATOM      2  C   UNL d   1       0.742   0.590   0.824  0.00  0.00     0.170 A 
ATOM      3  C   UNL d   1      -0.196  -0.745  -0.610  0.00  0.00     0.347 A 
ATOM      4  N   UNL d   1      -0.426   1.137   0.630  0.00  0.00    -0.275 N 
ATOM      5  HN  UNL d   1      -0.798   1.989   1.049  1.00  0.00     0.189 HD
ATOM      6  N   UNL d   1      -1.033   0.309  -0.258  0.00  0.00    -0.249 N 
ATOM      7  O   UNL d   1      -0.513  -1.616  -1.403  0.00  0.00    -0.245 OA
ATOM      8  H   UNL d   1      -1.948   0.488  -0.649  0.00  0.00     0.192 HD
ENDROOT
BRANCH   1   9
ATOM      9  C   UNL d   1       2.082  -1.449   0.095  0.00  0.00     0.046 A 
ATOM     10  C   UNL d   1       2.330  -2.266  -1.016  0.00  0.00     0.031 A 
ATOM     11  C   UNL d   1       3.474  -3.079  -1.091  0.00  0.00     0.010 A 
ATOM     12  C   UNL d   1       4.419  -3.118  -0.054  0.00  0.00    -0.051 A 
ATOM     13  C   UNL d   1       4.133  -2.355   1.081  0.00  0.00     0.010 A 
ATOM     14  C   UNL d   1       2.985  -1.552   1.157  0.00  0.00     0.031 A 
BRANCH  12  15
ATOM     15  C   UNL d   1       5.697  -3.963  -0.182  0.00  0.00    -0.024 C 
ATOM     16  C   UNL d   1       6.636  -3.851   1.042  0.00  0.00     0.019 C 
ATOM     17  C   UNL d   1       5.327  -5.451  -0.344  0.00  0.00     0.019 C 
ATOM     18  C   UNL d   1       6.506  -3.502  -1.414  0.00  0.00     0.019 C 
ENDBRANCH  12  15
ENDBRANCH   1   9
BRANCH   2  19
ATOM     19  S   UNL d   1       1.941   1.391   1.791  0.00  0.00    -0.087 SA
BRANCH  19  20
ATOM     20  C   UNL d   1       0.883   2.328   2.927  0.00  0.00     0.121 C 
BRANCH  20  21
ATOM     21  C   UNL d   1       1.677   3.104   3.956  0.00  0.00    -0.048 A 
ATOM     22  C   UNL d   1       2.558   4.127   3.564  0.00  0.00     0.009 A 
ATOM     23  C   UNL d   1       3.249   4.880   4.517  0.00  0.00     0.024 A 
ATOM     24  C   UNL d   1       3.058   4.623   5.872  0.00  0.00     0.034 A 
ATOM     25  C   UNL d   1       2.192   3.613   6.281  0.00  0.00     0.024 A 
ATOM     26 CL   UNL d   1       3.886   5.569   7.048  0.00  0.00    -0.084 Cl
ATOM     27  C   UNL d   1       1.505   2.855   5.327  0.00  0.00     0.009 A 
ENDBRANCH  20  21
ENDBRANCH  19  20
ENDBRANCH   2  19
TORSDOF 5
