REMARK  5 active torsions:
REMARK  status: ('A' for Active; 'I' for Inactive)
REMARK       I    between atoms: C_2  and  N_1 
REMARK       I    between atoms: C_3  and  N_1 
REMARK    1  A    between atoms: C_7  and  N_1 
REMARK       I    between atoms: N_4  and  C_2 
REMARK    2  A    between atoms: C_8  and  C_3 
REMARK    3  A    between atoms: C_11  and  N_4 
REMARK    4  A    between atoms: C_14  and  C_7 
REMARK    5  A    between atoms: S_13  and  C_12 
ROOT
ATOM      1  N   UNL d   1      -0.060  -3.443   3.113  0.00  0.00    -0.197 NA
ATOM      2  C   UNL d   1       0.509  -2.789   2.345  0.00  0.00     0.068 C 
ATOM      3  C   UNL d   1       1.289  -1.956   1.415  0.00  0.00     0.227 C 
ENDROOT
BRANCH   3   4
ATOM      4  C   UNL d   1       0.421  -1.385   0.311  0.00  0.00     0.241 C 
ATOM      5  N   UNL d   1       0.931  -0.335  -0.460  0.00  0.00    -0.265 N 
ATOM      6  C   UNL d   1       0.085   0.512  -1.216  0.00  0.00     0.329 C 
ATOM      7  N   UNL d   1      -1.091  -0.077  -1.627  0.00  0.00    -0.308 N 
ATOM      8  O   UNL d   1       0.385   1.682  -1.453  0.00  0.00    -0.246 OA
ATOM      9  H   UNL d   1      -1.386  -0.888  -1.086  0.00  0.00     0.170 HD
ATOM     10  O   UNL d   1      -0.687  -1.881   0.077  0.00  0.00    -0.272 OA
BRANCH   5  11
ATOM     11  C   UNL d   1       2.302   0.170  -0.304  0.00  0.00     0.175 C 
BRANCH  11  12
ATOM     12  C   UNL d   1       3.013   0.400  -1.625  0.00  0.00    -0.040 A 
ATOM     13  C   UNL d   1       3.659   1.622  -1.874  0.00  0.00     0.009 A 
ATOM     14  C   UNL d   1       4.259   1.869  -3.109  0.00  0.00     0.001 A 
ATOM     15  C   UNL d   1       4.229   0.896  -4.106  0.00  0.00     0.000 A 
ATOM     16  C   UNL d   1       3.611  -0.329  -3.864  0.00  0.00     0.001 A 
ATOM     17  C   UNL d   1       3.014  -0.582  -2.627  0.00  0.00     0.009 A 
ENDBRANCH  11  12
ENDBRANCH   5  11
BRANCH   7  18
ATOM     18  C   UNL d   1      -2.026   0.445  -2.533  0.00  0.00     0.036 A 
ATOM     19  C   UNL d   1      -1.712   1.419  -3.478  0.00  0.00     0.031 A 
ATOM     20  C   UNL d   1      -2.701   1.916  -4.333  0.00  0.00     0.021 A 
ATOM     21  C   UNL d   1      -4.019   1.462  -4.239  0.00  0.00    -0.000 A 
ATOM     22  C   UNL d   1      -4.315   0.441  -3.330  0.00  0.00     0.021 A 
ATOM     23  C   UNL d   1      -3.322  -0.075  -2.492  0.00  0.00     0.031 A 
BRANCH  21  24
ATOM     24  S   UNL d   1      -5.345   2.107  -5.245  0.00  0.00    -0.134 SA
ATOM     25  C   UNL d   1      -4.889   3.861  -5.352  0.00  0.00     0.095 C 
ENDBRANCH  21  24
ENDBRANCH   7  18
ENDBRANCH   3   4
TORSDOF 5
