REMARK  1 active torsions:
REMARK  status: ('A' for Active; 'I' for Inactive)
REMARK    1  A    between atoms: C_7  and  N_1 
ROOT
ATOM      1  N   UNL d   1       0.623   1.066   0.104  0.00  0.00    -0.224 N 
ATOM      2  C   UNL d   1       1.139  -0.234  -0.022  0.00  0.00     0.248 A 
ATOM      3  N   UNL d   1      -0.760   1.111   0.162  0.00  0.00    -0.299 N 
ATOM      4  HN  UNL d   1      -1.342   1.943   0.256  1.00  0.00     0.187 HD
ATOM      5  C   UNL d   1      -0.066  -1.123  -0.002  0.00  0.00     0.158 A 
ATOM      6  C   UNL d   1      -1.166  -0.117   0.073  0.00  0.00     0.009 A 
ATOM      7  O   UNL d   1       2.288  -0.636  -0.121  0.00  0.00    -0.271 OA
ATOM      8  C   UNL d   1      -2.598  -0.524   0.053  0.00  0.00     0.065 C 
ENDROOT
BRANCH   1   9
ATOM      9  C   UNL d   1       1.343   2.287   0.115  0.00  0.00     0.059 A 
ATOM     10  C   UNL d   1       2.726   2.331  -0.107  0.00  0.00     0.033 A 
ATOM     11  C   UNL d   1       3.416   3.550  -0.125  0.00  0.00     0.026 A 
ATOM     12  C   UNL d   1       2.731   4.740   0.092  0.00  0.00     0.034 A 
ATOM     13  C   UNL d   1       1.361   4.721   0.332  0.00  0.00     0.026 A 
ATOM     14 CL   UNL d   1       3.578   6.236   0.058  0.00  0.00    -0.084 Cl
ATOM     15  C   UNL d   1       0.673   3.502   0.340  0.00  0.00     0.033 A 
ENDBRANCH   1   9
TORSDOF 1
