REMARK  6 active torsions:
REMARK  status: ('A' for Active; 'I' for Inactive)
REMARK    1  A    between atoms: C_2  and  C_1 
REMARK       I    between atoms: N_13  and  C_1 
REMARK    2  A    between atoms: C_6  and  C_21 
REMARK    3  A    between atoms: C_22  and  N_13 
REMARK    4  A    between atoms: S_20  and  C_23 
REMARK    5  A    between atoms: C_21  and  S_20 
REMARK    6  A    between atoms: C_23  and  C_22 
ROOT
ATOM      1  C   UNL d   1       2.023  -0.462  -1.381  0.00  0.00     0.251 C 
ATOM      2  O   UNL d   1       2.354  -1.528  -1.880  0.00  0.00    -0.268 OA
ATOM      3  N   UNL d   1       2.449  -0.037  -0.138  0.00  0.00    -0.356 N 
ATOM      4  H   UNL d   1       2.290   0.913   0.164  0.00  0.00     0.162 HD
ENDROOT
BRANCH   3   5
ATOM      5  C   UNL d   1       3.174  -0.929   0.746  0.00  0.00     0.133 C 
BRANCH   5   6
ATOM      6  C   UNL d   1       4.688  -0.887   0.543  0.00  0.00     0.093 C 
BRANCH   6   7
ATOM      7  S   UNL d   1       5.574  -1.974   1.716  0.00  0.00    -0.163 SA
BRANCH   7   8
ATOM      8  C   UNL d   1       4.942  -3.590   1.164  0.00  0.00     0.114 C 
BRANCH   8   9
ATOM      9  C   UNL d   1       5.458  -4.724   2.016  0.00  0.00    -0.027 A 
ATOM     10  C   UNL d   1       4.805  -5.154   3.186  0.00  0.00     0.042 A 
ATOM     11  C   UNL d   1       5.295  -6.237   3.920  0.00  0.00     0.048 A 
ATOM     12 CL   UNL d   1       3.368  -4.386   3.767  0.00  0.00    -0.084 Cl
ATOM     13  C   UNL d   1       6.447  -6.894   3.495  0.00  0.00     0.035 A 
ATOM     14  C   UNL d   1       7.123  -6.469   2.356  0.00  0.00     0.024 A 
ATOM     15 CL   UNL d   1       7.035  -8.245   4.382  0.00  0.00    -0.084 Cl
ATOM     16  C   UNL d   1       6.634  -5.387   1.622  0.00  0.00     0.011 A 
ENDBRANCH   8   9
ENDBRANCH   7   8
ENDBRANCH   6   7
ENDBRANCH   5   6
ENDBRANCH   3   5
BRANCH   1  17
ATOM     17  C   UNL d   1       1.105   0.453  -2.113  0.00  0.00     0.033 A 
ATOM     18  C   UNL d   1       0.207   1.288  -1.436  0.00  0.00     0.042 A 
ATOM     19  C   UNL d   1      -0.682   2.092  -2.158  0.00  0.00     0.056 A 
ATOM     20 CL   UNL d   1      -1.770   3.087  -1.257  0.00  0.00    -0.083 Cl
ATOM     21  C   UNL d   1      -0.680   2.060  -3.558  0.00  0.00     0.055 A 
ATOM     22  C   UNL d   1       0.210   1.218  -4.232  0.00  0.00     0.026 A 
ATOM     23 CL   UNL d   1      -1.757   3.020  -4.508  0.00  0.00    -0.083 Cl
ATOM     24  C   UNL d   1       1.095   0.411  -3.512  0.00  0.00     0.019 A 
ENDBRANCH   1  17
TORSDOF 6
