REMARK  5 active torsions:
REMARK  status: ('A' for Active; 'I' for Inactive)
REMARK    1  A    between atoms: C_5  and  C_1 
REMARK    2  A    between atoms: C_6  and  C_3 
REMARK    3  A    between atoms: O_15  and  C_4 
REMARK    4  A    between atoms: O_16  and  C_5 
REMARK    5  A    between atoms: O_17  and  C_9 
ROOT
ATOM      1  C   UNL d   1      -1.585  -2.454   0.018  0.00  0.00     0.048 C 
ATOM      2  C   UNL d   1      -1.984  -3.070   1.153  0.00  0.00     0.125 C 
ATOM      3  N   UNL d   1      -1.350  -2.212   3.507  0.00  0.00    -0.191 NA
ATOM      4  N   UNL d   1      -3.463  -5.189   0.951  0.00  0.00    -0.191 NA
ATOM      5  C   UNL d   1      -1.637  -2.585   2.449  0.00  0.00     0.111 C 
ATOM      6  C   UNL d   1      -2.801  -4.243   1.060  0.00  0.00     0.111 C 
ENDROOT
BRANCH   1   7
ATOM      7  C   UNL d   1      -0.776  -1.229  -0.058  0.00  0.00     0.001 A 
ATOM      8  C   UNL d   1       0.626  -1.391  -0.026  0.00  0.00     0.034 A 
ATOM      9  C   UNL d   1       1.521  -0.292   0.006  0.00  0.00     0.073 A 
ATOM     10  C   UNL d   1       0.990   1.002  -0.058  0.00  0.00     0.087 A 
ATOM     11  C   UNL d   1      -0.408   1.153  -0.084  0.00  0.00     0.075 A 
ATOM     12  C   UNL d   1      -1.298   0.068  -0.079  0.00  0.00     0.081 A 
BRANCH   9  13
ATOM     13  C   UNL d   1       2.961  -0.580   0.281  0.00  0.00     0.295 C 
ATOM     14  O   UNL d   1       3.720   0.164   0.875  0.00  0.00    -0.259 OA
BRANCH  13  15
ATOM     15  O   UNL d   1       3.301  -1.809  -0.198  0.00  0.00    -0.322 OA
ATOM     16  C   UNL d   1       4.652  -2.188   0.092  0.00  0.00     0.213 C 
ENDBRANCH  13  15
ENDBRANCH   9  13
BRANCH  10  17
ATOM     17  O   UNL d   1       1.624   2.212  -0.009  0.00  0.00    -0.355 OA
ATOM     18  C   UNL d   1       2.871   2.379  -0.668  0.00  0.00     0.210 C 
ENDBRANCH  10  17
BRANCH  12  19
ATOM     19  O   UNL d   1      -2.603   0.464   0.011  0.00  0.00    -0.355 OA
ATOM     20  C   UNL d   1      -3.621  -0.321  -0.588  0.00  0.00     0.210 C 
ENDBRANCH  12  19
ENDBRANCH   1   7
TORSDOF 5
