REMARK  4 active torsions:
REMARK  status: ('A' for Active; 'I' for Inactive)
REMARK    1  A    between atoms: C_6  and  N_1 
REMARK    2  A    between atoms: C_3  and  C_2 
REMARK    3  A    between atoms: O_5  and  C_3 
REMARK    4  A    between atoms: C_4  and  O_5 
ROOT
ATOM      1  C   UNL d   1       1.783  -2.143   1.740  0.00  0.00     0.301 C 
ATOM      2  O   UNL d   1       2.540  -1.195   1.863  0.00  0.00    -0.259 OA
ENDROOT
BRANCH   1   3
ATOM      3  C   UNL d   1       0.612  -2.120   0.843  0.00  0.00     0.072 A 
ATOM      4  C   UNL d   1      -0.270  -1.038   0.820  0.00  0.00     0.119 A 
ATOM      5  C   UNL d   1      -1.332  -0.976  -0.093  0.00  0.00     0.037 A 
ATOM      6  C   UNL d   1      -1.506  -2.017  -1.003  0.00  0.00     0.002 A 
ATOM      7  C   UNL d   1      -0.631  -3.105  -0.996  0.00  0.00     0.001 A 
ATOM      8  C   UNL d   1       0.427  -3.159  -0.081  0.00  0.00     0.020 A 
BRANCH   4   9
ATOM      9  N   UNL d   1      -0.164   0.025   1.796  0.00  0.00    -0.115 N 
ATOM     10  O   UNL d   1      -0.316  -0.292   2.980  0.00  0.00    -0.532 OA
ATOM     11  O   UNL d   1      -0.025   1.176   1.363  0.00  0.00    -0.532 OA
ENDBRANCH   4   9
ENDBRANCH   1   3
BRANCH   1  12
ATOM     12  O   UNL d   1       1.842  -3.375   2.359  0.00  0.00    -0.271 OA
BRANCH  12  13
ATOM     13  C   UNL d   1       2.930  -3.496   3.237  0.00  0.00     0.122 A 
ATOM     14  C   UNL d   1       2.888  -2.929   4.514  0.00  0.00     0.070 A 
ATOM     15  C   UNL d   1       3.965  -3.097   5.389  0.00  0.00     0.033 A 
ATOM     16 CL   UNL d   1       1.512  -2.062   5.085  0.00  0.00    -0.081 Cl
ATOM     17  C   UNL d   1       5.071  -3.873   5.019  0.00  0.00    -0.059 A 
ATOM     18  C   UNL d   1       5.099  -4.454   3.744  0.00  0.00     0.033 A 
ATOM     19  C   UNL d   1       6.218  -4.041   5.973  0.00  0.00     0.048 C 
ATOM     20  C   UNL d   1       4.030  -4.271   2.858  0.00  0.00     0.070 A 
ATOM     21 CL   UNL d   1       4.096  -5.039   1.313  0.00  0.00    -0.081 Cl
ENDBRANCH  12  13
ENDBRANCH   1  12
TORSDOF 4
