REMARK  6 active torsions:
REMARK  status: ('A' for Active; 'I' for Inactive)
REMARK    1  A    between atoms: C_2  and  C_1 
REMARK    2  A    between atoms: C_4  and  C_1 
REMARK    3  A    between atoms: O_12  and  C_2 
REMARK    4  A    between atoms: C_11  and  C_3 
REMARK    5  A    between atoms: N_5  and  C_4 
REMARK    6  A    between atoms: C_17  and  O_12 
ROOT
ATOM      1  C   UNL d   1       0.978   0.019   0.096  0.00  0.00     0.102 C 
ATOM      2  C   UNL d   1       0.305  -0.961   0.731  0.00  0.00     0.039 C 
ENDROOT
BRANCH   1   3
ATOM      3  C   UNL d   1       0.295   1.152  -0.581  0.00  0.00     0.302 C 
ATOM      4  O   UNL d   1      -0.807   1.594  -0.277  0.00  0.00    -0.259 OA
BRANCH   3   5
ATOM      5  O   UNL d   1       1.038   1.554  -1.640  0.00  0.00    -0.317 OA
BRANCH   5   6
ATOM      6  C   UNL d   1       0.319   2.312  -2.626  0.00  0.00     0.174 C 
ATOM      7  C   UNL d   1      -0.197   1.331  -3.661  0.00  0.00     0.034 C 
ENDBRANCH   5   6
ENDBRANCH   3   5
ENDBRANCH   1   3
BRANCH   1   8
ATOM      8  C   UNL d   1       2.498   0.019   0.096  0.00  0.00    -0.031 C 
BRANCH   8   9
ATOM      9  N   UNL d   1       3.759   0.019   0.096  0.00  0.00    -0.365 N 
ATOM     10  HN2 UNL d   1       2.739   0.019   0.096  1.00  0.00     0.165 HD
ATOM     11  HN1 UNL d   1       4.779   0.019   0.096  1.00  0.00     0.165 HD
ENDBRANCH   8   9
ENDBRANCH   1   8
BRANCH   2  12
ATOM     12  C   UNL d   1      -1.159  -1.059   0.804  0.00  0.00    -0.032 A 
ATOM     13  C   UNL d   1      -1.869  -1.748  -0.178  0.00  0.00     0.028 A 
ATOM     14  C   UNL d   1      -3.253  -1.753  -0.107  0.00  0.00     0.088 A 
ATOM     15  N   UNL d   1      -3.959  -1.131   0.861  0.00  0.00    -0.375 N 
ATOM     16  C   UNL d   1      -3.248  -0.465   1.796  0.00  0.00     0.088 A 
ATOM     17  HN  UNL d   1      -4.978  -1.162   0.884  1.00  0.00     0.164 HD
ATOM     18  C   UNL d   1      -1.864  -0.408   1.818  0.00  0.00     0.028 A 
ENDBRANCH   2  12
TORSDOF 6
