REMARK  7 active torsions:
REMARK  status: ('A' for Active; 'I' for Inactive)
REMARK       I    between atoms: N_2  and  C_1 
REMARK    1  A    between atoms: C_5  and  C_1 
REMARK    2  A    between atoms: C_10  and  N_2 
REMARK    3  A    between atoms: C_4  and  C_10 
REMARK    4  A    between atoms: C_16  and  C_15 
REMARK    5  A    between atoms: C_17  and  C_16 
REMARK    6  A    between atoms: C_19  and  C_17 
REMARK    7  A    between atoms: C_18  and  C_19 
ROOT
ATOM      1  C   UNL d   1       0.148   0.376   1.063  0.00  0.00     0.032 A 
ATOM      2  C   UNL d   1       0.581   1.538   1.711  0.00  0.00     0.017 A 
ATOM      3  C   UNL d   1      -1.043  -0.237   1.455  0.00  0.00     0.017 A 
ATOM      4  C   UNL d   1      -1.792   0.309   2.503  0.00  0.00     0.008 A 
ATOM      5  C   UNL d   1      -0.169   2.082   2.758  0.00  0.00     0.008 A 
ATOM      6  C   UNL d   1      -1.359   1.468   3.167  0.00  0.00    -0.058 A 
ENDROOT
BRANCH   1   7
ATOM      7  C   UNL d   1       0.939  -0.182  -0.064  0.00  0.00     0.251 C 
ATOM      8  N   UNL d   1       2.302   0.047  -0.000  0.00  0.00    -0.352 N 
ATOM      9  H   UNL d   1       2.714   0.281   0.891  0.00  0.00     0.163 HD
ATOM     10  O   UNL d   1       0.399  -0.804  -0.963  0.00  0.00    -0.268 OA
BRANCH   8  11
ATOM     11  C   UNL d   1       3.160  -0.492  -1.022  0.00  0.00     0.169 C 
BRANCH  11  12
ATOM     12  C   UNL d   1       4.577  -0.111  -0.742  0.00  0.00     0.000 A 
ATOM     13  S   UNL d   1       5.568  -1.122   0.226  0.00  0.00    -0.105 SA
ATOM     14  C   UNL d   1       6.935  -0.122  -0.013  0.00  0.00     0.050 A 
ATOM     15  C   UNL d   1       6.642   0.975  -0.791  0.00  0.00     0.008 A 
ATOM     16  C   UNL d   1       5.277   0.989  -1.202  0.00  0.00     0.017 A 
ENDBRANCH  11  12
ENDBRANCH   8  11
ENDBRANCH   1   7
BRANCH   6  17
ATOM     17  C   UNL d   1      -2.169   2.035   4.310  0.00  0.00     0.038 C 
BRANCH  17  18
ATOM     18  C   UNL d   1      -2.352   1.065   5.482  0.00  0.00     0.005 C 
BRANCH  18  19
ATOM     19  C   UNL d   1      -1.033   0.649   6.133  0.00  0.00    -0.000 C 
BRANCH  19  20
ATOM     20  C   UNL d   1      -1.298  -0.309   7.293  0.00  0.00    -0.005 C 
ATOM     21  C   UNL d   1      -0.009  -0.751   7.960  0.00  0.00     0.005 C 
ENDBRANCH  19  20
ENDBRANCH  18  19
ENDBRANCH  17  18
ENDBRANCH   6  17
TORSDOF 7
