REMARK  5 active torsions:
REMARK  status: ('A' for Active; 'I' for Inactive)
REMARK    1  A    between atoms: N_2  and  S_1 
REMARK    2  A    between atoms: C_3  and  S_1 
REMARK    3  A    between atoms: C_4  and  N_2 
REMARK    4  A    between atoms: O_14  and  C_8 
REMARK    5  A    between atoms: O_15  and  C_9 
ROOT
ATOM      1  S   UNL d   1       0.817   0.097   0.208  0.00  0.00     0.246 S 
ATOM      2  O   UNL d   1       2.256   0.159   0.337  0.00  0.00    -0.206 OA
ATOM      3  O   UNL d   1       0.091   1.051  -0.606  0.00  0.00    -0.206 OA
ENDROOT
BRANCH   1   4
ATOM      4  N   UNL d   1       0.106   0.149   1.753  0.00  0.00    -0.180 NA
ATOM      5  H   UNL d   1      -0.910   0.215   1.670  0.00  0.00     0.146 HD
BRANCH   4   6
ATOM      6  C   UNL d   1       0.573  -0.790   2.733  0.00  0.00     0.044 A 
ATOM      7  C   UNL d   1      -0.145  -1.958   3.036  0.00  0.00     0.056 A 
ATOM      8 CL   UNL d   1      -1.702  -2.259   2.354  0.00  0.00    -0.082 Cl
ATOM      9  C   UNL d   1       0.384  -2.898   3.924  0.00  0.00     0.026 A 
ATOM     10  C   UNL d   1       1.611  -2.658   4.542  0.00  0.00     0.002 A 
ATOM     11  C   UNL d   1       2.313  -1.484   4.267  0.00  0.00     0.002 A 
ATOM     12  C   UNL d   1       1.803  -0.560   3.352  0.00  0.00     0.026 A 
ENDBRANCH   4   6
ENDBRANCH   1   4
BRANCH   1  13
ATOM     13  C   UNL d   1       0.385  -1.528  -0.372  0.00  0.00     0.077 A 
ATOM     14  C   UNL d   1       1.249  -2.600  -0.117  0.00  0.00     0.064 A 
ATOM     15  C   UNL d   1       0.884  -3.908  -0.473  0.00  0.00     0.102 A 
ATOM     16  C   UNL d   1      -0.344  -4.117  -1.130  0.00  0.00     0.101 A 
ATOM     17  C   UNL d   1      -1.171  -3.018  -1.423  0.00  0.00     0.041 A 
ATOM     18  C   UNL d   1      -0.812  -1.723  -1.053  0.00  0.00     0.028 A 
BRANCH  15  19
ATOM     19  O   UNL d   1       1.670  -4.993  -0.193  0.00  0.00    -0.353 OA
ATOM     20  C   UNL d   1       2.894  -4.780   0.499  0.00  0.00     0.210 C 
ENDBRANCH  15  19
BRANCH  16  21
ATOM     21  O   UNL d   1      -0.901  -5.296  -1.554  0.00  0.00    -0.353 OA
ATOM     22  C   UNL d   1      -0.213  -6.513  -1.312  0.00  0.00     0.210 C 
ENDBRANCH  16  21
ENDBRANCH   1  13
TORSDOF 5
