REMARK  1 active torsions:
REMARK  status: ('A' for Active; 'I' for Inactive)
REMARK       I    between atoms: C_3  and  N_4 
REMARK    1  A    between atoms: N_4  and  C_5 
ROOT
ATOM      1  C   UNL d   1      -2.003  -0.214   0.001  0.00  0.00    -0.078 C 
ATOM      2  C   UNL d   1      -3.204  -0.237   0.009  0.00  0.00     0.018 C 
ATOM      3  C   UNL d   1       1.387   1.327   0.001  0.00  0.00     0.036 A 
ATOM      4  C   UNL d   1      -0.577  -0.103  -0.002  0.00  0.00     0.019 A 
ATOM      5  C   UNL d   1       0.001   1.170  -0.007  0.00  0.00     0.050 A 
ATOM      6  C   UNL d   1       1.618  -1.096   0.019  0.00  0.00     0.004 A 
ATOM      7  C   UNL d   1       2.193   0.180   0.016  0.00  0.00     0.029 A 
ATOM      8  C   UNL d   1       0.231  -1.239   0.009  0.00  0.00     0.021 A 
ENDROOT
BRANCH   3   9
ATOM      9  N   UNL d   1       2.031   2.584  -0.004  0.00  0.00    -0.327 N 
ATOM     10  C   UNL d   1       1.427   3.829  -0.021  0.00  0.00     0.218 C 
ATOM     11  O   UNL d   1       0.223   4.064  -0.035  0.00  0.00    -0.274 OA
ATOM     12  C   UNL d   1       2.409   4.973  -0.023  0.00  0.00     0.117 C 
ATOM     13  H   UNL d   1       3.043   2.561   0.005  0.00  0.00     0.169 HD
ENDBRANCH   3   9
TORSDOF 1
