REMARK  6 active torsions:
REMARK  status: ('A' for Active; 'I' for Inactive)
REMARK    1  A    between atoms: C_2  and  N_1 
REMARK    2  A    between atoms: C_3  and  C_5 
REMARK    3  A    between atoms: S_8  and  C_6 
REMARK    4  A    between atoms: C_17  and  S_8 
REMARK    5  A    between atoms: C_10  and  C_17 
REMARK    6  A    between atoms: O_18  and  C_10 
ROOT
ATOM      1  C   UNL d   1       0.372  -1.079   0.243  0.00  0.00     0.120 A 
ATOM      2  C   UNL d   1       0.742  -1.961   1.276  0.00  0.00     0.053 A 
ATOM      3  C   UNL d   1       0.001  -3.129   1.502  0.00  0.00     0.050 A 
ATOM      4  C   UNL d   1      -0.711  -1.344  -0.610  0.00  0.00     0.034 A 
ATOM      5  C   UNL d   1      -1.106  -3.386   0.681  0.00  0.00     0.017 A 
ATOM      6  C   UNL d   1      -1.455  -2.507  -0.354  0.00  0.00     0.022 A 
ENDROOT
BRANCH   4   7
ATOM      7  S   UNL d   1      -1.308  -0.337  -1.969  0.00  0.00    -0.117 SA
BRANCH   7   8
ATOM      8  C   UNL d   1       0.120  -0.323  -3.116  0.00  0.00     0.189 C 
BRANCH   8   9
ATOM      9  C   UNL d   1       0.501  -1.702  -3.608  0.00  0.00     0.149 C 
ATOM     10  O   UNL d   1       1.640  -2.012  -3.922  0.00  0.00    -0.649 OA
BRANCH   9  11
ATOM     11  O   UNL d   1      -0.537  -2.561  -3.748  0.00  0.00    -0.776 OA
ATOM     12  H   UNL d   1      -1.384  -2.158  -3.469  0.00  0.00     0.167 HD
ENDBRANCH   9  11
ENDBRANCH   8   9
ENDBRANCH   7   8
ENDBRANCH   4   7
BRANCH   1  13
ATOM     13  N   UNL d   1       1.130   0.153   0.140  0.00  0.00    -0.114 N 
ATOM     14  O   UNL d   1       2.350   0.044  -0.037  0.00  0.00    -0.532 OA
ATOM     15  O   UNL d   1       0.512   1.217   0.265  0.00  0.00    -0.532 OA
ENDBRANCH   1  13
BRANCH   3  16
ATOM     16  C   UNL d   1       0.355  -4.091   2.614  0.00  0.00     0.417 C 
ATOM     17  F   UNL d   1       1.448  -3.711   3.329  0.00  0.00    -0.166 F 
ATOM     18  F   UNL d   1      -0.656  -4.227   3.515  0.00  0.00    -0.166 F 
ATOM     19  F   UNL d   1       0.619  -5.342   2.152  0.00  0.00    -0.166 F 
ENDBRANCH   3  16
TORSDOF 6
