REMARK  1 active torsions:
REMARK  status: ('A' for Active; 'I' for Inactive)
REMARK    1  A    between atoms: C_5  and  C_1 
ROOT
ATOM      1  C   UNL d   1      -0.079  -1.369   0.201  0.00  0.00     0.091 A 
ATOM      2  C   UNL d   1       1.180  -0.739   0.375  0.00  0.00     0.105 A 
ATOM      3  N   UNL d   1      -1.052  -0.447   0.125  0.00  0.00    -0.259 N 
ATOM      4  HN  UNL d   1      -2.050  -0.619   0.002  1.00  0.00     0.195 HD
ATOM      5  O   UNL d   1      -0.432   0.782   0.246  0.00  0.00    -0.241 OA
ATOM      6  C   UNL d   1       0.906   0.605   0.412  0.00  0.00     0.095 A 
ATOM      7  C   UNL d   1       2.463  -1.335   0.502  0.00  0.00     0.104 C 
ATOM      8  N   UNL d   1       3.513  -1.820   0.610  0.00  0.00    -0.191 NA
ATOM      9  C   UNL d   1       1.712   1.829   0.582  0.00  0.00     0.081 C 
ENDROOT
BRANCH   1  10
ATOM     10  C   UNL d   1      -0.384  -2.795   0.120  0.00  0.00     0.037 A 
ATOM     11  C   UNL d   1      -0.180  -3.641   1.228  0.00  0.00     0.048 A 
ATOM     12 CL   UNL d   1       0.377  -3.052   2.760  0.00  0.00    -0.083 Cl
ATOM     13  C   UNL d   1      -0.443  -5.013   1.141  0.00  0.00     0.025 A 
ATOM     14  C   UNL d   1      -0.935  -5.560  -0.041  0.00  0.00     0.003 A 
ATOM     15  C   UNL d   1      -1.161  -4.736  -1.140  0.00  0.00     0.025 A 
ATOM     16  C   UNL d   1      -0.883  -3.365  -1.066  0.00  0.00     0.048 A 
ATOM     17 CL   UNL d   1      -1.149  -2.439  -2.506  0.00  0.00    -0.083 Cl
ENDBRANCH   1  10
TORSDOF 1
