REMARK  4 active torsions:
REMARK  status: ('A' for Active; 'I' for Inactive)
REMARK    1  A    between atoms: N_2  and  C_1 
REMARK    2  A    between atoms: N_3  and  C_5 
REMARK    3  A    between atoms: O_9  and  C_6 
REMARK    4  A    between atoms: N_7  and  O_9 
ROOT
ATOM      1  C   UNL d   1      -0.015   2.808   1.090  0.00  0.00     0.141 A 
ATOM      2  C   UNL d   1      -0.559   3.951   1.712  0.00  0.00     0.075 A 
ATOM      3  C   UNL d   1       0.190   5.139   1.756  0.00  0.00     0.105 A 
ATOM      4  C   UNL d   1       1.264   2.856   0.509  0.00  0.00     0.132 A 
ATOM      5  C   UNL d   1       1.476   5.185   1.218  0.00  0.00     0.039 A 
ATOM      6  C   UNL d   1       2.002   4.051   0.594  0.00  0.00     0.044 A 
ENDROOT
BRANCH   4   7
ATOM      7  O   UNL d   1       1.738   1.780  -0.210  0.00  0.00    -0.236 OA
BRANCH   7   8
ATOM      8  N   UNL d   1       3.135   1.797  -0.260  0.00  0.00    -0.269 N 
ATOM      9  C   UNL d   1       3.603   0.997  -1.167  0.00  0.00     0.010 C 
ATOM     10  C   UNL d   1       2.801   0.138  -2.121  0.00  0.00     0.054 C 
ATOM     11  C   UNL d   1       5.103   0.872  -1.294  0.00  0.00     0.054 C 
ATOM     12  C   UNL d   1       3.205  -1.322  -1.925  0.00  0.00     0.006 C 
ATOM     13  C   UNL d   1       4.724  -1.528  -1.959  0.00  0.00     0.001 C 
ATOM     14  C   UNL d   1       5.463  -0.580  -1.010  0.00  0.00     0.006 C 
ATOM     15  HN  UNL d   1       3.718   2.372   0.348  1.00  0.00     0.194 HD
ENDBRANCH   7   8
ENDBRANCH   4   7
BRANCH   1  16
ATOM     16  N   UNL d   1      -0.822   1.574   1.089  0.00  0.00    -0.113 N 
ATOM     17  O   UNL d   1      -1.940   1.632   1.623  0.00  0.00    -0.532 OA
ATOM     18  O   UNL d   1      -0.360   0.549   0.573  0.00  0.00    -0.532 OA
ENDBRANCH   1  16
BRANCH   3  19
ATOM     19  N   UNL d   1      -0.391   6.353   2.345  0.00  0.00    -0.116 N 
ATOM     20  O   UNL d   1      -1.581   6.313   2.683  0.00  0.00    -0.532 OA
ATOM     21  O   UNL d   1       0.342   7.346   2.453  0.00  0.00    -0.532 OA
ENDBRANCH   3  19
TORSDOF 4
