REMARK  3 active torsions:
REMARK  status: ('A' for Active; 'I' for Inactive)
REMARK    1  A    between atoms: C_9  and  C_1 
REMARK       I    between atoms: C_6  and  N_8 
REMARK    2  A    between atoms: C_10  and  C_6 
REMARK    3  A    between atoms: N_8  and  C_16 
ROOT
ATOM      1  C   UNL d   1      -3.829  -0.840   0.328  0.00  0.00    -0.002 A 
ATOM      2  C   UNL d   1      -4.431  -0.660  -0.929  0.00  0.00     0.016 A 
ATOM      3  C   UNL d   1      -4.627  -1.380   1.344  0.00  0.00     0.016 A 
ATOM      4  C   UNL d   1      -6.599  -1.403  -0.107  0.00  0.00     0.034 A 
ATOM      5  C   UNL d   1      -5.990  -1.658   1.126  0.00  0.00     0.030 A 
ATOM      6  C   UNL d   1      -5.790  -0.938  -1.147  0.00  0.00     0.030 A 
ENDROOT
BRANCH   1   7
ATOM      7  C   UNL d   1      -2.418  -0.424   0.506  0.00  0.00     0.085 A 
ATOM      8  N   UNL d   1      -1.667   0.003  -0.490  0.00  0.00    -0.349 N 
ATOM      9  C   UNL d   1      -0.428   0.415  -0.035  0.00  0.00     0.050 A 
ATOM     10  HN  UNL d   1      -1.961   0.027  -1.466  1.00  0.00     0.166 HD
ATOM     11  C   UNL d   1       0.600   0.949  -0.835  0.00  0.00     0.031 A 
ATOM     12  C   UNL d   1      -0.219   0.285   1.336  0.00  0.00     0.034 A 
ATOM     13  C   UNL d   1       1.810   1.335  -0.248  0.00  0.00     0.009 A 
ATOM     14  C   UNL d   1       2.016   1.199   1.127  0.00  0.00    -0.061 A 
ATOM     15  C   UNL d   1       0.996   0.671   1.939  0.00  0.00     0.028 A 
ATOM     16  C   UNL d   1       3.337   1.610   1.712  0.00  0.00     0.048 C 
ATOM     17  S   UNL d   1      -1.641  -0.381   2.046  0.00  0.00    -0.070 SA
ENDBRANCH   1   7
BRANCH   4  18
ATOM     18  N   UNL d   1      -7.987  -1.566  -0.367  0.00  0.00    -0.327 N 
ATOM     19  C   UNL d   1      -8.964  -1.889   0.557  0.00  0.00     0.229 C 
ATOM     20  O   UNL d   1      -8.750  -2.060   1.759  0.00  0.00    -0.272 OA
ATOM     21  H   UNL d   1      -8.286  -1.355  -1.309  0.00  0.00     0.169 HD
BRANCH  19  22
ATOM     22  C   UNL d   1     -10.413  -1.988   0.009  0.00  0.00     0.030 C 
ATOM     23  C   UNL d   1     -10.508  -2.962  -1.171  0.00  0.00     0.025 C 
ATOM     24  C   UNL d   1     -11.320  -2.510   1.144  0.00  0.00     0.025 C 
ATOM     25  C   UNL d   1     -10.928  -0.606  -0.419  0.00  0.00     0.025 C 
ENDBRANCH  19  22
ENDBRANCH   4  18
TORSDOF 3
