REMARK  4 active torsions:
REMARK  status: ('A' for Active; 'I' for Inactive)
REMARK    1  A    between atoms: C_5  and  C_1 
REMARK    2  A    between atoms: C_10  and  N_4 
REMARK       I    between atoms: C_7  and  N_12 
REMARK       I    between atoms: N_9  and  C_7 
REMARK    3  A    between atoms: C_11  and  N_9 
REMARK    4  A    between atoms: N_12  and  C_23 
ROOT
ATOM      1  C   UNL d   1       3.198   0.909   1.755  0.00  0.00     0.056 A 
ATOM      2  C   UNL d   1       3.223   2.234   2.215  0.00  0.00     0.034 A 
ATOM      3  C   UNL d   1       3.736   0.619   0.501  0.00  0.00     0.034 A 
ATOM      4  C   UNL d   1       4.495   2.919   0.253  0.00  0.00     0.036 A 
ATOM      5  C   UNL d   1       4.374   1.618  -0.239  0.00  0.00     0.032 A 
ATOM      6  C   UNL d   1       3.869   3.231   1.466  0.00  0.00     0.032 A 
ENDROOT
BRANCH   4   7
ATOM      7  N   UNL d   1       5.288   3.917  -0.366  0.00  0.00    -0.309 N 
ATOM      8  C   UNL d   1       6.112   3.731  -1.468  0.00  0.00     0.325 C 
ATOM      9  N   UNL d   1       7.028   4.764  -1.605  0.00  0.00    -0.309 N 
ATOM     10  O   UNL d   1       6.071   2.747  -2.198  0.00  0.00    -0.247 OA
ATOM     11  H   UNL d   1       6.899   5.578  -1.025  0.00  0.00     0.170 HD
ATOM     12  H   UNL d   1       5.346   4.801   0.113  0.00  0.00     0.170 HD
BRANCH   9  13
ATOM     13  C   UNL d   1       8.171   4.768  -2.445  0.00  0.00     0.037 A 
ATOM     14  C   UNL d   1       8.529   3.698  -3.270  0.00  0.00     0.036 A 
ATOM     15  C   UNL d   1       9.705   3.723  -4.032  0.00  0.00    -0.059 A 
ATOM     16  C   UNL d   1      10.080   2.547  -4.887  0.00  0.00     0.048 C 
ATOM     17  C   UNL d   1      10.532   4.846  -3.971  0.00  0.00     0.013 A 
ATOM     18  C   UNL d   1      10.189   5.938  -3.165  0.00  0.00    -0.059 A 
ATOM     19  C   UNL d   1       9.010   5.889  -2.403  0.00  0.00     0.036 A 
ATOM     20  C   UNL d   1      11.114   7.118  -3.094  0.00  0.00     0.048 C 
ENDBRANCH   9  13
ENDBRANCH   4   7
BRANCH   1  21
ATOM     21  N   UNL d   1       2.691  -0.131   2.583  0.00  0.00    -0.267 N 
ATOM     22  N   UNL d   1       2.163   0.135   3.806  0.00  0.00    -0.290 N 
ATOM     23  C   UNL d   1       1.890  -1.069   4.348  0.00  0.00     0.134 A 
ATOM     24  HN  UNL d   1       2.007   1.051   4.225  1.00  0.00     0.187 HD
ATOM     25  C   UNL d   1       2.231  -2.114   3.457  0.00  0.00     0.055 A 
ATOM     26  C   UNL d   1       2.722  -1.488   2.338  0.00  0.00     0.119 A 
BRANCH  23  27
ATOM     27  C   UNL d   1       1.314  -1.249   5.726  0.00  0.00     0.434 C 
ATOM     28  F   UNL d   1       0.986  -0.083   6.343  0.00  0.00    -0.165 F 
ATOM     29  F   UNL d   1       0.183  -2.007   5.698  0.00  0.00    -0.165 F 
ATOM     30  F   UNL d   1       2.185  -1.896   6.549  0.00  0.00    -0.165 F 
ENDBRANCH  23  27
ENDBRANCH   1  21
TORSDOF 4
