REMARK  6 active torsions:
REMARK  status: ('A' for Active; 'I' for Inactive)
REMARK    1  A    between atoms: C_8  and  C_1 
REMARK    2  A    between atoms: C_10  and  N_4 
REMARK    3  A    between atoms: C_7  and  C_9 
REMARK    4  A    between atoms: O_17  and  C_8 
REMARK    5  A    between atoms: C_13  and  C_10 
REMARK    6  A    between atoms: C_22  and  O_17 
ROOT
ATOM      1  C   UNL d   1      -0.354  -1.092   0.052  0.00  0.00     0.125 A 
ATOM      2  N   UNL d   1       0.924  -0.670   0.013  0.00  0.00    -0.292 N 
ATOM      3  HN  UNL d   1       1.767  -1.243  -0.012  1.00  0.00     0.187 HD
ATOM      4  N   UNL d   1       0.844   0.674   0.015  0.00  0.00    -0.292 N 
ATOM      5  C   UNL d   1      -1.244   0.013   0.017  0.00  0.00     0.063 A 
ATOM      6  C   UNL d   1      -0.447   1.140   0.005  0.00  0.00     0.027 A 
ATOM      7  C   UNL d   1      -0.819   2.576   0.006  0.00  0.00     0.070 C 
ENDROOT
BRANCH   4   8
ATOM      8  C   UNL d   1       2.079   1.451  -0.063  0.00  0.00     0.187 C 
BRANCH   8   9
ATOM      9  C   UNL d   1       2.619   1.847   1.292  0.00  0.00    -0.038 A 
ATOM     10  C   UNL d   1       2.800   3.203   1.615  0.00  0.00     0.025 A 
ATOM     11  C   UNL d   1       3.371   3.588   2.841  0.00  0.00     0.048 A 
ATOM     12  C   UNL d   1       3.760   2.594   3.751  0.00  0.00     0.016 A 
ATOM     13  C   UNL d   1       3.582   1.247   3.444  0.00  0.00     0.001 A 
ATOM     14  C   UNL d   1       3.018   0.875   2.224  0.00  0.00     0.009 A 
BRANCH  11  15
ATOM     15  C   UNL d   1       3.592   5.043   3.176  0.00  0.00     0.417 C 
ATOM     16  F   UNL d   1       3.130   5.896   2.219  0.00  0.00    -0.166 F 
ATOM     17  F   UNL d   1       2.978   5.414   4.333  0.00  0.00    -0.166 F 
ATOM     18  F   UNL d   1       4.910   5.346   3.337  0.00  0.00    -0.166 F 
ENDBRANCH  11  15
ENDBRANCH   8   9
ENDBRANCH   4   8
BRANCH   1  19
ATOM     19  C   UNL d   1      -0.729  -2.507   0.172  0.00  0.00     0.311 C 
ATOM     20  O   UNL d   1      -1.894  -2.884   0.251  0.00  0.00    -0.258 OA
BRANCH  19  21
ATOM     21  O   UNL d   1       0.357  -3.332   0.275  0.00  0.00    -0.317 OA
BRANCH  21  22
ATOM     22  C   UNL d   1       0.097  -4.644   0.781  0.00  0.00     0.175 C 
ATOM     23  C   UNL d   1       0.143  -4.593   2.298  0.00  0.00     0.034 C 
ENDBRANCH  21  22
ENDBRANCH  19  21
ENDBRANCH   1  19
TORSDOF 6
