REMARK  5 active torsions:
REMARK  status: ('A' for Active; 'I' for Inactive)
REMARK       I    between atoms: C_2  and  N_1 
REMARK       I    between atoms: N_8  and  C_2 
REMARK    1  A    between atoms: C_6  and  O_15 
REMARK    2  A    between atoms: C_16  and  N_8 
REMARK    3  A    between atoms: O_21  and  C_10 
REMARK    4  A    between atoms: O_22  and  C_12 
REMARK    5  A    between atoms: O_15  and  C_20 
ROOT
ATOM      1  N   UNL d   1      -2.480   0.668  -0.174  0.00  0.00    -0.325 N 
ATOM      2  C   UNL d   1      -3.328   1.043  -1.208  0.00  0.00     0.323 C 
ATOM      3  C   UNL d   1      -0.048   0.610   0.281  0.00  0.00    -0.026 A 
ATOM      4  C   UNL d   1      -1.338   1.415   0.376  0.00  0.00     0.118 C 
ATOM      5  C   UNL d   1      -0.057  -0.776   0.053  0.00  0.00    -0.045 A 
ATOM      6  C   UNL d   1       1.183   1.274   0.401  0.00  0.00     0.049 A 
ATOM      7  N   UNL d   1      -3.186   2.318  -1.716  0.00  0.00    -0.309 N 
ATOM      8  C   UNL d   1      -2.570  -0.714   0.308  0.00  0.00     0.133 C 
ATOM      9  C   UNL d   1       2.395   0.586   0.283  0.00  0.00     0.102 A 
ATOM     10  C   UNL d   1       1.159  -1.467  -0.076  0.00  0.00     0.047 A 
ATOM     11  C   UNL d   1       2.386  -0.799   0.033  0.00  0.00     0.102 A 
ATOM     12  O   UNL d   1      -4.159   0.231  -1.636  0.00  0.00    -0.247 OA
ATOM     13  C   UNL d   1      -1.355  -1.524  -0.143  0.00  0.00     0.059 C 
ATOM     14  C   UNL d   1      -1.615   1.847   1.821  0.00  0.00     0.037 C 
ATOM     15  H   UNL d   1      -2.464   2.901  -1.332  0.00  0.00     0.170 HD
ENDROOT
BRANCH   7  16
ATOM     16  C   UNL d   1      -3.845   2.857  -2.846  0.00  0.00     0.036 A 
ATOM     17  C   UNL d   1      -4.862   2.199  -3.534  0.00  0.00     0.032 A 
ATOM     18  C   UNL d   1      -5.369   2.722  -4.725  0.00  0.00     0.039 A 
ATOM     19  C   UNL d   1      -4.899   3.925  -5.248  0.00  0.00     0.078 A 
ATOM     20  C   UNL d   1      -3.923   4.622  -4.541  0.00  0.00     0.039 A 
ATOM     21  C   UNL d   1      -3.413   4.097  -3.337  0.00  0.00     0.032 A 
BRANCH  19  22
ATOM     22  O   UNL d   1      -5.477   4.251  -6.433  0.00  0.00    -0.255 OA
BRANCH  22  23
ATOM     23  C   UNL d   1      -5.337   5.544  -6.988  0.00  0.00     0.530 C 
ATOM     24  F   UNL d   1      -5.175   6.508  -6.059  0.00  0.00    -0.144 F 
ATOM     25  F   UNL d   1      -4.300   5.573  -7.850  0.00  0.00    -0.144 F 
ATOM     26  F   UNL d   1      -6.465   5.824  -7.679  0.00  0.00    -0.144 F 
ENDBRANCH  22  23
ENDBRANCH  19  22
ENDBRANCH   7  16
BRANCH   9  27
ATOM     27  O   UNL d   1       3.623   1.201   0.342  0.00  0.00    -0.353 OA
ATOM     28  C   UNL d   1       3.677   2.455   1.012  0.00  0.00     0.210 C 
ENDBRANCH   9  27
BRANCH  11  29
ATOM     29  O   UNL d   1       3.610  -1.409  -0.085  0.00  0.00    -0.353 OA
ATOM     30  C   UNL d   1       3.625  -2.809  -0.331  0.00  0.00     0.210 C 
ENDBRANCH  11  29
TORSDOF 5
