REMARK  7 active torsions:
REMARK  status: ('A' for Active; 'I' for Inactive)
REMARK    1  A    between atoms: C_12  and  C_1 
REMARK    2  A    between atoms: C_13  and  C_6 
REMARK    3  A    between atoms: C_10  and  C_9 
REMARK    4  A    between atoms: O_20  and  C_12 
REMARK    5  A    between atoms: O_21  and  C_13 
REMARK    6  A    between atoms: C_23  and  O_20 
REMARK    7  A    between atoms: C_22  and  O_21 
ROOT
ATOM      1  C   UNL d   1      -2.093  -0.108   0.066  0.00  0.00     0.109 A 
ATOM      2  C   UNL d   1       0.334  -0.532   0.102  0.00  0.00     0.088 A 
ATOM      3  C   UNL d   1       0.065   0.823   0.005  0.00  0.00     0.027 A 
ATOM      4  S   UNL d   1      -1.068  -1.482   0.179  0.00  0.00    -0.063 SA
ATOM      5  C   UNL d   1      -1.349   1.061   0.018  0.00  0.00     0.062 A 
ATOM      6  C   UNL d   1       2.468   1.114  -0.108  0.00  0.00     0.072 A 
ATOM      7  N   UNL d   1       1.548  -1.110   0.135  0.00  0.00    -0.345 N 
ATOM      8  HN  UNL d   1       1.663  -2.120   0.222  1.00  0.00     0.166 HD
ATOM      9  C   UNL d   1       2.618  -0.265   0.046  0.00  0.00     0.134 A 
ATOM     10  C   UNL d   1       1.180   1.675  -0.108  0.00  0.00     0.036 A 
ATOM     11  N   UNL d   1      -1.875   2.304  -0.055  0.00  0.00    -0.397 N 
ATOM     12  H   UNL d   1      -1.328   3.155   0.014  0.00  0.00     0.156 HD
ATOM     13  H   UNL d   1      -2.882   2.456   0.015  0.00  0.00     0.156 HD
ENDROOT
BRANCH   1  14
ATOM     14  C   UNL d   1      -3.522  -0.335  -0.019  0.00  0.00     0.302 C 
ATOM     15  O   UNL d   1      -4.081  -1.427  -0.084  0.00  0.00    -0.259 OA
BRANCH  14  16
ATOM     16  O   UNL d   1      -4.181   0.858  -0.123  0.00  0.00    -0.317 OA
BRANCH  16  17
ATOM     17  C   UNL d   1      -5.492   0.789  -0.698  0.00  0.00     0.174 C 
ATOM     18  C   UNL d   1      -5.344   0.861  -2.207  0.00  0.00     0.034 C 
ENDBRANCH  16  17
ENDBRANCH  14  16
ENDBRANCH   1  14
BRANCH   9  19
ATOM     19  C   UNL d   1       3.975  -0.942   0.187  0.00  0.00     0.433 C 
ATOM     20  F   UNL d   1       5.036  -0.124   0.421  0.00  0.00    -0.165 F 
ATOM     21  F   UNL d   1       3.992  -1.807   1.250  0.00  0.00    -0.165 F 
ATOM     22  F   UNL d   1       4.304  -1.699  -0.898  0.00  0.00    -0.165 F 
ENDBRANCH   9  19
BRANCH   6  23
ATOM     23  C   UNL d   1       3.611   2.017  -0.305  0.00  0.00     0.295 C 
ATOM     24  O   UNL d   1       4.542   1.779  -1.056  0.00  0.00    -0.259 OA
BRANCH  23  25
ATOM     25  O   UNL d   1       3.451   3.083   0.510  0.00  0.00    -0.318 OA
BRANCH  25  26
ATOM     26  C   UNL d   1       4.612   3.898   0.728  0.00  0.00     0.174 C 
ATOM     27  C   UNL d   1       5.165   3.519   2.089  0.00  0.00     0.034 C 
ENDBRANCH  25  26
ENDBRANCH  23  25
ENDBRANCH   6  23
TORSDOF 7
