REMARK  4 active torsions:
REMARK  status: ('A' for Active; 'I' for Inactive)
REMARK       I    between atoms: N_2  and  C_1 
REMARK    1  A    between atoms: C_3  and  C_1 
REMARK    2  A    between atoms: C_4  and  N_2 
REMARK    3  A    between atoms: C_6  and  N_2 
REMARK    4  A    between atoms: C_9  and  C_4 
ROOT
ATOM      1  C   UNL d   1       2.397  -0.361   0.481  0.00  0.00     0.254 C 
ATOM      2  N   UNL d   1       3.012  -1.550   0.036  0.00  0.00    -0.340 N 
ATOM      3  O   UNL d   1       3.038   0.653   0.762  0.00  0.00    -0.267 OA
ENDROOT
BRANCH   2   4
ATOM      4  C   UNL d   1       4.458  -1.448  -0.231  0.00  0.00     0.165 C 
BRANCH   4   5
ATOM      5  C   UNL d   1       5.355  -2.104   0.798  0.00  0.00    -0.040 A 
ATOM      6  C   UNL d   1       6.429  -2.907   0.377  0.00  0.00     0.009 A 
ATOM      7  C   UNL d   1       7.336  -3.432   1.303  0.00  0.00     0.001 A 
ATOM      8  C   UNL d   1       7.187  -3.155   2.657  0.00  0.00     0.000 A 
ATOM      9  C   UNL d   1       6.129  -2.359   3.091  0.00  0.00     0.001 A 
ATOM     10  C   UNL d   1       5.218  -1.833   2.168  0.00  0.00     0.009 A 
ENDBRANCH   4   5
ENDBRANCH   2   4
BRANCH   2  11
ATOM     11  C   UNL d   1       2.277  -2.696  -0.552  0.00  0.00     0.079 C 
ATOM     12  C   UNL d   1       1.890  -2.417  -2.006  0.00  0.00     0.032 C 
ATOM     13  C   UNL d   1       3.007  -4.038  -0.441  0.00  0.00     0.032 C 
ENDBRANCH   2  11
BRANCH   1  14
ATOM     14  C   UNL d   1       0.919  -0.238   0.592  0.00  0.00     0.032 A 
ATOM     15  C   UNL d   1       0.139  -1.141   1.316  0.00  0.00     0.017 A 
ATOM     16  C   UNL d   1      -1.245  -0.956   1.409  0.00  0.00     0.007 A 
ATOM     17  C   UNL d   1      -1.854   0.170   0.839  0.00  0.00    -0.062 A 
ATOM     18  C   UNL d   1      -1.064   1.096   0.150  0.00  0.00     0.007 A 
ATOM     19  C   UNL d   1      -3.340   0.362   0.944  0.00  0.00     0.048 C 
ATOM     20  C   UNL d   1       0.314   0.896   0.032  0.00  0.00     0.017 A 
ENDBRANCH   1  14
TORSDOF 4
