REMARK  4 active torsions:
REMARK  status: ('A' for Active; 'I' for Inactive)
REMARK    1  A    between atoms: C_16  and  N_1 
REMARK    2  A    between atoms: N_13  and  C_6 
REMARK    3  A    between atoms: C_8  and  C_14 
REMARK    4  A    between atoms: C_17  and  N_13 
ROOT
ATOM      1  N   UNL d   1      -1.560  -1.129  -0.090  0.00  0.00    -0.239 N 
ATOM      2  C   UNL d   1      -0.237  -0.689  -0.029  0.00  0.00     0.143 A 
ATOM      3  C   UNL d   1      -0.278   0.697  -0.070  0.00  0.00     0.071 A 
ATOM      4  N   UNL d   1      -2.425  -0.071  -0.199  0.00  0.00    -0.302 N 
ATOM      5  HN  UNL d   1      -3.441  -0.102  -0.283  1.00  0.00     0.186 HD
ATOM      6  C   UNL d   1       0.935   1.394   0.023  0.00  0.00     0.122 A 
ATOM      7  C   UNL d   1      -1.643   1.007  -0.172  0.00  0.00     0.127 A 
ATOM      8  N   UNL d   1       0.886  -1.431   0.056  0.00  0.00    -0.336 N 
ATOM      9  HN  UNL d   1       0.891  -2.451   0.073  1.00  0.00     0.168 HD
ATOM     10  N   UNL d   1       2.071   0.656   0.117  0.00  0.00    -0.338 N 
ATOM     11  HN  UNL d   1       2.978   1.117   0.186  1.00  0.00     0.168 HD
ATOM     12  C   UNL d   1       1.991  -0.682   0.117  0.00  0.00     0.183 A 
ENDROOT
BRANCH   6  13
ATOM     13  N   UNL d   1       1.013   2.793   0.001  0.00  0.00    -0.342 N 
ATOM     14  H   UNL d   1       0.167   3.276  -0.261  0.00  0.00     0.167 HD
BRANCH  13  15
ATOM     15  C   UNL d   1       1.976   3.615   0.616  0.00  0.00     0.034 A 
ATOM     16  C   UNL d   1       2.760   3.172   1.689  0.00  0.00     0.045 A 
ATOM     17  C   UNL d   1       3.729   3.995   2.284  0.00  0.00     0.050 A 
ATOM     18  C   UNL d   1       3.936   5.279   1.762  0.00  0.00     0.016 A 
ATOM     19  C   UNL d   1       3.183   5.726   0.677  0.00  0.00     0.003 A 
ATOM     20  C   UNL d   1       2.208   4.900   0.112  0.00  0.00     0.029 A 
BRANCH  17  21
ATOM     21  C   UNL d   1       4.528   3.512   3.466  0.00  0.00     0.417 C 
ATOM     22  F   UNL d   1       4.197   2.256   3.881  0.00  0.00    -0.166 F 
ATOM     23  F   UNL d   1       5.867   3.482   3.217  0.00  0.00    -0.166 F 
ATOM     24  F   UNL d   1       4.371   4.313   4.558  0.00  0.00    -0.166 F 
ENDBRANCH  17  21
ENDBRANCH  13  15
ENDBRANCH   6  13
BRANCH   1  25
ATOM     25  C   UNL d   1      -2.072  -2.463  -0.046  0.00  0.00     0.058 A 
ATOM     26  C   UNL d   1      -1.232  -3.574   0.116  0.00  0.00     0.031 A 
ATOM     27  C   UNL d   1      -1.768  -4.865   0.149  0.00  0.00     0.002 A 
ATOM     28  C   UNL d   1      -3.140  -5.061   0.023  0.00  0.00     0.000 A 
ATOM     29  C   UNL d   1      -3.984  -3.965  -0.133  0.00  0.00     0.002 A 
ATOM     30  C   UNL d   1      -3.456  -2.672  -0.165  0.00  0.00     0.031 A 
ENDBRANCH   1  25
TORSDOF 4
