REMARK  6 active torsions:
REMARK  status: ('A' for Active; 'I' for Inactive)
REMARK    1  A    between atoms: C_6  and  N_1 
REMARK    2  A    between atoms: C_7  and  C_6 
REMARK    3  A    between atoms: O_12  and  C_7 
REMARK    4  A    between atoms: O_13  and  C_7 
REMARK    5  A    between atoms: C_15  and  O_12 
REMARK    6  A    between atoms: C_14  and  O_13 
ROOT
ATOM      1  N   UNL d   1       0.168  -1.522  -0.208  0.00  0.00    -0.341 N 
ATOM      2  C   UNL d   1       1.201  -0.733  -0.684  0.00  0.00     0.046 A 
ATOM      3  C   UNL d   1      -0.911  -0.725   0.159  0.00  0.00     0.046 A 
ATOM      4  C   UNL d   1      -0.479   0.599   0.104  0.00  0.00     0.003 A 
ATOM      5  C   UNL d   1       0.860   0.593  -0.392  0.00  0.00     0.003 A 
ATOM      6  C   UNL d   1       2.411  -1.036  -1.334  0.00  0.00     0.030 A 
ATOM      7  C   UNL d   1      -2.225  -1.054   0.540  0.00  0.00     0.030 A 
ATOM      8  C   UNL d   1       1.787   1.621  -0.669  0.00  0.00     0.014 A 
ATOM      9  C   UNL d   1      -1.374   1.627   0.473  0.00  0.00     0.014 A 
ATOM     10  C   UNL d   1      -2.681   1.308   0.851  0.00  0.00     0.001 A 
ATOM     11  C   UNL d   1       3.012   1.312  -1.263  0.00  0.00     0.001 A 
ATOM     12  C   UNL d   1       3.309   0.001  -1.608  0.00  0.00     0.002 A 
ATOM     13  C   UNL d   1      -3.101  -0.017   0.876  0.00  0.00     0.002 A 
ENDROOT
BRANCH   1  14
ATOM     14  C   UNL d   1       0.120  -2.977  -0.147  0.00  0.00     0.190 C 
BRANCH  14  15
ATOM     15  C   UNL d   1       1.391  -3.742   0.263  0.00  0.00     0.277 C 
BRANCH  15  16
ATOM     16  O   UNL d   1       1.905  -3.204   1.487  0.00  0.00    -0.360 OA
BRANCH  16  17
ATOM     17  C   UNL d   1       3.205  -3.708   1.787  0.00  0.00     0.166 C 
ATOM     18  C   UNL d   1       3.724  -3.013   3.029  0.00  0.00     0.033 C 
ENDBRANCH  16  17
ENDBRANCH  15  16
BRANCH  15  19
ATOM     19  O   UNL d   1       1.094  -5.132   0.467  0.00  0.00    -0.360 OA
BRANCH  19  20
ATOM     20  C   UNL d   1       0.871  -5.855  -0.739  0.00  0.00     0.166 C 
ATOM     21  C   UNL d   1       0.759  -7.327  -0.394  0.00  0.00     0.033 C 
ENDBRANCH  19  20
ENDBRANCH  15  19
ENDBRANCH  14  15
ENDBRANCH   1  14
TORSDOF 6
