REMARK  4 active torsions:
REMARK  status: ('A' for Active; 'I' for Inactive)
REMARK       I    between atoms: C_2  and  N_1 
REMARK       I    between atoms: C_3  and  N_1 
REMARK    1  A    between atoms: C_4  and  C_2 
REMARK       I    between atoms: N_7  and  C_3 
REMARK    2  A    between atoms: C_14  and  N_7 
REMARK    3  A    between atoms: O_13  and  C_8 
REMARK    4  A    between atoms: C_15  and  O_13 
ROOT
ATOM      1  C   UNL d   1       1.151  -0.901  -2.438  0.00  0.00     0.048 A 
ATOM      2  N   UNL d   1       1.391  -0.843  -4.841  0.00  0.00    -0.346 N 
ATOM      3  HN  UNL d   1       1.118  -0.464  -5.747  1.00  0.00     0.167 HD
ATOM      4  C   UNL d   1       2.377  -1.764  -4.726  0.00  0.00     0.147 A 
ATOM      5  C   UNL d   1       0.785  -0.451  -3.700  0.00  0.00     0.107 A 
ATOM      6  C   UNL d   1       2.161  -1.860  -2.348  0.00  0.00     0.022 A 
ATOM      7  C   UNL d   1       2.797  -2.290  -3.513  0.00  0.00     0.057 A 
ENDROOT
BRANCH   1   8
ATOM      8  C   UNL d   1       0.518  -0.368  -1.210  0.00  0.00     0.261 C 
ATOM      9  N   UNL d   1       0.199   0.975  -1.253  0.00  0.00    -0.275 N 
ATOM     10  C   UNL d   1      -0.533   1.725  -0.362  0.00  0.00     0.327 C 
ATOM     11  H   UNL d   1       0.426   1.525  -2.070  0.00  0.00     0.173 HD
ATOM     12  N   UNL d   1      -0.847   1.107   0.817  0.00  0.00    -0.309 N 
ATOM     13  O   UNL d   1      -0.832   2.866  -0.702  0.00  0.00    -0.247 OA
ATOM     14  H   UNL d   1      -0.386   0.213   0.974  0.00  0.00     0.170 HD
ATOM     15  O   UNL d   1       0.383  -1.080  -0.221  0.00  0.00    -0.267 OA
BRANCH  12  16
ATOM     16  C   UNL d   1      -1.643   1.621   1.857  0.00  0.00     0.036 A 
ATOM     17  C   UNL d   1      -2.461   2.744   1.713  0.00  0.00     0.031 A 
ATOM     18  C   UNL d   1      -3.245   3.195   2.780  0.00  0.00     0.026 A 
ATOM     19  C   UNL d   1      -3.204   2.525   3.999  0.00  0.00     0.034 A 
ATOM     20  C   UNL d   1      -2.389   1.407   4.159  0.00  0.00     0.026 A 
ATOM     21 CL   UNL d   1      -4.169   3.079   5.311  0.00  0.00    -0.084 Cl
ATOM     22  C   UNL d   1      -1.618   0.950   3.085  0.00  0.00     0.031 A 
ENDBRANCH  12  16
ENDBRANCH   1   8
BRANCH   4  23
ATOM     23  O   UNL d   1       3.048  -2.192  -5.863  0.00  0.00    -0.294 OA
BRANCH  23  24
ATOM     24  C   UNL d   1       2.345  -2.222  -7.047  0.00  0.00     0.077 A 
ATOM     25  C   UNL d   1       3.045  -1.877  -8.205  0.00  0.00     0.039 A 
ATOM     26  C   UNL d   1       2.409  -1.933  -9.448  0.00  0.00     0.026 A 
ATOM     27  C   UNL d   1       1.078  -2.342  -9.528  0.00  0.00     0.034 A 
ATOM     28  C   UNL d   1       0.380  -2.704  -8.379  0.00  0.00     0.026 A 
ATOM     29 CL   UNL d   1       0.293  -2.413 -11.058  0.00  0.00    -0.084 Cl
ATOM     30  C   UNL d   1       1.018  -2.659  -7.139  0.00  0.00     0.039 A 
ENDBRANCH  23  24
ENDBRANCH   4  23
TORSDOF 4
