REMARK  4 active torsions:
REMARK  status: ('A' for Active; 'I' for Inactive)
REMARK    1  A    between atoms: O_2  and  C_1 
REMARK    2  A    between atoms: C_4  and  O_2 
REMARK    3  A    between atoms: C_3  and  C_4 
REMARK       I    between atoms: N_10  and  C_3 
REMARK    4  A    between atoms: O_13  and  C_6 
ROOT
ATOM      1  C   UNL d   1       1.133  -0.757   0.214  0.00  0.00     0.125 A 
ATOM      2  C   UNL d   1       1.167   0.613  -0.084  0.00  0.00     0.041 A 
ATOM      3  C   UNL d   1      -0.123  -1.314   0.464  0.00  0.00     0.102 A 
ATOM      4  N   UNL d   1       0.050   1.387  -0.171  0.00  0.00    -0.367 N 
ATOM      5  HN  UNL d   1       0.110   2.376  -0.414  1.00  0.00     0.165 HD
ATOM      6  C   UNL d   1      -1.137   0.799   0.075  0.00  0.00     0.091 A 
ATOM      7  C   UNL d   1      -1.273  -0.534   0.405  0.00  0.00     0.056 A 
ATOM      8  C   UNL d   1       2.459   1.346  -0.305  0.00  0.00     0.071 C 
ENDROOT
BRANCH   1   9
ATOM      9  O   UNL d   1       2.348  -1.383   0.264  0.00  0.00    -0.332 OA
BRANCH   9  10
ATOM     10  C   UNL d   1       2.435  -2.780   0.014  0.00  0.00     0.216 C 
ATOM     11  C   UNL d   1       3.914  -3.153   0.091  0.00  0.00     0.050 C 
BRANCH  10  12
ATOM     12  C   UNL d   1       1.854  -3.183  -1.354  0.00  0.00     0.244 C 
ATOM     13  O   UNL d   1       0.797  -3.810  -1.452  0.00  0.00    -0.271 OA
ATOM     14  N   UNL d   1       2.517  -2.751  -2.465  0.00  0.00    -0.368 N 
ATOM     15  H   UNL d   1       3.186  -1.994  -2.408  0.00  0.00     0.159 HD
ATOM     16  H   UNL d   1       2.071  -2.912  -3.359  0.00  0.00     0.159 HD
ENDBRANCH  10  12
ENDBRANCH   9  10
ENDBRANCH   1   9
BRANCH   3  17
ATOM     17  O   UNL d   1      -0.312  -2.622   0.812  0.00  0.00    -0.358 OA
ATOM     18  H   UNL d   1      -0.260  -3.147  -0.017  0.00  0.00     0.217 HD
ENDBRANCH   3  17
TORSDOF 4
