REMARK  5 active torsions:
REMARK  status: ('A' for Active; 'I' for Inactive)
REMARK    1  A    between atoms: C_2  and  S_1 
REMARK    2  A    between atoms: C_4  and  S_1 
REMARK    3  A    between atoms: C_3  and  C_2 
REMARK    4  A    between atoms: N_11  and  C_3 
REMARK    5  A    between atoms: O_13  and  N_7 
ROOT
ATOM      1  S   UNL d   1       1.298   4.000   3.698  0.00  0.00     0.182 S 
ATOM      2  O   UNL d   1       2.743   4.045   3.569  0.00  0.00    -0.222 OA
ATOM      3  O   UNL d   1       0.691   3.090   4.656  0.00  0.00    -0.222 OA
ENDROOT
BRANCH   1   4
ATOM      4  C   UNL d   1       0.592   3.646   2.116  0.00  0.00     0.223 C 
BRANCH   4   5
ATOM      5  C   UNL d   1       1.041   4.632   1.076  0.00  0.00     0.109 C 
ATOM      6  N   UNL d   1       0.327   5.707   0.914  0.00  0.00    -0.257 N 
ATOM      7  HN  UNL d   1      -0.501   5.943   1.461  1.00  0.00     0.195 HD
BRANCH   6   8
ATOM      8  O   UNL d   1       0.854   6.499  -0.120  0.00  0.00    -0.288 OA
ATOM      9  H   UNL d   1       0.281   7.289  -0.093  0.00  0.00     0.244 HD
ENDBRANCH   6   8
BRANCH   5  10
ATOM     10  N   UNL d   1       2.146   4.347   0.317  0.00  0.00    -0.387 N 
ATOM     11  H   UNL d   1       2.459   3.391   0.204  0.00  0.00     0.157 HD
ATOM     12  H   UNL d   1       2.240   4.944  -0.500  0.00  0.00     0.157 HD
ENDBRANCH   5  10
ENDBRANCH   4   5
ENDBRANCH   1   4
BRANCH   1  13
ATOM     13  C   UNL d   1       0.727   5.624   4.142  0.00  0.00     0.059 A 
ATOM     14  C   UNL d   1      -0.648   5.836   4.307  0.00  0.00     0.026 A 
ATOM     15  C   UNL d   1      -1.108   7.106   4.655  0.00  0.00     0.044 A 
ATOM     16  C   UNL d   1      -0.194   8.137   4.851  0.00  0.00     0.116 A 
ATOM     17  C   UNL d   1       1.175   7.923   4.712  0.00  0.00     0.044 A 
ATOM     18  F   UNL d   1      -0.640   9.355   5.184  0.00  0.00    -0.206 F 
ATOM     19  C   UNL d   1       1.644   6.657   4.356  0.00  0.00     0.026 A 
ENDBRANCH   1  13
TORSDOF 5
