REMARK  4 active torsions:
REMARK  status: ('A' for Active; 'I' for Inactive)
REMARK    1  A    between atoms: C_2  and  C_1 
REMARK       I    between atoms: N_8  and  C_2 
REMARK    2  A    between atoms: C_4  and  C_6 
REMARK    3  A    between atoms: C_12  and  C_5 
REMARK    4  A    between atoms: C_11  and  N_8 
ROOT
ATOM      1  C   UNL d   1      -0.347  -0.981  -0.075  0.00  0.00     0.144 A 
ATOM      2  O   UNL d   1       0.970  -0.585  -0.098  0.00  0.00    -0.296 OA
ATOM      3  C   UNL d   1       0.956   0.779  -0.041  0.00  0.00     0.130 A 
ATOM      4  C   UNL d   1      -1.167   0.133   0.003  0.00  0.00     0.046 A 
ATOM      5  C   UNL d   1      -0.327   1.264   0.020  0.00  0.00     0.050 A 
ENDROOT
BRANCH   1   6
ATOM      6  C   UNL d   1      -0.738  -2.377  -0.112  0.00  0.00     0.280 C 
ATOM      7  N   UNL d   1       0.301  -3.297  -0.135  0.00  0.00    -0.321 N 
ATOM      8  H   UNL d   1       1.233  -2.913  -0.028  0.00  0.00     0.169 HD
ATOM      9  O   UNL d   1      -1.930  -2.679  -0.087  0.00  0.00    -0.265 OA
BRANCH   7  10
ATOM     10  C   UNL d   1       0.146  -4.703  -0.075  0.00  0.00     0.035 A 
ATOM     11  C   UNL d   1      -1.072  -5.350  -0.324  0.00  0.00     0.031 A 
ATOM     12  C   UNL d   1      -1.215  -6.725  -0.121  0.00  0.00     0.026 A 
ATOM     13  C   UNL d   1      -0.129  -7.473   0.313  0.00  0.00     0.034 A 
ATOM     14  C   UNL d   1       1.110  -6.862   0.497  0.00  0.00     0.026 A 
ATOM     15 CL   UNL d   1      -0.323  -9.151   0.636  0.00  0.00    -0.084 Cl
ATOM     16  C   UNL d   1       1.251  -5.482   0.290  0.00  0.00     0.031 A 
ENDBRANCH   7  10
ENDBRANCH   1   6
BRANCH   3  17
ATOM     17  C   UNL d   1       2.186   1.480  -0.050  0.00  0.00    -0.036 C 
ATOM     18  C   UNL d   1       3.169   2.168  -0.058  0.00  0.00    -0.059 C 
BRANCH  18  19
ATOM     19  C   UNL d   1       4.315   3.028  -0.081  0.00  0.00     0.018 A 
ATOM     20  C   UNL d   1       4.160   4.415  -0.004  0.00  0.00     0.020 A 
ATOM     21  C   UNL d   1       5.281   5.248  -0.045  0.00  0.00     0.001 A 
ATOM     22  C   UNL d   1       6.556   4.695  -0.163  0.00  0.00     0.000 A 
ATOM     23  C   UNL d   1       6.712   3.311  -0.234  0.00  0.00     0.001 A 
ATOM     24  C   UNL d   1       5.592   2.478  -0.192  0.00  0.00     0.020 A 
ENDBRANCH  18  19
ENDBRANCH   3  17
TORSDOF 4
