REMARK  2 active torsions:
REMARK  status: ('A' for Active; 'I' for Inactive)
REMARK    1  A    between atoms: C_9  and  C_3 
REMARK    2  A    between atoms: O_13  and  C_4 
ROOT
ATOM      1  N   UNL d   1      -0.628   1.249  -0.038  0.00  0.00    -0.325 N 
ATOM      2  HN  UNL d   1      -1.132   2.136  -0.039  1.00  0.00     0.169 HD
ATOM      3  C   UNL d   1      -1.270   0.066  -0.034  0.00  0.00     0.087 A 
ATOM      4  C   UNL d   1       0.712   1.194  -0.040  0.00  0.00     0.165 A 
ATOM      5  N   UNL d   1      -0.622  -1.119  -0.034  0.00  0.00    -0.348 N 
ATOM      6  HN  UNL d   1      -1.144  -1.995  -0.035  1.00  0.00     0.167 HD
ATOM      7  C   UNL d   1       1.473   0.043  -0.035  0.00  0.00     0.106 A 
ATOM      8  C   UNL d   1       0.739  -1.125  -0.034  0.00  0.00     0.032 A 
ATOM      9 CL   UNL d   1       3.191   0.100  -0.020  0.00  0.00    -0.078 Cl
ATOM     10  C   UNL d   1       1.355  -2.493  -0.019  0.00  0.00     0.070 C 
ENDROOT
BRANCH   3  11
ATOM     11  C   UNL d   1      -2.777   0.056   0.024  0.00  0.00     0.053 A 
ATOM     12  C   UNL d   1      -3.579  -0.582  -1.089  0.00  0.00     0.013 A 
ATOM     13  C   UNL d   1      -3.596   0.908  -0.920  0.00  0.00     0.013 A 
ENDBRANCH   3  11
BRANCH   4  14
ATOM     14  O   UNL d   1       1.283   2.429  -0.038  0.00  0.00    -0.345 OA
ATOM     15  H   UNL d   1       0.490   2.995  -0.036  0.00  0.00     0.219 HD
ENDBRANCH   4  14
TORSDOF 2
