REMARK  5 active torsions:
REMARK  status: ('A' for Active; 'I' for Inactive)
REMARK    1  A    between atoms: C_2  and  C_1 
REMARK       I    between atoms: N_7  and  C_2 
REMARK    2  A    between atoms: N_3  and  N_7 
REMARK    3  A    between atoms: N_13  and  C_5 
REMARK    4  A    between atoms: N_8  and  C_6 
REMARK    5  A    between atoms: C_14  and  C_12 
ROOT
ATOM      1  C   UNL d   1       2.901  -0.232   0.801  0.00  0.00     0.271 C 
ATOM      2  N   UNL d   1       3.786   0.758   0.400  0.00  0.00    -0.266 N 
ATOM      3  O   UNL d   1       1.729  -0.051   1.121  0.00  0.00    -0.266 OA
ATOM      4  H   UNL d   1       4.731   0.514   0.112  0.00  0.00     0.190 HD
ENDROOT
BRANCH   2   5
ATOM      5  N   UNL d   1       3.332   2.035   0.322  0.00  0.00    -0.308 N 
ATOM      6  C   UNL d   1       4.193   2.969   0.087  0.00  0.00     0.118 C 
ATOM      7  HN  UNL d   1       2.342   2.250   0.446  1.00  0.00     0.186 HD
BRANCH   6   8
ATOM      8  C   UNL d   1       3.746   4.379   0.028  0.00  0.00    -0.019 A 
ATOM      9  C   UNL d   1       2.385   4.684   0.050  0.00  0.00     0.015 A 
ATOM     10  C   UNL d   1       1.961   6.019   0.063  0.00  0.00     0.030 A 
ATOM     11  C   UNL d   1       2.869   7.090   0.069  0.00  0.00     0.029 A 
ATOM     12  C   UNL d   1       4.235   6.744   0.029  0.00  0.00     0.030 A 
ATOM     13  C   UNL d   1       4.676   5.410   0.000  0.00  0.00     0.015 A 
BRANCH  11  14
ATOM     14  N   UNL d   1       2.464   8.415   0.193  0.00  0.00    -0.390 N 
ATOM     15  C   UNL d   1       3.163   9.468  -0.542  0.00  0.00     0.149 C 
ATOM     16  C   UNL d   1       1.092   8.749   0.570  0.00  0.00     0.149 C 
ENDBRANCH  11  14
ENDBRANCH   6   8
ENDBRANCH   2   5
BRANCH   1  17
ATOM     17  C   UNL d   1       3.462  -1.603   0.906  0.00  0.00     0.054 A 
ATOM     18  C   UNL d   1       4.314  -2.182  -0.055  0.00  0.00     0.023 A 
ATOM     19  C   UNL d   1       4.796  -3.481   0.208  0.00  0.00     0.024 A 
ATOM     20  C   UNL d   1       4.428  -4.184   1.359  0.00  0.00     0.002 A 
ATOM     21  C   UNL d   1       3.572  -3.601   2.288  0.00  0.00     0.001 A 
ATOM     22  C   UNL d   1       3.088  -2.315   2.059  0.00  0.00     0.019 A 
BRANCH  18  23
ATOM     23  N   UNL d   1       4.724  -1.555  -1.254  0.00  0.00    -0.296 NA
ATOM     24  C   UNL d   1       3.631  -1.137  -2.138  0.00  0.00     0.113 C 
ATOM     25  H   UNL d   1       5.370  -2.156  -1.766  0.00  0.00     0.127 HD
ENDBRANCH  18  23
ENDBRANCH   1  17
TORSDOF 5
