REMARK  6 active torsions:
REMARK  status: ('A' for Active; 'I' for Inactive)
REMARK    1  A    between atoms: N_3  and  C_1 
REMARK    2  A    between atoms: S_12  and  C_4 
REMARK    3  A    between atoms: C_5  and  S_12 
REMARK    4  A    between atoms: S_19  and  C_7 
REMARK    5  A    between atoms: C_18  and  C_22 
REMARK    6  A    between atoms: C_22  and  S_19 
ROOT
ATOM      1  C   UNL d   1       1.567  -3.550  -0.017  0.00  0.00     0.136 A 
ATOM      2  S   UNL d   1       2.706  -3.499   1.263  0.00  0.00    -0.037 SA
ATOM      3  C   UNL d   1       3.733  -4.458   0.281  0.00  0.00     0.129 A 
ATOM      4  N   UNL d   1       1.968  -4.222  -1.076  0.00  0.00    -0.286 N 
ATOM      5  HN  UNL d   1       1.410  -4.342  -1.921  1.00  0.00     0.188 HD
ATOM      6  N   UNL d   1       3.239  -4.745  -0.905  0.00  0.00    -0.287 N 
ATOM      7  HN  UNL d   1       3.733  -5.288  -1.613  1.00  0.00     0.188 HD
ENDROOT
BRANCH   1   8
ATOM      8  S   UNL d   1      -0.056  -2.926   0.121  0.00  0.00    -0.038 SA
BRANCH   8   9
ATOM      9  C   UNL d   1       0.199  -1.377  -0.651  0.00  0.00     0.120 A 
ATOM     10  S   UNL d   1      -1.060  -0.617  -1.547  0.00  0.00    -0.039 SA
ATOM     11  C   UNL d   1      -0.056   0.735  -1.767  0.00  0.00     0.161 A 
ATOM     12  C   UNL d   1       1.164   0.542  -1.166  0.00  0.00     0.133 A 
ATOM     13  N   UNL d   1       1.306  -0.675  -0.516  0.00  0.00    -0.352 N 
ATOM     14  HN  UNL d   1       2.138  -0.980  -0.012  1.00  0.00     0.166 HD
BRANCH  11  15
ATOM     15  N   UNL d   1      -0.496   1.892  -2.480  0.00  0.00    -0.107 N 
ATOM     16  O   UNL d   1       0.316   2.825  -2.562  0.00  0.00    -0.531 OA
ATOM     17  O   UNL d   1      -1.636   1.889  -2.954  0.00  0.00    -0.531 OA
ENDBRANCH  11  15
ENDBRANCH   8   9
ENDBRANCH   1   8
BRANCH   3  18
ATOM     18  S   UNL d   1       5.276  -5.055   0.842  0.00  0.00    -0.103 SA
BRANCH  18  19
ATOM     19  C   UNL d   1       6.147  -5.286  -0.731  0.00  0.00     0.086 C 
BRANCH  19  20
ATOM     20  C   UNL d   1       7.512  -5.842  -0.444  0.00  0.00    -0.005 A 
ATOM     21  C   UNL d   1       8.576  -5.025   0.252  0.00  0.00     0.006 A 
ATOM     22  C   UNL d   1       8.713  -5.339  -1.210  0.00  0.00     0.006 A 
ENDBRANCH  19  20
ENDBRANCH  18  19
ENDBRANCH   3  18
TORSDOF 6
