REMARK  4 active torsions:
REMARK  status: ('A' for Active; 'I' for Inactive)
REMARK    1  A    between atoms: N_3  and  S_1 
REMARK       I    between atoms: C_2  and  N_6 
REMARK       I    between atoms: N_7  and  C_2 
REMARK    2  A    between atoms: C_4  and  N_3 
REMARK    3  A    between atoms: N_6  and  C_12 
REMARK    4  A    between atoms: C_13  and  N_7 
ROOT
ATOM      1  C   UNL d   1      -1.955   2.550   5.294  0.00  0.00     0.325 C 
ATOM      2  N   UNL d   1      -0.636   2.243   5.425  0.00  0.00    -0.309 N 
ATOM      3  N   UNL d   1      -2.466   2.760   4.047  0.00  0.00    -0.309 N 
ATOM      4  O   UNL d   1      -2.563   2.720   6.352  0.00  0.00    -0.247 OA
ATOM      5  H   UNL d   1      -0.382   2.389   6.396  0.00  0.00     0.170 HD
ATOM      6  H   UNL d   1      -1.844   2.611   3.272  0.00  0.00     0.170 HD
ENDROOT
BRANCH   2   7
ATOM      7  C   UNL d   1       0.415   1.850   4.585  0.00  0.00     0.038 A 
ATOM      8  C   UNL d   1       0.279   1.274   3.326  0.00  0.00     0.054 A 
ATOM      9  C   UNL d   1       1.416   0.880   2.593  0.00  0.00     0.030 A 
ATOM     10  C   UNL d   1       2.708   1.080   3.101  0.00  0.00    -0.040 A 
ATOM     11  C   UNL d   1       2.832   1.614   4.389  0.00  0.00     0.011 A 
ATOM     12  C   UNL d   1       3.966   0.688   2.375  0.00  0.00     0.050 C 
ATOM     13  C   UNL d   1       1.702   1.986   5.119  0.00  0.00     0.030 A 
BRANCH   9  14
ATOM     14  N   UNL d   1       1.175   0.218   1.349  0.00  0.00    -0.185 NA
ATOM     15  H   UNL d   1       1.764   0.533   0.578  0.00  0.00     0.146 HD
BRANCH  14  16
ATOM     16  S   UNL d   1       1.173  -1.483   1.353  0.00  0.00     0.210 S 
ATOM     17  O   UNL d   1       2.333  -1.962   2.071  0.00  0.00    -0.211 OA
ATOM     18  O   UNL d   1       0.950  -1.865  -0.026  0.00  0.00    -0.211 OA
ATOM     19  C   UNL d   1      -0.290  -1.878   2.282  0.00  0.00     0.180 C 
ENDBRANCH  14  16
ENDBRANCH   9  14
ENDBRANCH   2   7
BRANCH   3  20
ATOM     20  C   UNL d   1      -3.654   3.474   3.741  0.00  0.00     0.038 A 
ATOM     21  C   UNL d   1      -4.508   4.020   4.703  0.00  0.00     0.054 A 
ATOM     22  C   UNL d   1      -5.500   4.937   4.339  0.00  0.00     0.042 A 
ATOM     23 CL   UNL d   1      -6.460   5.633   5.598  0.00  0.00    -0.084 Cl
ATOM     24  C   UNL d   1      -5.672   5.311   3.001  0.00  0.00    -0.040 A 
ATOM     25  C   UNL d   1      -4.913   4.651   2.025  0.00  0.00     0.011 A 
ATOM     26  C   UNL d   1      -6.612   6.412   2.598  0.00  0.00     0.050 C 
ATOM     27  C   UNL d   1      -3.913   3.743   2.393  0.00  0.00     0.030 A 
ENDBRANCH   3  20
TORSDOF 4
