REMARK  3 active torsions:
REMARK  status: ('A' for Active; 'I' for Inactive)
REMARK    1  A    between atoms: N_7  and  C_2 
REMARK    2  A    between atoms: C_18  and  C_3 
REMARK       I    between atoms: C_5  and  N_9 
REMARK    3  A    between atoms: C_10  and  C_5 
ROOT
ATOM      1  C   UNL d   1       1.352   0.505   1.056  0.00  0.00     0.048 A 
ATOM      2  C   UNL d   1       1.586   1.426  -0.017  0.00  0.00     0.097 A 
ATOM      3  C   UNL d   1       1.544   0.486   2.518  0.00  0.00    -0.003 A 
ATOM      4  C   UNL d   1       0.810  -0.717   0.654  0.00  0.00     0.089 A 
ATOM      5  C   UNL d   1       1.208  -0.748   3.055  0.00  0.00     0.065 A 
ATOM      6  S   UNL d   1       0.605  -1.842   1.910  0.00  0.00    -0.082 SA
ATOM      7  N   UNL d   1       1.222   1.043  -1.273  0.00  0.00    -0.342 N 
ATOM      8  HN  UNL d   1       1.358   1.683  -2.056  1.00  0.00     0.167 HD
ATOM      9  N   UNL d   1       0.459  -1.098  -0.584  0.00  0.00    -0.346 N 
ATOM     10  HN  UNL d   1       0.059  -2.010  -0.803  1.00  0.00     0.167 HD
ATOM     11  C   UNL d   1       0.690  -0.161  -1.489  0.00  0.00     0.182 A 
ENDROOT
BRANCH   2  12
ATOM     12  N   UNL d   1       2.289   2.636   0.088  0.00  0.00    -0.265 NA
ATOM     13  C   UNL d   1       2.895   3.080  -1.204  0.00  0.00     0.117 C 
ATOM     14  C   UNL d   1       3.853   4.264  -0.957  0.00  0.00     0.140 C 
ATOM     15  N   UNL d   1       3.170   5.344  -0.228  0.00  0.00    -0.350 N 
ATOM     16  C   UNL d   1       3.176   6.627  -0.724  0.00  0.00     0.224 C 
ATOM     17  C   UNL d   1       2.508   4.892   0.999  0.00  0.00     0.140 C 
ATOM     18  O   UNL d   1       3.776   6.946  -1.755  0.00  0.00    -0.273 OA
ATOM     19  C   UNL d   1       1.524   3.738   0.709  0.00  0.00     0.117 C 
BRANCH  16  20
ATOM     20  C   UNL d   1       2.362   7.657  -0.011  0.00  0.00     0.078 A 
ATOM     21  C   UNL d   1       1.181   8.257  -0.741  0.00  0.00     0.015 A 
ATOM     22  C   UNL d   1       2.376   9.108  -0.429  0.00  0.00     0.015 A 
ENDBRANCH  16  20
ENDBRANCH   2  12
BRANCH   3  23
ATOM     23  C   UNL d   1       1.960   1.542   3.455  0.00  0.00    -0.024 A 
ATOM     24  C   UNL d   1       1.248   1.746   4.654  0.00  0.00     0.012 A 
ATOM     25  C   UNL d   1       1.543   2.819   5.500  0.00  0.00     0.001 A 
ATOM     26  C   UNL d   1       2.548   3.714   5.156  0.00  0.00     0.000 A 
ATOM     27  C   UNL d   1       3.312   3.479   4.018  0.00  0.00     0.001 A 
ATOM     28  C   UNL d   1       3.039   2.382   3.186  0.00  0.00     0.012 A 
ENDBRANCH   3  23
TORSDOF 3
