REMARK  0 active torsions:
REMARK  status: ('A' for Active; 'I' for Inactive)
ROOT
ATOM      1  C   UNL d   1       0.733   0.750   1.120  0.00  0.00     0.021 C 
ATOM      2  C   UNL d   1      -1.506   0.277   0.103  0.00  0.00     0.021 C 
ATOM      3  C   UNL d   1       0.252  -1.506   0.147  0.00  0.00     0.021 C 
ATOM      4  C   UNL d   1      -0.776   1.032   1.226  0.00  0.00     0.042 C 
ATOM      5  C   UNL d   1       0.990  -0.759   1.270  0.00  0.00     0.042 C 
ATOM      6  C   UNL d   1      -1.259  -1.235   0.248  0.00  0.00     0.042 C 
ATOM      7  C   UNL d   1       0.522   0.481  -1.373  0.00  0.00    -0.010 C 
ATOM      8  C   UNL d   1       1.254   1.231  -0.245  0.00  0.00     0.026 C 
ATOM      9  C   UNL d   1      -0.990   0.757  -1.264  0.00  0.00     0.026 C 
ATOM     10  C   UNL d   1       0.772  -1.031  -1.221  0.00  0.00     0.026 C 
ATOM     11 BR   UNL d   1      -3.421   0.631   0.228  0.00  0.00    -0.085 Br
ATOM     12 BR   UNL d   1       1.669   1.708   2.540  0.00  0.00    -0.085 Br
ATOM     13 BR   UNL d   1       0.576  -3.422   0.326  0.00  0.00    -0.085 Br
ENDROOT
TORSDOF 0
