REMARK  3 active torsions:
REMARK  status: ('A' for Active; 'I' for Inactive)
REMARK       I    between atoms: N_2  and  C_1 
REMARK       I    between atoms: N_3  and  C_1 
REMARK    1  A    between atoms: C_5  and  N_2 
REMARK    2  A    between atoms: C_8  and  N_3 
REMARK    3  A    between atoms: C_10  and  C_8 
ROOT
ATOM      1  C   UNL d   1       1.014  -0.002   0.067  0.00  0.00     0.320 C 
ATOM      2  N   UNL d   1       2.383   0.140  -0.022  0.00  0.00    -0.309 N 
ATOM      3  N   UNL d   1       0.340   0.898  -0.720  0.00  0.00    -0.339 N 
ATOM      4  O   UNL d   1       0.418  -0.804   0.779  0.00  0.00    -0.247 OA
ATOM      5  H   UNL d   1       2.716   0.975  -0.474  0.00  0.00     0.170 HD
ATOM      6  H   UNL d   1       0.835   1.468  -1.386  0.00  0.00     0.164 HD
ENDROOT
BRANCH   2   7
ATOM      7  C   UNL d   1       3.335  -0.623   0.697  0.00  0.00     0.037 A 
ATOM      8  C   UNL d   1       3.023  -1.824   1.339  0.00  0.00     0.053 A 
ATOM      9  C   UNL d   1       3.979  -2.482   2.111  0.00  0.00     0.036 A 
ATOM     10 CL   UNL d   1       3.561  -3.939   2.927  0.00  0.00    -0.084 Cl
ATOM     11  C   UNL d   1       5.264  -1.964   2.238  0.00  0.00     0.024 A 
ATOM     12  C   UNL d   1       5.603  -0.795   1.559  0.00  0.00     0.004 A 
ATOM     13  C   UNL d   1       4.645  -0.131   0.782  0.00  0.00     0.029 A 
ENDBRANCH   2   7
BRANCH   3  14
ATOM     14  C   UNL d   1      -1.109   0.937  -0.734  0.00  0.00     0.162 C 
BRANCH  14  15
ATOM     15  C   UNL d   1      -1.674   0.608  -2.092  0.00  0.00    -0.040 A 
ATOM     16  C   UNL d   1      -1.488  -0.663  -2.656  0.00  0.00     0.009 A 
ATOM     17  C   UNL d   1      -2.040  -0.976  -3.900  0.00  0.00     0.001 A 
ATOM     18  C   UNL d   1      -2.789  -0.025  -4.590  0.00  0.00     0.000 A 
ATOM     19  C   UNL d   1      -2.990   1.238  -4.036  0.00  0.00     0.001 A 
ATOM     20  C   UNL d   1      -2.437   1.553  -2.793  0.00  0.00     0.009 A 
ENDBRANCH  14  15
ENDBRANCH   3  14
TORSDOF 3
