REMARK  3 active torsions:
REMARK  status: ('A' for Active; 'I' for Inactive)
REMARK    1  A    between atoms: C_12  and  N_1 
REMARK    2  A    between atoms: C_10  and  O_19 
REMARK    3  A    between atoms: O_19  and  C_14 
ROOT
ATOM      1  C   UNL d   1       0.394   3.509   0.456  0.00  0.00     0.080 A 
ATOM      2  C   UNL d   1       0.242   1.085   0.503  0.00  0.00     0.104 A 
ATOM      3  C   UNL d   1      -0.873   3.595   1.061  0.00  0.00     0.097 A 
ATOM      4  N   UNL d   1       1.889   5.564  -0.063  0.00  0.00    -0.191 NA
ATOM      5  C   UNL d   1       1.208   4.654   0.180  0.00  0.00     0.102 C 
ATOM      6  C   UNL d   1       0.928   2.249   0.137  0.00  0.00     0.061 A 
ATOM      7  C   UNL d   1      -0.971   1.165   1.194  0.00  0.00     0.039 A 
ATOM      8  C   UNL d   1      -1.524   2.418   1.463  0.00  0.00     0.041 A 
ENDROOT
BRANCH   3   9
ATOM      9  O   UNL d   1      -1.549   4.747   1.401  0.00  0.00    -0.309 OA
BRANCH   9  10
ATOM     10  C   UNL d   1      -1.542   5.847   0.561  0.00  0.00     0.078 A 
ATOM     11  C   UNL d   1      -1.571   7.083   1.238  0.00  0.00     0.071 A 
ATOM     12  C   UNL d   1      -1.456   8.208   0.403  0.00  0.00     0.088 A 
ATOM     13  N   UNL d   1      -1.417   9.505   0.731  0.00  0.00    -0.239 N 
ATOM     14  C   UNL d   1      -1.349   8.099  -1.044  0.00  0.00     0.085 A 
ATOM     15  O   UNL d   1      -1.255  10.189  -0.463  0.00  0.00    -0.156 OA
ATOM     16  HN  UNL d   1      -1.492   9.907   1.665  1.00  0.00     0.197 HD
ATOM     17  N   UNL d   1      -1.222   9.330  -1.550  0.00  0.00    -0.240 N 
ATOM     18  HN  UNL d   1      -1.121   9.585  -2.533  1.00  0.00     0.197 HD
ATOM     19  C   UNL d   1      -1.391   6.859  -1.709  0.00  0.00     0.037 A 
ATOM     20  C   UNL d   1      -1.522   5.741  -0.860  0.00  0.00     0.040 A 
ENDBRANCH   9  10
ENDBRANCH   3   9
BRANCH   2  21
ATOM     21  N   UNL d   1       0.812  -0.227   0.172  0.00  0.00    -0.116 N 
ATOM     22  O   UNL d   1       1.840  -0.247  -0.518  0.00  0.00    -0.532 OA
ATOM     23  O   UNL d   1       0.226  -1.232   0.597  0.00  0.00    -0.532 OA
ENDBRANCH   2  21
TORSDOF 3
