REMARK  3 active torsions:
REMARK  status: ('A' for Active; 'I' for Inactive)
REMARK       I    between atoms: N_2  and  C_1 
REMARK    1  A    between atoms: C_5  and  C_1 
REMARK    2  A    between atoms: C_15  and  N_3 
REMARK    3  A    between atoms: C_14  and  C_15 
ROOT
ATOM      1  C   UNL d   1       2.447  -0.016  -0.024  0.00  0.00     0.253 C 
ATOM      2  N   UNL d   1       3.205  -1.183   0.080  0.00  0.00    -0.345 N 
ATOM      3  N   UNL d   1       4.411  -3.787   0.766  0.00  0.00     0.095 N 
ATOM      4  O   UNL d   1       2.658   0.978   0.678  0.00  0.00    -0.267 OA
ATOM      5  C   UNL d   1       3.236  -2.291  -0.883  0.00  0.00     0.156 C 
ATOM      6  C   UNL d   1       4.294  -1.232   1.059  0.00  0.00     0.156 C 
ATOM      7  C   UNL d   1       3.241  -3.628  -0.127  0.00  0.00     0.292 C 
ATOM      8  C   UNL d   1       4.433  -2.634   1.708  0.00  0.00     0.292 C 
ENDROOT
BRANCH   3   9
ATOM      9  C   UNL d   1       5.684  -3.875   0.025  0.00  0.00     0.311 C 
BRANCH   9  10
ATOM     10  C   UNL d   1       5.736  -4.997  -0.995  0.00  0.00    -0.027 A 
ATOM     11  C   UNL d   1       5.909  -4.705  -2.360  0.00  0.00     0.048 A 
ATOM     12  C   UNL d   1       5.981  -5.758  -3.248  0.00  0.00     0.105 A 
ATOM     13  O   UNL d   1       6.153  -5.650  -4.593  0.00  0.00    -0.323 OA
ATOM     14  C   UNL d   1       5.887  -7.064  -2.833  0.00  0.00     0.105 A 
ATOM     15  C   UNL d   1       6.172  -7.042  -4.975  0.00  0.00     0.352 A 
ATOM     16  O   UNL d   1       5.997  -7.944  -3.864  0.00  0.00    -0.323 OA
ATOM     17  C   UNL d   1       5.703  -7.391  -1.508  0.00  0.00     0.040 A 
ATOM     18  C   UNL d   1       5.624  -6.345  -0.583  0.00  0.00     0.012 A 
ENDBRANCH   9  10
ENDBRANCH   3   9
BRANCH   1  19
ATOM     19  C   UNL d   1       1.356   0.076  -1.034  0.00  0.00     0.032 C 
ATOM     20  C   UNL d   1       0.481  -0.986  -1.277  0.00  0.00     0.017 C 
ATOM     21  C   UNL d   1      -0.405  -0.930  -2.352  0.00  0.00     0.007 C 
ATOM     22  C   UNL d   1      -0.509   0.232  -3.122  0.00  0.00    -0.062 C 
ATOM     23  C   UNL d   1       0.279   1.343  -2.795  0.00  0.00     0.007 C 
ATOM     24  C   UNL d   1      -1.448   0.262  -4.291  0.00  0.00     0.048 C 
ATOM     25  C   UNL d   1       1.214   1.264  -1.759  0.00  0.00     0.017 C 
ENDBRANCH   1  19
TORSDOF 3
