REMARK  12 active torsions:
REMARK  status: ('A' for Active; 'I' for Inactive)
REMARK    1  A    between atoms: O_10  and  C_1 
REMARK    2  A    between atoms: C_2  and  N_4 
REMARK    3  A    between atoms: N_5  and  C_2 
REMARK    4  A    between atoms: C_3  and  C_21 
REMARK       I    between atoms: N_7  and  C_3 
REMARK    5  A    between atoms: N_4  and  N_7 
REMARK    6  A    between atoms: C_17  and  N_5 
REMARK       I    between atoms: C_6  and  N_9 
REMARK    7  A    between atoms: C_30  and  C_6 
REMARK    8  A    between atoms: N_9  and  C_18 
REMARK    9  A    between atoms: C_19  and  O_10 
REMARK   10  A    between atoms: S_16  and  C_30 
REMARK   11  A    between atoms: C_21  and  S_16 
REMARK   12  A    between atoms: O_31  and  C_20 
ROOT
ATOM      1  C   UNL d   1       7.393   0.288 -10.103  0.00  0.00     0.245 C 
ATOM      2  N   UNL d   1       7.883   1.408 -10.741  0.00  0.00    -0.267 N 
ATOM      3  O   UNL d   1       8.122  -0.493  -9.490  0.00  0.00    -0.271 OA
ATOM      4  H   UNL d   1       7.279   2.154 -11.078  0.00  0.00     0.190 HD
ENDROOT
BRANCH   1   5
ATOM      5  C   UNL d   1       5.884   0.146 -10.173  0.00  0.00     0.178 C 
BRANCH   5   6
ATOM      6  S   UNL d   1       5.146   0.306  -8.513  0.00  0.00    -0.150 SA
BRANCH   6   7
ATOM      7  C   UNL d   1       5.475   2.074  -8.203  0.00  0.00     0.177 C 
BRANCH   7   8
ATOM      8  C   UNL d   1       4.763   2.541  -6.938  0.00  0.00     0.231 C 
ATOM      9  N   UNL d   1       5.117   1.819  -5.810  0.00  0.00    -0.327 N 
ATOM     10  H   UNL d   1       5.779   1.063  -5.954  0.00  0.00     0.169 HD
ATOM     11  O   UNL d   1       4.020   3.518  -6.975  0.00  0.00    -0.272 OA
BRANCH   9  12
ATOM     12  C   UNL d   1       4.606   1.964  -4.505  0.00  0.00     0.034 A 
ATOM     13  C   UNL d   1       3.571   2.836  -4.164  0.00  0.00     0.032 A 
ATOM     14  C   UNL d   1       3.108   2.923  -2.843  0.00  0.00     0.039 A 
ATOM     15  C   UNL d   1       3.706   2.169  -1.837  0.00  0.00     0.078 A 
ATOM     16  C   UNL d   1       4.714   1.266  -2.183  0.00  0.00     0.039 A 
ATOM     17  C   UNL d   1       5.162   1.162  -3.503  0.00  0.00     0.032 A 
BRANCH  15  18
ATOM     18  O   UNL d   1       3.399   2.195  -0.512  0.00  0.00    -0.255 OA
BRANCH  18  19
ATOM     19  C   UNL d   1       2.773   3.346   0.037  0.00  0.00     0.530 C 
ATOM     20  F   UNL d   1       2.974   4.469  -0.683  0.00  0.00    -0.144 F 
ATOM     21  F   UNL d   1       3.287   3.557   1.271  0.00  0.00    -0.144 F 
ATOM     22  F   UNL d   1       1.447   3.129   0.164  0.00  0.00    -0.144 F 
ENDBRANCH  18  19
ENDBRANCH  15  18
ENDBRANCH   9  12
ENDBRANCH   7   8
ENDBRANCH   6   7
ENDBRANCH   5   6
ENDBRANCH   1   5
BRANCH   2  23
ATOM     23  N   UNL d   1       9.213   1.769 -10.487  0.00  0.00    -0.274 N 
ATOM     24  H   UNL d   1       9.728   1.146  -9.860  0.00  0.00     0.189 HD
BRANCH  23  25
ATOM     25  C   UNL d   1       9.943   2.504 -11.381  0.00  0.00     0.191 C 
ATOM     26  S   UNL d   1       9.499   2.793 -12.969  0.00  0.00    -0.039 SA
BRANCH  25  27
ATOM     27  N   UNL d   1      11.107   3.064 -10.921  0.00  0.00    -0.332 N 
ATOM     28  H   UNL d   1      11.691   3.425 -11.665  0.00  0.00     0.168 HD
BRANCH  27  29
ATOM     29  C   UNL d   1      11.381   3.614  -9.641  0.00  0.00     0.034 A 
ATOM     30  C   UNL d   1      10.502   3.552  -8.553  0.00  0.00     0.032 A 
ATOM     31  C   UNL d   1      10.760   4.264  -7.379  0.00  0.00     0.039 A 
ATOM     32  C   UNL d   1      11.891   5.060  -7.280  0.00  0.00     0.068 A 
ATOM     33  C   UNL d   1      12.807   5.074  -8.330  0.00  0.00     0.039 A 
ATOM     34  C   UNL d   1      12.552   4.357  -9.506  0.00  0.00     0.032 A 
BRANCH  32  35
ATOM     35  O   UNL d   1      12.194   5.844  -6.201  0.00  0.00    -0.356 OA
ATOM     36  C   UNL d   1      11.057   6.382  -5.525  0.00  0.00     0.210 C 
ENDBRANCH  32  35
ENDBRANCH  27  29
ENDBRANCH  25  27
ENDBRANCH  23  25
ENDBRANCH   2  23
TORSDOF 12
