REMARK  3 active torsions:
REMARK  status: ('A' for Active; 'I' for Inactive)
REMARK    1  A    between atoms: N_11  and  C_3 
REMARK    2  A    between atoms: C_16  and  C_10 
REMARK       I    between atoms: C_12  and  N_11 
REMARK       I    between atoms: N_13  and  C_12 
REMARK    3  A    between atoms: C_14  and  N_13 
ROOT
ATOM      1  C   UNL d   1       0.386   0.026   0.979  0.00  0.00     0.174 A 
ATOM      2  N   UNL d   1      -0.117  -1.107   0.417  0.00  0.00    -0.234 N 
ATOM      3  C   UNL d   1      -2.038   0.058   0.670  0.00  0.00     0.106 A 
ATOM      4  N   UNL d   1       1.684   0.029   1.004  0.00  0.00    -0.319 N 
ATOM      5  HN  UNL d   1       2.321   0.736   1.372  1.00  0.00     0.169 HD
ATOM      6  S   UNL d   1      -0.852   1.166   1.367  0.00  0.00    -0.032 SA
ATOM      7  N   UNL d   1       0.892  -1.922   0.066  0.00  0.00    -0.276 N 
ATOM      8  HN  UNL d   1       0.853  -2.856  -0.343  1.00  0.00     0.189 HD
ATOM      9  C   UNL d   1      -1.497  -1.115   0.263  0.00  0.00     0.067 A 
ATOM     10  C   UNL d   1       1.974  -1.183   0.397  0.00  0.00     0.132 A 
ATOM     11  C   UNL d   1      -2.189  -2.285  -0.346  0.00  0.00     0.073 C 
ENDROOT
BRANCH   3  12
ATOM     12  N   UNL d   1      -3.346   0.383   0.450  0.00  0.00    -0.301 N 
ATOM     13  C   UNL d   1      -4.090   1.503   0.646  0.00  0.00     0.325 C 
ATOM     14  N   UNL d   1      -3.604   2.466   1.486  0.00  0.00    -0.307 N 
ATOM     15  O   UNL d   1      -5.190   1.549   0.089  0.00  0.00    -0.247 OA
ATOM     16  H   UNL d   1      -2.993   2.109   2.212  0.00  0.00     0.170 HD
ATOM     17  H   UNL d   1      -3.891  -0.279  -0.093  0.00  0.00     0.171 HD
BRANCH  14  18
ATOM     18  C   UNL d   1      -4.372   3.603   1.836  0.00  0.00     0.058 A 
ATOM     19  C   UNL d   1      -4.486   3.985   3.182  0.00  0.00     0.062 A 
ATOM     20  C   UNL d   1      -5.364   5.005   3.554  0.00  0.00     0.050 A 
ATOM     21 CL   UNL d   1      -3.625   3.142   4.422  0.00  0.00    -0.082 Cl
ATOM     22  C   UNL d   1      -6.087   5.681   2.573  0.00  0.00     0.035 A 
ATOM     23  C   UNL d   1      -5.916   5.371   1.226  0.00  0.00     0.026 A 
ATOM     24 CL   UNL d   1      -7.217   6.896   3.029  0.00  0.00    -0.084 Cl
ATOM     25  C   UNL d   1      -5.061   4.330   0.858  0.00  0.00     0.033 A 
ENDBRANCH  14  18
ENDBRANCH   3  12
BRANCH  10  26
ATOM     26  C   UNL d   1       3.349  -1.569   0.097  0.00  0.00     0.009 A 
ATOM     27  C   UNL d   1       4.416  -0.845   0.653  0.00  0.00     0.017 A 
ATOM     28  C   UNL d   1       5.739  -1.173   0.342  0.00  0.00     0.025 A 
ATOM     29  C   UNL d   1       6.003  -2.225  -0.533  0.00  0.00     0.034 A 
ATOM     30  C   UNL d   1       4.956  -2.954  -1.095  0.00  0.00     0.025 A 
ATOM     31 CL   UNL d   1       7.630  -2.619  -0.928  0.00  0.00    -0.084 Cl
ATOM     32  C   UNL d   1       3.633  -2.628  -0.779  0.00  0.00     0.017 A 
ENDBRANCH  10  26
TORSDOF 3
