REMARK  3 active torsions:
REMARK  status: ('A' for Active; 'I' for Inactive)
REMARK    1  A    between atoms: C_3  and  C_1 
REMARK       I    between atoms: N_6  and  C_3 
REMARK    2  A    between atoms: C_8  and  N_6 
REMARK    3  A    between atoms: C_21  and  C_17 
ROOT
ATOM      1  C   UNL d   1      -2.411  -0.180  -0.282  0.00  0.00     0.102 A 
ATOM      2  N   UNL d   1      -1.644   0.948  -0.078  0.00  0.00    -0.351 N 
ATOM      3  C   UNL d   1      -1.526  -1.237  -0.412  0.00  0.00     0.049 A 
ATOM      4  C   UNL d   1      -0.207  -0.735  -0.254  0.00  0.00    -0.007 A 
ATOM      5  C   UNL d   1      -0.306   0.638  -0.060  0.00  0.00     0.043 A 
ATOM      6  C   UNL d   1       1.069  -1.328  -0.263  0.00  0.00     0.021 A 
ATOM      7  C   UNL d   1       0.816   1.455   0.109  0.00  0.00     0.031 A 
ATOM      8  C   UNL d   1       2.223  -0.540  -0.079  0.00  0.00    -0.058 A 
ATOM      9  C   UNL d   1       2.078   0.841   0.094  0.00  0.00     0.009 A 
ATOM     10  H   UNL d   1      -2.033   1.873   0.049  0.00  0.00     0.166 HD
ENDROOT
BRANCH   1  11
ATOM     11  C   UNL d   1      -3.853  -0.117  -0.346  0.00  0.00     0.272 C 
ATOM     12  N   UNL d   1      -4.489  -1.342  -0.264  0.00  0.00    -0.320 N 
ATOM     13  H   UNL d   1      -3.954  -2.087   0.167  0.00  0.00     0.169 HD
ATOM     14  O   UNL d   1      -4.435   0.967  -0.396  0.00  0.00    -0.266 OA
BRANCH  12  15
ATOM     15  C   UNL d   1      -5.893  -1.484  -0.238  0.00  0.00     0.052 A 
ATOM     16  C   UNL d   1      -6.488  -2.414   0.630  0.00  0.00     0.040 A 
ATOM     17  C   UNL d   1      -7.877  -2.482   0.746  0.00  0.00     0.063 A 
ATOM     18 BR   UNL d   1      -5.439  -3.541   1.744  0.00  0.00    -0.049 Br
ATOM     19  C   UNL d   1      -8.666  -1.660  -0.050  0.00  0.00     0.117 A 
ATOM     20  C   UNL d   1      -8.097  -0.789  -0.971  0.00  0.00     0.044 A 
ATOM     21  F   UNL d   1      -9.999  -1.705   0.075  0.00  0.00    -0.206 F 
ATOM     22  C   UNL d   1      -6.709  -0.697  -1.062  0.00  0.00     0.034 A 
ENDBRANCH  12  15
ENDBRANCH   1  11
BRANCH   8  23
ATOM     23  C   UNL d   1       3.554  -1.260  -0.070  0.00  0.00     0.034 C 
ATOM     24  C   UNL d   1       4.808  -0.413   0.092  0.00  0.00     0.010 C 
ENDBRANCH   8  23
TORSDOF 3
