REMARK  4 active torsions:
REMARK  status: ('A' for Active; 'I' for Inactive)
REMARK    1  A    between atoms: C_2  and  C_1 
REMARK       I    between atoms: N_6  and  C_1 
REMARK       I    between atoms: C_3  and  N_4 
REMARK    2  A    between atoms: C_9  and  C_3 
REMARK    3  A    between atoms: N_4  and  C_5 
REMARK    4  A    between atoms: C_12  and  N_6 
ROOT
ATOM      1  C   UNL d   1       0.170  -0.381   1.114  0.00  0.00     0.059 A 
ATOM      2  C   UNL d   1       0.717   0.169   2.291  0.00  0.00     0.050 A 
ATOM      3  C   UNL d   1      -1.010  -1.145   1.190  0.00  0.00     0.019 A 
ATOM      4  C   UNL d   1       0.012   0.030   3.497  0.00  0.00     0.030 A 
ATOM      5  C   UNL d   1      -1.687  -1.290   2.402  0.00  0.00     0.001 A 
ATOM      6  C   UNL d   1      -1.187  -0.684   3.549  0.00  0.00     0.002 A 
ENDROOT
BRANCH   1   7
ATOM      7  C   UNL d   1       0.899  -0.286  -0.188  0.00  0.00     0.258 C 
ATOM      8  N   UNL d   1       0.109  -0.332  -1.325  0.00  0.00    -0.322 N 
ATOM      9  H   UNL d   1      -0.881  -0.159  -1.222  0.00  0.00     0.169 HD
ATOM     10  O   UNL d   1       2.114  -0.129  -0.186  0.00  0.00    -0.267 OA
BRANCH   8  11
ATOM     11  C   UNL d   1       0.584  -0.551  -2.637  0.00  0.00     0.050 A 
ATOM     12  C   UNL d   1       1.873  -0.982  -2.949  0.00  0.00     0.117 A 
ATOM     13  N   UNL d   1       2.303  -1.260  -4.208  0.00  0.00    -0.373 N 
ATOM     14  C   UNL d   1       1.410  -1.097  -5.204  0.00  0.00     0.088 A 
ATOM     15  HN  UNL d   1       3.255  -1.578  -4.389  1.00  0.00     0.164 HD
ATOM     16  C   UNL d   1       0.110  -0.665  -5.003  0.00  0.00     0.019 A 
ATOM     17  C   UNL d   1      -0.307  -0.392  -3.700  0.00  0.00     0.032 A 
ENDBRANCH   8  11
ENDBRANCH   1   7
BRANCH   2  18
ATOM     18  N   UNL d   1       1.960   0.857   2.273  0.00  0.00    -0.322 N 
ATOM     19  C   UNL d   1       2.925   0.666   3.247  0.00  0.00     0.256 C 
ATOM     20  O   UNL d   1       2.830  -0.100   4.206  0.00  0.00    -0.267 OA
ATOM     21  H   UNL d   1       2.335   1.065   1.346  0.00  0.00     0.169 HD
BRANCH  19  22
ATOM     22  C   UNL d   1       4.200   1.401   3.051  0.00  0.00     0.032 A 
ATOM     23  C   UNL d   1       4.213   2.730   2.613  0.00  0.00     0.017 A 
ATOM     24  C   UNL d   1       5.428   3.418   2.519  0.00  0.00     0.001 A 
ATOM     25  C   UNL d   1       6.624   2.779   2.850  0.00  0.00     0.000 A 
ATOM     26  C   UNL d   1       6.613   1.453   3.281  0.00  0.00     0.001 A 
ATOM     27  C   UNL d   1       5.403   0.767   3.389  0.00  0.00     0.017 A 
ENDBRANCH  19  22
ENDBRANCH   2  18
TORSDOF 4
