REMARK  3 active torsions:
REMARK  status: ('A' for Active; 'I' for Inactive)
REMARK    1  A    between atoms: C_8  and  C_5 
REMARK    2  A    between atoms: S_10  and  C_8 
REMARK    3  A    between atoms: C_11  and  S_10 
ROOT
ATOM      1  N   UNL d   1      -1.899  -1.522  -0.009  0.00  0.00    -0.300 N 
ATOM      2  HN  UNL d   1      -2.647  -2.215  -0.036  1.00  0.00     0.186 HD
ATOM      3  N   UNL d   1      -2.184  -0.195   0.073  0.00  0.00    -0.266 N 
ATOM      4  C   UNL d   1      -1.272   0.833   0.057  0.00  0.00     0.271 A 
ATOM      5  C   UNL d   1      -0.650  -1.888  -0.052  0.00  0.00     0.046 A 
ATOM      6  C   UNL d   1       0.145   0.438   0.019  0.00  0.00     0.045 A 
ATOM      7  C   UNL d   1       0.475  -0.917  -0.001  0.00  0.00     0.004 A 
ATOM      8  O   UNL d   1      -1.608   2.011   0.080  0.00  0.00    -0.266 OA
ATOM      9  C   UNL d   1       1.145   1.418   0.020  0.00  0.00     0.018 A 
ATOM     10  C   UNL d   1       1.825  -1.292   0.016  0.00  0.00     0.014 A 
ATOM     11  C   UNL d   1       2.825  -0.313   0.025  0.00  0.00     0.001 A 
ATOM     12  C   UNL d   1       2.486   1.039   0.018  0.00  0.00     0.001 A 
ATOM     13  H   UNL d   1      -3.166   0.058   0.110  0.00  0.00     0.190 HD
ENDROOT
BRANCH   5  14
ATOM     14  C   UNL d   1      -0.367  -3.377  -0.202  0.00  0.00     0.139 C 
BRANCH  14  15
ATOM     15  S   UNL d   1      -0.111  -4.116   1.442  0.00  0.00    -0.124 SA
BRANCH  15  16
ATOM     16  C   UNL d   1       0.168  -5.849   1.090  0.00  0.00     0.001 A 
ATOM     17  C   UNL d   1       0.262  -6.406  -0.190  0.00  0.00     0.020 A 
ATOM     18  C   UNL d   1       0.506  -7.776  -0.357  0.00  0.00     0.025 A 
ATOM     19  C   UNL d   1       0.656  -8.599   0.756  0.00  0.00     0.034 A 
ATOM     20  C   UNL d   1       0.560  -8.065   2.036  0.00  0.00     0.025 A 
ATOM     21 CL   UNL d   1       0.962 -10.278   0.547  0.00  0.00    -0.084 Cl
ATOM     22  C   UNL d   1       0.318  -6.696   2.199  0.00  0.00     0.020 A 
ENDBRANCH  15  16
ENDBRANCH  14  15
ENDBRANCH   5  14
TORSDOF 3
