REMARK  4 active torsions:
REMARK  status: ('A' for Active; 'I' for Inactive)
REMARK    1  A    between atoms: C_6  and  C_1 
REMARK       I    between atoms: N_12  and  C_6 
REMARK    2  A    between atoms: C_15  and  N_12 
REMARK    3  A    between atoms: C_16  and  C_15 
REMARK    4  A    between atoms: C_17  and  C_16 
ROOT
ATOM      1  C   UNL d   1      -2.561  -0.060  -0.241  0.00  0.00     0.102 A 
ATOM      2  N   UNL d   1      -1.722   1.036  -0.179  0.00  0.00    -0.351 N 
ATOM      3  C   UNL d   1      -1.742  -1.169  -0.126  0.00  0.00     0.049 A 
ATOM      4  C   UNL d   1      -0.401   0.650  -0.120  0.00  0.00     0.044 A 
ATOM      5  C   UNL d   1      -0.385  -0.743  -0.078  0.00  0.00    -0.001 A 
ATOM      6  C   UNL d   1       0.851  -1.427  -0.029  0.00  0.00    -0.049 A 
ATOM      7  C   UNL d   1       0.770   1.420  -0.118  0.00  0.00     0.037 A 
ATOM      8  C   UNL d   1       2.029  -0.655  -0.054  0.00  0.00     0.014 A 
ATOM      9  C   UNL d   1       1.999   0.744  -0.101  0.00  0.00    -0.059 A 
ATOM     10  C   UNL d   1       0.971  -2.925  -0.007  0.00  0.00     0.049 C 
ATOM     11  C   UNL d   1       3.295   1.500  -0.175  0.00  0.00     0.048 C 
ATOM     12  H   UNL d   1      -2.048   1.993  -0.229  0.00  0.00     0.166 HD
ENDROOT
BRANCH   1  13
ATOM     13  C   UNL d   1      -3.992   0.069  -0.419  0.00  0.00     0.268 C 
ATOM     14  O   UNL d   1      -4.539   1.155  -0.570  0.00  0.00    -0.266 OA
ATOM     15  N   UNL d   1      -4.680  -1.124  -0.421  0.00  0.00    -0.356 N 
ATOM     16  H   UNL d   1      -4.167  -1.982  -0.294  0.00  0.00     0.162 HD
BRANCH  15  17
ATOM     17  C   UNL d   1      -6.101  -1.222  -0.674  0.00  0.00     0.123 C 
BRANCH  17  18
ATOM     18  C   UNL d   1      -6.438  -1.319  -2.163  0.00  0.00     0.019 C 
BRANCH  18  19
ATOM     19  C   UNL d   1      -5.894  -2.590  -2.821  0.00  0.00    -0.003 C 
ATOM     20  C   UNL d   1      -6.309  -2.680  -4.283  0.00  0.00     0.005 C 
ENDBRANCH  18  19
ENDBRANCH  17  18
ENDBRANCH  15  17
ENDBRANCH   1  13
TORSDOF 4
