REMARK  4 active torsions:
REMARK  status: ('A' for Active; 'I' for Inactive)
REMARK    1  A    between atoms: N_2  and  S_1 
REMARK    2  A    between atoms: C_5  and  S_1 
REMARK    3  A    between atoms: S_4  and  N_2 
REMARK    4  A    between atoms: C_8  and  S_4 
ROOT
ATOM      1  S   UNL d   1      -0.753  -1.058  -2.491  0.00  0.00     0.267 S 
ATOM      2  O   UNL d   1      -0.246  -1.865  -3.584  0.00  0.00    -0.200 OA
ATOM      3  O   UNL d   1      -2.004  -0.330  -2.618  0.00  0.00    -0.200 OA
ENDROOT
BRANCH   1   4
ATOM      4  N   UNL d   1       0.495  -0.026  -1.949  0.00  0.00    -0.260 N 
ATOM      5  HN  UNL d   1       1.178  -0.376  -1.277  1.00  0.00     0.186 HD
BRANCH   4   6
ATOM      6  S   UNL d   1       0.612   1.481  -2.478  0.00  0.00    -0.086 SA
ATOM      7  C   UNL d   1       0.203   1.314  -4.234  0.00  0.00     0.108 C 
BRANCH   6   8
ATOM      8  C   UNL d   1       2.416   1.425  -2.670  0.00  0.00     0.010 A 
ATOM      9  C   UNL d   1       3.113   0.262  -3.027  0.00  0.00     0.019 A 
ATOM     10  C   UNL d   1       4.496   0.291  -3.211  0.00  0.00     0.001 A 
ATOM     11  C   UNL d   1       5.194   1.485  -3.054  0.00  0.00     0.000 A 
ATOM     12  C   UNL d   1       4.511   2.649  -2.705  0.00  0.00     0.001 A 
ATOM     13  C   UNL d   1       3.128   2.619  -2.510  0.00  0.00     0.019 A 
ENDBRANCH   6   8
ENDBRANCH   4   6
ENDBRANCH   1   4
BRANCH   1  14
ATOM     14  C   UNL d   1      -0.901  -2.119  -1.072  0.00  0.00     0.080 A 
ATOM     15  C   UNL d   1      -1.881  -1.844  -0.114  0.00  0.00     0.026 A 
ATOM     16  C   UNL d   1      -1.978  -2.651   1.018  0.00  0.00     0.008 A 
ATOM     17  C   UNL d   1      -1.106  -3.734   1.194  0.00  0.00    -0.062 A 
ATOM     18  C   UNL d   1      -0.151  -4.019   0.208  0.00  0.00     0.008 A 
ATOM     19  C   UNL d   1      -1.202  -4.564   2.442  0.00  0.00     0.048 C 
ATOM     20  C   UNL d   1      -0.049  -3.216  -0.929  0.00  0.00     0.026 A 
ENDBRANCH   1  14
TORSDOF 4
