REMARK  3 active torsions:
REMARK  status: ('A' for Active; 'I' for Inactive)
REMARK       I    between atoms: N_2  and  C_1 
REMARK    1  A    between atoms: C_8  and  C_1 
REMARK    2  A    between atoms: C_5  and  N_2 
REMARK    3  A    between atoms: O_12  and  C_6 
ROOT
ATOM      1  C   UNL d   1       1.215  -0.071  -0.070  0.00  0.00     0.256 C 
ATOM      2  N   UNL d   1       0.562  -1.269  -0.324  0.00  0.00    -0.323 N 
ATOM      3  O   UNL d   1       2.347   0.034   0.391  0.00  0.00    -0.267 OA
ATOM      4  H   UNL d   1      -0.378  -1.232  -0.685  0.00  0.00     0.169 HD
ENDROOT
BRANCH   2   5
ATOM      5  C   UNL d   1       1.093  -2.570  -0.148  0.00  0.00     0.036 A 
ATOM      6  C   UNL d   1       2.325  -2.837   0.453  0.00  0.00     0.056 A 
ATOM      7  C   UNL d   1       2.812  -4.150   0.578  0.00  0.00     0.069 A 
ATOM      8 CL   UNL d   1       4.300  -4.311   1.447  0.00  0.00    -0.081 Cl
ATOM      9  C   UNL d   1       2.073  -5.223   0.068  0.00  0.00     0.090 A 
ATOM     10  C   UNL d   1       0.822  -4.954  -0.502  0.00  0.00     0.041 A 
ATOM     11  C   UNL d   1       0.332  -3.646  -0.606  0.00  0.00     0.032 A 
BRANCH   9  12
ATOM     12  O   UNL d   1       2.366  -6.559   0.090  0.00  0.00    -0.354 OA
ATOM     13  C   UNL d   1       3.732  -6.949   0.033  0.00  0.00     0.210 C 
ENDBRANCH   9  12
ENDBRANCH   2   5
BRANCH   1  14
ATOM     14  C   UNL d   1       0.481   1.196  -0.390  0.00  0.00     0.032 A 
ATOM     15  C   UNL d   1       1.020   2.394   0.111  0.00  0.00     0.017 A 
ATOM     16  C   UNL d   1       0.424   3.624  -0.172  0.00  0.00     0.001 A 
ATOM     17  C   UNL d   1      -0.722   3.672  -0.959  0.00  0.00     0.000 A 
ATOM     18  C   UNL d   1      -1.268   2.493  -1.466  0.00  0.00     0.001 A 
ATOM     19  C   UNL d   1      -0.669   1.258  -1.189  0.00  0.00     0.017 A 
ENDBRANCH   1  14
TORSDOF 3
