REMARK  5 active torsions:
REMARK  status: ('A' for Active; 'I' for Inactive)
REMARK    1  A    between atoms: N_2  and  S_1 
REMARK    2  A    between atoms: C_3  and  S_1 
REMARK    3  A    between atoms: N_4  and  N_2 
REMARK    4  A    between atoms: N_9  and  C_8 
REMARK    5  A    between atoms: C_15  and  C_14 
ROOT
ATOM      1  N   UNL d   1       0.375   1.467   0.532  0.00  0.00    -0.223 N 
ATOM      2  H   UNL d   1      -0.367   1.857  -0.048  0.00  0.00     0.200 HD
ENDROOT
BRANCH   1   3
ATOM      3  S   UNL d   1       0.986  -0.031   0.014  0.00  0.00     0.276 S 
ATOM      4  O   UNL d   1       2.432   0.019   0.007  0.00  0.00    -0.199 OA
ATOM      5  O   UNL d   1       0.244  -0.382  -1.183  0.00  0.00    -0.199 OA
BRANCH   3   6
ATOM      6  C   UNL d   1       0.474  -1.134   1.314  0.00  0.00     0.081 A 
ATOM      7  C   UNL d   1      -0.719  -1.850   1.193  0.00  0.00     0.026 A 
ATOM      8  C   UNL d   1      -1.073  -2.772   2.183  0.00  0.00     0.008 A 
ATOM      9  C   UNL d   1      -0.236  -2.991   3.286  0.00  0.00    -0.062 A 
ATOM     10  C   UNL d   1       0.958  -2.265   3.395  0.00  0.00     0.008 A 
ATOM     11  C   UNL d   1      -0.613  -4.009   4.323  0.00  0.00     0.048 C 
ATOM     12  C   UNL d   1       1.317  -1.342   2.410  0.00  0.00     0.026 A 
ENDBRANCH   3   6
ENDBRANCH   1   3
BRANCH   1  13
ATOM     13  N   UNL d   1       0.794   2.005   1.778  0.00  0.00    -0.302 N 
ATOM     14  C   UNL d   1       0.330   3.169   2.104  0.00  0.00     0.119 C 
ATOM     15  HN  UNL d   1       1.434   1.498   2.389  1.00  0.00     0.186 HD
BRANCH  14  16
ATOM     16  C   UNL d   1       0.719   3.775   3.391  0.00  0.00    -0.019 A 
ATOM     17  C   UNL d   1       1.578   3.084   4.246  0.00  0.00     0.015 A 
ATOM     18  C   UNL d   1       1.950   3.641   5.471  0.00  0.00     0.030 A 
ATOM     19  C   UNL d   1       1.482   4.894   5.893  0.00  0.00     0.029 A 
ATOM     20  C   UNL d   1       0.622   5.569   5.005  0.00  0.00     0.030 A 
ATOM     21  C   UNL d   1       0.240   5.024   3.764  0.00  0.00     0.015 A 
BRANCH  19  22
ATOM     22  N   UNL d   1       1.841   5.425   7.119  0.00  0.00    -0.390 N 
ATOM     23  C   UNL d   1       2.213   4.581   8.251  0.00  0.00     0.149 C 
ATOM     24  C   UNL d   1       1.924   6.861   7.353  0.00  0.00     0.149 C 
ENDBRANCH  19  22
ENDBRANCH  14  16
ENDBRANCH   1  13
TORSDOF 5
