REMARK  3 active torsions:
REMARK  status: ('A' for Active; 'I' for Inactive)
REMARK    1  A    between atoms: C_10  and  N_3 
REMARK    2  A    between atoms: C_7  and  O_13 
REMARK    3  A    between atoms: O_13  and  C_19 
ROOT
ATOM      1  C   UNL d   1      -0.775  -0.514   1.111  0.00  0.00     0.334 C 
ATOM      2  N   UNL d   1      -0.155   0.710   1.160  0.00  0.00    -0.274 N 
ATOM      3  N   UNL d   1      -0.600  -1.227  -0.088  0.00  0.00    -0.273 N 
ATOM      4  C   UNL d   1       0.677   0.536  -1.092  0.00  0.00     0.128 C 
ATOM      5  C   UNL d   1       0.121  -0.681  -1.140  0.00  0.00     0.130 C 
ATOM      6  C   UNL d   1       0.487   1.339   0.131  0.00  0.00     0.271 C 
ATOM      7  C   UNL d   1       1.423   1.061  -2.180  0.00  0.00     0.106 C 
ATOM      8  N   UNL d   1       2.027   1.428  -3.097  0.00  0.00    -0.191 NA
ATOM      9  O   UNL d   1      -1.464  -0.867   2.067  0.00  0.00    -0.246 OA
ATOM     10  O   UNL d   1       0.861   2.504   0.220  0.00  0.00    -0.266 OA
ATOM     11  H   UNL d   1      -0.334   1.259   1.990  0.00  0.00     0.173 HD
ENDROOT
BRANCH   3  12
ATOM     12  C   UNL d   1      -1.247  -2.493  -0.217  0.00  0.00     0.043 A 
ATOM     13  C   UNL d   1      -2.068  -2.762  -1.317  0.00  0.00     0.033 A 
ATOM     14  C   UNL d   1      -2.804  -3.951  -1.363  0.00  0.00     0.039 A 
ATOM     15  C   UNL d   1      -2.701  -4.897  -0.339  0.00  0.00     0.078 A 
ATOM     16  C   UNL d   1      -1.790  -4.683   0.691  0.00  0.00     0.039 A 
ATOM     17  C   UNL d   1      -1.098  -3.471   0.773  0.00  0.00     0.033 A 
BRANCH  15  18
ATOM     18  O   UNL d   1      -3.502  -5.988  -0.478  0.00  0.00    -0.255 OA
BRANCH  18  19
ATOM     19  C   UNL d   1      -3.982  -6.656   0.685  0.00  0.00     0.530 C 
ATOM     20  F   UNL d   1      -3.671  -6.053   1.851  0.00  0.00    -0.144 F 
ATOM     21  F   UNL d   1      -5.330  -6.735   0.611  0.00  0.00    -0.144 F 
ATOM     22  F   UNL d   1      -3.488  -7.913   0.704  0.00  0.00    -0.144 F 
ENDBRANCH  18  19
ENDBRANCH  15  18
ENDBRANCH   3  12
TORSDOF 3
