REMARK  9 active torsions:
REMARK  status: ('A' for Active; 'I' for Inactive)
REMARK    1  A    between atoms: N_7  and  C_1 
REMARK    2  A    between atoms: N_10  and  C_1 
REMARK    3  A    between atoms: O_11  and  C_2 
REMARK    4  A    between atoms: N_3  and  N_7 
REMARK    5  A    between atoms: C_5  and  C_9 
REMARK    6  A    between atoms: O_12  and  C_8 
REMARK    7  A    between atoms: C_13  and  N_10 
REMARK    8  A    between atoms: C_18  and  C_13 
REMARK    9  A    between atoms: C_14  and  C_18 
ROOT
ATOM      1  N   UNL d   1       0.309  -0.790   1.011  0.00  0.00    -0.277 N 
ATOM      2  H   UNL d   1       0.834  -1.599   1.316  0.00  0.00     0.189 HD
ENDROOT
BRANCH   1   3
ATOM      3  N   UNL d   1      -1.045  -0.791   1.153  0.00  0.00    -0.309 N 
ATOM      4  C   UNL d   1      -1.525  -1.503   2.124  0.00  0.00     0.121 C 
ATOM      5  HN  UNL d   1      -1.651  -0.259   0.528  1.00  0.00     0.186 HD
BRANCH   4   6
ATOM      6  C   UNL d   1      -2.986  -1.715   2.264  0.00  0.00     0.017 A 
ATOM      7  C   UNL d   1      -3.581  -2.712   3.071  0.00  0.00     0.113 A 
ATOM      8  C   UNL d   1      -4.993  -2.815   3.067  0.00  0.00     0.102 A 
ATOM      9  C   UNL d   1      -5.769  -1.925   2.307  0.00  0.00     0.040 A 
ATOM     10  C   UNL d   1      -5.178  -0.930   1.542  0.00  0.00     0.004 A 
ATOM     11  C   UNL d   1      -3.794  -0.835   1.515  0.00  0.00     0.016 A 
BRANCH   7  12
ATOM     12  O   UNL d   1      -2.921  -3.509   3.968  0.00  0.00    -0.352 OA
ATOM     13  C   UNL d   1      -1.694  -4.124   3.605  0.00  0.00     0.210 C 
ENDBRANCH   7  12
BRANCH   8  14
ATOM     14  O   UNL d   1      -5.793  -3.697   3.753  0.00  0.00    -0.353 OA
ATOM     15  C   UNL d   1      -5.220  -4.869   4.309  0.00  0.00     0.210 C 
ENDBRANCH   8  14
ENDBRANCH   4   6
ENDBRANCH   1   3
BRANCH   1  16
ATOM     16  C   UNL d   1       0.976   0.295   0.458  0.00  0.00     0.186 C 
ATOM     17  S   UNL d   1       0.340   1.844   0.378  0.00  0.00    -0.040 SA
BRANCH  16  18
ATOM     18  N   UNL d   1       2.247  -0.071   0.035  0.00  0.00    -0.366 N 
ATOM     19  H   UNL d   1       2.325  -1.017  -0.312  0.00  0.00     0.161 HD
BRANCH  18  20
ATOM     20  C   UNL d   1       3.260   0.875  -0.438  0.00  0.00     0.126 C 
BRANCH  20  21
ATOM     21  C   UNL d   1       4.431   0.207  -1.167  0.00  0.00     0.058 C 
BRANCH  21  22
ATOM     22  C   UNL d   1       4.110  -0.280  -2.564  0.00  0.00    -0.057 A 
ATOM     23  C   UNL d   1       3.541   0.577  -3.519  0.00  0.00     0.007 A 
ATOM     24  C   UNL d   1       3.293   0.135  -4.820  0.00  0.00     0.001 A 
ATOM     25  C   UNL d   1       3.624  -1.165  -5.189  0.00  0.00     0.000 A 
ATOM     26  C   UNL d   1       4.204  -2.023  -4.257  0.00  0.00     0.001 A 
ATOM     27  C   UNL d   1       4.448  -1.583  -2.954  0.00  0.00     0.007 A 
ENDBRANCH  21  22
ENDBRANCH  20  21
ENDBRANCH  18  20
ENDBRANCH  16  18
ENDBRANCH   1  16
TORSDOF 9
