REMARK  6 active torsions:
REMARK  status: ('A' for Active; 'I' for Inactive)
REMARK    1  A    between atoms: C_2  and  S_1 
REMARK    2  A    between atoms: N_4  and  S_1 
REMARK    3  A    between atoms: N_3  and  C_5 
REMARK    4  A    between atoms: C_13  and  N_4 
REMARK    5  A    between atoms: O_17  and  C_10 
REMARK    6  A    between atoms: O_18  and  C_15 
ROOT
ATOM      1  S   UNL d   1       1.085   0.209   0.066  0.00  0.00     0.266 S 
ATOM      2  O   UNL d   1       2.214  -0.582  -0.387  0.00  0.00    -0.200 OA
ATOM      3  O   UNL d   1       1.252   1.628   0.301  0.00  0.00    -0.200 OA
ENDROOT
BRANCH   1   4
ATOM      4  C   UNL d   1       0.448  -0.627   1.510  0.00  0.00     0.115 A 
ATOM      5  C   UNL d   1       0.662  -2.023   1.589  0.00  0.00     0.065 A 
ATOM      6  C   UNL d   1       0.402  -2.708   2.774  0.00  0.00     0.069 A 
ATOM      7  C   UNL d   1      -0.050  -1.997   3.881  0.00  0.00     0.039 A 
ATOM      8  C   UNL d   1      -0.296  -0.626   3.798  0.00  0.00     0.041 A 
ATOM      9  C   UNL d   1      -0.062   0.076   2.609  0.00  0.00     0.091 A 
BRANCH   6  10
ATOM     10  O   UNL d   1       0.575  -4.043   3.004  0.00  0.00    -0.356 OA
ATOM     11  C   UNL d   1       0.844  -4.869   1.880  0.00  0.00     0.210 C 
ENDBRANCH   6  10
BRANCH   9  12
ATOM     12  O   UNL d   1      -0.352   1.402   2.462  0.00  0.00    -0.354 OA
ATOM     13  C   UNL d   1      -0.553   2.159   3.652  0.00  0.00     0.210 C 
ENDBRANCH   9  12
ENDBRANCH   1   4
BRANCH   1  14
ATOM     14  N   UNL d   1      -0.086  -0.031  -1.111  0.00  0.00    -0.280 N 
ATOM     15  H   UNL d   1       0.307  -0.396  -1.978  0.00  0.00     0.179 HD
BRANCH  14  16
ATOM     16  C   UNL d   1      -1.235   0.791  -1.208  0.00  0.00     0.045 A 
ATOM     17  C   UNL d   1      -2.450   0.233  -0.830  0.00  0.00     0.066 A 
ATOM     18  C   UNL d   1      -3.638   0.911  -1.122  0.00  0.00     0.105 A 
ATOM     19  C   UNL d   1      -3.617   2.144  -1.788  0.00  0.00     0.036 A 
ATOM     20  C   UNL d   1      -2.389   2.709  -2.140  0.00  0.00     0.005 A 
ATOM     21  C   UNL d   1      -1.197   2.032  -1.851  0.00  0.00     0.030 A 
BRANCH  18  22
ATOM     22  N   UNL d   1      -4.918   0.290  -0.765  0.00  0.00    -0.116 N 
ATOM     23  O   UNL d   1      -4.883  -0.794  -0.164  0.00  0.00    -0.532 OA
ATOM     24  O   UNL d   1      -5.957   0.878  -1.093  0.00  0.00    -0.532 OA
ENDBRANCH  18  22
ENDBRANCH  14  16
ENDBRANCH   1  14
TORSDOF 6
