REMARK  3 active torsions:
REMARK  status: ('A' for Active; 'I' for Inactive)
REMARK    1  A    between atoms: C_6  and  C_1 
REMARK    2  A    between atoms: O_12  and  C_6 
REMARK    3  A    between atoms: C_15  and  O_12 
ROOT
ATOM      1  N   UNL d   1       6.800  -8.504  -0.179  0.00  0.00    -0.191 NA
ATOM      2  C   UNL d   1       6.243  -7.486  -0.166  0.00  0.00     0.099 C 
ATOM      3  C   UNL d   1       5.547  -6.233  -0.144  0.00  0.00     0.044 A 
ATOM      4  C   UNL d   1       4.171  -3.784  -0.070  0.00  0.00     0.069 A 
ATOM      5  C   UNL d   1       4.149  -6.208  -0.107  0.00  0.00     0.025 A 
ATOM      6  C   UNL d   1       6.256  -5.030  -0.151  0.00  0.00     0.025 A 
ATOM      7  C   UNL d   1       3.464  -4.988  -0.070  0.00  0.00     0.038 A 
ATOM      8  C   UNL d   1       5.568  -3.813  -0.114  0.00  0.00     0.038 A 
ENDROOT
BRANCH   4   9
ATOM      9  O   UNL d   1       3.626  -2.530  -0.025  0.00  0.00    -0.347 OA
BRANCH   9  10
ATOM     10  C   UNL d   1       2.197  -2.442  -0.026  0.00  0.00     0.217 C 
BRANCH  10  11
ATOM     11  C   UNL d   1       1.748  -1.008  -0.000  0.00  0.00     0.006 A 
ATOM     12  C   UNL d   1       0.948  -0.440   0.965  0.00  0.00     0.084 A 
ATOM     13  S   UNL d   1       0.599   1.190   0.708  0.00  0.00    -0.077 SA
ATOM     14 CL   UNL d   1       0.276  -1.201   2.357  0.00  0.00    -0.076 Cl
ATOM     15  C   UNL d   1       1.518   1.224  -0.744  0.00  0.00     0.017 A 
ATOM     16  C   UNL d   1       2.086  -0.026  -1.018  0.00  0.00    -0.007 A 
ATOM     17  C   UNL d   1       1.712   2.333  -1.591  0.00  0.00     0.021 A 
ATOM     18  C   UNL d   1       2.872  -0.147  -2.195  0.00  0.00     0.037 A 
ATOM     19  C   UNL d   1       3.065   0.953  -3.034  0.00  0.00     0.035 A 
ATOM     20  C   UNL d   1       2.493   2.181  -2.738  0.00  0.00     0.025 A 
ATOM     21 CL   UNL d   1       4.025   0.780  -4.452  0.00  0.00    -0.084 Cl
ENDBRANCH  10  11
ENDBRANCH   9  10
ENDBRANCH   4   9
TORSDOF 3
