REMARK  3 active torsions:
REMARK  status: ('A' for Active; 'I' for Inactive)
REMARK    1  A    between atoms: C_2  and  C_1 
REMARK    2  A    between atoms: C_3  and  C_1 
REMARK    3  A    between atoms: C_4  and  C_1 
REMARK       I    between atoms: N_5  and  C_3 
REMARK       I    between atoms: N_6  and  C_4 
ROOT
ATOM      1  C   UNL d   1       1.220   0.033  -0.058  0.00  0.00     0.178 C 
ENDROOT
BRANCH   1   2
ATOM      2  C   UNL d   1       0.593  -0.229  -1.497  0.00  0.00    -0.019 C 
ATOM      3  C   UNL d   1      -0.967  -0.223  -1.462  0.00  0.00     0.015 C 
ATOM      4  C   UNL d   1      -1.559  -0.432  -2.875  0.00  0.00    -0.013 C 
ATOM      5  C   UNL d   1      -1.106   0.698  -3.811  0.00  0.00     0.009 C 
ATOM      6  C   UNL d   1      -1.060  -1.766  -3.451  0.00  0.00     0.009 C 
ATOM      7  C   UNL d   1       0.423   0.720  -3.884  0.00  0.00    -0.013 C 
ATOM      8  C   UNL d   1       0.983   0.920  -2.472  0.00  0.00     0.015 C 
ATOM      9  C   UNL d   1       0.947  -0.612  -4.435  0.00  0.00     0.009 C 
ATOM     10  C   UNL d   1       0.475  -1.764  -3.539  0.00  0.00    -0.013 C 
ATOM     11  C   UNL d   1       1.061  -1.572  -2.132  0.00  0.00     0.015 C 
ENDBRANCH   1   2
BRANCH   1  12
ATOM     12  C   UNL d   1       0.792  -1.027   0.996  0.00  0.00     0.233 C 
ATOM     13  N   UNL d   1       0.875  -0.715   2.353  0.00  0.00    -0.351 N 
ATOM     14  C   UNL d   1       0.576  -1.770   3.327  0.00  0.00     0.125 C 
ATOM     15  C   UNL d   1       1.437   0.499   2.930  0.00  0.00     0.125 C 
ATOM     16  C   UNL d   1      -0.325  -1.268   4.454  0.00  0.00     0.020 C 
ATOM     17  C   UNL d   1       0.191   0.033   5.064  0.00  0.00     0.003 C 
ATOM     18  C   UNL d   1       0.491   1.068   3.982  0.00  0.00     0.020 C 
ATOM     19  O   UNL d   1       0.347  -2.123   0.655  0.00  0.00    -0.272 OA
ENDBRANCH   1  12
BRANCH   1  20
ATOM     20  C   UNL d   1       2.763   0.094  -0.146  0.00  0.00     0.233 C 
ATOM     21  N   UNL d   1       3.390   1.272  -0.558  0.00  0.00    -0.351 N 
ATOM     22  C   UNL d   1       2.923   2.639  -0.333  0.00  0.00     0.125 C 
ATOM     23  C   UNL d   1       4.770   1.184  -1.051  0.00  0.00     0.125 C 
ATOM     24  C   UNL d   1       3.106   3.537  -1.562  0.00  0.00     0.020 C 
ATOM     25  C   UNL d   1       4.490   3.407  -2.198  0.00  0.00     0.003 C 
ATOM     26  C   UNL d   1       4.902   1.948  -2.368  0.00  0.00     0.020 C 
ATOM     27  O   UNL d   1       3.431  -0.928   0.048  0.00  0.00    -0.272 OA
ENDBRANCH   1  20
TORSDOF 3
