REMARK  5 active torsions:
REMARK  status: ('A' for Active; 'I' for Inactive)
REMARK    1  A    between atoms: C_18  and  N_1 
REMARK    2  A    between atoms: N_7  and  C_2 
REMARK       I    between atoms: C_10  and  N_7 
REMARK    3  A    between atoms: C_8  and  C_11 
REMARK    4  A    between atoms: C_9  and  C_12 
REMARK       I    between atoms: N_15  and  C_10 
REMARK    5  A    between atoms: C_14  and  N_15 
ROOT
ATOM      1  N   UNL d   1      -0.699   2.200   0.228  0.00  0.00    -0.293 N 
ATOM      2  C   UNL d   1      -1.976   2.675   0.195  0.00  0.00     0.326 C 
ATOM      3  N   UNL d   1      -2.910   1.906  -0.441  0.00  0.00    -0.309 N 
ATOM      4  O   UNL d   1      -2.183   3.768   0.722  0.00  0.00    -0.247 OA
ATOM      5  H   UNL d   1      -0.056   2.837   0.675  0.00  0.00     0.172 HD
ATOM      6  H   UNL d   1      -2.589   0.966  -0.668  0.00  0.00     0.170 HD
ENDROOT
BRANCH   1   7
ATOM      7  C   UNL d   1      -0.162   1.088  -0.374  0.00  0.00     0.126 C 
ATOM      8  N   UNL d   1      -0.852   0.157  -1.036  0.00  0.00    -0.278 N 
ATOM      9  N   UNL d   1       0.084  -0.760  -1.421  0.00  0.00    -0.259 N 
ATOM     10  HN  UNL d   1      -1.856   0.135  -1.214  1.00  0.00     0.189 HD
ATOM     11  C   UNL d   1       1.369  -0.281  -1.210  0.00  0.00     0.034 C 
ATOM     12  C   UNL d   1       1.223   0.832  -0.412  0.00  0.00     0.076 C 
ATOM     13  C   UNL d   1       2.597  -0.812  -1.855  0.00  0.00     0.070 C 
BRANCH   9  14
ATOM     14  C   UNL d   1      -0.323  -2.015  -1.947  0.00  0.00     0.056 A 
ATOM     15  C   UNL d   1      -1.545  -2.112  -2.627  0.00  0.00     0.031 A 
ATOM     16  C   UNL d   1      -1.962  -3.351  -3.133  0.00  0.00     0.002 A 
ATOM     17  C   UNL d   1      -1.180  -4.488  -2.942  0.00  0.00     0.000 A 
ATOM     18  C   UNL d   1       0.021  -4.398  -2.240  0.00  0.00     0.002 A 
ATOM     19  C   UNL d   1       0.453  -3.164  -1.746  0.00  0.00     0.031 A 
ENDBRANCH   9  14
ENDBRANCH   1   7
BRANCH   3  20
ATOM     20  C   UNL d   1      -4.192   2.300  -0.870  0.00  0.00     0.037 A 
ATOM     21  C   UNL d   1      -4.619   3.630  -0.860  0.00  0.00     0.045 A 
ATOM     22  C   UNL d   1      -5.836   4.009  -1.448  0.00  0.00     0.050 A 
ATOM     23  C   UNL d   1      -6.665   3.020  -1.994  0.00  0.00     0.032 A 
ATOM     24  C   UNL d   1      -6.266   1.674  -1.998  0.00  0.00     0.050 A 
ATOM     25  C   UNL d   1      -5.026   1.327  -1.429  0.00  0.00     0.045 A 
BRANCH  22  26
ATOM     26  C   UNL d   1      -6.176   5.477  -1.552  0.00  0.00     0.417 C 
ATOM     27  F   UNL d   1      -7.302   5.718  -2.283  0.00  0.00    -0.166 F 
ATOM     28  F   UNL d   1      -6.381   6.065  -0.343  0.00  0.00    -0.166 F 
ATOM     29  F   UNL d   1      -5.187   6.192  -2.159  0.00  0.00    -0.166 F 
ENDBRANCH  22  26
BRANCH  24  30
ATOM     30  C   UNL d   1      -7.119   0.613  -2.652  0.00  0.00     0.417 C 
ATOM     31  F   UNL d   1      -8.200   1.116  -3.310  0.00  0.00    -0.166 F 
ATOM     32  F   UNL d   1      -6.425  -0.107  -3.578  0.00  0.00    -0.166 F 
ATOM     33  F   UNL d   1      -7.609  -0.293  -1.763  0.00  0.00    -0.166 F 
ENDBRANCH  24  30
ENDBRANCH   3  20
TORSDOF 5
