REMARK  7 active torsions:
REMARK  status: ('A' for Active; 'I' for Inactive)
REMARK    1  A    between atoms: N_2  and  C_1 
REMARK    2  A    between atoms: N_4  and  C_1 
REMARK    3  A    between atoms: C_5  and  N_2 
REMARK    4  A    between atoms: C_14  and  N_4 
REMARK    5  A    between atoms: C_12  and  C_14 
REMARK    6  A    between atoms: C_15  and  C_12 
REMARK    7  A    between atoms: O_13  and  C_15 
ROOT
ATOM      1  C   UNL d   1       1.169  -0.047  -0.167  0.00  0.00     0.172 C 
ATOM      2  S   UNL d   1       0.352   1.068   0.770  0.00  0.00    -0.041 SA
ENDROOT
BRANCH   1   3
ATOM      3  N   UNL d   1       0.630  -0.990  -1.004  0.00  0.00    -0.333 N 
ATOM      4  H   UNL d   1       1.123  -1.879  -1.009  0.00  0.00     0.168 HD
BRANCH   3   5
ATOM      5  C   UNL d   1      -0.564  -0.934  -1.748  0.00  0.00     0.034 A 
ATOM      6  C   UNL d   1      -1.087   0.269  -2.231  0.00  0.00     0.032 A 
ATOM      7  C   UNL d   1      -2.215   0.265  -3.056  0.00  0.00     0.044 A 
ATOM      8  C   UNL d   1      -2.821  -0.940  -3.382  0.00  0.00     0.116 A 
ATOM      9  C   UNL d   1      -2.314  -2.145  -2.909  0.00  0.00     0.044 A 
ATOM     10  F   UNL d   1      -3.898  -0.945  -4.176  0.00  0.00    -0.206 F 
ATOM     11  C   UNL d   1      -1.170  -2.143  -2.107  0.00  0.00     0.032 A 
ENDBRANCH   3   5
ENDBRANCH   1   3
BRANCH   1  12
ATOM     12  N   UNL d   1       2.536  -0.082  -0.062  0.00  0.00    -0.367 N 
ATOM     13  H   UNL d   1       2.904   0.624   0.567  0.00  0.00     0.161 HD
BRANCH  12  14
ATOM     14  C   UNL d   1       3.442  -0.578  -1.087  0.00  0.00     0.124 C 
BRANCH  14  15
ATOM     15  C   UNL d   1       4.318  -1.723  -0.596  0.00  0.00     0.046 C 
BRANCH  15  16
ATOM     16  C   UNL d   1       3.540  -2.977  -0.213  0.00  0.00     0.168 C 
BRANCH  16  17
ATOM     17  O   UNL d   1       2.673  -3.357  -1.283  0.00  0.00    -0.396 OA
ATOM     18  C   UNL d   1       2.058  -4.617  -1.034  0.00  0.00     0.201 C 
ENDBRANCH  16  17
ENDBRANCH  15  16
ENDBRANCH  14  15
ENDBRANCH  12  14
ENDBRANCH   1  12
TORSDOF 7
