REMARK  5 active torsions:
REMARK  status: ('A' for Active; 'I' for Inactive)
REMARK    1  A    between atoms: C_6  and  C_1 
REMARK    2  A    between atoms: C_12  and  C_3 
REMARK    3  A    between atoms: C_8  and  C_11 
REMARK    4  A    between atoms: N_19  and  N_14 
REMARK    5  A    between atoms: C_16  and  N_19 
ROOT
ATOM      1  C   UNL d   1      -3.752  -4.366   0.016  0.00  0.00     0.103 A 
ATOM      2  S   UNL d   1      -2.073  -4.718  -0.033  0.00  0.00    -0.066 SA
ATOM      3  C   UNL d   1      -1.676  -3.043  -0.002  0.00  0.00     0.052 A 
ATOM      4  N   UNL d   1      -4.024  -3.078   0.050  0.00  0.00    -0.351 N 
ATOM      5  HN  UNL d   1      -4.967  -2.690   0.085  1.00  0.00     0.166 HD
ATOM      6  C   UNL d   1      -2.861  -2.315   0.034  0.00  0.00     0.025 A 
ATOM      7  C   UNL d   1      -3.034  -0.837   0.059  0.00  0.00     0.070 C 
ENDROOT
BRANCH   1   8
ATOM      8  C   UNL d   1      -4.738  -5.465   0.011  0.00  0.00     0.088 A 
ATOM      9  N   UNL d   1      -4.316  -6.616   0.621  0.00  0.00    -0.361 N 
ATOM     10  C   UNL d   1      -5.164  -7.668   0.665  0.00  0.00     0.104 A 
ATOM     11  HN  UNL d   1      -3.384  -6.678   1.033  1.00  0.00     0.165 HD
ATOM     12  C   UNL d   1      -6.439  -7.651   0.127  0.00  0.00     0.065 A 
ATOM     13  C   UNL d   1      -6.860  -6.471  -0.495  0.00  0.00     0.043 A 
ATOM     14  C   UNL d   1      -6.008  -5.362  -0.558  0.00  0.00     0.064 A 
ATOM     15 CL   UNL d   1      -6.592  -3.969  -1.392  0.00  0.00    -0.082 Cl
BRANCH  12  16
ATOM     16  C   UNL d   1      -7.300  -8.873   0.217  0.00  0.00     0.418 C 
ATOM     17  F   UNL d   1      -8.527  -8.714  -0.350  0.00  0.00    -0.166 F 
ATOM     18  F   UNL d   1      -6.739  -9.947  -0.402  0.00  0.00    -0.166 F 
ATOM     19  F   UNL d   1      -7.527  -9.256   1.502  0.00  0.00    -0.166 F 
ENDBRANCH  12  16
ENDBRANCH   1   8
BRANCH   3  20
ATOM     20  C   UNL d   1      -0.284  -2.588  -0.013  0.00  0.00     0.041 C 
ATOM     21  N   UNL d   1      -0.051  -1.302   0.032  0.00  0.00    -0.302 N 
ATOM     22  HN  UNL d   1      -0.819  -0.631   0.066  1.00  0.00     0.186 HD
ATOM     23  C   UNL d   1       0.854  -3.602  -0.071  0.00  0.00     0.071 C 
BRANCH  21  24
ATOM     24  N   UNL d   1       1.255  -0.879   0.032  0.00  0.00    -0.276 N 
ATOM     25  H   UNL d   1       2.026  -1.538   0.007  0.00  0.00     0.189 HD
BRANCH  24  26
ATOM     26  C   UNL d   1       1.598   0.440   0.081  0.00  0.00     0.184 C 
ATOM     27  S   UNL d   1       3.183   0.930   0.093  0.00  0.00    -0.040 SA
ATOM     28  N   UNL d   1       0.577   1.323   0.117  0.00  0.00    -0.375 N 
ATOM     29  H   UNL d   1      -0.364   0.954   0.120  0.00  0.00     0.158 HD
ATOM     30  H   UNL d   1       0.746   2.317   0.163  0.00  0.00     0.158 HD
ENDBRANCH  24  26
ENDBRANCH  21  24
ENDBRANCH   3  20
TORSDOF 5
