REMARK  2 active torsions:
REMARK  status: ('A' for Active; 'I' for Inactive)
REMARK    1  A    between atoms: N_2  and  S_1 
REMARK    2  A    between atoms: C_3  and  S_1 
ROOT
ATOM      1  S   UNL d   1       1.152   0.022  -0.056  0.00  0.00     0.260 S 
ATOM      2  O   UNL d   1       1.260   1.385  -0.526  0.00  0.00    -0.200 OA
ATOM      3  O   UNL d   1       2.317  -0.696   0.416  0.00  0.00    -0.200 OA
ENDROOT
BRANCH   1   4
ATOM      4  N   UNL d   1       0.408  -0.891  -1.300  0.00  0.00    -0.306 N 
ATOM      5  C   UNL d   1      -0.939  -0.420  -1.720  0.00  0.00     0.140 C 
ATOM      6  C   UNL d   1      -1.357  -1.076  -3.027  0.00  0.00     0.089 C 
ATOM      7  C   UNL d   1      -1.281  -2.595  -2.920  0.00  0.00     0.167 C 
ATOM      8  C   UNL d   1       0.124  -3.017  -2.508  0.00  0.00     0.089 C 
ATOM      9  O   UNL d   1      -1.606  -3.167  -4.199  0.00  0.00    -0.353 OA
ATOM     10  O   UNL d   1      -2.220  -3.071  -1.937  0.00  0.00    -0.353 OA
ATOM     11  C   UNL d   1       0.514  -2.366  -1.186  0.00  0.00     0.140 C 
ATOM     12  C   UNL d   1      -2.550  -4.198  -3.914  0.00  0.00     0.197 C 
ATOM     13  C   UNL d   1      -3.261  -3.691  -2.691  0.00  0.00     0.197 C 
ENDBRANCH   1   4
BRANCH   1  14
ATOM     14  C   UNL d   1      -0.058   0.017   1.260  0.00  0.00     0.080 A 
ATOM     15  C   UNL d   1      -0.121  -1.062   2.151  0.00  0.00     0.035 A 
ATOM     16  C   UNL d   1      -1.082  -1.013   3.149  0.00  0.00    -0.021 A 
ATOM     17  C   UNL d   1      -1.367  -1.975   4.237  0.00  0.00     0.068 C 
ATOM     18  C   UNL d   1      -1.920   0.085   3.284  0.00  0.00     0.075 A 
ATOM     19  C   UNL d   1      -2.687  -1.392   4.749  0.00  0.00     0.180 C 
ATOM     20  O   UNL d   1      -2.792  -0.010   4.336  0.00  0.00    -0.350 OA
ATOM     21  C   UNL d   1      -1.845   1.175   2.442  0.00  0.00     0.039 A 
ATOM     22  C   UNL d   1      -0.901   1.139   1.413  0.00  0.00     0.028 A 
ENDBRANCH   1  14
TORSDOF 2
