REMARK  3 active torsions:
REMARK  status: ('A' for Active; 'I' for Inactive)
REMARK    1  A    between atoms: C_2  and  C_1 
REMARK    2  A    between atoms: C_3  and  C_1 
REMARK    3  A    between atoms: C_4  and  C_2 
ROOT
ATOM      1  C   UNL d   1       1.017  -0.053  -0.061  0.00  0.00    -0.019 C 
ATOM      2  C   UNL d   1       1.833  -0.177  -1.132  0.00  0.00    -0.018 C 
ATOM      3  C   UNL d   1       2.660  -1.362  -1.528  0.00  0.00     0.037 C 
ENDROOT
BRANCH   1   4
ATOM      4  C   UNL d   1       0.283   1.207   0.171  0.00  0.00    -0.019 C 
ATOM      5  C   UNL d   1       0.964   2.360   0.357  0.00  0.00    -0.018 C 
ATOM      6  C   UNL d   1       0.408   3.722   0.641  0.00  0.00     0.037 C 
BRANCH   4   7
ATOM      7  C   UNL d   1      -1.195   1.225   0.231  0.00  0.00    -0.025 A 
ATOM      8  C   UNL d   1      -1.942   1.477  -0.927  0.00  0.00     0.012 A 
ATOM      9  C   UNL d   1      -3.336   1.521  -0.870  0.00  0.00     0.001 A 
ATOM     10  C   UNL d   1      -3.993   1.305   0.341  0.00  0.00     0.000 A 
ATOM     11  C   UNL d   1      -3.257   1.044   1.497  0.00  0.00     0.001 A 
ATOM     12  C   UNL d   1      -1.862   1.004   1.443  0.00  0.00     0.012 A 
ENDBRANCH   4   7
ENDBRANCH   1   4
BRANCH   1  13
ATOM     13  C   UNL d   1       0.883  -1.176   0.893  0.00  0.00    -0.025 A 
ATOM     14  C   UNL d   1       1.766  -1.282   1.976  0.00  0.00     0.012 A 
ATOM     15  C   UNL d   1       1.623  -2.316   2.903  0.00  0.00     0.001 A 
ATOM     16  C   UNL d   1       0.595  -3.247   2.755  0.00  0.00     0.000 A 
ATOM     17  C   UNL d   1      -0.286  -3.150   1.679  0.00  0.00     0.001 A 
ATOM     18  C   UNL d   1      -0.142  -2.119   0.748  0.00  0.00     0.012 A 
ENDBRANCH   1  13
TORSDOF 3
