REMARK  5 active torsions:
REMARK  status: ('A' for Active; 'I' for Inactive)
REMARK    1  A    between atoms: C_2  and  C_1 
REMARK       I    between atoms: N_6  and  C_2 
REMARK    2  A    between atoms: C_3  and  N_7 
REMARK    3  A    between atoms: N_5  and  C_3 
REMARK    4  A    between atoms: C_4  and  N_5 
REMARK    5  A    between atoms: N_7  and  N_6 
ROOT
ATOM      1  N   UNL d   1       1.903   3.889   0.325  0.00  0.00    -0.273 N 
ATOM      2  H   UNL d   1       1.284   3.870   1.132  0.00  0.00     0.189 HD
ENDROOT
BRANCH   1   3
ATOM      3  C   UNL d   1       2.350   5.080  -0.187  0.00  0.00     0.191 C 
ATOM      4  S   UNL d   1       3.795   5.285  -1.015  0.00  0.00    -0.039 SA
BRANCH   3   5
ATOM      5  N   UNL d   1       1.573   6.181   0.018  0.00  0.00    -0.331 N 
ATOM      6  H   UNL d   1       2.087   7.045  -0.107  0.00  0.00     0.168 HD
BRANCH   5   7
ATOM      7  C   UNL d   1       0.166   6.344   0.071  0.00  0.00     0.046 A 
ATOM      8  C   UNL d   1      -0.312   7.521   0.705  0.00  0.00    -0.035 A 
ATOM      9  C   UNL d   1      -1.687   7.822   0.690  0.00  0.00     0.009 A 
ATOM     10  C   UNL d   1       0.567   8.504   1.438  0.00  0.00     0.050 C 
ATOM     11  C   UNL d   1      -2.595   6.971   0.078  0.00  0.00     0.001 A 
ATOM     12  C   UNL d   1      -2.135   5.816  -0.540  0.00  0.00     0.009 A 
ATOM     13  C   UNL d   1      -0.760   5.497  -0.585  0.00  0.00    -0.035 A 
ATOM     14  C   UNL d   1      -0.423   4.292  -1.422  0.00  0.00     0.050 C 
ENDBRANCH   5   7
ENDBRANCH   3   5
ENDBRANCH   1   3
BRANCH   1  15
ATOM     15  N   UNL d   1       2.507   2.685  -0.053  0.00  0.00    -0.264 N 
ATOM     16  C   UNL d   1       2.390   1.571   0.749  0.00  0.00     0.271 C 
ATOM     17  O   UNL d   1       1.981   1.625   1.905  0.00  0.00    -0.266 OA
ATOM     18  H   UNL d   1       2.778   2.618  -1.029  0.00  0.00     0.190 HD
BRANCH  16  19
ATOM     19  C   UNL d   1       2.803   0.256   0.150  0.00  0.00     0.055 A 
ATOM     20  C   UNL d   1       2.849  -0.036  -1.223  0.00  0.00     0.049 A 
ATOM     21 CL   UNL d   1       2.407   1.075  -2.474  0.00  0.00    -0.083 Cl
ATOM     22  C   UNL d   1       3.233  -1.314  -1.659  0.00  0.00     0.025 A 
ATOM     23  C   UNL d   1       3.565  -2.307  -0.742  0.00  0.00     0.002 A 
ATOM     24  C   UNL d   1       3.515  -2.033   0.621  0.00  0.00     0.001 A 
ATOM     25  C   UNL d   1       3.137  -0.761   1.065  0.00  0.00     0.019 A 
ENDBRANCH  16  19
ENDBRANCH   1  15
TORSDOF 5
