REMARK  4 active torsions:
REMARK  status: ('A' for Active; 'I' for Inactive)
REMARK    1  A    between atoms: C_14  and  N_1 
REMARK    2  A    between atoms: S_12  and  C_7 
REMARK    3  A    between atoms: C_15  and  S_12 
REMARK    4  A    between atoms: C_17  and  C_15 
ROOT
ATOM      1  N   UNL d   1      -1.520  -1.129  -0.059  0.00  0.00    -0.239 N 
ATOM      2  C   UNL d   1      -0.209  -0.645  -0.020  0.00  0.00     0.142 A 
ATOM      3  N   UNL d   1      -2.420  -0.100  -0.148  0.00  0.00    -0.302 N 
ATOM      4  HN  UNL d   1      -3.436  -0.166  -0.209  1.00  0.00     0.186 HD
ATOM      5  C   UNL d   1      -0.303   0.739  -0.069  0.00  0.00     0.060 A 
ATOM      6  C   UNL d   1      -1.678   1.004  -0.137  0.00  0.00     0.126 A 
ATOM      7  C   UNL d   1       0.885   1.465  -0.038  0.00  0.00     0.086 A 
ATOM      8  N   UNL d   1       0.951  -1.335   0.050  0.00  0.00    -0.336 N 
ATOM      9  HN  UNL d   1       1.002  -2.353   0.084  1.00  0.00     0.168 HD
ATOM     10  N   UNL d   1       2.064   0.814   0.025  0.00  0.00    -0.346 N 
ATOM     11  HN  UNL d   1       2.949   1.322   0.039  1.00  0.00     0.167 HD
ATOM     12  C   UNL d   1       2.028  -0.531   0.070  0.00  0.00     0.183 A 
ENDROOT
BRANCH   7  13
ATOM     13  S   UNL d   1       0.802   3.228  -0.006  0.00  0.00    -0.107 SA
BRANCH  13  14
ATOM     14  C   UNL d   1       2.326   3.668  -0.899  0.00  0.00     0.119 C 
BRANCH  14  15
ATOM     15  C   UNL d   1       2.414   5.169  -1.075  0.00  0.00    -0.048 A 
ATOM     16  C   UNL d   1       2.975   5.970  -0.064  0.00  0.00     0.011 A 
ATOM     17  C   UNL d   1       3.023   7.358  -0.204  0.00  0.00     0.043 A 
ATOM     18  C   UNL d   1       2.508   7.950  -1.350  0.00  0.00     0.116 A 
ATOM     19  C   UNL d   1       1.943   7.181  -2.359  0.00  0.00     0.043 A 
ATOM     20  F   UNL d   1       2.551   9.283  -1.482  0.00  0.00    -0.206 F 
ATOM     21  C   UNL d   1       1.892   5.791  -2.222  0.00  0.00     0.011 A 
ENDBRANCH  14  15
ENDBRANCH  13  14
ENDBRANCH   7  13
BRANCH   1  22
ATOM     22  C   UNL d   1      -2.003  -2.473  -0.021  0.00  0.00     0.058 A 
ATOM     23  C   UNL d   1      -1.147  -3.570   0.133  0.00  0.00     0.031 A 
ATOM     24  C   UNL d   1      -1.668  -4.869   0.165  0.00  0.00     0.002 A 
ATOM     25  C   UNL d   1      -3.039  -5.085   0.042  0.00  0.00     0.000 A 
ATOM     26  C   UNL d   1      -3.900  -4.002  -0.110  0.00  0.00     0.002 A 
ATOM     27  C   UNL d   1      -3.387  -2.704  -0.139  0.00  0.00     0.031 A 
ENDBRANCH   1  22
TORSDOF 4
