REMARK  8 active torsions:
REMARK  status: ('A' for Active; 'I' for Inactive)
REMARK    1  A    between atoms: C_2  and  C_1 
REMARK    2  A    between atoms: C_23  and  N_4 
REMARK    3  A    between atoms: S_19  and  C_10 
REMARK    4  A    between atoms: C_20  and  C_11 
REMARK    5  A    between atoms: C_22  and  C_18 
REMARK    6  A    between atoms: C_26  and  S_19 
REMARK    7  A    between atoms: C_24  and  C_23 
REMARK    8  A    between atoms: C_28  and  C_26 
ROOT
ATOM      1  C   UNL d   1      -2.596  -0.677  -0.021  0.00  0.00     0.080 A 
ATOM      2  C   UNL d   1      -0.232  -0.986  -0.157  0.00  0.00     0.040 A 
ATOM      3  C   UNL d   1      -1.548  -1.592  -0.031  0.00  0.00     0.061 A 
ATOM      4  C   UNL d   1      -0.392   0.392  -0.195  0.00  0.00     0.103 A 
ATOM      5  S   UNL d   1      -2.001   0.916  -0.137  0.00  0.00    -0.064 SA
ATOM      6  C   UNL d   1       1.120  -1.457  -0.220  0.00  0.00     0.018 A 
ATOM      7  N   UNL d   1       1.830   0.872  -0.312  0.00  0.00    -0.298 N 
ATOM      8  HN  UNL d   1       2.591   1.550  -0.356  1.00  0.00     0.187 HD
ATOM      9  N   UNL d   1       0.593   1.300  -0.267  0.00  0.00    -0.292 N 
ATOM     10  HN  UNL d   1       0.383   2.298  -0.287  1.00  0.00     0.187 HD
ATOM     11  C   UNL d   1       2.124  -0.457  -0.302  0.00  0.00     0.070 A 
ATOM     12  N   UNL d   1      -1.779  -2.926   0.087  0.00  0.00    -0.397 N 
ATOM     13  H   UNL d   1      -1.060  -3.542   0.462  0.00  0.00     0.156 HD
ATOM     14  H   UNL d   1      -2.708  -3.236   0.388  0.00  0.00     0.156 HD
ENDROOT
BRANCH   1  15
ATOM     15  C   UNL d   1      -3.993  -0.967   0.198  0.00  0.00     0.144 A 
ATOM     16  N   UNL d   1      -5.118  -0.359  -0.326  0.00  0.00    -0.307 N 
ATOM     17  C   UNL d   1      -6.179  -0.968   0.298  0.00  0.00     0.163 A 
ATOM     18  N   UNL d   1      -5.751  -1.933   1.071  0.00  0.00    -0.278 N 
ATOM     19  N   UNL d   1      -4.383  -1.946   0.998  0.00  0.00    -0.282 N 
ATOM     20  HN  UNL d   1      -6.330  -2.561   1.627  1.00  0.00     0.189 HD
ATOM     21  HN  UNL d   1      -3.768  -2.601   1.481  1.00  0.00     0.188 HD
BRANCH  16  22
ATOM     22  C   UNL d   1      -5.186   0.596  -1.421  0.00  0.00     0.159 C 
BRANCH  22  23
ATOM     23  C   UNL d   1      -5.254   2.045  -1.028  0.00  0.00    -0.017 C 
ATOM     24  C   UNL d   1      -5.208   2.576   0.203  0.00  0.00     0.008 C 
ENDBRANCH  22  23
ENDBRANCH  16  22
BRANCH  17  25
ATOM     25  S   UNL d   1      -7.835  -0.510   0.089  0.00  0.00    -0.088 SA
BRANCH  25  26
ATOM     26  C   UNL d   1      -8.612  -1.525   1.388  0.00  0.00     0.121 C 
BRANCH  26  27
ATOM     27  C   UNL d   1     -10.091  -1.242   1.506  0.00  0.00    -0.048 A 
ATOM     28  C   UNL d   1     -11.019  -1.964   0.739  0.00  0.00     0.009 A 
ATOM     29  C   UNL d   1     -12.387  -1.696   0.844  0.00  0.00     0.024 A 
ATOM     30  C   UNL d   1     -12.833  -0.702   1.709  0.00  0.00     0.034 A 
ATOM     31  C   UNL d   1     -11.926   0.028   2.474  0.00  0.00     0.024 A 
ATOM     32 CL   UNL d   1     -14.518  -0.370   1.835  0.00  0.00    -0.084 Cl
ATOM     33  C   UNL d   1     -10.558  -0.239   2.370  0.00  0.00     0.009 A 
ENDBRANCH  26  27
ENDBRANCH  25  26
ENDBRANCH  17  25
ENDBRANCH   1  15
BRANCH   6  34
ATOM     34  C   UNL d   1       1.410  -2.905  -0.183  0.00  0.00    -0.023 A 
ATOM     35  C   UNL d   1       0.868  -3.779  -1.143  0.00  0.00     0.012 A 
ATOM     36  C   UNL d   1       1.153  -5.147  -1.125  0.00  0.00     0.001 A 
ATOM     37  C   UNL d   1       2.033  -5.663  -0.180  0.00  0.00     0.000 A 
ATOM     38  C   UNL d   1       2.607  -4.816   0.764  0.00  0.00     0.001 A 
ATOM     39  C   UNL d   1       2.279  -3.456   0.777  0.00  0.00     0.012 A 
ENDBRANCH   6  34
BRANCH  11  40
ATOM     40  C   UNL d   1       3.590  -0.704  -0.370  0.00  0.00    -0.007 A 
ATOM     41  C   UNL d   1       4.158  -1.700  -1.185  0.00  0.00     0.014 A 
ATOM     42  C   UNL d   1       5.536  -1.943  -1.188  0.00  0.00     0.001 A 
ATOM     43  C   UNL d   1       6.387  -1.163  -0.412  0.00  0.00     0.000 A 
ATOM     44  C   UNL d   1       5.862  -0.137   0.366  0.00  0.00     0.001 A 
ATOM     45  C   UNL d   1       4.479   0.085   0.388  0.00  0.00     0.014 A 
ENDBRANCH  11  40
TORSDOF 8
