REMARK  6 active torsions:
REMARK  status: ('A' for Active; 'I' for Inactive)
REMARK    1  A    between atoms: C_3  and  N_1 
REMARK    2  A    between atoms: C_2  and  N_10 
REMARK    3  A    between atoms: N_4  and  C_2 
REMARK    4  A    between atoms: C_12  and  N_4 
REMARK    5  A    between atoms: N_10  and  N_5 
REMARK    6  A    between atoms: C_13  and  C_14 
ROOT
ATOM      1  N   UNL d   1       1.401  -0.140   5.072  0.00  0.00    -0.309 N 
ATOM      2  HN  UNL d   1       2.055  -0.150   4.289  1.00  0.00     0.186 HD
ATOM      3  C   UNL d   1       0.134  -0.311   4.889  0.00  0.00     0.118 C 
ENDROOT
BRANCH   1   4
ATOM      4  N   UNL d   1       1.833   0.053   6.348  0.00  0.00    -0.277 N 
ATOM      5  H   UNL d   1       1.306  -0.339   7.117  0.00  0.00     0.189 HD
BRANCH   4   6
ATOM      6  C   UNL d   1       2.960   0.793   6.589  0.00  0.00     0.187 C 
ATOM      7  S   UNL d   1       3.565   1.987   5.580  0.00  0.00    -0.040 SA
BRANCH   6   8
ATOM      8  N   UNL d   1       3.672   0.540   7.723  0.00  0.00    -0.358 N 
ATOM      9  H   UNL d   1       4.459   1.179   7.779  0.00  0.00     0.162 HD
BRANCH   8  10
ATOM     10  C   UNL d   1       3.835  -0.707   8.500  0.00  0.00     0.021 C 
ATOM     11  C   UNL d   1       3.887  -1.948   7.592  0.00  0.00     0.037 C 
ATOM     12  C   UNL d   1       5.189  -0.606   9.237  0.00  0.00     0.037 C 
ATOM     13  C   UNL d   1       2.732  -0.862   9.552  0.00  0.00     0.037 C 
ENDBRANCH   8  10
ENDBRANCH   6   8
ENDBRANCH   4   6
ENDBRANCH   1   4
BRANCH   3  14
ATOM     14  C   UNL d   1      -0.368  -0.603   3.529  0.00  0.00    -0.017 A 
ATOM     15  C   UNL d   1      -1.632  -0.160   3.136  0.00  0.00     0.048 A 
ATOM     16  C   UNL d   1      -2.062  -0.424   1.825  0.00  0.00     0.103 A 
ATOM     17  C   UNL d   1      -1.253  -1.148   0.931  0.00  0.00     0.036 A 
ATOM     18  C   UNL d   1       0.000  -1.595   1.345  0.00  0.00     0.003 A 
ATOM     19  C   UNL d   1       0.446  -1.315   2.637  0.00  0.00     0.013 A 
BRANCH  16  20
ATOM     20  N   UNL d   1      -3.366   0.073   1.369  0.00  0.00    -0.116 N 
ATOM     21  O   UNL d   1      -4.052   0.708   2.184  0.00  0.00    -0.532 OA
ATOM     22  O   UNL d   1      -3.704  -0.170   0.204  0.00  0.00    -0.532 OA
ENDBRANCH  16  20
ENDBRANCH   3  14
TORSDOF 6
