REMARK  7 active torsions:
REMARK  status: ('A' for Active; 'I' for Inactive)
REMARK    1  A    between atoms: C_3  and  N_1 
REMARK    2  A    between atoms: C_5  and  C_2 
REMARK    3  A    between atoms: C_4  and  C_8 
REMARK       I    between atoms: N_7  and  C_5 
REMARK    4  A    between atoms: C_6  and  N_9 
REMARK    5  A    between atoms: N_10  and  C_6 
REMARK    6  A    between atoms: N_9  and  N_7 
REMARK    7  A    between atoms: C_15  and  N_10 
ROOT
ATOM      1  N   UNL d   1       1.625   3.035   4.335  0.00  0.00    -0.273 N 
ATOM      2  H   UNL d   1       1.032   2.431   4.910  0.00  0.00     0.189 HD
ENDROOT
BRANCH   1   3
ATOM      3  C   UNL d   1       2.341   4.005   4.997  0.00  0.00     0.191 C 
ATOM      4  S   UNL d   1       3.769   4.680   4.435  0.00  0.00    -0.039 SA
BRANCH   3   5
ATOM      5  N   UNL d   1       1.881   4.385   6.227  0.00  0.00    -0.332 N 
ATOM      6  H   UNL d   1       2.590   4.826   6.804  0.00  0.00     0.168 HD
BRANCH   5   7
ATOM      7  C   UNL d   1       0.579   4.383   6.764  0.00  0.00     0.035 A 
ATOM      8  C   UNL d   1      -0.577   4.403   5.974  0.00  0.00     0.045 A 
ATOM      9  C   UNL d   1      -1.845   4.537   6.569  0.00  0.00     0.050 A 
ATOM     10  C   UNL d   1      -1.946   4.593   7.968  0.00  0.00     0.016 A 
ATOM     11  C   UNL d   1      -0.797   4.558   8.755  0.00  0.00     0.003 A 
ATOM     12  C   UNL d   1       0.457   4.478   8.153  0.00  0.00     0.029 A 
BRANCH   9  13
ATOM     13  C   UNL d   1      -3.094   4.677   5.732  0.00  0.00     0.417 C 
ATOM     14  F   UNL d   1      -2.865   4.627   4.389  0.00  0.00    -0.166 F 
ATOM     15  F   UNL d   1      -4.014   3.707   5.992  0.00  0.00    -0.166 F 
ATOM     16  F   UNL d   1      -3.730   5.861   5.955  0.00  0.00    -0.166 F 
ENDBRANCH   9  13
ENDBRANCH   5   7
ENDBRANCH   3   5
ENDBRANCH   1   3
BRANCH   1  17
ATOM     17  N   UNL d   1       2.209   2.359   3.238  0.00  0.00    -0.264 N 
ATOM     18  C   UNL d   1       1.992   0.995   3.143  0.00  0.00     0.272 C 
ATOM     19  O   UNL d   1       1.237   0.390   3.902  0.00  0.00    -0.266 OA
ATOM     20  H   UNL d   1       2.991   2.827   2.785  0.00  0.00     0.190 HD
BRANCH  18  21
ATOM     21  C   UNL d   1       2.671   0.274   2.033  0.00  0.00     0.066 A 
ATOM     22  C   UNL d   1       2.974  -1.090   2.122  0.00  0.00     0.118 A 
ATOM     23  C   UNL d   1       3.450  -1.814   1.017  0.00  0.00     0.037 A 
ATOM     24  C   UNL d   1       3.650  -1.155  -0.195  0.00  0.00     0.002 A 
ATOM     25  C   UNL d   1       3.388   0.211  -0.294  0.00  0.00     0.001 A 
ATOM     26  C   UNL d   1       2.893   0.925   0.807  0.00  0.00     0.020 A 
BRANCH  22  27
ATOM     27  N   UNL d   1       2.892  -1.792   3.387  0.00  0.00    -0.115 N 
ATOM     28  O   UNL d   1       3.627  -1.379   4.295  0.00  0.00    -0.532 OA
ATOM     29  O   UNL d   1       2.191  -2.813   3.425  0.00  0.00    -0.532 OA
ENDBRANCH  22  27
ENDBRANCH  18  21
ENDBRANCH   1  17
TORSDOF 7
