REMARK  5 active torsions:
REMARK  status: ('A' for Active; 'I' for Inactive)
REMARK       I    between atoms: N_2  and  C_1 
REMARK       I    between atoms: N_3  and  C_1 
REMARK    1  A    between atoms: C_7  and  N_2 
REMARK    2  A    between atoms: C_14  and  N_2 
REMARK    3  A    between atoms: C_8  and  N_3 
REMARK    4  A    between atoms: C_10  and  C_7 
REMARK    5  A    between atoms: C_9  and  C_14 
ROOT
ATOM      1  N   UNL d   1       2.728  -5.267  -0.096  0.00  0.00    -0.197 NA
ATOM      2  C   UNL d   1       2.083  -4.323  -0.272  0.00  0.00     0.060 C 
ATOM      3  C   UNL d   1       1.275  -3.124  -0.527  0.00  0.00     0.144 C 
ENDROOT
BRANCH   3   4
ATOM      4  C   UNL d   1       0.901  -2.406   0.767  0.00  0.00     0.142 C 
BRANCH   4   5
ATOM      5  N   UNL d   1       0.157  -1.160   0.506  0.00  0.00    -0.329 N 
ATOM      6  C   UNL d   1       0.715   0.122   0.489  0.00  0.00     0.323 C 
ATOM      7  N   UNL d   1       2.090   0.155   0.527  0.00  0.00    -0.309 N 
ATOM      8  O   UNL d   1       0.012   1.129   0.409  0.00  0.00    -0.247 OA
ATOM      9  H   UNL d   1       2.571  -0.647   0.156  0.00  0.00     0.170 HD
BRANCH   7  10
ATOM     10  C   UNL d   1       2.902   1.282   0.774  0.00  0.00     0.036 A 
ATOM     11  C   UNL d   1       2.446   2.431   1.425  0.00  0.00     0.030 A 
ATOM     12  C   UNL d   1       3.344   3.447   1.774  0.00  0.00     0.009 A 
ATOM     13  C   UNL d   1       4.706   3.331   1.472  0.00  0.00    -0.062 A 
ATOM     14  C   UNL d   1       5.145   2.217   0.751  0.00  0.00     0.009 A 
ATOM     15  C   UNL d   1       5.675   4.381   1.929  0.00  0.00     0.048 C 
ATOM     16  C   UNL d   1       4.253   1.195   0.420  0.00  0.00     0.030 A 
ENDBRANCH   7  10
BRANCH   5  17
ATOM     17  C   UNL d   1      -1.268  -1.277   0.181  0.00  0.00     0.166 C 
BRANCH  17  18
ATOM     18  C   UNL d   1      -2.135  -1.756   1.322  0.00  0.00    -0.040 A 
ATOM     19  C   UNL d   1      -2.369  -0.930   2.432  0.00  0.00     0.009 A 
ATOM     20  C   UNL d   1      -3.228  -1.342   3.451  0.00  0.00     0.001 A 
ATOM     21  C   UNL d   1      -3.859  -2.583   3.378  0.00  0.00     0.000 A 
ATOM     22  C   UNL d   1      -3.626  -3.417   2.286  0.00  0.00     0.001 A 
ATOM     23  C   UNL d   1      -2.769  -3.006   1.263  0.00  0.00     0.009 A 
ENDBRANCH  17  18
ENDBRANCH   5  17
ENDBRANCH   4   5
ENDBRANCH   3   4
TORSDOF 5
