REMARK  5 active torsions:
REMARK  status: ('A' for Active; 'I' for Inactive)
REMARK    1  A    between atoms: S_15  and  C_3 
REMARK    2  A    between atoms: C_14  and  C_19 
REMARK       I    between atoms: N_18  and  C_14 
REMARK    3  A    between atoms: C_19  and  S_15 
REMARK    4  A    between atoms: C_23  and  N_18 
REMARK    5  A    between atoms: C_24  and  N_18 
ROOT
ATOM      1  N   UNL d   1       0.998   0.529  -0.001  0.00  0.00    -0.120 N 
ATOM      2  C   UNL d   1       1.743  -0.637  -0.008  0.00  0.00     0.720 A 
ATOM      3  C   UNL d   1       1.930   1.547   0.010  0.00  0.00     0.183 A 
ATOM      4  N   UNL d   1       3.026  -0.325  -0.014  0.00  0.00    -0.128 N 
ATOM      5  HN  UNL d   1       3.800  -0.989  -0.024  1.00  0.00     0.205 HD
ATOM      6  N   UNL d   1       1.145  -1.859  -0.010  0.00  0.00    -0.130 N 
ATOM      7  HN  UNL d   1       1.731  -2.694  -0.018  1.00  0.00     0.205 HD
ATOM      8  N   UNL d   1       3.144   1.044  -0.003  0.00  0.00    -0.265 N 
ATOM      9  HN  UNL d   1       4.015   1.573  -0.004  1.00  0.00     0.189 HD
ATOM     10  N   UNL d   1      -0.106  -1.994  -0.003  0.00  0.00    -0.284 N 
ATOM     11  HN  UNL d   1      -0.525  -2.925   0.002  1.00  0.00     0.187 HD
ATOM     12  C   UNL d   1      -0.409   0.462  -0.000  0.00  0.00     0.087 A 
ATOM     13  C   UNL d   1      -0.925  -0.843  -0.002  0.00  0.00     0.077 A 
ATOM     14  C   UNL d   1      -1.268   1.562  -0.001  0.00  0.00     0.034 A 
ATOM     15  C   UNL d   1      -2.316  -1.020  -0.002  0.00  0.00     0.040 A 
ATOM     16  C   UNL d   1      -2.651   1.365  -0.002  0.00  0.00     0.009 A 
ATOM     17  C   UNL d   1      -3.189   0.077  -0.002  0.00  0.00    -0.060 A 
ATOM     18  C   UNL d   1      -4.675  -0.130  -0.002  0.00  0.00     0.048 C 
ENDROOT
BRANCH   3  19
ATOM     19  S   UNL d   1       1.560   3.228   0.054  0.00  0.00    -0.082 SA
BRANCH  19  20
ATOM     20  C   UNL d   1       3.165   4.079  -0.026  0.00  0.00     0.185 C 
BRANCH  20  21
ATOM     21  C   UNL d   1       2.929   5.600  -0.017  0.00  0.00     0.229 C 
ATOM     22  N   UNL d   1       4.042   6.441   0.015  0.00  0.00    -0.352 N 
ATOM     23  O   UNL d   1       1.794   6.085  -0.028  0.00  0.00    -0.273 OA
BRANCH  22  24
ATOM     24  C   UNL d   1       3.802   7.885   0.123  0.00  0.00     0.121 C 
ATOM     25  C   UNL d   1       3.667   8.554  -1.236  0.00  0.00     0.026 C 
ENDBRANCH  22  24
BRANCH  22  26
ATOM     26  C   UNL d   1       5.433   6.004  -0.098  0.00  0.00     0.121 C 
ATOM     27  C   UNL d   1       6.103   5.882   1.261  0.00  0.00     0.026 C 
ENDBRANCH  22  26
ENDBRANCH  20  21
ENDBRANCH  19  20
ENDBRANCH   3  19
TORSDOF 5
