REMARK  5 active torsions:
REMARK  status: ('A' for Active; 'I' for Inactive)
REMARK    1  A    between atoms: C_3  and  C_1 
REMARK    2  A    between atoms: C_2  and  C_11 
REMARK    3  A    between atoms: N_15  and  C_3 
REMARK    4  A    between atoms: O_10  and  C_6 
REMARK    5  A    between atoms: C_11  and  O_10 
ROOT
ATOM      1  C   UNL d   1       0.714   1.249   0.001  0.00  0.00     0.017 A 
ATOM      2  N   UNL d   1      -1.303  -0.109   0.015  0.00  0.00    -0.346 N 
ATOM      3  HN  UNL d   1      -2.321  -0.167   0.031  1.00  0.00     0.167 HD
ATOM      4  C   UNL d   1      -0.544  -1.221   0.002  0.00  0.00     0.142 A 
ATOM      5  C   UNL d   1      -0.666   1.094   0.006  0.00  0.00     0.104 A 
ATOM      6  C   UNL d   1       1.476   0.078  -0.010  0.00  0.00     0.020 A 
ATOM      7  C   UNL d   1       0.843  -1.169  -0.007  0.00  0.00     0.057 A 
ENDROOT
BRANCH   4   8
ATOM      8  O   UNL d   1      -1.273  -2.372   0.073  0.00  0.00    -0.327 OA
BRANCH   8   9
ATOM      9  C   UNL d   1      -0.731  -3.505  -0.610  0.00  0.00     0.294 C 
BRANCH   9  10
ATOM     10  C   UNL d   1      -1.671  -4.706  -0.532  0.00  0.00     0.408 C 
ATOM     11  F   UNL d   1      -2.836  -4.435   0.092  0.00  0.00    -0.169 F 
ATOM     12  F   UNL d   1      -1.967  -5.168  -1.769  0.00  0.00    -0.169 F 
ATOM     13  F   UNL d   1      -1.079  -5.724   0.141  0.00  0.00    -0.169 F 
ENDBRANCH   9  10
ENDBRANCH   8   9
ENDBRANCH   4   8
BRANCH   1  14
ATOM     14  C   UNL d   1       1.353   2.591   0.003  0.00  0.00     0.105 C 
ATOM     15  S   UNL d   1       0.693   3.981  -0.650  0.00  0.00    -0.060 SA
BRANCH  14  16
ATOM     16  N   UNL d   1       2.591   2.694   0.591  0.00  0.00    -0.389 N 
ATOM     17  H   UNL d   1       3.042   1.953   1.111  0.00  0.00     0.157 HD
ATOM     18  H   UNL d   1       3.022   3.610   0.636  0.00  0.00     0.157 HD
ENDBRANCH  14  16
ENDBRANCH   1  14
TORSDOF 5
