REMARK  1 active torsions:
REMARK  status: ('A' for Active; 'I' for Inactive)
REMARK    1  A    between atoms: C_8  and  C_3 
ROOT
ATOM      1  N   UNL d   1      -1.869  -1.507  -0.263  0.00  0.00    -0.296 N 
ATOM      2  HN  UNL d   1      -2.605  -2.204  -0.376  1.00  0.00     0.187 HD
ATOM      3  C   UNL d   1      -0.624  -1.871  -0.155  0.00  0.00     0.070 A 
ATOM      4  N   UNL d   1      -2.173  -0.183  -0.222  0.00  0.00    -0.265 N 
ATOM      5  C   UNL d   1       0.480  -0.878   0.017  0.00  0.00     0.009 A 
ATOM      6  C   UNL d   1      -1.276   0.850  -0.167  0.00  0.00     0.271 A 
ATOM      7  C   UNL d   1       0.140   0.472  -0.052  0.00  0.00     0.046 A 
ATOM      8  O   UNL d   1      -1.624   2.028  -0.196  0.00  0.00    -0.266 OA
ATOM      9  C   UNL d   1       1.821  -1.225   0.237  0.00  0.00     0.015 A 
ATOM     10  C   UNL d   1       1.125   1.469   0.019  0.00  0.00     0.018 A 
ATOM     11  C   UNL d   1       2.808  -0.231   0.298  0.00  0.00     0.001 A 
ATOM     12  C   UNL d   1       2.462   1.112   0.175  0.00  0.00     0.001 A 
ATOM     13  H   UNL d   1      -3.156   0.058  -0.302  0.00  0.00     0.190 HD
ENDROOT
BRANCH   3  14
ATOM     14  C   UNL d   1      -0.336  -3.337  -0.258  0.00  0.00    -0.001 A 
ATOM     15  C   UNL d   1      -1.045  -4.295   0.500  0.00  0.00    -0.050 A 
ATOM     16  C   UNL d   1      -2.163  -3.952   1.444  0.00  0.00     0.049 C 
ATOM     17  C   UNL d   1      -0.745  -5.657   0.316  0.00  0.00     0.007 A 
ATOM     18  C   UNL d   1       0.241  -6.065  -0.582  0.00  0.00     0.001 A 
ATOM     19  C   UNL d   1       0.920  -5.120  -1.342  0.00  0.00     0.001 A 
ATOM     20  C   UNL d   1       0.618  -3.766  -1.198  0.00  0.00     0.014 A 
ENDBRANCH   3  14
TORSDOF 1
