REMARK  5 active torsions:
REMARK  status: ('A' for Active; 'I' for Inactive)
REMARK    1  A    between atoms: S_13  and  C_7 
REMARK    2  A    between atoms: N_14  and  C_8 
REMARK    3  A    between atoms: C_15  and  C_9 
REMARK    4  A    between atoms: O_10  and  C_15 
REMARK    5  A    between atoms: C_11  and  O_10 
ROOT
ATOM      1  N   UNL d   1      -0.179   1.298  -0.114  0.00  0.00    -0.313 N 
ATOM      2  HN  UNL d   1      -0.640   2.208  -0.118  1.00  0.00     0.170 HD
ATOM      3  N   UNL d   1       0.872  -0.441   1.064  0.00  0.00    -0.321 N 
ATOM      4  HN  UNL d   1       1.198  -0.835   1.946  1.00  0.00     0.169 HD
ATOM      5  N   UNL d   1       0.585  -0.609  -1.275  0.00  0.00    -0.325 N 
ATOM      6  HN  UNL d   1       0.704  -1.123  -2.148  1.00  0.00     0.169 HD
ATOM      7  C   UNL d   1      -0.003   0.583  -1.220  0.00  0.00     0.147 A 
ATOM      8  C   UNL d   1       0.284   0.743   0.991  0.00  0.00     0.158 A 
ATOM      9  C   UNL d   1       1.009  -1.082  -0.099  0.00  0.00     0.110 A 
ENDROOT
BRANCH   9  10
ATOM     10  C   UNL d   1       1.795  -2.377  -0.112  0.00  0.00     0.252 C 
BRANCH  10  11
ATOM     11  O   UNL d   1       0.932  -3.514   0.017  0.00  0.00    -0.342 OA
BRANCH  11  12
ATOM     12  C   UNL d   1       1.560  -4.736  -0.046  0.00  0.00     0.090 A 
ATOM     13  C   UNL d   1       1.044  -5.789   0.724  0.00  0.00     0.067 A 
ATOM     14 CL   UNL d   1      -0.302  -5.556   1.784  0.00  0.00    -0.081 Cl
ATOM     15  C   UNL d   1       1.618  -7.065   0.664  0.00  0.00     0.026 A 
ATOM     16  C   UNL d   1       2.707  -7.302  -0.175  0.00  0.00     0.002 A 
ATOM     17  C   UNL d   1       3.217  -6.269  -0.955  0.00  0.00     0.003 A 
ATOM     18  C   UNL d   1       2.642  -4.995  -0.897  0.00  0.00     0.038 A 
ENDBRANCH  11  12
ENDBRANCH  10  11
ENDBRANCH   9  10
BRANCH   8  19
ATOM     19  N   UNL d   1       0.141   1.455   2.165  0.00  0.00    -0.274 NA
ATOM     20  H   UNL d   1       0.120   0.831   2.958  0.00  0.00     0.127 HD
ATOM     21  H   UNL d   1      -0.611   2.124   2.079  0.00  0.00     0.127 HD
ENDBRANCH   8  19
BRANCH   7  22
ATOM     22  S   UNL d   1      -0.575   1.336  -2.729  0.00  0.00    -0.098 SA
ATOM     23  C   UNL d   1      -0.049   0.104  -3.944  0.00  0.00     0.099 C 
ENDBRANCH   7  22
TORSDOF 5
