REMARK  5 active torsions:
REMARK  status: ('A' for Active; 'I' for Inactive)
REMARK    1  A    between atoms: C_2  and  C_1 
REMARK    2  A    between atoms: C_4  and  C_2 
REMARK    3  A    between atoms: N_7  and  C_3 
REMARK    4  A    between atoms: C_10  and  N_7 
REMARK    5  A    between atoms: O_16  and  C_12 
ROOT
ATOM      1  C   UNL d   1       0.948  -0.063  -0.066  0.00  0.00     0.072 C 
ATOM      2  C   UNL d   1       2.272  -0.182   0.073  0.00  0.00     0.092 C 
ENDROOT
BRANCH   1   3
ATOM      3  C   UNL d   1       0.242   1.135   0.467  0.00  0.00     0.183 C 
ATOM      4  O   UNL d   1       0.733   1.857   1.329  0.00  0.00    -0.288 OA
BRANCH   3   5
ATOM      5  C   UNL d   1      -1.118   1.414  -0.072  0.00  0.00     0.014 A 
ATOM      6  C   UNL d   1      -2.042   2.083   0.740  0.00  0.00     0.018 A 
ATOM      7  C   UNL d   1      -3.339   2.341   0.277  0.00  0.00     0.037 A 
ATOM      8  C   UNL d   1      -3.718   1.941  -1.004  0.00  0.00     0.068 A 
ATOM      9  C   UNL d   1      -2.784   1.307  -1.827  0.00  0.00     0.037 A 
ATOM     10  C   UNL d   1      -1.489   1.048  -1.372  0.00  0.00     0.018 A 
BRANCH   8  11
ATOM     11  O   UNL d   1      -4.949   2.109  -1.574  0.00  0.00    -0.356 OA
ATOM     12  C   UNL d   1      -5.955   2.714  -0.773  0.00  0.00     0.210 C 
ENDBRANCH   8  11
ENDBRANCH   3   5
ENDBRANCH   1   3
BRANCH   2  13
ATOM     13  N   UNL d   1       3.055  -1.192  -0.432  0.00  0.00    -0.366 N 
ATOM     14  H   UNL d   1       2.599  -1.859  -1.044  0.00  0.00     0.165 HD
BRANCH  13  15
ATOM     15  C   UNL d   1       4.446  -1.338  -0.298  0.00  0.00     0.033 A 
ATOM     16  C   UNL d   1       5.160  -0.809   0.783  0.00  0.00     0.053 A 
ATOM     17  C   UNL d   1       6.551  -0.914   0.835  0.00  0.00     0.036 A 
ATOM     18 CL   UNL d   1       7.405  -0.280   2.189  0.00  0.00    -0.084 Cl
ATOM     19  C   UNL d   1       7.256  -1.524  -0.199  0.00  0.00     0.024 A 
ATOM     20  C   UNL d   1       6.561  -2.045  -1.288  0.00  0.00     0.004 A 
ATOM     21  C   UNL d   1       5.167  -1.954  -1.333  0.00  0.00     0.029 A 
ENDBRANCH  13  15
ENDBRANCH   2  13
TORSDOF 5
