REMARK  9 active torsions:
REMARK  status: ('A' for Active; 'I' for Inactive)
REMARK    1  A    between atoms: C_9  and  C_1 
REMARK    2  A    between atoms: C_8  and  C_2 
REMARK    3  A    between atoms: C_7  and  C_3 
REMARK    4  A    between atoms: O_16  and  C_8 
REMARK    5  A    between atoms: O_17  and  C_9 
REMARK    6  A    between atoms: O_21  and  C_10 
REMARK    7  A    between atoms: O_22  and  C_15 
REMARK    8  A    between atoms: C_24  and  O_16 
REMARK    9  A    between atoms: C_23  and  O_17 
ROOT
ATOM      1  C   UNL d   1      -1.247  -1.055   0.252  0.00  0.00     0.052 C 
ATOM      2  C   UNL d   1       1.334  -1.025   0.171  0.00  0.00     0.052 C 
ATOM      3  C   UNL d   1       0.045  -1.857  -0.069  0.00  0.00     0.103 C 
ATOM      4  C   UNL d   1      -1.198   0.296   0.383  0.00  0.00     0.018 C 
ATOM      5  C   UNL d   1       1.256   0.323   0.320  0.00  0.00     0.018 C 
ATOM      6  N   UNL d   1       0.024   0.943   0.342  0.00  0.00    -0.362 N 
ATOM      7  C   UNL d   1      -2.369   1.240   0.535  0.00  0.00     0.069 C 
ATOM      8  C   UNL d   1       2.446   1.247   0.430  0.00  0.00     0.069 C 
ATOM      9  H   UNL d   1       0.018   1.942   0.553  0.00  0.00     0.165 HD
ENDROOT
BRANCH   3  10
ATOM     10  C   UNL d   1      -0.001  -2.404  -1.515  0.00  0.00    -0.009 A 
ATOM     11  C   UNL d   1      -0.040  -3.753  -1.917  0.00  0.00     0.075 A 
ATOM     12  C   UNL d   1      -0.099  -4.048  -3.298  0.00  0.00     0.040 A 
ATOM     13  C   UNL d   1      -0.145  -3.064  -4.282  0.00  0.00     0.039 A 
ATOM     14  C   UNL d   1      -0.149  -1.736  -3.904  0.00  0.00     0.068 A 
ATOM     15  C   UNL d   1      -0.046  -1.418  -2.547  0.00  0.00     0.047 A 
BRANCH  11  16
ATOM     16  O   UNL d   1      -0.040  -4.929  -1.232  0.00  0.00    -0.355 OA
ATOM     17  C   UNL d   1       0.084  -5.051   0.164  0.00  0.00     0.210 C 
ENDBRANCH  11  16
BRANCH  14  18
ATOM     18  O   UNL d   1      -0.232  -0.677  -4.766  0.00  0.00    -0.356 OA
ATOM     19  C   UNL d   1      -0.929  -0.946  -5.980  0.00  0.00     0.210 C 
ENDBRANCH  14  18
ENDBRANCH   3  10
BRANCH   2  20
ATOM     20  C   UNL d   1       2.658  -1.699   0.231  0.00  0.00     0.292 C 
ATOM     21  O   UNL d   1       3.720  -1.152   0.486  0.00  0.00    -0.259 OA
BRANCH  20  22
ATOM     22  O   UNL d   1       2.534  -3.012  -0.053  0.00  0.00    -0.318 OA
BRANCH  22  23
ATOM     23  C   UNL d   1       3.749  -3.715  -0.344  0.00  0.00     0.174 C 
ATOM     24  C   UNL d   1       3.980  -3.641  -1.839  0.00  0.00     0.034 C 
ENDBRANCH  22  23
ENDBRANCH  20  22
ENDBRANCH   2  20
BRANCH   1  25
ATOM     25  C   UNL d   1      -2.477  -1.887   0.386  0.00  0.00     0.292 C 
ATOM     26  O   UNL d   1      -2.615  -2.986  -0.127  0.00  0.00    -0.259 OA
BRANCH  25  27
ATOM     27  O   UNL d   1      -3.380  -1.320   1.226  0.00  0.00    -0.318 OA
BRANCH  27  28
ATOM     28  C   UNL d   1      -4.615  -2.033   1.402  0.00  0.00     0.174 C 
ATOM     29  C   UNL d   1      -5.561  -1.772   0.241  0.00  0.00     0.034 C 
ENDBRANCH  27  28
ENDBRANCH  25  27
ENDBRANCH   1  25
TORSDOF 9
