REMARK  6 active torsions:
REMARK  status: ('A' for Active; 'I' for Inactive)
REMARK    1  A    between atoms: C_2  and  C_1 
REMARK       I    between atoms: N_3  and  C_1 
REMARK    2  A    between atoms: C_7  and  N_3 
REMARK       I    between atoms: C_4  and  N_5 
REMARK    3  A    between atoms: C_12  and  C_4 
REMARK    4  A    between atoms: N_5  and  C_6 
REMARK    5  A    between atoms: O_17  and  C_9 
REMARK    6  A    between atoms: O_18  and  C_14 
ROOT
ATOM      1  C   UNL d   1       0.317   1.220  -0.721  0.00  0.00     0.059 A 
ATOM      2  C   UNL d   1       0.788   1.460  -2.027  0.00  0.00     0.050 A 
ATOM      3  C   UNL d   1      -0.813   1.911  -0.244  0.00  0.00     0.019 A 
ATOM      4  C   UNL d   1       0.069   2.337  -2.849  0.00  0.00     0.030 A 
ATOM      5  C   UNL d   1      -1.500   2.798  -1.071  0.00  0.00     0.001 A 
ATOM      6  C   UNL d   1      -1.067   3.000  -2.376  0.00  0.00     0.002 A 
ENDROOT
BRANCH   1   7
ATOM      7  C   UNL d   1       1.056   0.323   0.210  0.00  0.00     0.258 C 
ATOM      8  N   UNL d   1       0.277  -0.337   1.147  0.00  0.00    -0.320 N 
ATOM      9  H   UNL d   1      -0.704  -0.462   0.936  0.00  0.00     0.169 HD
ATOM     10  O   UNL d   1       2.261   0.146   0.057  0.00  0.00    -0.267 OA
BRANCH   8  11
ATOM     11  C   UNL d   1       0.833  -1.233   2.081  0.00  0.00     0.071 A 
ATOM     12  C   UNL d   1       1.915  -0.804   2.870  0.00  0.00     0.069 A 
ATOM     13  C   UNL d   1       2.426  -1.618   3.879  0.00  0.00     0.070 A 
ATOM     14  C   UNL d   1       1.879  -2.888   4.066  0.00  0.00     0.039 A 
ATOM     15  C   UNL d   1       0.803  -3.323   3.285  0.00  0.00     0.042 A 
ATOM     16  C   UNL d   1       0.266  -2.497   2.295  0.00  0.00     0.095 A 
BRANCH  13  17
ATOM     17  O   UNL d   1       3.431  -1.289   4.747  0.00  0.00    -0.356 OA
ATOM     18  C   UNL d   1       3.915   0.049   4.693  0.00  0.00     0.210 C 
ENDBRANCH  13  17
BRANCH  16  19
ATOM     19  O   UNL d   1      -0.819  -3.010   1.633  0.00  0.00    -0.354 OA
ATOM     20  C   UNL d   1      -0.796  -2.898   0.211  0.00  0.00     0.210 C 
ENDBRANCH  16  19
ENDBRANCH   8  11
ENDBRANCH   1   7
BRANCH   2  21
ATOM     21  N   UNL d   1       1.960   0.818  -2.511  0.00  0.00    -0.322 N 
ATOM     22  C   UNL d   1       2.854   1.418  -3.378  0.00  0.00     0.256 C 
ATOM     23  O   UNL d   1       2.788   2.569  -3.803  0.00  0.00    -0.267 OA
ATOM     24  H   UNL d   1       2.356   0.094  -1.909  0.00  0.00     0.169 HD
BRANCH  22  25
ATOM     25  C   UNL d   1       4.029   0.601  -3.759  0.00  0.00     0.032 A 
ATOM     26  C   UNL d   1       3.870  -0.704  -4.239  0.00  0.00     0.017 A 
ATOM     27  C   UNL d   1       4.983  -1.409  -4.701  0.00  0.00     0.001 A 
ATOM     28  C   UNL d   1       6.249  -0.820  -4.674  0.00  0.00     0.000 A 
ATOM     29  C   UNL d   1       6.409   0.479  -4.188  0.00  0.00     0.001 A 
ATOM     30  C   UNL d   1       5.296   1.192  -3.738  0.00  0.00     0.017 A 
ENDBRANCH  22  25
ENDBRANCH   2  21
TORSDOF 6
