REMARK  4 active torsions:
REMARK  status: ('A' for Active; 'I' for Inactive)
REMARK    1  A    between atoms: N_2  and  S_1 
REMARK    2  A    between atoms: C_3  and  S_1 
REMARK    3  A    between atoms: C_4  and  N_2 
REMARK    4  A    between atoms: C_22  and  C_18 
ROOT
ATOM      1  S   UNL d   1       1.053   0.067  -0.080  0.00  0.00     0.264 S 
ATOM      2  O   UNL d   1       0.320   0.831   0.912  0.00  0.00    -0.200 OA
ATOM      3  O   UNL d   1       2.499   0.043  -0.057  0.00  0.00    -0.200 OA
ENDROOT
BRANCH   1   4
ATOM      4  N   UNL d   1       0.492   0.614  -1.559  0.00  0.00    -0.266 N 
ATOM      5  H   UNL d   1      -0.043   1.471  -1.472  0.00  0.00     0.180 HD
BRANCH   4   6
ATOM      6  C   UNL d   1       1.380   0.526  -2.644  0.00  0.00     0.115 A 
ATOM      7  N   UNL d   1       1.201  -0.557  -3.415  0.00  0.00    -0.352 N 
ATOM      8  C   UNL d   1       2.014  -0.663  -4.488  0.00  0.00     0.090 A 
ATOM      9  HN  UNL d   1       0.492  -1.259  -3.203  1.00  0.00     0.166 HD
ATOM     10  C   UNL d   1       2.997   0.262  -4.815  0.00  0.00     0.024 A 
ATOM     11  C   UNL d   1       3.175   1.373  -3.987  0.00  0.00    -0.054 A 
ATOM     12  C   UNL d   1       2.336   1.507  -2.877  0.00  0.00     0.056 A 
BRANCH  11  13
ATOM     13  C   UNL d   1       4.236   2.400  -4.285  0.00  0.00     0.034 C 
ATOM     14  C   UNL d   1       3.727   3.526  -5.172  0.00  0.00     0.010 C 
ENDBRANCH  11  13
ENDBRANCH   4   6
ENDBRANCH   1   4
BRANCH   1  15
ATOM     15  C   UNL d   1       0.455  -1.604  -0.004  0.00  0.00     0.082 A 
ATOM     16  C   UNL d   1       1.227  -2.636  -0.539  0.00  0.00     0.065 A 
ATOM     17  C   UNL d   1       0.788  -3.953  -0.412  0.00  0.00     0.103 A 
ATOM     18  O   UNL d   1       1.584  -4.923  -0.969  0.00  0.00    -0.346 OA
ATOM     19  C   UNL d   1      -0.399  -4.240   0.273  0.00  0.00     0.102 A 
ATOM     20  C   UNL d   1       0.890  -6.169  -1.083  0.00  0.00     0.202 C 
ATOM     21  C   UNL d   1       0.139  -6.493   0.198  0.00  0.00     0.202 C 
ATOM     22  O   UNL d   1      -0.872  -5.513   0.460  0.00  0.00    -0.346 OA
ATOM     23  C   UNL d   1      -1.167  -3.206   0.808  0.00  0.00     0.041 A 
ATOM     24  C   UNL d   1      -0.739  -1.883   0.679  0.00  0.00     0.028 A 
ENDBRANCH   1  15
TORSDOF 4
