REMARK  1 active torsions:
REMARK  status: ('A' for Active; 'I' for Inactive)
REMARK    1  A    between atoms: N_2  and  C_1 
ROOT
ATOM      1  C   UNL d   1       0.754  -1.262  -0.041  0.00  0.00     0.135 A 
ATOM      2  N   UNL d   1       1.075   0.076  -0.168  0.00  0.00    -0.280 N 
ATOM      3  C   UNL d   1      -0.617  -1.273   0.146  0.00  0.00     0.076 A 
ATOM      4  N   UNL d   1      -0.010   0.882  -0.209  0.00  0.00    -0.302 N 
ATOM      5  HN  UNL d   1      -0.033   1.891  -0.357  1.00  0.00     0.186 HD
ATOM      6  C   UNL d   1      -1.043   0.062  -0.013  0.00  0.00     0.025 A 
ATOM      7  C   UNL d   1       2.359   0.727  -0.031  0.00  0.00     0.179 C 
ATOM      8  C   UNL d   1      -2.425   0.593   0.015  0.00  0.00     0.070 C 
ENDROOT
BRANCH   1   9
ATOM      9  N   UNL d   1       1.643  -2.331  -0.065  0.00  0.00    -0.236 N 
ATOM     10  C   UNL d   1       2.792  -2.353  -0.817  0.00  0.00     0.232 C 
ATOM     11  C   UNL d   1       3.426  -3.706  -0.677  0.00  0.00     0.113 C 
ATOM     12  O   UNL d   1       3.244  -1.491  -1.558  0.00  0.00    -0.273 OA
ATOM     13  C   UNL d   1       2.517  -4.467   0.263  0.00  0.00     0.113 C 
ATOM     14  C   UNL d   1       1.347  -3.553   0.489  0.00  0.00     0.232 C 
ATOM     15  O   UNL d   1       0.354  -3.902   1.114  0.00  0.00    -0.273 OA
ENDBRANCH   1   9
TORSDOF 1
