REMARK  7 active torsions:
REMARK  status: ('A' for Active; 'I' for Inactive)
REMARK    1  A    between atoms: C_3  and  S_1 
REMARK    2  A    between atoms: C_5  and  S_1 
REMARK    3  A    between atoms: C_2  and  C_3 
REMARK    4  A    between atoms: C_4  and  C_2 
REMARK    5  A    between atoms: C_9  and  C_3 
REMARK    6  A    between atoms: C_6  and  C_4 
REMARK    7  A    between atoms: N_12  and  C_7 
ROOT
ATOM      1  C   UNL d   1       0.363   1.427  -0.604  0.00  0.00     0.092 C 
ENDROOT
BRANCH   1   2
ATOM      2  C   UNL d   1       0.924   2.357  -1.697  0.00  0.00     0.104 C 
BRANCH   2   3
ATOM      3  C   UNL d   1       0.985   1.833  -3.124  0.00  0.00     0.161 C 
ATOM      4  O   UNL d   1       0.081   1.190  -3.649  0.00  0.00    -0.292 OA
BRANCH   3   5
ATOM      5  C   UNL d   1       2.119   2.273  -3.986  0.00  0.00     0.010 A 
ATOM      6  C   UNL d   1       3.438   2.309  -3.518  0.00  0.00     0.017 A 
ATOM      7  C   UNL d   1       4.468   2.739  -4.364  0.00  0.00     0.025 A 
ATOM      8  C   UNL d   1       4.181   3.123  -5.675  0.00  0.00     0.034 A 
ATOM      9  C   UNL d   1       2.872   3.082  -6.150  0.00  0.00     0.025 A 
ATOM     10 CL   UNL d   1       5.452   3.647  -6.710  0.00  0.00    -0.084 Cl
ATOM     11  C   UNL d   1       1.843   2.651  -5.308  0.00  0.00     0.017 A 
ENDBRANCH   3   5
ENDBRANCH   2   3
ENDBRANCH   1   2
BRANCH   1  12
ATOM     12  S   UNL d   1       1.092  -0.276  -0.588  0.00  0.00    -0.118 SA
BRANCH  12  13
ATOM     13  C   UNL d   1       2.815  -0.204  -0.086  0.00  0.00     0.022 C 
ATOM     14  C   UNL d   1       3.585   0.874   0.393  0.00  0.00     0.022 C 
ATOM     15  C   UNL d   1       4.978   0.714   0.535  0.00  0.00     0.024 C 
ATOM     16  C   UNL d   1       5.592  -0.524   0.352  0.00  0.00     0.002 C 
ATOM     17  C   UNL d   1       4.821  -1.622   0.010  0.00  0.00     0.001 C 
ATOM     18  C   UNL d   1       3.454  -1.457  -0.222  0.00  0.00     0.020 C 
BRANCH  14  19
ATOM     19  N   UNL d   1       3.050   2.138   0.715  0.00  0.00    -0.302 NA
ATOM     20  H   UNL d   1       2.273   2.025   1.363  0.00  0.00     0.124 HD
ATOM     21  H   UNL d   1       3.736   2.764   1.129  0.00  0.00     0.124 HD
ENDBRANCH  14  19
ENDBRANCH  12  13
ENDBRANCH   1  12
BRANCH   1  22
ATOM     22  C   UNL d   1      -1.167   1.319  -0.480  0.00  0.00    -0.044 A 
ATOM     23  C   UNL d   1      -2.068   1.779  -1.451  0.00  0.00     0.008 A 
ATOM     24  C   UNL d   1      -3.452   1.671  -1.260  0.00  0.00     0.001 A 
ATOM     25  C   UNL d   1      -3.965   1.106  -0.098  0.00  0.00     0.000 A 
ATOM     26  C   UNL d   1      -3.095   0.645   0.883  0.00  0.00     0.001 A 
ATOM     27  C   UNL d   1      -1.714   0.759   0.694  0.00  0.00     0.008 A 
ENDBRANCH   1  22
TORSDOF 7
