REMARK  7 active torsions:
REMARK  status: ('A' for Active; 'I' for Inactive)
REMARK    1  A    between atoms: C_7  and  N_1 
REMARK    2  A    between atoms: S_8  and  C_2 
REMARK    3  A    between atoms: C_13  and  S_8 
REMARK    4  A    between atoms: O_12  and  C_14 
REMARK    5  A    between atoms: C_15  and  O_12 
REMARK    6  A    between atoms: C_18  and  C_13 
REMARK    7  A    between atoms: C_19  and  C_15 
ROOT
ATOM      1  N   UNL d   1       0.948  -0.765  -0.095  0.00  0.00    -0.241 N 
ATOM      2  C   UNL d   1       0.896   0.593  -0.018  0.00  0.00     0.170 A 
ATOM      3  C   UNL d   1      -0.362  -1.171  -0.233  0.00  0.00     0.347 A 
ATOM      4  N   UNL d   1      -0.311   1.088  -0.066  0.00  0.00    -0.275 N 
ATOM      5  HN  UNL d   1      -0.588   2.068  -0.010  1.00  0.00     0.189 HD
ATOM      6  N   UNL d   1      -1.117  -0.003  -0.208  0.00  0.00    -0.249 N 
ATOM      7  O   UNL d   1      -0.824  -2.299  -0.302  0.00  0.00    -0.245 OA
ATOM      8  H   UNL d   1      -2.127   0.054  -0.214  0.00  0.00     0.192 HD
ENDROOT
BRANCH   1   9
ATOM      9  C   UNL d   1       2.028  -1.646   0.016  0.00  0.00     0.046 C 
ATOM     10  C   UNL d   1       2.256  -2.583  -0.996  0.00  0.00     0.033 C 
ATOM     11  C   UNL d   1       3.450  -3.304  -1.016  0.00  0.00     0.039 C 
ATOM     12  C   UNL d   1       4.398  -3.121  -0.009  0.00  0.00     0.069 C 
ATOM     13  C   UNL d   1       4.092  -2.311   1.086  0.00  0.00     0.039 C 
ATOM     14  C   UNL d   1       2.917  -1.557   1.089  0.00  0.00     0.033 C 
BRANCH  12  15
ATOM     15  O   UNL d   1       5.601  -3.747  -0.199  0.00  0.00    -0.347 OA
BRANCH  15  16
ATOM     16  C   UNL d   1       6.713  -3.105   0.435  0.00  0.00     0.214 C 
BRANCH  16  17
ATOM     17  C   UNL d   1       7.987  -3.394  -0.318  0.00  0.00    -0.034 A 
ATOM     18  C   UNL d   1       8.764  -2.339  -0.827  0.00  0.00     0.009 A 
ATOM     19  C   UNL d   1       9.971  -2.595  -1.476  0.00  0.00     0.001 A 
ATOM     20  C   UNL d   1      10.414  -3.908  -1.624  0.00  0.00     0.000 A 
ATOM     21  C   UNL d   1       9.647  -4.962  -1.132  0.00  0.00     0.001 A 
ATOM     22  C   UNL d   1       8.438  -4.708  -0.481  0.00  0.00     0.009 A 
ENDBRANCH  16  17
ENDBRANCH  15  16
ENDBRANCH  12  15
ENDBRANCH   1   9
BRANCH   2  23
ATOM     23  S   UNL d   1       2.235   1.677   0.132  0.00  0.00    -0.087 SA
BRANCH  23  24
ATOM     24  C   UNL d   1       3.554   1.082  -0.933  0.00  0.00     0.121 C 
BRANCH  24  25
ATOM     25  C   UNL d   1       3.278   0.645  -2.350  0.00  0.00    -0.049 A 
ATOM     26  C   UNL d   1       2.322   1.247  -3.176  0.00  0.00     0.008 A 
ATOM     27  C   UNL d   1       2.193   0.859  -4.514  0.00  0.00     0.001 A 
ATOM     28  C   UNL d   1       3.025  -0.122  -5.050  0.00  0.00     0.000 A 
ATOM     29  C   UNL d   1       3.995  -0.719  -4.251  0.00  0.00     0.001 A 
ATOM     30  C   UNL d   1       4.123  -0.330  -2.917  0.00  0.00     0.008 A 
ENDBRANCH  24  25
ENDBRANCH  23  24
ENDBRANCH   2  23
TORSDOF 7
