REMARK  6 active torsions:
REMARK  status: ('A' for Active; 'I' for Inactive)
REMARK    1  A    between atoms: C_15  and  C_2 
REMARK    2  A    between atoms: S_9  and  C_5 
REMARK    3  A    between atoms: C_8  and  C_21 
REMARK       I    between atoms: N_18  and  C_8 
REMARK    4  A    between atoms: C_21  and  S_9 
REMARK    5  A    between atoms: N_11  and  N_18 
REMARK    6  A    between atoms: C_25  and  C_24 
ROOT
ATOM      1  C   UNL d   1       2.646  -4.370  -0.052  0.00  0.00     0.245 C 
ATOM      2  N   UNL d   1       1.734  -5.389  -0.302  0.00  0.00    -0.270 N 
ATOM      3  O   UNL d   1       3.854  -4.562   0.112  0.00  0.00    -0.271 OA
ATOM      4  H   UNL d   1       0.745  -5.186  -0.399  0.00  0.00     0.190 HD
ENDROOT
BRANCH   1   5
ATOM      5  C   UNL d   1       2.108  -2.946  -0.102  0.00  0.00     0.186 C 
BRANCH   5   6
ATOM      6  S   UNL d   1       0.403  -2.776   0.498  0.00  0.00    -0.083 SA
BRANCH   6   7
ATOM      7  C   UNL d   1       0.151  -1.070   0.272  0.00  0.00     0.163 A 
ATOM      8  N   UNL d   1      -0.986  -0.407   0.658  0.00  0.00    -0.315 N 
ATOM      9  C   UNL d   1      -0.806   0.915   0.286  0.00  0.00     0.134 A 
ATOM     10  C   UNL d   1      -2.142  -1.009   1.272  0.00  0.00     0.160 C 
ATOM     11  N   UNL d   1       0.376   1.004  -0.305  0.00  0.00    -0.283 N 
ATOM     12  N   UNL d   1       0.977  -0.232  -0.302  0.00  0.00    -0.278 N 
ATOM     13  HN  UNL d   1       0.777   1.855  -0.700  1.00  0.00     0.188 HD
ATOM     14  HN  UNL d   1       1.898  -0.455  -0.678  1.00  0.00     0.189 HD
BRANCH   9  15
ATOM     15  C   UNL d   1      -1.757   2.033   0.423  0.00  0.00     0.009 A 
ATOM     16  C   UNL d   1      -2.607   2.187   1.528  0.00  0.00     0.015 A 
ATOM     17  C   UNL d   1      -3.538   3.232   1.581  0.00  0.00     0.001 A 
ATOM     18  C   UNL d   1      -3.603   4.165   0.550  0.00  0.00     0.000 A 
ATOM     19  C   UNL d   1      -2.728   4.063  -0.528  0.00  0.00     0.001 A 
ATOM     20  C   UNL d   1      -1.813   3.006  -0.588  0.00  0.00     0.015 A 
ENDBRANCH   9  15
ENDBRANCH   6   7
ENDBRANCH   5   6
ENDBRANCH   1   5
BRANCH   2  21
ATOM     21  N   UNL d   1       2.200  -6.663  -0.462  0.00  0.00    -0.308 N 
ATOM     22  C   UNL d   1       1.329  -7.607  -0.640  0.00  0.00     0.118 C 
ATOM     23  HN  UNL d   1       3.199  -6.866  -0.441  1.00  0.00     0.186 HD
BRANCH  22  24
ATOM     24  C   UNL d   1       1.767  -9.002  -0.886  0.00  0.00    -0.017 A 
ATOM     25  C   UNL d   1       0.808 -10.009  -1.055  0.00  0.00     0.052 A 
ATOM     26  C   UNL d   1       1.267 -11.282  -1.339  0.00  0.00     0.105 A 
ATOM     27  O   UNL d   1       0.489 -12.378  -1.555  0.00  0.00    -0.323 OA
ATOM     28  C   UNL d   1       2.610 -11.568  -1.447  0.00  0.00     0.105 A 
ATOM     29  C   UNL d   1       1.494 -13.374  -1.850  0.00  0.00     0.352 A 
ATOM     30  O   UNL d   1       2.842 -12.874  -1.747  0.00  0.00    -0.323 OA
ATOM     31  C   UNL d   1       3.574 -10.601  -1.269  0.00  0.00     0.040 A 
ATOM     32  C   UNL d   1       3.144  -9.301  -0.986  0.00  0.00     0.016 A 
ENDBRANCH  22  24
ENDBRANCH   2  21
TORSDOF 6
