REMARK  4 active torsions:
REMARK  status: ('A' for Active; 'I' for Inactive)
REMARK    1  A    between atoms: C_2  and  N_1 
REMARK    2  A    between atoms: C_7  and  C_3 
REMARK    3  A    between atoms: S_4  and  C_5 
REMARK    4  A    between atoms: C_6  and  S_4 
REMARK       I    between atoms: N_11  and  C_7 
ROOT
ATOM      1  C   UNL d   1       2.250   2.023  -0.327  0.00  0.00     0.049 A 
ATOM      2  C   UNL d   1       2.902   1.522   0.817  0.00  0.00     0.021 A 
ATOM      3  C   UNL d   1       2.897   1.966  -1.578  0.00  0.00     0.018 A 
ATOM      4  C   UNL d   1       4.191   0.975   0.668  0.00  0.00     0.020 A 
ATOM      5  C   UNL d   1       4.169   1.410  -1.705  0.00  0.00     0.001 A 
ATOM      6  C   UNL d   1       4.819   0.922  -0.580  0.00  0.00     0.001 A 
ENDROOT
BRANCH   2   7
ATOM      7  S   UNL d   1       2.179   1.385   2.447  0.00  0.00    -0.087 SA
BRANCH   7   8
ATOM      8  C   UNL d   1       2.493   2.979   3.191  0.00  0.00     0.038 A 
ATOM      9  C   UNL d   1       3.647   3.337   3.902  0.00  0.00     0.119 A 
ATOM     10  C   UNL d   1       3.758   4.565   4.579  0.00  0.00     0.037 A 
ATOM     11  C   UNL d   1       2.692   5.459   4.553  0.00  0.00     0.003 A 
ATOM     12  C   UNL d   1       1.538   5.134   3.843  0.00  0.00     0.002 A 
ATOM     13  C   UNL d   1       1.440   3.908   3.172  0.00  0.00     0.021 A 
BRANCH   9  14
ATOM     14  N   UNL d   1       4.785   2.444   3.994  0.00  0.00    -0.114 N 
ATOM     15  O   UNL d   1       4.615   1.350   4.546  0.00  0.00    -0.532 OA
ATOM     16  O   UNL d   1       5.863   2.864   3.552  0.00  0.00    -0.532 OA
ENDBRANCH   9  14
ENDBRANCH   7   8
ENDBRANCH   2   7
BRANCH   1  17
ATOM     17  C   UNL d   1       0.888   2.627  -0.354  0.00  0.00     0.252 C 
ATOM     18  O   UNL d   1       0.661   3.575  -1.096  0.00  0.00    -0.268 OA
ATOM     19  N   UNL d   1      -0.079   2.033   0.427  0.00  0.00    -0.361 N 
ATOM     20  C   UNL d   1      -1.455   2.459   0.395  0.00  0.00     0.149 C 
ATOM     21  H   UNL d   1       0.164   1.213   0.969  0.00  0.00     0.162 HD
ENDBRANCH   1  17
TORSDOF 4
