REMARK  4 active torsions:
REMARK  status: ('A' for Active; 'I' for Inactive)
REMARK       I    between atoms: C_2  and  N_1 
REMARK       I    between atoms: C_3  and  N_1 
REMARK    1  A    between atoms: C_7  and  N_1 
REMARK       I    between atoms: N_4  and  C_2 
REMARK    2  A    between atoms: C_8  and  C_3 
REMARK    3  A    between atoms: C_10  and  N_4 
REMARK    4  A    between atoms: C_14  and  C_7 
ROOT
ATOM      1  N   UNL d   1      -0.019   3.310  -3.432  0.00  0.00    -0.197 NA
ATOM      2  C   UNL d   1       0.544   2.712  -2.607  0.00  0.00     0.068 C 
ATOM      3  C   UNL d   1       1.313   1.954  -1.614  0.00  0.00     0.227 C 
ENDROOT
BRANCH   3   4
ATOM      4  C   UNL d   1       0.416   1.337  -0.554  0.00  0.00     0.241 C 
ATOM      5  N   UNL d   1       0.942   0.323   0.258  0.00  0.00    -0.265 N 
ATOM      6  C   UNL d   1       0.105  -0.555   0.980  0.00  0.00     0.329 C 
ATOM      7  N   UNL d   1      -1.113  -0.021   1.345  0.00  0.00    -0.308 N 
ATOM      8  O   UNL d   1       0.442  -1.713   1.229  0.00  0.00    -0.246 OA
ATOM      9  H   UNL d   1      -1.433   0.761   0.777  0.00  0.00     0.170 HD
ATOM     10  O   UNL d   1      -0.729   1.773  -0.384  0.00  0.00    -0.272 OA
BRANCH   5  11
ATOM     11  C   UNL d   1       2.324  -0.149   0.112  0.00  0.00     0.175 C 
BRANCH  11  12
ATOM     12  C   UNL d   1       3.053  -0.411   1.415  0.00  0.00    -0.040 A 
ATOM     13  C   UNL d   1       3.759  -1.613   1.591  0.00  0.00     0.009 A 
ATOM     14  C   UNL d   1       4.498  -1.840   2.752  0.00  0.00     0.001 A 
ATOM     15  C   UNL d   1       4.540  -0.871   3.751  0.00  0.00     0.000 A 
ATOM     16  C   UNL d   1       3.825   0.316   3.600  0.00  0.00     0.001 A 
ATOM     17  C   UNL d   1       3.085   0.547   2.438  0.00  0.00     0.009 A 
ENDBRANCH  11  12
ENDBRANCH   5  11
BRANCH   7  18
ATOM     18  C   UNL d   1      -2.053  -0.597   2.216  0.00  0.00     0.037 A 
ATOM     19  C   UNL d   1      -1.715  -1.545   3.183  0.00  0.00     0.053 A 
ATOM     20  C   UNL d   1      -2.708  -2.092   3.994  0.00  0.00     0.036 A 
ATOM     21 CL   UNL d   1      -2.291  -3.262   5.187  0.00  0.00    -0.084 Cl
ATOM     22  C   UNL d   1      -4.038  -1.701   3.851  0.00  0.00     0.024 A 
ATOM     23  C   UNL d   1      -4.374  -0.727   2.912  0.00  0.00     0.004 A 
ATOM     24  C   UNL d   1      -3.380  -0.164   2.110  0.00  0.00     0.029 A 
ENDBRANCH   7  18
ENDBRANCH   3   4
TORSDOF 4
