REMARK  3 active torsions:
REMARK  status: ('A' for Active; 'I' for Inactive)
REMARK       I    between atoms: C_2  and  N_1 
REMARK       I    between atoms: N_7  and  C_2 
REMARK    1  A    between atoms: C_14  and  N_7 
REMARK    2  A    between atoms: O_15  and  C_9 
REMARK    3  A    between atoms: O_16  and  C_11 
ROOT
ATOM      1  N   UNL d   1      -2.486   0.674  -0.181  0.00  0.00    -0.325 N 
ATOM      2  C   UNL d   1      -3.333   1.041  -1.225  0.00  0.00     0.323 C 
ATOM      3  C   UNL d   1      -0.053   0.620   0.278  0.00  0.00    -0.026 A 
ATOM      4  C   UNL d   1      -1.344   1.425   0.365  0.00  0.00     0.118 C 
ATOM      5  C   UNL d   1      -0.063  -0.767   0.056  0.00  0.00    -0.045 A 
ATOM      6  C   UNL d   1       1.181   1.283   0.404  0.00  0.00     0.049 A 
ATOM      7  N   UNL d   1      -3.167   2.304  -1.740  0.00  0.00    -0.309 N 
ATOM      8  C   UNL d   1      -2.576  -0.705   0.307  0.00  0.00     0.133 C 
ATOM      9  C   UNL d   1       2.391   0.589   0.297  0.00  0.00     0.102 A 
ATOM     10  C   UNL d   1       1.152  -1.462  -0.060  0.00  0.00     0.047 A 
ATOM     11  C   UNL d   1       2.378  -0.796   0.056  0.00  0.00     0.102 A 
ATOM     12  O   UNL d   1      -4.165   0.238  -1.643  0.00  0.00    -0.247 OA
ATOM     13  C   UNL d   1      -1.363  -1.512  -0.150  0.00  0.00     0.059 C 
ATOM     14  C   UNL d   1      -1.624   1.868   1.806  0.00  0.00     0.037 C 
ATOM     15  H   UNL d   1      -2.476   2.899  -1.326  0.00  0.00     0.170 HD
ENDROOT
BRANCH   7  16
ATOM     16  C   UNL d   1      -3.822   2.869  -2.865  0.00  0.00     0.036 A 
ATOM     17  C   UNL d   1      -4.850   2.242  -3.573  0.00  0.00     0.029 A 
ATOM     18  C   UNL d   1      -5.400   2.839  -4.711  0.00  0.00     0.002 A 
ATOM     19  C   UNL d   1      -4.933   4.074  -5.153  0.00  0.00     0.000 A 
ATOM     20  C   UNL d   1      -3.929   4.723  -4.441  0.00  0.00     0.002 A 
ATOM     21  C   UNL d   1      -3.381   4.127  -3.299  0.00  0.00     0.029 A 
ENDBRANCH   7  16
BRANCH   9  22
ATOM     22  O   UNL d   1       3.623   1.194   0.362  0.00  0.00    -0.353 OA
ATOM     23  C   UNL d   1       3.689   2.452   1.018  0.00  0.00     0.210 C 
ENDBRANCH   9  22
BRANCH  11  24
ATOM     24  O   UNL d   1       3.604  -1.405  -0.048  0.00  0.00    -0.353 OA
ATOM     25  C   UNL d   1       3.625  -2.803  -0.302  0.00  0.00     0.210 C 
ENDBRANCH  11  24
TORSDOF 3
