REMARK  5 active torsions:
REMARK  status: ('A' for Active; 'I' for Inactive)
REMARK    1  A    between atoms: C_2  and  C_1 
REMARK       I    between atoms: N_6  and  C_2 
REMARK    2  A    between atoms: N_11  and  C_3 
REMARK    3  A    between atoms: N_4  and  N_6 
REMARK    4  A    between atoms: C_8  and  C_10 
REMARK    5  A    between atoms: C_12  and  C_9 
ROOT
ATOM      1  C   UNL d   1       0.854   2.531   0.008  0.00  0.00     0.271 C 
ATOM      2  N   UNL d   1       0.214   3.764  -0.050  0.00  0.00    -0.266 N 
ATOM      3  O   UNL d   1       0.271   1.446   0.060  0.00  0.00    -0.266 OA
ATOM      4  H   UNL d   1       0.722   4.626  -0.203  0.00  0.00     0.190 HD
ENDROOT
BRANCH   2   5
ATOM      5  N   UNL d   1      -1.147   3.771  -0.018  0.00  0.00    -0.309 N 
ATOM      6  C   UNL d   1      -1.754   4.908  -0.097  0.00  0.00     0.107 C 
ATOM      7  HN  UNL d   1      -1.674   2.902   0.065  1.00  0.00     0.186 HD
BRANCH   6   8
ATOM      8  C   UNL d   1      -3.230   4.928  -0.049  0.00  0.00     0.019 C 
ATOM      9  C   UNL d   1      -3.938   6.066  -0.054  0.00  0.00     0.013 C 
BRANCH   9  10
ATOM     10  C   UNL d   1      -5.410   6.091   0.027  0.00  0.00    -0.036 A 
ATOM     11  C   UNL d   1      -6.138   5.118   0.730  0.00  0.00     0.011 A 
ATOM     12  C   UNL d   1      -7.532   5.183   0.808  0.00  0.00     0.001 A 
ATOM     13  C   UNL d   1      -8.216   6.229   0.197  0.00  0.00     0.000 A 
ATOM     14  C   UNL d   1      -7.507   7.213  -0.489  0.00  0.00     0.001 A 
ATOM     15  C   UNL d   1      -6.112   7.147  -0.569  0.00  0.00     0.011 A 
ENDBRANCH   9  10
ENDBRANCH   6   8
ENDBRANCH   2   5
BRANCH   1  16
ATOM     16  C   UNL d   1       2.345   2.539  -0.003  0.00  0.00     0.054 A 
ATOM     17  C   UNL d   1       3.039   1.453  -0.585  0.00  0.00     0.021 A 
ATOM     18  C   UNL d   1       4.440   1.463  -0.567  0.00  0.00     0.024 A 
ATOM     19  C   UNL d   1       5.141   2.472   0.094  0.00  0.00     0.002 A 
ATOM     20  C   UNL d   1       4.451   3.513   0.711  0.00  0.00     0.001 A 
ATOM     21  C   UNL d   1       3.055   3.552   0.662  0.00  0.00     0.019 A 
BRANCH  17  22
ATOM     22  N   UNL d   1       2.388   0.483  -1.377  0.00  0.00    -0.302 NA
ATOM     23  H   UNL d   1       1.403   0.387  -1.093  0.00  0.00     0.124 HD
ATOM     24  H   UNL d   1       2.853  -0.419  -1.379  0.00  0.00     0.124 HD
ENDBRANCH  17  22
ENDBRANCH   1  16
TORSDOF 5
