REMARK  2 active torsions:
REMARK  status: ('A' for Active; 'I' for Inactive)
REMARK    1  A    between atoms: C_8  and  C_1 
REMARK    2  A    between atoms: O_12  and  C_3 
ROOT
ATOM      1  C   UNL d   1       2.473   0.690   0.015  0.00  0.00     0.096 A 
ATOM      2  C   UNL d   1       1.192   1.445   0.022  0.00  0.00     0.264 A 
ATOM      3  C   UNL d   1       2.377  -0.653   0.016  0.00  0.00     0.158 A 
ATOM      4  N   UNL d   1       1.193  -1.332   0.022  0.00  0.00    -0.326 N 
ATOM      5  HN  UNL d   1       1.182  -2.351   0.051  1.00  0.00     0.169 HD
ATOM      6  N   UNL d   1       0.028   0.704  -0.064  0.00  0.00    -0.303 N 
ATOM      7  C   UNL d   1       0.088  -0.664  -0.008  0.00  0.00     0.088 A 
ATOM      8  O   UNL d   1       1.201   2.672   0.137  0.00  0.00    -0.267 OA
ATOM      9  C   UNL d   1      -1.227   1.441   0.030  0.00  0.00     0.133 C 
ATOM     10  C   UNL d   1      -1.202  -1.467  -0.060  0.00  0.00     0.077 C 
ATOM     11  C   UNL d   1      -2.451   0.636  -0.372  0.00  0.00     0.021 C 
ATOM     12  C   UNL d   1      -2.430  -0.687   0.369  0.00  0.00     0.009 C 
ENDROOT
BRANCH   1  13
ATOM     13  C   UNL d   1       3.745   1.431   0.064  0.00  0.00     0.025 A 
ATOM     14  C   UNL d   1       4.418   1.790  -1.110  0.00  0.00     0.128 A 
ATOM     15  C   UNL d   1       5.616   2.507  -1.068  0.00  0.00     0.046 A 
ATOM     16  F   UNL d   1       3.924   1.438  -2.305  0.00  0.00    -0.205 F 
ATOM     17  C   UNL d   1       6.153   2.879   0.163  0.00  0.00     0.045 A 
ATOM     18  C   UNL d   1       5.484   2.531   1.332  0.00  0.00     0.117 A 
ATOM     19  C   UNL d   1       4.292   1.811   1.296  0.00  0.00     0.058 A 
ATOM     20  F   UNL d   1       5.998   2.893   2.515  0.00  0.00    -0.206 F 
ENDBRANCH   1  13
BRANCH   3  21
ATOM     21  O   UNL d   1       3.484  -1.478   0.026  0.00  0.00    -0.345 OA
ATOM     22  H   UNL d   1       4.288  -0.950  -0.080  0.00  0.00     0.219 HD
ENDBRANCH   3  21
TORSDOF 2
