REMARK  6 active torsions:
REMARK  status: ('A' for Active; 'I' for Inactive)
REMARK    1  A    between atoms: C_4  and  N_1 
REMARK    2  A    between atoms: C_2  and  O_7 
REMARK       I    between atoms: N_8  and  C_2 
REMARK    3  A    between atoms: O_7  and  C_3 
REMARK    4  A    between atoms: C_10  and  C_4 
REMARK    5  A    between atoms: C_11  and  C_4 
REMARK    6  A    between atoms: C_12  and  N_8 
ROOT
ATOM      1  N   UNL d   1       0.477   1.055  -0.504  0.00  0.00     0.106 N 
ATOM      2  C   UNL d   1      -0.236  -0.942  -0.383  0.00  0.00     0.190 C 
ATOM      3  C   UNL d   1      -0.836   0.456  -0.151  0.00  0.00     0.308 C 
ATOM      4  C   UNL d   1       1.128  -0.239  -0.172  0.00  0.00     0.308 C 
ENDROOT
BRANCH   1   5
ATOM      5  C   UNL d   1       0.842   2.128   0.458  0.00  0.00     0.289 C 
BRANCH   5   6
ATOM      6  C   UNL d   1       2.249   2.676   0.197  0.00  0.00    -0.021 A 
ATOM      7  C   UNL d   1       2.593   3.239  -1.044  0.00  0.00     0.010 A 
ATOM      8  C   UNL d   1       3.856   3.797  -1.255  0.00  0.00     0.001 A 
ATOM      9  C   UNL d   1       4.801   3.791  -0.233  0.00  0.00     0.000 A 
ATOM     10  C   UNL d   1       4.487   3.223   1.000  0.00  0.00     0.001 A 
ATOM     11  C   UNL d   1       3.219   2.671   1.216  0.00  0.00     0.010 A 
ENDBRANCH   5   6
BRANCH   5  12
ATOM     12  C   UNL d   1      -0.188   3.273   0.474  0.00  0.00    -0.021 A 
ATOM     13  C   UNL d   1      -0.465   3.952   1.673  0.00  0.00     0.010 A 
ATOM     14  C   UNL d   1      -1.429   4.962   1.712  0.00  0.00     0.001 A 
ATOM     15  C   UNL d   1      -2.123   5.314   0.555  0.00  0.00     0.000 A 
ATOM     16  C   UNL d   1      -1.842   4.670  -0.647  0.00  0.00     0.001 A 
ATOM     17  C   UNL d   1      -0.876   3.665  -0.689  0.00  0.00     0.010 A 
ENDBRANCH   5  12
ENDBRANCH   1   5
BRANCH   2  18
ATOM     18  O   UNL d   1      -0.527  -1.534  -1.672  0.00  0.00    -0.295 OA
BRANCH  18  19
ATOM     19  C   UNL d   1      -0.041  -2.785  -1.845  0.00  0.00     0.365 C 
ATOM     20  N   UNL d   1      -0.450  -3.441  -2.975  0.00  0.00    -0.303 N 
ATOM     21  H   UNL d   1      -0.084  -4.383  -2.995  0.00  0.00     0.171 HD
ATOM     22  O   UNL d   1       0.692  -3.350  -1.036  0.00  0.00    -0.238 OA
BRANCH  20  23
ATOM     23  C   UNL d   1      -1.320  -3.084  -4.021  0.00  0.00     0.036 A 
ATOM     24  C   UNL d   1      -1.913  -1.830  -4.182  0.00  0.00     0.029 A 
ATOM     25  C   UNL d   1      -2.795  -1.591  -5.244  0.00  0.00     0.002 A 
ATOM     26  C   UNL d   1      -3.092  -2.600  -6.156  0.00  0.00     0.000 A 
ATOM     27  C   UNL d   1      -2.496  -3.849  -6.018  0.00  0.00     0.002 A 
ATOM     28  C   UNL d   1      -1.614  -4.086  -4.960  0.00  0.00     0.029 A 
ENDBRANCH  20  23
ENDBRANCH  18  19
ENDBRANCH   2  18
TORSDOF 6
