REMARK  8 active torsions:
REMARK  status: ('A' for Active; 'I' for Inactive)
REMARK    1  A    between atoms: O_8  and  N_1 
REMARK    2  A    between atoms: C_6  and  C_3 
REMARK    3  A    between atoms: N_17  and  C_3 
REMARK    4  A    between atoms: O_9  and  C_4 
REMARK    5  A    between atoms: C_5  and  O_8 
REMARK    6  A    between atoms: C_10  and  C_5 
REMARK    7  A    between atoms: C_22  and  O_9 
REMARK    8  A    between atoms: O_23  and  C_11 
ROOT
ATOM      1  N   UNL d   1       0.936  -0.092   0.093  0.00  0.00    -0.246 N 
ATOM      2  HN  UNL d   1       1.922  -0.206   0.330  1.00  0.00     0.196 HD
ATOM      3  C   UNL d   1       0.266  -0.964  -0.597  0.00  0.00     0.109 C 
ENDROOT
BRANCH   3   4
ATOM      4  C   UNL d   1       1.030  -2.171  -1.052  0.00  0.00     0.006 A 
ATOM      5  C   UNL d   1       2.132  -2.590  -0.295  0.00  0.00     0.054 A 
ATOM      6  C   UNL d   1       2.929  -3.667  -0.700  0.00  0.00     0.103 A 
ATOM      7  C   UNL d   1       2.569  -4.373  -1.860  0.00  0.00     0.101 A 
ATOM      8  C   UNL d   1       1.467  -3.945  -2.620  0.00  0.00     0.040 A 
ATOM      9  C   UNL d   1       0.694  -2.852  -2.221  0.00  0.00     0.018 A 
BRANCH   6  10
ATOM     10  O   UNL d   1       4.046  -4.048  -0.003  0.00  0.00    -0.343 OA
BRANCH  10  11
ATOM     11  C   UNL d   1       4.748  -3.036   0.722  0.00  0.00     0.129 C 
ATOM     12  C   UNL d   1       5.394  -1.988  -0.186  0.00  0.00     0.032 C 
ATOM     13  C   UNL d   1       6.632  -1.498   0.557  0.00  0.00     0.002 C 
ATOM     14  C   UNL d   1       6.873  -2.486   1.695  0.00  0.00     0.002 C 
ATOM     15  C   UNL d   1       5.954  -3.663   1.417  0.00  0.00     0.032 C 
ENDBRANCH  10  11
ENDBRANCH   6  10
BRANCH   7  16
ATOM     16  O   UNL d   1       3.227  -5.437  -2.422  0.00  0.00    -0.353 OA
ATOM     17  C   UNL d   1       3.876  -6.332  -1.527  0.00  0.00     0.210 C 
ENDBRANCH   7  16
ENDBRANCH   3   4
BRANCH   3  18
ATOM     18  N   UNL d   1      -1.066  -0.860  -0.907  0.00  0.00    -0.286 NA
ATOM     19  H   UNL d   1      -1.547  -0.189  -0.319  0.00  0.00     0.125 HD
ATOM     20  H   UNL d   1      -1.567  -1.740  -0.975  0.00  0.00     0.125 HD
ENDBRANCH   3  18
BRANCH   1  21
ATOM     21  O   UNL d   1       0.174   1.026   0.482  0.00  0.00    -0.193 OA
BRANCH  21  22
ATOM     22  C   UNL d   1       0.989   1.867   1.198  0.00  0.00     0.315 C 
ATOM     23  O   UNL d   1       2.161   1.684   1.501  0.00  0.00    -0.257 OA
BRANCH  22  24
ATOM     24  C   UNL d   1       0.264   3.099   1.613  0.00  0.00     0.041 A 
ATOM     25  C   UNL d   1       0.968   4.038   2.387  0.00  0.00     0.019 A 
ATOM     26  C   UNL d   1       0.352   5.216   2.816  0.00  0.00     0.025 A 
ATOM     27  C   UNL d   1      -0.975   5.463   2.472  0.00  0.00     0.034 A 
ATOM     28  C   UNL d   1      -1.687   4.542   1.703  0.00  0.00     0.025 A 
ATOM     29 CL   UNL d   1      -1.737   6.912   2.999  0.00  0.00    -0.084 Cl
ATOM     30  C   UNL d   1      -1.071   3.360   1.272  0.00  0.00     0.019 A 
ENDBRANCH  22  24
ENDBRANCH  21  22
ENDBRANCH   1  21
TORSDOF 8
