REMARK  4 active torsions:
REMARK  status: ('A' for Active; 'I' for Inactive)
REMARK    1  A    between atoms: N_3  and  C_1 
REMARK    2  A    between atoms: C_2  and  N_3 
REMARK    3  A    between atoms: C_10  and  N_5 
REMARK    4  A    between atoms: C_11  and  C_10 
ROOT
ATOM      1  C   UNL d   1       1.078   0.205  -0.129  0.00  0.00     0.172 C 
ATOM      2  S   UNL d   1       0.231   0.394   1.298  0.00  0.00    -0.041 SA
ATOM      3  N   UNL d   1       2.325   0.714  -0.209  0.00  0.00    -0.363 N 
ATOM      4  H   UNL d   1       2.624   1.149   0.652  0.00  0.00     0.162 HD
ENDROOT
BRANCH   1   5
ATOM      5  N   UNL d   1       0.460  -0.352  -1.185  0.00  0.00    -0.332 N 
ATOM      6  H   UNL d   1      -0.550  -0.341  -1.082  0.00  0.00     0.168 HD
BRANCH   5   7
ATOM      7  C   UNL d   1       0.891  -1.268  -2.180  0.00  0.00     0.046 A 
ATOM      8  C   UNL d   1       1.981  -2.155  -2.049  0.00  0.00    -0.035 A 
ATOM      9  C   UNL d   1       2.199  -3.127  -3.054  0.00  0.00     0.009 A 
ATOM     10  C   UNL d   1       2.949  -2.237  -0.899  0.00  0.00     0.050 C 
ATOM     11  C   UNL d   1       1.356  -3.239  -4.156  0.00  0.00     0.001 A 
ATOM     12  C   UNL d   1       0.297  -2.360  -4.293  0.00  0.00     0.009 A 
ATOM     13  C   UNL d   1       0.061  -1.359  -3.332  0.00  0.00    -0.035 A 
ATOM     14  C   UNL d   1      -1.078  -0.414  -3.615  0.00  0.00     0.050 C 
ENDBRANCH   5   7
ENDBRANCH   1   5
BRANCH   3  15
ATOM     15  C   UNL d   1       3.023   1.162  -1.399  0.00  0.00     0.160 C 
BRANCH  15  16
ATOM     16  C   UNL d   1       2.916   2.658  -1.537  0.00  0.00    -0.038 A 
ATOM     17  C   UNL d   1       3.841   3.506  -0.919  0.00  0.00     0.025 A 
ATOM     18  C   UNL d   1       3.682   4.876  -1.060  0.00  0.00     0.088 A 
ATOM     19  N   UNL d   1       2.678   5.449  -1.757  0.00  0.00    -0.375 N 
ATOM     20  C   UNL d   1       1.786   4.613  -2.331  0.00  0.00     0.088 A 
ATOM     21  HN  UNL d   1       2.598   6.462  -1.846  1.00  0.00     0.164 HD
ATOM     22  C   UNL d   1       1.859   3.232  -2.247  0.00  0.00     0.025 A 
ENDBRANCH  15  16
ENDBRANCH   3  15
TORSDOF 4
