REMARK  4 active torsions:
REMARK  status: ('A' for Active; 'I' for Inactive)
REMARK    1  A    between atoms: N_2  and  C_1 
REMARK    2  A    between atoms: C_5  and  C_4 
REMARK       I    between atoms: N_6  and  C_5 
REMARK    3  A    between atoms: C_9  and  N_6 
REMARK    4  A    between atoms: O_14  and  C_13 
ROOT
ATOM      1  C   UNL d   1      -2.359  -4.032   0.675  0.00  0.00     0.280 C 
ATOM      2  N   UNL d   1      -2.111  -2.714   0.345  0.00  0.00    -0.319 N 
ATOM      3  O   UNL d   1      -3.472  -4.542   0.752  0.00  0.00    -0.265 OA
ATOM      4  H   UNL d   1      -1.145  -2.459   0.164  0.00  0.00     0.169 HD
ENDROOT
BRANCH   1   5
ATOM      5  C   UNL d   1      -1.150  -4.816   0.854  0.00  0.00     0.146 A 
ATOM      6  O   UNL d   1       0.058  -4.187   1.034  0.00  0.00    -0.283 OA
ATOM      7  C   UNL d   1       0.975  -5.176   1.223  0.00  0.00     0.215 A 
ATOM      8  C   UNL d   1       0.408  -6.424   1.121  0.00  0.00     0.066 A 
ATOM      9  C   UNL d   1      -0.969  -6.190   0.889  0.00  0.00     0.047 A 
BRANCH   7  10
ATOM     10  N   UNL d   1       2.315  -4.765   1.495  0.00  0.00    -0.090 N 
ATOM     11  O   UNL d   1       3.143  -5.668   1.667  0.00  0.00    -0.530 OA
ATOM     12  O   UNL d   1       2.546  -3.548   1.538  0.00  0.00    -0.530 OA
ENDBRANCH   7  10
ENDBRANCH   1   5
BRANCH   2  13
ATOM     13  C   UNL d   1      -3.069  -1.716   0.071  0.00  0.00     0.068 A 
ATOM     14  C   UNL d   1      -2.676  -0.604  -0.693  0.00  0.00     0.095 A 
ATOM     15  C   UNL d   1      -3.562   0.445  -0.943  0.00  0.00     0.039 A 
ATOM     16  C   UNL d   1      -4.865   0.381  -0.451  0.00  0.00     0.003 A 
ATOM     17  C   UNL d   1      -5.271  -0.726   0.294  0.00  0.00     0.002 A 
ATOM     18  C   UNL d   1      -4.378  -1.771   0.551  0.00  0.00     0.032 A 
BRANCH  14  19
ATOM     19  O   UNL d   1      -1.407  -0.496  -1.208  0.00  0.00    -0.354 OA
ATOM     20  C   UNL d   1      -1.199  -1.394  -2.303  0.00  0.00     0.210 C 
ENDBRANCH  14  19
ENDBRANCH   2  13
TORSDOF 4
