REMARK  5 active torsions:
REMARK  status: ('A' for Active; 'I' for Inactive)
REMARK    1  A    between atoms: C_10  and  N_1 
REMARK    2  A    between atoms: C_4  and  O_13 
REMARK    3  A    between atoms: C_14  and  C_4 
REMARK    4  A    between atoms: O_13  and  N_6 
REMARK    5  A    between atoms: C_11  and  C_10 
ROOT
ATOM      1  N   UNL d   1      -0.052   0.028   1.369  0.00  0.00     0.103 N 
ATOM      2  C   UNL d   1      -0.070  -1.190   0.543  0.00  0.00     0.229 C 
ATOM      3  C   UNL d   1       0.010   1.207   0.491  0.00  0.00     0.229 C 
ATOM      4  C   UNL d   1      -1.784   0.052  -0.936  0.00  0.00     0.015 C 
ATOM      5  N   UNL d   1      -2.813  -0.010  -1.729  0.00  0.00    -0.265 N 
ATOM      6  HN  UNL d   1      -3.194  -0.887  -2.085  1.00  0.00     0.194 HD
ATOM      7  C   UNL d   1      -1.200   1.354  -0.439  0.00  0.00     0.090 C 
ATOM      8  C   UNL d   1      -1.253  -1.272  -0.423  0.00  0.00     0.090 C 
ATOM      9  C   UNL d   1       1.349   1.215  -0.274  0.00  0.00     0.036 C 
ATOM     10  C   UNL d   1       1.289  -1.324  -0.169  0.00  0.00     0.036 C 
ATOM     11  C   UNL d   1       1.698  -0.096  -0.970  0.00  0.00     0.004 C 
ENDROOT
BRANCH   5  12
ATOM     12  O   UNL d   1      -3.350   1.256  -2.048  0.00  0.00    -0.195 OA
BRANCH  12  13
ATOM     13  C   UNL d   1      -4.512   1.084  -2.754  0.00  0.00     0.315 C 
ATOM     14  O   UNL d   1      -5.003   0.019  -3.119  0.00  0.00    -0.257 OA
BRANCH  13  15
ATOM     15  C   UNL d   1      -5.176   2.388  -3.050  0.00  0.00     0.041 A 
ATOM     16  C   UNL d   1      -6.373   2.353  -3.787  0.00  0.00     0.019 A 
ATOM     17  C   UNL d   1      -7.056   3.531  -4.102  0.00  0.00     0.025 A 
ATOM     18  C   UNL d   1      -6.547   4.755  -3.679  0.00  0.00     0.034 A 
ATOM     19  C   UNL d   1      -5.363   4.807  -2.941  0.00  0.00     0.025 A 
ATOM     20 CL   UNL d   1      -7.384   6.207  -4.066  0.00  0.00    -0.084 Cl
ATOM     21  C   UNL d   1      -4.676   3.627  -2.624  0.00  0.00     0.019 A 
ENDBRANCH  13  15
ENDBRANCH  12  13
ENDBRANCH   5  12
BRANCH   1  22
ATOM     22  C   UNL d   1      -1.164   0.116   2.338  0.00  0.00     0.319 C 
BRANCH  22  23
ATOM     23  C   UNL d   1      -1.150  -0.991   3.358  0.00  0.00     0.011 A 
ATOM     24  S   UNL d   1      -2.474  -2.078   3.463  0.00  0.00    -0.105 SA
ATOM     25  C   UNL d   1      -1.739  -2.950   4.735  0.00  0.00     0.050 A 
ATOM     26  C   UNL d   1      -0.525  -2.421   5.091  0.00  0.00     0.008 A 
ATOM     27  C   UNL d   1      -0.181  -1.284   4.301  0.00  0.00     0.017 A 
ENDBRANCH  22  23
ENDBRANCH   1  22
TORSDOF 5
