REMARK  8 active torsions:
REMARK  status: ('A' for Active; 'I' for Inactive)
REMARK    1  A    between atoms: S_8  and  C_1 
REMARK    2  A    between atoms: C_10  and  C_3 
REMARK    3  A    between atoms: C_4  and  C_13 
REMARK       I    between atoms: C_7  and  N_9 
REMARK    4  A    between atoms: C_14  and  C_7 
REMARK    5  A    between atoms: C_15  and  S_8 
REMARK    6  A    between atoms: N_9  and  C_16 
REMARK    7  A    between atoms: O_25  and  C_10 
REMARK    8  A    between atoms: C_32  and  O_25 
ROOT
ATOM      1  C   UNL d   1       0.652   3.171   1.945  0.00  0.00     0.097 A 
ATOM      2  C   UNL d   1      -0.697   3.189   2.302  0.00  0.00     0.094 A 
ATOM      3  C   UNL d   1      -1.237   4.416   2.715  0.00  0.00     0.065 A 
ATOM      4  N   UNL d   1       1.428   4.289   1.984  0.00  0.00    -0.353 N 
ATOM      5  HN  UNL d   1       2.417   4.237   1.742  1.00  0.00     0.166 HD
ATOM      6  C   UNL d   1      -1.491   2.001   2.251  0.00  0.00     0.103 C 
ATOM      7  N   UNL d   1      -2.152   1.045   2.233  0.00  0.00    -0.191 NA
ATOM      8  C   UNL d   1      -0.455   5.573   2.709  0.00  0.00     0.043 A 
ATOM      9  C   UNL d   1       0.876   5.467   2.347  0.00  0.00     0.007 A 
ATOM     10  C   UNL d   1       1.754   6.682   2.296  0.00  0.00     0.068 C 
ENDROOT
BRANCH   1  11
ATOM     11  S   UNL d   1       1.460   1.625   1.520  0.00  0.00    -0.069 SA
BRANCH  11  12
ATOM     12  C   UNL d   1       2.879   2.103   0.540  0.00  0.00     0.033 A 
ATOM     13  C   UNL d   1       3.103   1.691  -0.786  0.00  0.00     0.052 A 
ATOM     14  C   UNL d   1       4.416   1.758  -1.301  0.00  0.00     0.031 A 
ATOM     15  C   UNL d   1       5.466   2.309  -0.568  0.00  0.00     0.002 A 
ATOM     16  C   UNL d   1       5.222   2.806   0.702  0.00  0.00     0.002 A 
ATOM     17  C   UNL d   1       3.949   2.682   1.255  0.00  0.00     0.021 A 
BRANCH  13  18
ATOM     18  N   UNL d   1       2.156   1.199  -1.726  0.00  0.00    -0.322 N 
ATOM     19  C   UNL d   1       0.811   1.511  -1.838  0.00  0.00     0.256 C 
ATOM     20  O   UNL d   1       0.123   2.160  -1.063  0.00  0.00    -0.267 OA
ATOM     21  H   UNL d   1       2.581   0.868  -2.582  0.00  0.00     0.169 HD
BRANCH  19  22
ATOM     22  C   UNL d   1       0.229   1.148  -3.174  0.00  0.00     0.033 A 
ATOM     23  C   UNL d   1       0.678   0.043  -3.914  0.00  0.00     0.033 A 
ATOM     24  C   UNL d   1       0.290  -0.121  -5.256  0.00  0.00     0.048 A 
ATOM     25  C   UNL d   1      -0.599   0.804  -5.826  0.00  0.00     0.016 A 
ATOM     26  C   UNL d   1      -1.103   1.863  -5.069  0.00  0.00     0.002 A 
ATOM     27  C   UNL d   1      -0.691   2.034  -3.748  0.00  0.00     0.017 A 
BRANCH  24  28
ATOM     28  C   UNL d   1       0.859  -1.233  -6.106  0.00  0.00     0.417 C 
ATOM     29  F   UNL d   1       1.707  -2.053  -5.424  0.00  0.00    -0.166 F 
ATOM     30  F   UNL d   1      -0.098  -2.037  -6.640  0.00  0.00    -0.166 F 
ATOM     31  F   UNL d   1       1.580  -0.753  -7.158  0.00  0.00    -0.166 F 
ENDBRANCH  24  28
ENDBRANCH  19  22
ENDBRANCH  13  18
ENDBRANCH  11  12
ENDBRANCH   1  11
BRANCH   3  32
ATOM     32  C   UNL d   1      -2.636   4.579   3.174  0.00  0.00     0.295 C 
ATOM     33  O   UNL d   1      -3.309   5.565   2.926  0.00  0.00    -0.259 OA
BRANCH  32  34
ATOM     34  O   UNL d   1      -2.970   3.552   3.985  0.00  0.00    -0.318 OA
BRANCH  34  35
ATOM     35  C   UNL d   1      -4.295   3.578   4.538  0.00  0.00     0.174 C 
ATOM     36  C   UNL d   1      -4.300   4.378   5.826  0.00  0.00     0.034 C 
ENDBRANCH  34  35
ENDBRANCH  32  34
ENDBRANCH   3  32
TORSDOF 8
