REMARK  6 active torsions:
REMARK  status: ('A' for Active; 'I' for Inactive)
REMARK    1  A    between atoms: O_12  and  C_1 
REMARK    2  A    between atoms: O_13  and  C_2 
REMARK    3  A    between atoms: O_14  and  C_3 
REMARK    4  A    between atoms: C_11  and  N_4 
REMARK    5  A    between atoms: C_9  and  C_8 
REMARK    6  A    between atoms: O_16  and  C_15 
ROOT
ATOM      1  C   UNL d   1       1.411  -0.361  -0.078  0.00  0.00     0.135 A 
ATOM      2  C   UNL d   1       0.453  -1.398   0.047  0.00  0.00     0.105 A 
ATOM      3  C   UNL d   1       0.975   0.977  -0.164  0.00  0.00     0.105 A 
ATOM      4  C   UNL d   1      -0.397   1.250  -0.193  0.00  0.00     0.052 A 
ATOM      5  C   UNL d   1      -0.909  -1.106  -0.052  0.00  0.00     0.052 A 
ATOM      6  C   UNL d   1      -1.330   0.217  -0.160  0.00  0.00    -0.015 A 
ENDROOT
BRANCH   6   7
ATOM      7  C   UNL d   1      -2.776   0.489  -0.212  0.00  0.00     0.100 C 
ATOM      8  N   UNL d   1      -3.244   1.695  -0.161  0.00  0.00    -0.365 N 
ATOM      9  HN  UNL d   1      -2.611   2.493  -0.105  1.00  0.00     0.165 HD
BRANCH   8  10
ATOM     10  C   UNL d   1      -4.636   1.894  -0.182  0.00  0.00     0.034 A 
ATOM     11  C   UNL d   1      -5.542   1.073   0.507  0.00  0.00     0.066 A 
ATOM     12  C   UNL d   1      -6.909   1.351   0.503  0.00  0.00     0.070 A 
ATOM     13  C   UNL d   1      -7.376   2.475  -0.183  0.00  0.00     0.037 A 
ATOM     14  C   UNL d   1      -6.487   3.310  -0.857  0.00  0.00     0.005 A 
ATOM     15  C   UNL d   1      -5.124   3.018  -0.853  0.00  0.00     0.029 A 
BRANCH  12  16
ATOM     16  O   UNL d   1      -7.877   0.623   1.141  0.00  0.00    -0.356 OA
ATOM     17  C   UNL d   1      -7.451  -0.553   1.819  0.00  0.00     0.210 C 
ENDBRANCH  12  16
ENDBRANCH   8  10
ENDBRANCH   6   7
BRANCH   3  18
ATOM     18  O   UNL d   1       1.714   2.127  -0.229  0.00  0.00    -0.353 OA
ATOM     19  C   UNL d   1       3.129   2.056  -0.203  0.00  0.00     0.210 C 
ENDBRANCH   3  18
BRANCH   2  20
ATOM     20  O   UNL d   1       0.923  -2.670   0.281  0.00  0.00    -0.353 OA
ATOM     21  C   UNL d   1      -0.008  -3.617   0.795  0.00  0.00     0.210 C 
ENDBRANCH   2  20
BRANCH   1  22
ATOM     22  O   UNL d   1       2.753  -0.629   0.015  0.00  0.00    -0.351 OA
ATOM     23  C   UNL d   1       3.247  -1.557  -0.954  0.00  0.00     0.210 C 
ENDBRANCH   1  22
TORSDOF 6
