REMARK  1 active torsions:
REMARK  status: ('A' for Active; 'I' for Inactive)
REMARK    1  A    between atoms: C_6  and  C_1 
ROOT
ATOM      1  C   UNL d   1       2.538   0.052   0.011  0.00  0.00     0.057 A 
ATOM      2  S   UNL d   1       1.681   1.530  -0.020  0.00  0.00    -0.085 SA
ATOM      3  C   UNL d   1       1.665  -1.035  -0.000  0.00  0.00    -0.030 A 
ATOM      4  C   UNL d   1       0.271  -0.614   0.001  0.00  0.00    -0.011 A 
ATOM      5  C   UNL d   1       0.149   0.773  -0.003  0.00  0.00     0.016 A 
ATOM      6  C   UNL d   1      -0.929  -1.377   0.005  0.00  0.00     0.020 A 
ATOM      7  C   UNL d   1      -1.102   1.413   0.002  0.00  0.00     0.020 A 
ATOM      8  C   UNL d   1      -2.189  -0.754   0.009  0.00  0.00    -0.061 A 
ATOM      9  C   UNL d   1       2.054  -2.485   0.002  0.00  0.00     0.050 C 
ATOM     10  C   UNL d   1      -2.261   0.636   0.008  0.00  0.00     0.008 A 
ATOM     11  C   UNL d   1      -3.454  -1.561   0.012  0.00  0.00     0.048 C 
ENDROOT
BRANCH   1  12
ATOM     12  C   UNL d   1       4.005   0.050   0.001  0.00  0.00     0.163 C 
ATOM     13  O   UNL d   1       4.663  -0.936  -0.344  0.00  0.00    -0.292 OA
ATOM     14  C   UNL d   1       4.776   1.278   0.441  0.00  0.00     0.097 C 
ENDBRANCH   1  12
TORSDOF 1
