REMARK  2 active torsions:
REMARK  status: ('A' for Active; 'I' for Inactive)
REMARK    1  A    between atoms: C_11  and  C_7 
REMARK    2  A    between atoms: C_13  and  C_8 
ROOT
ATOM      1  N   UNL d   1       0.275   0.582  -0.045  0.00  0.00    -0.257 N 
ATOM      2  C   UNL d   1      -0.425  -0.604  -0.032  0.00  0.00     0.159 A 
ATOM      3  C   UNL d   1       1.649   0.553  -0.028  0.00  0.00     0.256 A 
ATOM      4  N   UNL d   1       0.068  -1.794  -0.022  0.00  0.00    -0.335 N 
ATOM      5  HN  UNL d   1      -0.525  -2.624  -0.011  1.00  0.00     0.168 HD
ATOM      6  C   UNL d   1       2.240  -0.799  -0.018  0.00  0.00     0.105 A 
ATOM      7  C   UNL d   1      -0.532   1.711  -0.062  0.00  0.00     0.061 A 
ATOM      8  C   UNL d   1       1.443  -1.878  -0.028  0.00  0.00     0.049 A 
ATOM      9  S   UNL d   1      -2.151  -0.272  -0.027  0.00  0.00    -0.063 SA
ATOM     10  C   UNL d   1      -1.846   1.440  -0.053  0.00  0.00     0.084 A 
ATOM     11  O   UNL d   1       2.412   1.516  -0.013  0.00  0.00    -0.268 OA
ENDROOT
BRANCH   7  12
ATOM     12  C   UNL d   1      -0.012   3.077  -0.101  0.00  0.00    -0.008 A 
ATOM     13  C   UNL d   1       0.245   3.770   1.089  0.00  0.00     0.015 A 
ATOM     14  C   UNL d   1       0.777   5.062   1.049  0.00  0.00     0.024 A 
ATOM     15  C   UNL d   1       1.045   5.662  -0.180  0.00  0.00     0.034 A 
ATOM     16  C   UNL d   1       0.777   4.988  -1.370  0.00  0.00     0.024 A 
ATOM     17 CL   UNL d   1       1.719   7.245  -0.228  0.00  0.00    -0.084 Cl
ATOM     18  C   UNL d   1       0.245   3.697  -1.331  0.00  0.00     0.015 A 
ENDBRANCH   7  12
BRANCH   8  19
ATOM     19  C   UNL d   1       2.048  -3.238   0.002  0.00  0.00    -0.009 A 
ATOM     20  C   UNL d   1       1.368  -4.290   0.636  0.00  0.00     0.013 A 
ATOM     21  C   UNL d   1       1.912  -5.577   0.684  0.00  0.00     0.001 A 
ATOM     22  C   UNL d   1       3.145  -5.836   0.092  0.00  0.00     0.000 A 
ATOM     23  C   UNL d   1       3.830  -4.812  -0.556  0.00  0.00     0.001 A 
ATOM     24  C   UNL d   1       3.283  -3.526  -0.608  0.00  0.00     0.013 A 
ENDBRANCH   8  19
TORSDOF 2
