REMARK  3 active torsions:
REMARK  status: ('A' for Active; 'I' for Inactive)
REMARK    1  A    between atoms: C_2  and  N_1 
REMARK    2  A    between atoms: O_12  and  C_3 
REMARK    3  A    between atoms: O_13  and  C_4 
ROOT
ATOM      1  C   UNL d   1       0.341  -0.311   1.111  0.00  0.00     0.204 A 
ATOM      2  C   UNL d   1       0.664   0.243   2.325  0.00  0.00     0.181 A 
ATOM      3  C   UNL d   1      -0.668  -1.243   1.095  0.00  0.00     0.181 A 
ATOM      4  N   UNL d   1      -1.327  -1.610   2.216  0.00  0.00    -0.331 N 
ATOM      5  HN  UNL d   1      -2.076  -2.302   2.197  1.00  0.00     0.168 HD
ATOM      6  N   UNL d   1       0.025  -0.098   3.466  0.00  0.00    -0.331 N 
ATOM      7  HN  UNL d   1       0.267   0.319   4.364  1.00  0.00     0.168 HD
ATOM      8  C   UNL d   1      -0.944  -1.014   3.352  0.00  0.00     0.184 A 
ENDROOT
BRANCH   1   9
ATOM      9  N   UNL d   1       1.023   0.063  -0.081  0.00  0.00    -0.107 N 
ATOM     10  O   UNL d   1       2.219  -0.244  -0.170  0.00  0.00    -0.531 OA
ATOM     11  O   UNL d   1       0.369   0.669  -0.942  0.00  0.00    -0.531 OA
ENDBRANCH   1   9
BRANCH   2  12
ATOM     12  O   UNL d   1       1.651   1.204   2.394  0.00  0.00    -0.339 OA
ATOM     13  C   UNL d   1       1.909   1.662   3.720  0.00  0.00     0.211 C 
ENDBRANCH   2  12
BRANCH   3  14
ATOM     14  O   UNL d   1      -1.010  -1.856  -0.091  0.00  0.00    -0.339 OA
ATOM     15  C   UNL d   1      -2.098  -2.771   0.033  0.00  0.00     0.211 C 
ENDBRANCH   3  14
TORSDOF 3
