REMARK  3 active torsions:
REMARK  status: ('A' for Active; 'I' for Inactive)
REMARK    1  A    between atoms: C_4  and  C_1 
REMARK       I    between atoms: N_9  and  C_4 
REMARK    2  A    between atoms: C_5  and  N_7 
REMARK    3  A    between atoms: N_7  and  N_9 
ROOT
ATOM      1  C   UNL d   1      -2.570  -1.384  -0.099  0.00  0.00     0.284 C 
ATOM      2  N   UNL d   1      -3.845  -0.850  -0.175  0.00  0.00    -0.281 N 
ATOM      3  O   UNL d   1      -1.570  -0.709   0.148  0.00  0.00    -0.265 OA
ATOM      4  H   UNL d   1      -4.642  -1.488  -0.173  0.00  0.00     0.184 HD
ENDROOT
BRANCH   2   5
ATOM      5  N   UNL d   1      -4.067   0.460   0.284  0.00  0.00    -0.200 NA
ATOM      6  H   UNL d   1      -3.183   0.992   0.296  0.00  0.00     0.153 HD
BRANCH   5   7
ATOM      7  C   UNL d   1      -5.068   1.179  -0.442  0.00  0.00     0.071 A 
ATOM      8  C   UNL d   1      -6.306   0.632  -0.850  0.00  0.00     0.058 A 
ATOM      9 CL   UNL d   1      -6.758  -1.020  -0.568  0.00  0.00    -0.082 Cl
ATOM     10  C   UNL d   1      -7.279   1.424  -1.480  0.00  0.00     0.026 A 
ATOM     11  C   UNL d   1      -7.063   2.784  -1.684  0.00  0.00     0.003 A 
ATOM     12  C   UNL d   1      -5.872   3.360  -1.257  0.00  0.00     0.026 A 
ATOM     13  C   UNL d   1      -4.894   2.570  -0.639  0.00  0.00     0.058 A 
ATOM     14 CL   UNL d   1      -3.439   3.361  -0.128  0.00  0.00    -0.082 Cl
ENDBRANCH   5   7
ENDBRANCH   2   5
BRANCH   1  15
ATOM     15  C   UNL d   1      -2.520  -2.825  -0.344  0.00  0.00     0.126 A 
ATOM     16  N   UNL d   1      -3.626  -3.533  -0.642  0.00  0.00    -0.256 N 
ATOM     17  O   UNL d   1      -3.203  -4.834  -0.843  0.00  0.00    -0.242 OA
ATOM     18  HN  UNL d   1      -4.581  -3.182  -0.705  1.00  0.00     0.195 HD
ATOM     19  C   UNL d   1      -1.859  -4.910  -0.658  0.00  0.00     0.075 A 
ATOM     20  C   UNL d   1      -1.380  -3.669  -0.324  0.00  0.00     0.071 A 
ATOM     21  C   UNL d   1      -1.245  -6.234  -0.858  0.00  0.00     0.079 C 
ENDBRANCH   1  15
TORSDOF 3
