REMARK  3 active torsions:
REMARK  status: ('A' for Active; 'I' for Inactive)
REMARK    1  A    between atoms: C_2  and  S_1 
REMARK    2  A    between atoms: N_12  and  S_1 
REMARK    3  A    between atoms: N_3  and  C_5 
ROOT
ATOM      1  C   UNL d   1       0.336  -0.101   1.679  0.00  0.00     0.097 A 
ATOM      2  C   UNL d   1       0.157  -1.329   2.326  0.00  0.00     0.036 A 
ATOM      3  C   UNL d   1      -0.589  -0.152   4.318  0.00  0.00     0.104 A 
ATOM      4  C   UNL d   1      -0.306  -1.352   3.651  0.00  0.00     0.056 A 
ATOM      5  C   UNL d   1       0.052   1.099   2.357  0.00  0.00     0.029 A 
ATOM      6  C   UNL d   1      -0.409   1.077   3.675  0.00  0.00     0.038 A 
ATOM      7 BR   UNL d   1       0.508  -3.023   1.541  0.00  0.00    -0.049 Br
ENDROOT
BRANCH   1   8
ATOM      8  S   UNL d   1       0.849   0.023  -0.018  0.00  0.00     0.259 S 
ATOM      9  O   UNL d   1       1.037   1.423  -0.335  0.00  0.00    -0.201 OA
ATOM     10  O   UNL d   1      -0.036  -0.805  -0.804  0.00  0.00    -0.201 OA
BRANCH   8  11
ATOM     11  N   UNL d   1       2.362  -0.702  -0.037  0.00  0.00    -0.320 N 
ATOM     12  C   UNL d   1       3.531   0.104   0.292  0.00  0.00     0.159 C 
ATOM     13  H   UNL d   1       2.446  -1.386  -0.789  0.00  0.00     0.171 HD
ENDBRANCH   8  11
ENDBRANCH   1   8
BRANCH   3  14
ATOM     14  N   UNL d   1      -1.080  -0.183   5.702  0.00  0.00    -0.116 N 
ATOM     15  O   UNL d   1      -1.230  -1.292   6.233  0.00  0.00    -0.532 OA
ATOM     16  O   UNL d   1      -1.310   0.900   6.254  0.00  0.00    -0.532 OA
ENDBRANCH   3  14
TORSDOF 3
