REMARK  3 active torsions:
REMARK  status: ('A' for Active; 'I' for Inactive)
REMARK    1  A    between atoms: N_2  and  S_1 
REMARK    2  A    between atoms: C_12  and  S_1 
REMARK    3  A    between atoms: C_3  and  N_4 
ROOT
ATOM      1  C   UNL d   1       3.704  -2.093  -3.837  0.00  0.00     0.141 A 
ATOM      2  C   UNL d   1       4.814  -1.393  -4.351  0.00  0.00     0.158 A 
ATOM      3  C   UNL d   1       5.178  -0.070  -3.932  0.00  0.00     0.121 C 
ATOM      4  N   UNL d   1       5.457   1.010  -3.595  0.00  0.00    -0.190 NA
ATOM      5  N   UNL d   1       3.518  -3.380  -4.245  0.00  0.00    -0.349 N 
ATOM      6  HN  UNL d   1       2.746  -3.938  -3.879  1.00  0.00     0.167 HD
ATOM      7  N   UNL d   1       5.694  -1.924  -5.258  0.00  0.00    -0.353 N 
ATOM      8  HN  UNL d   1       6.488  -1.394  -5.616  1.00  0.00     0.166 HD
ATOM      9  C   UNL d   1       4.382  -3.903  -5.146  0.00  0.00     0.106 A 
ATOM     10  C   UNL d   1       5.444  -3.187  -5.649  0.00  0.00     0.106 A 
ENDROOT
BRANCH   1  11
ATOM     11  N   UNL d   1       2.716  -1.610  -2.999  0.00  0.00    -0.362 N 
ATOM     12  C   UNL d   1       2.398  -0.183  -2.847  0.00  0.00     0.145 C 
ATOM     13  C   UNL d   1       0.915  -0.007  -2.472  0.00  0.00     0.155 C 
ATOM     14  N   UNL d   1       0.569  -0.780  -1.246  0.00  0.00    -0.304 N 
ATOM     15  C   UNL d   1       0.852  -2.236  -1.443  0.00  0.00     0.155 C 
ATOM     16  C   UNL d   1       2.315  -2.490  -1.877  0.00  0.00     0.145 C 
BRANCH  14  17
ATOM     17  S   UNL d   1       1.023  -0.102   0.244  0.00  0.00     0.260 S 
ATOM     18  O   UNL d   1       1.252   1.316   0.053  0.00  0.00    -0.200 OA
ATOM     19  O   UNL d   1       2.023  -0.950   0.854  0.00  0.00    -0.200 OA
BRANCH  17  20
ATOM     20  C   UNL d   1      -0.485  -0.269   1.177  0.00  0.00     0.079 A 
ATOM     21  C   UNL d   1      -0.696  -1.396   1.975  0.00  0.00     0.025 A 
ATOM     22  C   UNL d   1      -1.888  -1.516   2.693  0.00  0.00     0.002 A 
ATOM     23  C   UNL d   1      -2.853  -0.509   2.624  0.00  0.00     0.000 A 
ATOM     24  C   UNL d   1      -2.621   0.633   1.857  0.00  0.00     0.002 A 
ATOM     25  C   UNL d   1      -1.433   0.760   1.136  0.00  0.00     0.025 A 
ENDBRANCH  17  20
ENDBRANCH  14  17
ENDBRANCH   1  11
TORSDOF 3
