REMARK  4 active torsions:
REMARK  status: ('A' for Active; 'I' for Inactive)
REMARK    1  A    between atoms: C_3  and  N_1 
REMARK    2  A    between atoms: S_11  and  C_2 
REMARK    3  A    between atoms: C_17  and  S_11 
REMARK    4  A    between atoms: C_19  and  C_17 
ROOT
ATOM      1  N   UNL d   1      -0.270   1.169   0.025  0.00  0.00    -0.286 N 
ATOM      2  C   UNL d   1       1.050   0.749   0.032  0.00  0.00     0.167 A 
ATOM      3  N   UNL d   1       1.110  -0.564   0.060  0.00  0.00    -0.279 N 
ATOM      4  HN  UNL d   1       1.959  -1.128   0.032  1.00  0.00     0.189 HD
ATOM      5  N   UNL d   1      -0.175  -1.040   0.133  0.00  0.00    -0.294 N 
ATOM      6  HN  UNL d   1      -0.453  -2.020   0.167  1.00  0.00     0.187 HD
ATOM      7  C   UNL d   1      -0.981  -0.003   0.149  0.00  0.00     0.207 A 
ENDROOT
BRANCH   1   8
ATOM      8  C   UNL d   1      -0.823   2.473  -0.083  0.00  0.00     0.045 A 
ATOM      9  C   UNL d   1      -0.165   3.466  -0.821  0.00  0.00     0.069 A 
ATOM     10  C   UNL d   1      -0.688   4.756  -0.885  0.00  0.00     0.104 A 
ATOM     11  O   UNL d   1       0.036   5.671  -1.605  0.00  0.00    -0.346 OA
ATOM     12  C   UNL d   1      -1.892   5.058  -0.247  0.00  0.00     0.102 A 
ATOM     13  C   UNL d   1      -0.374   7.009  -1.304  0.00  0.00     0.202 C 
ATOM     14  C   UNL d   1      -1.890   7.117  -1.311  0.00  0.00     0.202 C 
ATOM     15  O   UNL d   1      -2.466   6.302  -0.281  0.00  0.00    -0.346 OA
ATOM     16  C   UNL d   1      -2.564   4.071   0.471  0.00  0.00     0.042 A 
ATOM     17  C   UNL d   1      -2.042   2.774   0.544  0.00  0.00     0.033 A 
ENDBRANCH   1   8
BRANCH   2  18
ATOM     18  S   UNL d   1       2.409   1.803   0.246  0.00  0.00    -0.087 SA
BRANCH  18  19
ATOM     19  C   UNL d   1       3.804   0.689  -0.066  0.00  0.00     0.121 C 
BRANCH  19  20
ATOM     20  C   UNL d   1       5.093   1.480  -0.051  0.00  0.00    -0.048 A 
ATOM     21  C   UNL d   1       5.738   1.762   1.164  0.00  0.00     0.009 A 
ATOM     22  C   UNL d   1       6.887   2.556   1.190  0.00  0.00     0.024 A 
ATOM     23  C   UNL d   1       7.396   3.074   0.001  0.00  0.00     0.034 A 
ATOM     24  C   UNL d   1       6.769   2.804  -1.213  0.00  0.00     0.024 A 
ATOM     25 CL   UNL d   1       8.804   4.064   0.035  0.00  0.00    -0.084 Cl
ATOM     26  C   UNL d   1       5.619   2.011  -1.239  0.00  0.00     0.009 A 
ENDBRANCH  19  20
ENDBRANCH  18  19
ENDBRANCH   2  18
TORSDOF 4
