REMARK  2 active torsions:
REMARK  status: ('A' for Active; 'I' for Inactive)
REMARK    1  A    between atoms: C_2  and  C_1 
REMARK       I    between atoms: N_6  and  C_2 
REMARK    2  A    between atoms: C_10  and  N_6 
ROOT
ATOM      1  C   UNL d   1      -2.504  -1.881  -0.163  0.00  0.00     0.258 C 
ATOM      2  N   UNL d   1      -2.421  -3.124   0.461  0.00  0.00    -0.323 N 
ATOM      3  O   UNL d   1      -3.494  -1.416  -0.710  0.00  0.00    -0.267 OA
ATOM      4  H   UNL d   1      -1.526  -3.402   0.836  0.00  0.00     0.169 HD
ENDROOT
BRANCH   1   5
ATOM      5  C   UNL d   1      -1.243  -1.082  -0.143  0.00  0.00     0.054 A 
ATOM      6  C   UNL d   1      -1.224   0.307   0.043  0.00  0.00     0.021 A 
ATOM      7  N   UNL d   1      -0.054   1.009   0.110  0.00  0.00    -0.363 N 
ATOM      8  C   UNL d   1      -2.438   1.181   0.151  0.00  0.00     0.069 C 
ATOM      9  C   UNL d   1       1.122   0.356  -0.032  0.00  0.00     0.005 A 
ATOM     10  HN  UNL d   1      -0.068   2.017   0.265  1.00  0.00     0.165 HD
ATOM     11  C   UNL d   1       1.180  -1.005  -0.275  0.00  0.00     0.025 A 
ATOM     12  C   UNL d   1       2.363   1.191   0.046  0.00  0.00     0.068 C 
ATOM     13  C   UNL d   1      -0.010  -1.727  -0.330  0.00  0.00     0.021 A 
ENDBRANCH   1   5
BRANCH   2  14
ATOM     14  C   UNL d   1      -3.479  -4.031   0.712  0.00  0.00     0.035 A 
ATOM     15  C   UNL d   1      -4.819  -3.764   0.432  0.00  0.00     0.029 A 
ATOM     16  C   UNL d   1      -5.818  -4.677   0.787  0.00  0.00     0.002 A 
ATOM     17  C   UNL d   1      -5.486  -5.875   1.414  0.00  0.00     0.000 A 
ATOM     18  C   UNL d   1      -4.151  -6.169   1.671  0.00  0.00     0.002 A 
ATOM     19  C   UNL d   1      -3.153  -5.251   1.324  0.00  0.00     0.029 A 
ENDBRANCH   2  14
TORSDOF 2
