REMARK  3 active torsions:
REMARK  status: ('A' for Active; 'I' for Inactive)
REMARK    1  A    between atoms: N_2  and  S_1 
REMARK    2  A    between atoms: C_15  and  S_1 
REMARK    3  A    between atoms: C_6  and  C_5 
ROOT
ATOM      1  N   UNL d   1       0.527  -0.814  -1.436  0.00  0.00    -0.188 N 
ATOM      2  N   UNL d   1       0.058  -0.187  -2.555  0.00  0.00    -0.284 N 
ATOM      3  HN  UNL d   1      -0.018   0.815  -2.730  1.00  0.00     0.188 HD
ATOM      4  C   UNL d   1      -0.279  -1.197  -3.371  0.00  0.00     0.067 C 
ATOM      5  C   UNL d   1       0.640  -2.174  -1.603  0.00  0.00     0.132 C 
ATOM      6  C   UNL d   1       0.098  -2.452  -2.834  0.00  0.00     0.052 C 
ENDROOT
BRANCH   1   7
ATOM      7  S   UNL d   1       0.947  -0.044   0.063  0.00  0.00     0.282 S 
ATOM      8  O   UNL d   1       1.236  -1.123   0.992  0.00  0.00    -0.198 OA
ATOM      9  O   UNL d   1      -0.104   0.925   0.320  0.00  0.00    -0.198 OA
BRANCH   7  10
ATOM     10  C   UNL d   1       2.446   0.836  -0.265  0.00  0.00     0.081 A 
ATOM     11  C   UNL d   1       2.461   1.846  -1.231  0.00  0.00     0.025 A 
ATOM     12  C   UNL d   1       3.629   2.583  -1.434  0.00  0.00     0.002 A 
ATOM     13  C   UNL d   1       4.767   2.317  -0.670  0.00  0.00     0.000 A 
ATOM     14  C   UNL d   1       4.745   1.314   0.299  0.00  0.00     0.002 A 
ATOM     15  C   UNL d   1       3.583   0.572   0.508  0.00  0.00     0.025 A 
ENDBRANCH   7  10
ENDBRANCH   1   7
BRANCH   4  16
ATOM     16  C   UNL d   1      -0.996  -0.983  -4.674  0.00  0.00     0.034 A 
ATOM     17  S   UNL d   1      -1.542  -2.257  -5.681  0.00  0.00    -0.081 SA
ATOM     18  C   UNL d   1      -2.248  -1.169  -6.768  0.00  0.00     0.052 A 
ATOM     19 BR   UNL d   1      -3.198  -1.717  -8.287  0.00  0.00    -0.043 Br
ATOM     20  C   UNL d   1      -2.058   0.144  -6.421  0.00  0.00     0.028 A 
ATOM     21  C   UNL d   1      -1.326   0.253  -5.197  0.00  0.00     0.023 A 
ENDBRANCH   4  16
TORSDOF 3
