REMARK  4 active torsions:
REMARK  status: ('A' for Active; 'I' for Inactive)
REMARK    1  A    between atoms: C_2  and  N_1 
REMARK    2  A    between atoms: N_5  and  C_2 
REMARK    3  A    between atoms: C_4  and  C_3 
REMARK    4  A    between atoms: C_12  and  N_5 
ROOT
ATOM      1  C   UNL d   1       2.133  -1.295  -0.525  0.00  0.00     0.176 C 
ATOM      2  S   UNL d   1       2.261  -2.977  -0.495  0.00  0.00    -0.041 SA
ENDROOT
BRANCH   1   3
ATOM      3  N   UNL d   1       0.958  -0.631  -0.209  0.00  0.00    -0.325 N 
ATOM      4  C   UNL d   1      -0.048  -1.125   0.721  0.00  0.00     0.260 C 
ATOM      5  O   UNL d   1      -1.236  -0.345   0.470  0.00  0.00    -0.361 OA
ATOM      6  C   UNL d   1      -0.909   0.689  -0.466  0.00  0.00     0.191 C 
ATOM      7  C   UNL d   1       0.597   0.710  -0.587  0.00  0.00     0.154 C 
BRANCH   4   8
ATOM      8  C   UNL d   1       0.425  -0.905   2.149  0.00  0.00    -0.003 A 
ATOM      9  C   UNL d   1       0.133   0.208   2.922  0.00  0.00     0.061 A 
ATOM     10  S   UNL d   1       0.821   0.152   4.484  0.00  0.00    -0.113 SA
ATOM     11  C   UNL d   1       1.516  -1.375   4.178  0.00  0.00     0.050 A 
ATOM     12  C   UNL d   1       1.225  -1.829   2.909  0.00  0.00     0.019 A 
ENDBRANCH   4   8
ENDBRANCH   1   3
BRANCH   1  13
ATOM     13  N   UNL d   1       3.159  -0.456  -0.931  0.00  0.00    -0.333 N 
ATOM     14  H   UNL d   1       2.902   0.309  -1.536  0.00  0.00     0.168 HD
BRANCH  13  15
ATOM     15  C   UNL d   1       4.551  -0.611  -0.715  0.00  0.00     0.034 A 
ATOM     16  C   UNL d   1       5.072  -1.368   0.339  0.00  0.00     0.036 A 
ATOM     17  C   UNL d   1       6.456  -1.472   0.543  0.00  0.00    -0.060 A 
ATOM     18  C   UNL d   1       7.000  -2.280   1.684  0.00  0.00     0.048 C 
ATOM     19  C   UNL d   1       7.322  -0.791  -0.316  0.00  0.00     0.007 A 
ATOM     20  C   UNL d   1       6.812  -0.008  -1.351  0.00  0.00     0.003 A 
ATOM     21  C   UNL d   1       5.431   0.092  -1.543  0.00  0.00     0.029 A 
ENDBRANCH  13  15
ENDBRANCH   1  13
TORSDOF 4
