REMARK  3 active torsions:
REMARK  status: ('A' for Active; 'I' for Inactive)
REMARK    1  A    between atoms: C_6  and  C_1 
REMARK    2  A    between atoms: C_7  and  C_6 
REMARK       I    between atoms: N_8  and  C_7 
REMARK    3  A    between atoms: C_10  and  N_8 
ROOT
ATOM      1  C   UNL d   1       3.603  -0.092  -0.200  0.00  0.00     0.150 C 
ENDROOT
BRANCH   1   2
ATOM      2  C   UNL d   1       2.153  -0.251  -0.552  0.00  0.00    -0.001 C 
ATOM      3  S   UNL d   1       1.046  -0.523   0.727  0.00  0.00    -0.093 SA
ATOM      4  C   UNL d   1      -0.084  -1.291  -0.311  0.00  0.00     0.016 A 
ATOM      5  C   UNL d   1      -1.215  -2.039   0.075  0.00  0.00     0.021 A 
ATOM      6  C   UNL d   1       0.256  -1.096  -1.651  0.00  0.00    -0.011 A 
ATOM      7  C   UNL d   1      -2.033  -2.588  -0.913  0.00  0.00     0.025 A 
ATOM      8  C   UNL d   1      -1.758  -2.354  -2.252  0.00  0.00     0.035 A 
ATOM      9  C   UNL d   1      -0.633  -1.613  -2.633  0.00  0.00     0.037 A 
ATOM     10 CL   UNL d   1      -2.792  -3.012  -3.460  0.00  0.00    -0.084 Cl
ATOM     11  C   UNL d   1       1.561  -0.465  -1.790  0.00  0.00    -0.037 C 
ATOM     12  C   UNL d   1       2.236  -0.281  -3.114  0.00  0.00     0.050 C 
ENDBRANCH   1   2
BRANCH   1  13
ATOM     13  C   UNL d   1       4.308   1.240  -0.315  0.00  0.00     0.226 C 
ATOM     14  N   UNL d   1       3.605   2.384  -0.610  0.00  0.00    -0.327 N 
ATOM     15  H   UNL d   1       2.594   2.322  -0.650  0.00  0.00     0.169 HD
ATOM     16  O   UNL d   1       5.523   1.218  -0.077  0.00  0.00    -0.273 OA
BRANCH  14  17
ATOM     17  C   UNL d   1       4.171   3.696  -0.621  0.00  0.00     0.036 A 
ATOM     18  C   UNL d   1       5.552   3.943  -0.645  0.00  0.00     0.053 A 
ATOM     19  C   UNL d   1       6.052   5.240  -0.520  0.00  0.00     0.036 A 
ATOM     20 CL   UNL d   1       7.755   5.502  -0.489  0.00  0.00    -0.084 Cl
ATOM     21  C   UNL d   1       5.187   6.322  -0.399  0.00  0.00     0.024 A 
ATOM     22  C   UNL d   1       3.811   6.100  -0.441  0.00  0.00     0.004 A 
ATOM     23  C   UNL d   1       3.306   4.797  -0.563  0.00  0.00     0.029 A 
ENDBRANCH  14  17
ENDBRANCH   1  13
TORSDOF 3
