REMARK  2 active torsions:
REMARK  status: ('A' for Active; 'I' for Inactive)
REMARK    1  A    between atoms: C_2  and  C_1 
REMARK    2  A    between atoms: N_14  and  C_8 
ROOT
ATOM      1  C   UNL d   1       2.955  -0.989  -0.059  0.00  0.00     0.040 A 
ATOM      2  S   UNL d   1       4.029  -0.521   1.188  0.00  0.00    -0.087 SA
ATOM      3  C   UNL d   1       3.585  -1.777  -1.016  0.00  0.00    -0.031 A 
ATOM      4  C   UNL d   1       4.978  -2.022  -0.667  0.00  0.00    -0.010 A 
ATOM      5  C   UNL d   1       5.340  -1.399   0.526  0.00  0.00     0.016 A 
ATOM      6  C   UNL d   1       5.974  -2.777  -1.343  0.00  0.00     0.037 A 
ATOM      7  C   UNL d   1       6.638  -1.512   1.065  0.00  0.00     0.021 A 
ATOM      8  C   UNL d   1       7.262  -2.886  -0.815  0.00  0.00     0.035 A 
ATOM      9  C   UNL d   1       2.996  -2.346  -2.274  0.00  0.00     0.050 C 
ATOM     10  C   UNL d   1       7.593  -2.265   0.379  0.00  0.00     0.025 A 
ATOM     11 CL   UNL d   1       8.450  -3.804  -1.658  0.00  0.00    -0.084 Cl
ENDROOT
BRANCH   1  12
ATOM     12  C   UNL d   1       1.507  -0.559  -0.045  0.00  0.00     0.069 A 
ATOM     13  N   UNL d   1       0.609  -1.010  -0.927  0.00  0.00    -0.296 N 
ATOM     14  N   UNL d   1      -0.546  -0.427  -0.566  0.00  0.00    -0.281 N 
ATOM     15  HN  UNL d   1       0.767  -1.653  -1.703  1.00  0.00     0.187 HD
ATOM     16  C   UNL d   1      -1.750  -0.758  -1.289  0.00  0.00     0.179 C 
ATOM     17  C   UNL d   1      -0.416   0.422   0.502  0.00  0.00     0.117 A 
ATOM     18  C   UNL d   1       0.903   0.336   0.877  0.00  0.00     0.082 A 
BRANCH  17  19
ATOM     19  N   UNL d   1      -1.430   1.144   1.024  0.00  0.00    -0.384 N 
ATOM     20  H   UNL d   1      -1.237   1.869   1.711  0.00  0.00     0.157 HD
ATOM     21  H   UNL d   1      -2.309   1.284   0.535  0.00  0.00     0.157 HD
ENDBRANCH  17  19
ENDBRANCH   1  12
TORSDOF 2
