REMARK  5 active torsions:
REMARK  status: ('A' for Active; 'I' for Inactive)
REMARK    1  A    between atoms: S_9  and  C_3 
REMARK    2  A    between atoms: C_13  and  C_6 
REMARK    3  A    between atoms: O_14  and  C_8 
REMARK    4  A    between atoms: C_11  and  S_9 
REMARK    5  A    between atoms: C_10  and  C_11 
ROOT
ATOM      1  N   UNL d   1      -0.315  -1.127  -0.133  0.00  0.00    -0.318 N 
ATOM      2  HN  UNL d   1      -0.846  -1.996  -0.173  1.00  0.00     0.170 HD
ATOM      3  C   UNL d   1       1.022  -1.114  -0.100  0.00  0.00     0.146 A 
ATOM      4  N   UNL d   1       1.773  -0.002  -0.040  0.00  0.00    -0.336 N 
ATOM      5  HN  UNL d   1       2.792  -0.053  -0.019  1.00  0.00     0.168 HD
ATOM      6  C   UNL d   1       1.133   1.188  -0.010  0.00  0.00     0.048 A 
ATOM      7  C   UNL d   1      -0.246   1.264  -0.053  0.00  0.00     0.086 A 
ATOM      8  C   UNL d   1      -0.910   0.066  -0.110  0.00  0.00     0.143 A 
ENDROOT
BRANCH   3   9
ATOM      9  S   UNL d   1       1.888  -2.665  -0.055  0.00  0.00    -0.089 SA
BRANCH   9  10
ATOM     10  C   UNL d   1       0.622  -3.748  -0.790  0.00  0.00     0.122 C 
BRANCH  10  11
ATOM     11  C   UNL d   1       1.020  -5.206  -0.717  0.00  0.00    -0.027 A 
ATOM     12  C   UNL d   1       1.781  -5.846  -1.707  0.00  0.00     0.041 A 
ATOM     13 CL   UNL d   1       2.336  -5.014  -3.116  0.00  0.00    -0.084 Cl
ATOM     14  C   UNL d   1       2.114  -7.201  -1.585  0.00  0.00     0.024 A 
ATOM     15  C   UNL d   1       1.696  -7.932  -0.474  0.00  0.00     0.002 A 
ATOM     16  C   UNL d   1       0.950  -7.310   0.522  0.00  0.00     0.001 A 
ATOM     17  C   UNL d   1       0.618  -5.958   0.404  0.00  0.00     0.009 A 
ENDBRANCH  10  11
ENDBRANCH   9  10
ENDBRANCH   3   9
BRANCH   8  18
ATOM     18  O   UNL d   1      -2.274   0.016  -0.142  0.00  0.00    -0.346 OA
ATOM     19  H   UNL d   1      -2.622   0.918  -0.088  0.00  0.00     0.219 HD
ENDBRANCH   8  18
BRANCH   6  20
ATOM     20  C   UNL d   1       1.995   2.389   0.071  0.00  0.00    -0.009 A 
ATOM     21  C   UNL d   1       1.579   3.565   0.728  0.00  0.00     0.013 A 
ATOM     22  C   UNL d   1       2.401   4.697   0.790  0.00  0.00     0.001 A 
ATOM     23  C   UNL d   1       3.660   4.678   0.200  0.00  0.00     0.000 A 
ATOM     24  C   UNL d   1       4.101   3.527  -0.447  0.00  0.00     0.001 A 
ATOM     25  C   UNL d   1       3.278   2.397  -0.507  0.00  0.00     0.013 A 
ENDBRANCH   6  20
TORSDOF 5
