REMARK  5 active torsions:
REMARK  status: ('A' for Active; 'I' for Inactive)
REMARK    1  A    between atoms: C_7  and  N_1 
REMARK    2  A    between atoms: S_8  and  C_2 
REMARK    3  A    between atoms: C_21  and  S_8 
REMARK    4  A    between atoms: C_11  and  C_12 
REMARK    5  A    between atoms: C_20  and  C_21 
ROOT
ATOM      1  N   UNL d   1       0.932  -0.601   0.093  0.00  0.00    -0.241 N 
ATOM      2  C   UNL d   1       0.706   0.561   0.791  0.00  0.00     0.170 A 
ATOM      3  C   UNL d   1      -0.206  -0.759  -0.679  0.00  0.00     0.347 A 
ATOM      4  N   UNL d   1      -0.451   1.116   0.573  0.00  0.00    -0.275 N 
ATOM      5  HN  UNL d   1      -0.825   1.970   0.987  1.00  0.00     0.189 HD
ATOM      6  N   UNL d   1      -1.047   0.299  -0.333  0.00  0.00    -0.249 N 
ATOM      7  O   UNL d   1      -0.515  -1.615  -1.489  0.00  0.00    -0.245 OA
ATOM      8  H   UNL d   1      -1.945   0.497  -0.757  0.00  0.00     0.192 HD
ENDROOT
BRANCH   1   9
ATOM      9  C   UNL d   1       2.052  -1.478   0.062  0.00  0.00     0.046 A 
ATOM     10  C   UNL d   1       2.309  -2.303  -1.041  0.00  0.00     0.031 A 
ATOM     11  C   UNL d   1       3.466  -3.101  -1.113  0.00  0.00     0.010 A 
ATOM     12  C   UNL d   1       4.410  -3.120  -0.076  0.00  0.00    -0.051 A 
ATOM     13  C   UNL d   1       4.111  -2.354   1.055  0.00  0.00     0.010 A 
ATOM     14  C   UNL d   1       2.952  -1.569   1.126  0.00  0.00     0.031 A 
BRANCH  12  15
ATOM     15  C   UNL d   1       5.698  -3.952  -0.188  0.00  0.00    -0.024 C 
ATOM     16  C   UNL d   1       6.613  -3.830   1.054  0.00  0.00     0.019 C 
ATOM     17  C   UNL d   1       5.343  -5.443  -0.355  0.00  0.00     0.019 C 
ATOM     18  C   UNL d   1       6.526  -3.488  -1.405  0.00  0.00     0.019 C 
ENDBRANCH  12  15
ENDBRANCH   1   9
BRANCH   2  19
ATOM     19  S   UNL d   1       1.887   1.359   1.798  0.00  0.00    -0.087 SA
BRANCH  19  20
ATOM     20  C   UNL d   1       0.808   2.265   2.936  0.00  0.00     0.121 C 
BRANCH  20  21
ATOM     21  C   UNL d   1       1.578   3.022   4.000  0.00  0.00    -0.047 A 
ATOM     22  C   UNL d   1       1.965   2.395   5.197  0.00  0.00     0.033 A 
ATOM     23  C   UNL d   1       2.607   3.117   6.213  0.00  0.00     0.056 A 
ATOM     24 CL   UNL d   1       3.011   2.278   7.668  0.00  0.00    -0.083 Cl
ATOM     25  C   UNL d   1       2.882   4.478   6.036  0.00  0.00     0.055 A 
ATOM     26  C   UNL d   1       2.529   5.103   4.837  0.00  0.00     0.026 A 
ATOM     27 CL   UNL d   1       3.638   5.442   7.255  0.00  0.00    -0.083 Cl
ATOM     28  C   UNL d   1       1.887   4.379   3.826  0.00  0.00     0.010 A 
ENDBRANCH  20  21
ENDBRANCH  19  20
ENDBRANCH   2  19
TORSDOF 5
