REMARK  9 active torsions:
REMARK  status: ('A' for Active; 'I' for Inactive)
REMARK    1  A    between atoms: C_10  and  N_1 
REMARK    2  A    between atoms: C_7  and  C_2 
REMARK    3  A    between atoms: C_11  and  N_5 
REMARK       I    between atoms: N_8  and  C_7 
REMARK       I    between atoms: C_9  and  N_8 
REMARK    4  A    between atoms: O_23  and  C_9 
REMARK    5  A    between atoms: C_15  and  C_10 
REMARK    6  A    between atoms: C_12  and  C_11 
REMARK    7  A    between atoms: O_24  and  C_15 
REMARK    8  A    between atoms: C_25  and  O_23 
REMARK    9  A    between atoms: C_26  and  O_24 
ROOT
ATOM      1  N   UNL d   1      -0.816   1.136   0.173  0.00  0.00    -0.256 N 
ATOM      2  C   UNL d   1       1.358   0.060   0.047  0.00  0.00     0.116 C 
ATOM      3  C   UNL d   1      -1.470  -0.086   0.239  0.00  0.00     0.332 C 
ATOM      4  C   UNL d   1       0.545   1.251   0.365  0.00  0.00     0.269 C 
ATOM      5  N   UNL d   1      -0.666  -1.202   0.012  0.00  0.00    -0.304 N 
ATOM      6  C   UNL d   1       0.706  -1.096  -0.139  0.00  0.00     0.118 C 
ATOM      7  O   UNL d   1      -2.662  -0.179   0.529  0.00  0.00    -0.246 OA
ATOM      8  O   UNL d   1       1.089   2.277   0.776  0.00  0.00    -0.267 OA
ENDROOT
BRANCH   2   9
ATOM      9  C   UNL d   1       2.851   0.074  -0.023  0.00  0.00     0.266 C 
ATOM     10  N   UNL d   1       3.444   1.190   0.525  0.00  0.00    -0.269 N 
ATOM     11  C   UNL d   1       4.791   1.427   0.609  0.00  0.00     0.367 C 
ATOM     12  H   UNL d   1       2.865   1.917   0.933  0.00  0.00     0.174 HD
ATOM     13  O   UNL d   1       5.683   0.753   0.130  0.00  0.00    -0.238 OA
ATOM     14  O   UNL d   1       3.447  -0.879  -0.512  0.00  0.00    -0.267 OA
BRANCH  11  15
ATOM     15  O   UNL d   1       4.988   2.572   1.315  0.00  0.00    -0.304 OA
BRANCH  15  16
ATOM     16  C   UNL d   1       6.359   2.990   1.443  0.00  0.00     0.176 C 
ATOM     17  C   UNL d   1       7.038   2.284   2.604  0.00  0.00     0.034 C 
ENDBRANCH  15  16
ENDBRANCH  11  15
ENDBRANCH   2   9
BRANCH   1  18
ATOM     18  C   UNL d   1      -1.605   2.362   0.227  0.00  0.00     0.248 C 
BRANCH  18  19
ATOM     19  C   UNL d   1      -1.459   3.233  -1.020  0.00  0.00     0.277 C 
ATOM     20  O   UNL d   1      -2.046   4.301  -1.154  0.00  0.00    -0.263 OA
BRANCH  19  21
ATOM     21  O   UNL d   1      -0.669   2.662  -1.973  0.00  0.00    -0.321 OA
BRANCH  21  22
ATOM     22  C   UNL d   1      -0.739   3.250  -3.282  0.00  0.00     0.174 C 
ATOM     23  C   UNL d   1      -1.835   2.538  -4.053  0.00  0.00     0.034 C 
ENDBRANCH  21  22
ENDBRANCH  19  21
ENDBRANCH  18  19
ENDBRANCH   1  18
BRANCH   5  24
ATOM     24  C   UNL d   1      -1.284  -2.531   0.079  0.00  0.00     0.179 C 
BRANCH  24  25
ATOM     25  C   UNL d   1      -2.027  -2.880  -1.180  0.00  0.00     0.001 A 
ATOM     26  S   UNL d   1      -1.240  -3.719  -2.451  0.00  0.00    -0.105 SA
ATOM     27  C   UNL d   1      -2.697  -3.886  -3.332  0.00  0.00     0.050 A 
ATOM     28  C   UNL d   1      -3.756  -3.277  -2.698  0.00  0.00     0.008 A 
ATOM     29  C   UNL d   1      -3.366  -2.682  -1.463  0.00  0.00     0.017 A 
ENDBRANCH  24  25
ENDBRANCH   5  24
TORSDOF 9
