REMARK  6 active torsions:
REMARK  status: ('A' for Active; 'I' for Inactive)
REMARK    1  A    between atoms: N_11  and  C_1 
REMARK    2  A    between atoms: C_9  and  C_4 
REMARK    3  A    between atoms: C_8  and  C_5 
REMARK    4  A    between atoms: O_18  and  C_9 
REMARK    5  A    between atoms: C_17  and  N_11 
REMARK    6  A    between atoms: C_19  and  O_18 
ROOT
ATOM      1  C   UNL d   1       1.125  -0.828  -0.347  0.00  0.00     0.125 A 
ATOM      2  N   UNL d   1       1.224   0.525  -0.326  0.00  0.00    -0.327 N 
ATOM      3  HN  UNL d   1       2.127   0.978  -0.468  1.00  0.00     0.169 HD
ATOM      4  C   UNL d   1      -0.106  -1.437  -0.131  0.00  0.00     0.099 A 
ATOM      5  C   UNL d   1       0.123   1.262  -0.114  0.00  0.00     0.124 A 
ATOM      6  N   UNL d   1      -1.107   0.760   0.051  0.00  0.00    -0.350 N 
ATOM      7  HN  UNL d   1      -1.929   1.354   0.168  1.00  0.00     0.166 HD
ATOM      8  C   UNL d   1      -1.184  -0.585   0.053  0.00  0.00     0.111 A 
ENDROOT
BRANCH   1   9
ATOM      9  N   UNL d   1       2.299  -1.562  -0.632  0.00  0.00    -0.342 N 
ATOM     10  H   UNL d   1       2.354  -2.450  -0.150  0.00  0.00     0.167 HD
BRANCH   9  11
ATOM     11  C   UNL d   1       3.559  -1.054  -1.036  0.00  0.00     0.033 A 
ATOM     12  C   UNL d   1       4.744  -1.655  -0.587  0.00  0.00     0.029 A 
ATOM     13  C   UNL d   1       5.999  -1.153  -0.958  0.00  0.00     0.002 A 
ATOM     14  C   UNL d   1       6.091  -0.039  -1.795  0.00  0.00     0.000 A 
ATOM     15  C   UNL d   1       4.927   0.571  -2.251  0.00  0.00     0.002 A 
ATOM     16  C   UNL d   1       3.679   0.067  -1.873  0.00  0.00     0.029 A 
ENDBRANCH   9  11
ENDBRANCH   1   9
BRANCH   4  17
ATOM     17  C   UNL d   1      -0.380  -2.869   0.072  0.00  0.00     0.298 C 
ATOM     18  O   UNL d   1      -1.216  -3.242   0.883  0.00  0.00    -0.259 OA
BRANCH  17  19
ATOM     19  O   UNL d   1       0.365  -3.683  -0.712  0.00  0.00    -0.318 OA
BRANCH  19  20
ATOM     20  C   UNL d   1       0.239  -5.090  -0.419  0.00  0.00     0.174 C 
ATOM     21  C   UNL d   1      -0.996  -5.734  -1.035  0.00  0.00     0.034 C 
ENDBRANCH  19  20
ENDBRANCH  17  19
ENDBRANCH   4  17
BRANCH   5  22
ATOM     22  C   UNL d   1       0.247   2.722  -0.050  0.00  0.00     0.049 A 
ATOM     23  S   UNL d   1       1.787   3.486   0.037  0.00  0.00    -0.098 SA
ATOM     24  C   UNL d   1       1.097   5.049   0.103  0.00  0.00     0.050 A 
ATOM     25  C   UNL d   1      -0.277   5.008   0.054  0.00  0.00     0.009 A 
ATOM     26  C   UNL d   1      -0.763   3.671  -0.028  0.00  0.00     0.023 A 
ENDBRANCH   5  22
TORSDOF 6
