REMARK  5 active torsions:
REMARK  status: ('A' for Active; 'I' for Inactive)
REMARK    1  A    between atoms: S_2  and  C_1 
REMARK    2  A    between atoms: C_6  and  S_2 
REMARK    3  A    between atoms: C_3  and  C_7 
REMARK       I    between atoms: C_4  and  N_5 
REMARK       I    between atoms: N_11  and  C_4 
REMARK    4  A    between atoms: N_5  and  C_10 
REMARK    5  A    between atoms: C_16  and  N_11 
ROOT
ATOM      1  C   UNL d   1      -1.762  -3.021  -0.780  0.00  0.00     0.027 C 
ATOM      2  C   UNL d   1      -2.693  -2.423  -1.657  0.00  0.00     0.033 C 
ATOM      3  C   UNL d   1      -2.186  -4.125  -0.029  0.00  0.00     0.021 C 
ATOM      4  C   UNL d   1      -3.917  -3.050  -1.931  0.00  0.00     0.025 C 
ATOM      5  C   UNL d   1      -4.313  -4.149  -1.173  0.00  0.00     0.002 C 
ATOM      6  C   UNL d   1      -3.472  -4.645  -0.179  0.00  0.00     0.001 C 
ENDROOT
BRANCH   2   7
ATOM      7  N   UNL d   1      -2.586  -1.066  -2.058  0.00  0.00    -0.214 NA
ATOM      8  C   UNL d   1      -2.678  -0.142  -1.032  0.00  0.00     0.281 C 
ATOM      9  N   UNL d   1      -2.816   1.154  -1.464  0.00  0.00    -0.215 NA
ATOM     10  O   UNL d   1      -2.607  -0.376   0.173  0.00  0.00    -0.260 OA
ATOM     11  H   UNL d   1      -2.239   1.648  -0.784  0.00  0.00     0.138 HD
ATOM     12  H   UNL d   1      -3.158  -0.779  -2.842  0.00  0.00     0.138 HD
BRANCH   9  13
ATOM     13  C   UNL d   1      -4.098   1.770  -1.316  0.00  0.00     0.017 A 
ATOM     14  C   UNL d   1      -4.924   1.552  -0.202  0.00  0.00     0.040 A 
ATOM     15  C   UNL d   1      -6.142   2.227  -0.077  0.00  0.00     0.049 A 
ATOM     16  C   UNL d   1      -6.513   3.144  -1.070  0.00  0.00     0.016 A 
ATOM     17  C   UNL d   1      -5.678   3.378  -2.168  0.00  0.00     0.003 A 
ATOM     18  C   UNL d   1      -4.474   2.692  -2.284  0.00  0.00     0.024 A 
BRANCH  15  19
ATOM     19  C   UNL d   1      -7.061   1.983   1.098  0.00  0.00     0.417 C 
ATOM     20  F   UNL d   1      -6.518   1.194   2.066  0.00  0.00    -0.166 F 
ATOM     21  F   UNL d   1      -7.429   3.136   1.721  0.00  0.00    -0.166 F 
ATOM     22  F   UNL d   1      -8.221   1.374   0.726  0.00  0.00    -0.166 F 
ENDBRANCH  15  19
ENDBRANCH   9  13
ENDBRANCH   2   7
BRANCH   1  23
ATOM     23  S   UNL d   1       0.006  -2.691  -0.796  0.00  0.00    -0.085 SA
BRANCH  23  24
ATOM     24  C   UNL d   1       0.280  -1.138   0.055  0.00  0.00     0.051 A 
ATOM     25  C   UNL d   1      -0.077  -0.920   1.397  0.00  0.00     0.068 A 
ATOM     26 CL   UNL d   1      -0.775  -2.121   2.424  0.00  0.00    -0.081 Cl
ATOM     27  C   UNL d   1       0.172   0.328   1.965  0.00  0.00     0.113 A 
ATOM     28  N   UNL d   1       0.797   1.349   1.334  0.00  0.00    -0.372 N 
ATOM     29  C   UNL d   1       1.205   1.097   0.073  0.00  0.00     0.113 A 
ATOM     30  HN  UNL d   1       0.950   2.251   1.784  1.00  0.00     0.164 HD
ATOM     31  C   UNL d   1       0.971  -0.098  -0.602  0.00  0.00     0.068 A 
ATOM     32 CL   UNL d   1       1.590  -0.221  -2.214  0.00  0.00    -0.081 Cl
ENDBRANCH  23  24
ENDBRANCH   1  23
TORSDOF 5
