REMARK  4 active torsions:
REMARK  status: ('A' for Active; 'I' for Inactive)
REMARK    1  A    between atoms: C_5  and  C_1 
REMARK    2  A    between atoms: C_9  and  N_4 
REMARK    3  A    between atoms: C_8  and  C_10 
REMARK    4  A    between atoms: O_19  and  C_8 
ROOT
ATOM      1  C   UNL d   1      -0.417  -0.917  -0.525  0.00  0.00     0.134 A 
ATOM      2  N   UNL d   1       0.750  -0.330  -0.852  0.00  0.00    -0.290 N 
ATOM      3  HN  UNL d   1       1.398  -0.611  -1.588  1.00  0.00     0.187 HD
ATOM      4  N   UNL d   1       0.884   0.716   0.005  0.00  0.00    -0.267 N 
ATOM      5  C   UNL d   1      -1.054  -0.218   0.529  0.00  0.00     0.055 A 
ATOM      6  C   UNL d   1      -0.203   0.812   0.845  0.00  0.00     0.119 A 
ENDROOT
BRANCH   4   7
ATOM      7  C   UNL d   1       2.036   1.554  -0.034  0.00  0.00     0.056 A 
ATOM      8  C   UNL d   1       3.020   1.339  -1.013  0.00  0.00     0.032 A 
ATOM      9  C   UNL d   1       4.160   2.151  -1.066  0.00  0.00     0.020 A 
ATOM     10  C   UNL d   1       4.318   3.194  -0.145  0.00  0.00     0.037 A 
ATOM     11  C   UNL d   1       3.349   3.395   0.845  0.00  0.00     0.020 A 
ATOM     12  C   UNL d   1       2.211   2.584   0.900  0.00  0.00     0.032 A 
BRANCH  10  13
ATOM     13  C   UNL d   1       5.509   4.082  -0.140  0.00  0.00     0.176 C 
ATOM     14  O   UNL d   1       5.948   4.586   0.878  0.00  0.00    -0.646 OA
BRANCH  13  15
ATOM     15  O   UNL d   1       6.025   4.318  -1.363  0.00  0.00    -0.773 OA
ATOM     16  H   UNL d   1       5.481   4.010  -2.111  0.00  0.00     0.167 HD
ENDBRANCH  13  15
ENDBRANCH  10  13
ENDBRANCH   4   7
BRANCH   1  17
ATOM     17  C   UNL d   1      -0.948  -2.152  -1.205  0.00  0.00     0.434 C 
ATOM     18  F   UNL d   1      -0.155  -2.611  -2.208  0.00  0.00    -0.165 F 
ATOM     19  F   UNL d   1      -1.099  -3.178  -0.323  0.00  0.00    -0.165 F 
ATOM     20  F   UNL d   1      -2.178  -1.933  -1.747  0.00  0.00    -0.165 F 
ENDBRANCH   1  17
TORSDOF 4
