REMARK  11 active torsions:
REMARK  status: ('A' for Active; 'I' for Inactive)
REMARK    1  A    between atoms: C_23  and  N_1 
REMARK    2  A    between atoms: C_17  and  N_2 
REMARK    3  A    between atoms: C_20  and  C_3 
REMARK    4  A    between atoms: S_15  and  C_6 
REMARK    5  A    between atoms: S_16  and  C_7 
REMARK    6  A    between atoms: C_10  and  C_18 
REMARK    7  A    between atoms: C_18  and  S_15 
REMARK    8  A    between atoms: C_22  and  S_16 
REMARK    9  A    between atoms: C_19  and  C_22 
REMARK   10  A    between atoms: C_21  and  C_19 
REMARK   11  A    between atoms: C_25  and  C_23 
ROOT
ATOM      1  N   UNL d   1      -5.992  -3.037   0.053  0.00  0.00    -0.278 N 
ATOM      2  C   UNL d   1      -7.311  -2.581   0.044  0.00  0.00     0.168 A 
ATOM      3  C   UNL d   1      -5.241  -1.853  -0.029  0.00  0.00     0.114 A 
ATOM      4  N   UNL d   1      -7.350  -1.278  -0.097  0.00  0.00    -0.278 N 
ATOM      5  HN  UNL d   1      -8.192  -0.705  -0.162  1.00  0.00     0.189 HD
ATOM      6  N   UNL d   1      -6.067  -0.824  -0.141  0.00  0.00    -0.286 N 
ATOM      7  HN  UNL d   1      -5.787   0.151  -0.245  1.00  0.00     0.188 HD
ENDROOT
BRANCH   3   8
ATOM      8  C   UNL d   1      -3.747  -1.762  -0.120  0.00  0.00     0.161 C 
BRANCH   8   9
ATOM      9  S   UNL d   1      -3.084  -0.081   0.060  0.00  0.00    -0.085 SA
BRANCH   9  10
ATOM     10  C   UNL d   1      -3.409   0.584  -1.499  0.00  0.00     0.163 A 
ATOM     11  N   UNL d   1      -4.053   1.776  -1.700  0.00  0.00    -0.307 N 
ATOM     12  C   UNL d   1      -4.005   2.006  -3.065  0.00  0.00     0.135 A 
ATOM     13  N   UNL d   1      -3.409   0.958  -3.623  0.00  0.00    -0.283 N 
ATOM     14  N   UNL d   1      -3.029   0.075  -2.643  0.00  0.00    -0.278 N 
ATOM     15  HN  UNL d   1      -3.256   0.830  -4.624  1.00  0.00     0.188 HD
ATOM     16  HN  UNL d   1      -2.542  -0.810  -2.782  1.00  0.00     0.189 HD
BRANCH  11  17
ATOM     17  C   UNL d   1      -4.779   2.532  -0.692  0.00  0.00     0.159 C 
BRANCH  17  18
ATOM     18  C   UNL d   1      -3.980   3.580   0.044  0.00  0.00    -0.017 C 
ATOM     19  C   UNL d   1      -2.699   3.933  -0.142  0.00  0.00     0.008 C 
ENDBRANCH  17  18
ENDBRANCH  11  17
BRANCH  12  20
ATOM     20  C   UNL d   1      -4.540   3.148  -3.820  0.00  0.00     0.009 A 
ATOM     21  C   UNL d   1      -4.608   4.452  -3.311  0.00  0.00     0.015 A 
ATOM     22  C   UNL d   1      -5.139   5.503  -4.067  0.00  0.00     0.001 A 
ATOM     23  C   UNL d   1      -5.584   5.273  -5.365  0.00  0.00     0.000 A 
ATOM     24  C   UNL d   1      -5.485   3.997  -5.907  0.00  0.00     0.001 A 
ATOM     25  C   UNL d   1      -4.967   2.946  -5.144  0.00  0.00     0.015 A 
ENDBRANCH  12  20
ENDBRANCH   9  10
ENDBRANCH   8   9
ENDBRANCH   3   8
BRANCH   1  26
ATOM     26  C   UNL d   1      -5.514  -4.391   0.092  0.00  0.00     0.043 A 
ATOM     27  C   UNL d   1      -4.330  -4.731   0.763  0.00  0.00     0.030 A 
ATOM     28  C   UNL d   1      -3.852  -6.048   0.757  0.00  0.00     0.002 A 
ATOM     29  C   UNL d   1      -4.567  -7.051   0.113  0.00  0.00     0.000 A 
ATOM     30  C   UNL d   1      -5.759  -6.736  -0.531  0.00  0.00     0.002 A 
ATOM     31  C   UNL d   1      -6.224  -5.415  -0.552  0.00  0.00     0.030 A 
ENDBRANCH   1  26
BRANCH   2  32
ATOM     32  S   UNL d   1      -8.711  -3.542   0.411  0.00  0.00    -0.084 SA
BRANCH  32  33
ATOM     33  C   UNL d   1     -10.091  -2.379   0.126  0.00  0.00     0.166 C 
BRANCH  33  34
ATOM     34  C   UNL d   1     -11.424  -3.036   0.475  0.00  0.00     0.169 C 
ATOM     35  O   UNL d   1     -11.529  -4.202   0.858  0.00  0.00    -0.291 OA
BRANCH  34  36
ATOM     36  C   UNL d   1     -12.694  -2.243   0.348  0.00  0.00     0.011 A 
ATOM     37  C   UNL d   1     -12.731  -0.923  -0.119  0.00  0.00     0.017 A 
ATOM     38  C   UNL d   1     -13.958  -0.243  -0.213  0.00  0.00     0.025 A 
ATOM     39  C   UNL d   1     -15.143  -0.876   0.158  0.00  0.00     0.034 A 
ATOM     40  C   UNL d   1     -15.121  -2.186   0.623  0.00  0.00     0.025 A 
ATOM     41 CL   UNL d   1     -16.639  -0.035   0.041  0.00  0.00    -0.084 Cl
ATOM     42  C   UNL d   1     -13.900  -2.863   0.716  0.00  0.00     0.017 A 
ENDBRANCH  34  36
ENDBRANCH  33  34
ENDBRANCH  32  33
ENDBRANCH   2  32
TORSDOF 11
