REMARK  5 active torsions:
REMARK  status: ('A' for Active; 'I' for Inactive)
REMARK    1  A    between atoms: C_6  and  C_1 
REMARK    2  A    between atoms: C_8  and  N_2 
REMARK    3  A    between atoms: O_11  and  C_6 
REMARK    4  A    between atoms: C_10  and  C_8 
REMARK    5  A    between atoms: C_19  and  O_11 
ROOT
ATOM      1  C   UNL d   1      -0.568  -1.116   0.308  0.00  0.00     0.128 A 
ATOM      2  N   UNL d   1       0.740  -0.720   0.143  0.00  0.00    -0.282 N 
ATOM      3  N   UNL d   1       0.871   0.619  -0.031  0.00  0.00    -0.302 N 
ATOM      4  HN  UNL d   1       1.732   1.151  -0.159  1.00  0.00     0.186 HD
ATOM      5  C   UNL d   1      -1.310   0.045   0.168  0.00  0.00     0.063 A 
ATOM      6  C   UNL d   1      -0.379   1.086   0.003  0.00  0.00     0.024 A 
ATOM      7  C   UNL d   1      -0.648   2.538  -0.113  0.00  0.00     0.070 C 
ENDROOT
BRANCH   2   8
ATOM      8  C   UNL d   1       1.924  -1.558  -0.021  0.00  0.00     0.188 C 
BRANCH   8   9
ATOM      9  C   UNL d   1       2.695  -1.806   1.255  0.00  0.00    -0.038 A 
ATOM     10  C   UNL d   1       2.954  -3.121   1.673  0.00  0.00     0.010 A 
ATOM     11  C   UNL d   1       3.790  -3.372   2.766  0.00  0.00     0.024 A 
ATOM     12  C   UNL d   1       4.368  -2.308   3.453  0.00  0.00     0.034 A 
ATOM     13  C   UNL d   1       4.098  -0.996   3.073  0.00  0.00     0.024 A 
ATOM     14 CL   UNL d   1       5.441  -2.618   4.762  0.00  0.00    -0.084 Cl
ATOM     15  C   UNL d   1       3.266  -0.746   1.978  0.00  0.00     0.010 A 
ENDBRANCH   8   9
ENDBRANCH   2   8
BRANCH   1  16
ATOM     16  C   UNL d   1      -1.023  -2.457   0.576  0.00  0.00     0.311 C 
ATOM     17  O   UNL d   1      -0.319  -3.449   0.683  0.00  0.00    -0.258 OA
BRANCH  16  18
ATOM     18  O   UNL d   1      -2.380  -2.443   0.719  0.00  0.00    -0.317 OA
BRANCH  18  19
ATOM     19  C   UNL d   1      -3.000  -3.677   1.102  0.00  0.00     0.175 C 
ATOM     20  C   UNL d   1      -2.981  -3.811   2.613  0.00  0.00     0.034 C 
ENDBRANCH  18  19
ENDBRANCH  16  18
ENDBRANCH   1  16
TORSDOF 5
