REMARK  4 active torsions:
REMARK  status: ('A' for Active; 'I' for Inactive)
REMARK    1  A    between atoms: C_7  and  C_8 
REMARK    2  A    between atoms: C_16  and  C_11 
REMARK    3  A    between atoms: C_17  and  C_16 
REMARK    4  A    between atoms: C_18  and  C_17 
ROOT
ATOM      1  C   UNL d   1      -1.216  -0.873   0.624  0.00  0.00     0.047 A 
ATOM      2  C   UNL d   1      -1.821   0.307   1.350  0.00  0.00     0.257 A 
ATOM      3  N   UNL d   1      -0.735   1.084   1.725  0.00  0.00    -0.322 N 
ATOM      4  C   UNL d   1       0.241  -0.698   0.659  0.00  0.00     0.006 A 
ATOM      5  C   UNL d   1      -1.896  -1.872   0.042  0.00  0.00     0.049 C 
ATOM      6  C   UNL d   1       0.468   0.505   1.336  0.00  0.00     0.046 A 
ATOM      7  O   UNL d   1      -2.986   0.549   1.600  0.00  0.00    -0.267 OA
ATOM      8  C   UNL d   1       1.307  -1.447   0.194  0.00  0.00     0.015 A 
ATOM      9  C   UNL d   1       1.732   1.003   1.572  0.00  0.00     0.030 A 
ATOM     10  C   UNL d   1       2.602  -0.963   0.426  0.00  0.00     0.001 A 
ATOM     11  C   UNL d   1       2.812   0.250   1.108  0.00  0.00     0.002 A 
ATOM     12  H   UNL d   1      -0.842   1.948   2.232  0.00  0.00     0.169 HD
ENDROOT
BRANCH   5  13
ATOM     13  C   UNL d   1      -3.306  -1.977   0.015  0.00  0.00     0.050 A 
ATOM     14  N   UNL d   1      -4.019  -1.539  -1.064  0.00  0.00    -0.345 N 
ATOM     15  C   UNL d   1      -5.282  -1.623  -0.695  0.00  0.00     0.081 A 
ATOM     16  HN  UNL d   1      -3.655  -1.217  -1.961  1.00  0.00     0.167 HD
ATOM     17  N   UNL d   1      -5.390  -2.190   0.554  0.00  0.00    -0.353 N 
ATOM     18  C   UNL d   1      -4.126  -2.433   1.016  0.00  0.00     0.119 A 
ATOM     19  H   UNL d   1      -6.250  -2.336   1.062  0.00  0.00     0.166 HD
BRANCH  15  20
ATOM     20  C   UNL d   1      -6.468  -1.135  -1.454  0.00  0.00     0.076 C 
BRANCH  20  21
ATOM     21  C   UNL d   1      -6.768   0.329  -1.120  0.00  0.00     0.007 C 
BRANCH  21  22
ATOM     22  C   UNL d   1      -7.978   0.843  -1.901  0.00  0.00    -0.004 C 
ATOM     23  C   UNL d   1      -8.274   2.300  -1.579  0.00  0.00     0.005 C 
ENDBRANCH  21  22
ENDBRANCH  20  21
ENDBRANCH  15  20
ENDBRANCH   5  13
TORSDOF 4
