REMARK  5 active torsions:
REMARK  status: ('A' for Active; 'I' for Inactive)
REMARK    1  A    between atoms: N_2  and  C_1 
REMARK    2  A    between atoms: O_5  and  C_1 
REMARK    3  A    between atoms: C_4  and  N_2 
REMARK    4  A    between atoms: C_11  and  C_6 
REMARK    5  A    between atoms: C_13  and  C_11 
ROOT
ATOM      1  C   UNL d   1       0.927  -1.728   1.845  0.00  0.00     0.034 A 
ATOM      2  C   UNL d   1       1.959  -3.385   3.880  0.00  0.00    -0.058 A 
ATOM      3  C   UNL d   1       1.885  -1.245   2.735  0.00  0.00     0.030 A 
ATOM      4  C   UNL d   1       0.404  -3.008   2.049  0.00  0.00     0.030 A 
ATOM      5  C   UNL d   1       0.926  -3.836   3.050  0.00  0.00     0.009 A 
ATOM      6  C   UNL d   1       2.402  -2.065   3.741  0.00  0.00     0.009 A 
ENDROOT
BRANCH   1   7
ATOM      7  N   UNL d   1       0.436  -0.970   0.760  0.00  0.00    -0.328 N 
ATOM      8  H   UNL d   1      -0.423  -1.302   0.345  0.00  0.00     0.169 HD
BRANCH   7   9
ATOM      9  C   UNL d   1       1.103  -0.025   0.012  0.00  0.00     0.214 C 
ATOM     10  S   UNL d   1       2.739   0.270  -0.118  0.00  0.00    -0.033 SA
BRANCH   9  11
ATOM     11  O   UNL d   1       0.352   0.679  -0.873  0.00  0.00    -0.332 OA
ATOM     12  C   UNL d   1      -1.012   1.043  -0.606  0.00  0.00     0.212 C 
ENDBRANCH   9  11
ENDBRANCH   7   9
ENDBRANCH   1   7
BRANCH   2  13
ATOM     13  C   UNL d   1       2.619  -4.300   4.880  0.00  0.00     0.038 C 
BRANCH  13  14
ATOM     14  C   UNL d   1       3.341  -5.493   4.238  0.00  0.00     0.000 C 
ATOM     15  C   UNL d   1       4.463  -5.088   3.289  0.00  0.00     0.005 C 
ENDBRANCH  13  14
ENDBRANCH   2  13
TORSDOF 5
