REMARK  6 active torsions:
REMARK  status: ('A' for Active; 'I' for Inactive)
REMARK    1  A    between atoms: C_6  and  C_1 
REMARK    2  A    between atoms: S_2  and  C_6 
REMARK    3  A    between atoms: N_10  and  S_2 
REMARK    4  A    between atoms: S_3  and  C_8 
REMARK    5  A    between atoms: N_17  and  S_3 
REMARK    6  A    between atoms: C_18  and  N_10 
ROOT
ATOM      1  S   UNL d   1      -0.102  -3.794  -0.553  0.00  0.00     0.215 S 
ATOM      2  O   UNL d   1      -1.376  -3.807  -1.227  0.00  0.00    -0.211 OA
ATOM      3  O   UNL d   1       1.150  -3.784  -1.282  0.00  0.00    -0.211 OA
ENDROOT
BRANCH   1   4
ATOM      4  C   UNL d   1      -0.034  -2.512   0.704  0.00  0.00     0.175 C 
BRANCH   4   5
ATOM      5  C   UNL d   1       0.078  -1.083   0.193  0.00  0.00     0.042 C 
ATOM      6  C   UNL d   1       0.209   0.017   1.304  0.00  0.00    -0.028 C 
ATOM      7  C   UNL d   1       0.203   1.177   0.272  0.00  0.00     0.001 C 
ATOM      8  C   UNL d   1       1.499  -0.037   2.146  0.00  0.00     0.016 C 
ATOM      9  C   UNL d   1      -0.964   0.060   2.308  0.00  0.00     0.016 C 
ATOM     10  C   UNL d   1       1.348   0.791  -0.693  0.00  0.00     0.007 C 
ATOM     11  C   UNL d   1      -1.122   0.991  -0.493  0.00  0.00     0.084 C 
ATOM     12  C   UNL d   1       1.257  -0.752  -0.755  0.00  0.00     0.019 C 
ATOM     13  C   UNL d   1      -1.149  -0.522  -0.537  0.00  0.00     0.137 C 
ATOM     14  O   UNL d   1      -2.037  -1.165  -1.065  0.00  0.00    -0.297 OA
ENDBRANCH   4   5
ENDBRANCH   1   4
BRANCH   1  15
ATOM     15  N   UNL d   1       0.003  -5.187   0.440  0.00  0.00    -0.186 NA
ATOM     16  H   UNL d   1       0.909  -5.622   0.241  0.00  0.00     0.146 HD
BRANCH  15  17
ATOM     17  C   UNL d   1      -1.085  -6.113   0.336  0.00  0.00     0.024 A 
ATOM     18  C   UNL d   1      -2.077  -6.115   1.312  0.00  0.00     0.049 A 
ATOM     19  C   UNL d   1      -3.145  -7.010   1.195  0.00  0.00     0.076 A 
ATOM     20  C   UNL d   1      -3.228  -7.897   0.118  0.00  0.00     0.025 A 
ATOM     21  C   UNL d   1      -2.241  -7.874  -0.865  0.00  0.00     0.003 A 
ATOM     22  C   UNL d   1      -1.167  -6.984  -0.755  0.00  0.00     0.024 A 
BRANCH  19  23
ATOM     23  S   UNL d   1      -4.357  -7.082   2.481  0.00  0.00     0.239 S 
ATOM     24  O   UNL d   1      -5.032  -8.358   2.425  0.00  0.00    -0.206 OA
ATOM     25  O   UNL d   1      -3.785  -6.564   3.699  0.00  0.00    -0.206 OA
BRANCH  23  26
ATOM     26  N   UNL d   1      -5.482  -5.944   1.979  0.00  0.00    -0.225 NA
ATOM     27  H   UNL d   1      -6.384  -6.393   1.812  0.00  0.00     0.136 HD
ATOM     28  H   UNL d   1      -5.523  -5.171   2.643  0.00  0.00     0.136 HD
ENDBRANCH  23  26
ENDBRANCH  19  23
ENDBRANCH  15  17
ENDBRANCH   1  15
TORSDOF 6
