REMARK  7 active torsions:
REMARK  status: ('A' for Active; 'I' for Inactive)
REMARK    1  A    between atoms: C_6  and  N_1 
REMARK    2  A    between atoms: C_11  and  C_6 
REMARK    3  A    between atoms: C_12  and  C_11 
REMARK    4  A    between atoms: O_20  and  C_11 
REMARK    5  A    between atoms: N_15  and  C_12 
REMARK    6  A    between atoms: C_21  and  N_15 
REMARK    7  A    between atoms: C_22  and  N_15 
ROOT
ATOM      1  N   UNL d   1       0.012  -1.368  -0.034  0.00  0.00    -0.343 N 
ATOM      2  C   UNL d   1       0.578   0.349  -1.351  0.00  0.00     0.005 A 
ATOM      3  C   UNL d   1       1.053   0.612  -0.036  0.00  0.00     0.005 A 
ATOM      4  C   UNL d   1      -0.122  -0.862  -1.321  0.00  0.00     0.046 A 
ATOM      5  C   UNL d   1       0.588  -0.413   0.788  0.00  0.00     0.046 A 
ATOM      6  C   UNL d   1      -0.798  -1.342  -2.460  0.00  0.00     0.032 A 
ATOM      7  C   UNL d   1       0.748  -0.371   2.180  0.00  0.00     0.032 A 
ATOM      8  C   UNL d   1       1.783   1.675   0.540  0.00  0.00     0.038 A 
ATOM      9  C   UNL d   1       0.645   1.083  -2.560  0.00  0.00     0.038 A 
ATOM     10  C   UNL d   1       1.988   1.689   1.921  0.00  0.00     0.035 A 
ATOM     11  C   UNL d   1      -0.040   0.616  -3.680  0.00  0.00     0.035 A 
ATOM     12  C   UNL d   1      -0.762  -0.571  -3.631  0.00  0.00     0.026 A 
ATOM     13  C   UNL d   1       1.465   0.692   2.733  0.00  0.00     0.026 A 
ATOM     14 CL   UNL d   1       2.879   2.981   2.630  0.00  0.00    -0.084 Cl
ATOM     15 CL   UNL d   1      -0.006   1.540  -5.134  0.00  0.00    -0.084 Cl
ENDROOT
BRANCH   1  16
ATOM     16  C   UNL d   1      -0.432  -2.682   0.430  0.00  0.00     0.163 C 
BRANCH  16  17
ATOM     17  C   UNL d   1       0.688  -3.735   0.578  0.00  0.00     0.164 C 
BRANCH  17  18
ATOM     18  C   UNL d   1       1.559  -3.674   1.874  0.00  0.00     0.305 C 
BRANCH  18  19
ATOM     19  N   UNL d   1       0.906  -3.744   3.206  0.00  0.00     0.090 N 
BRANCH  19  20
ATOM     20  C   UNL d   1       0.221  -5.021   3.481  0.00  0.00     0.268 C 
ATOM     21  C   UNL d   1       1.095  -6.275   3.526  0.00  0.00     0.037 C 
ENDBRANCH  19  20
BRANCH  19  22
ATOM     22  C   UNL d   1       1.889  -3.388   4.257  0.00  0.00     0.268 C 
ATOM     23  C   UNL d   1       1.323  -3.287   5.673  0.00  0.00     0.037 C 
ENDBRANCH  19  22
ENDBRANCH  18  19
ENDBRANCH  17  18
BRANCH  17  24
ATOM     24  O   UNL d   1       0.114  -5.043   0.418  0.00  0.00    -0.392 OA
ATOM     25  H   UNL d   1       0.831  -5.692   0.528  0.00  0.00     0.210 HD
ENDBRANCH  17  24
ENDBRANCH  16  17
ENDBRANCH   1  16
TORSDOF 7
