REMARK  6 active torsions:
REMARK  status: ('A' for Active; 'I' for Inactive)
REMARK    1  A    between atoms: C_2  and  S_1 
REMARK    2  A    between atoms: C_3  and  S_1 
REMARK       I    between atoms: N_4  and  C_2 
REMARK    3  A    between atoms: C_5  and  C_9 
REMARK    4  A    between atoms: C_17  and  C_10 
REMARK    5  A    between atoms: O_23  and  C_17 
REMARK    6  A    between atoms: C_27  and  O_23 
ROOT
ATOM      1  S   UNL d   1       0.502  -0.239  -0.175  0.00  0.00     0.267 S 
ATOM      2  O   UNL d   1       0.625   1.200  -0.336  0.00  0.00    -0.212 OA
ATOM      3  O   UNL d   1      -0.650  -0.970  -0.690  0.00  0.00    -0.212 OA
ENDROOT
BRANCH   1   4
ATOM      4  C   UNL d   1       0.649  -0.591   1.579  0.00  0.00     0.344 C 
ATOM      5  N   UNL d   1      -0.422  -0.207   2.411  0.00  0.00    -0.338 N 
ATOM      6  C   UNL d   1      -0.249  -0.377   3.852  0.00  0.00     0.141 C 
ATOM      7  C   UNL d   1      -1.582   0.597   2.006  0.00  0.00     0.127 C 
ATOM      8  C   UNL d   1      -1.496  -0.955   4.512  0.00  0.00     0.103 C 
ATOM      9  C   UNL d   1      -2.727  -0.110   4.165  0.00  0.00     0.018 C 
ATOM     10  C   UNL d   1      -2.872   0.099   2.657  0.00  0.00     0.021 C 
ATOM     11  O   UNL d   1       1.671  -1.137   1.996  0.00  0.00    -0.255 OA
BRANCH   8  12
ATOM     12  C   UNL d   1      -1.698  -2.415   4.148  0.00  0.00     0.264 C 
ATOM     13  O   UNL d   1      -2.732  -2.885   3.696  0.00  0.00    -0.265 OA
BRANCH  12  14
ATOM     14  O   UNL d   1      -0.617  -3.149   4.536  0.00  0.00    -0.322 OA
BRANCH  14  15
ATOM     15  C   UNL d   1      -0.847  -4.562   4.616  0.00  0.00     0.174 C 
ATOM     16  C   UNL d   1      -1.433  -4.861   5.985  0.00  0.00     0.034 C 
ENDBRANCH  14  15
ENDBRANCH  12  14
ENDBRANCH   8  12
ENDBRANCH   1   4
BRANCH   1  17
ATOM     17  C   UNL d   1       1.921  -0.934  -0.988  0.00  0.00     0.110 A 
ATOM     18  S   UNL d   1       2.093  -2.639  -0.934  0.00  0.00    -0.076 SA
ATOM     19  C   UNL d   1       3.547  -2.597  -1.831  0.00  0.00     0.033 A 
ATOM     20  C   UNL d   1       3.896  -1.307  -2.172  0.00  0.00     0.023 A 
ATOM     21  C   UNL d   1       2.940  -0.352  -1.718  0.00  0.00     0.033 A 
BRANCH  19  22
ATOM     22  C   UNL d   1       4.366  -3.791  -2.231  0.00  0.00     0.056 A 
ATOM     23  N   UNL d   1       5.593  -3.628  -2.861  0.00  0.00    -0.353 N 
ATOM     24  C   UNL d   1       6.129  -4.803  -3.117  0.00  0.00     0.047 A 
ATOM     25  HN  UNL d   1       6.017  -2.730  -3.092  1.00  0.00     0.166 HD
ATOM     26  C   UNL d   1       7.458  -5.001  -3.758  0.00  0.00     0.076 C 
ATOM     27  S   UNL d   1       5.181  -6.162  -2.662  0.00  0.00    -0.087 SA
ATOM     28  C   UNL d   1       3.986  -5.103  -2.035  0.00  0.00     0.082 A 
ENDBRANCH  19  22
ENDBRANCH   1  17
TORSDOF 6
