REMARK  5 active torsions:
REMARK  status: ('A' for Active; 'I' for Inactive)
REMARK    1  A    between atoms: C_4  and  C_1 
REMARK       I    between atoms: N_8  and  C_4 
REMARK    2  A    between atoms: C_10  and  C_5 
REMARK    3  A    between atoms: C_9  and  N_8 
REMARK    4  A    between atoms: O_17  and  C_10 
REMARK    5  A    between atoms: C_21  and  O_17 
ROOT
ATOM      1  C   UNL d   1       5.923  -0.955   0.160  0.00  0.00     0.264 C 
ATOM      2  N   UNL d   1       4.633  -1.229  -0.269  0.00  0.00    -0.321 N 
ATOM      3  O   UNL d   1       6.752  -1.838   0.367  0.00  0.00    -0.267 OA
ATOM      4  H   UNL d   1       4.112  -0.475  -0.717  0.00  0.00     0.169 HD
ENDROOT
BRANCH   2   5
ATOM      5  C   UNL d   1       3.990  -2.492  -0.234  0.00  0.00     0.051 A 
ATOM      6  C   UNL d   1       2.878  -2.756  -1.058  0.00  0.00     0.066 A 
ATOM      7  C   UNL d   1       2.169  -3.962  -0.917  0.00  0.00     0.026 A 
ATOM      8  C   UNL d   1       2.540  -4.910   0.044  0.00  0.00    -0.061 A 
ATOM      9  C   UNL d   1       3.670  -4.668   0.824  0.00  0.00     0.009 A 
ATOM     10  C   UNL d   1       1.709  -6.142   0.240  0.00  0.00     0.048 C 
ATOM     11  C   UNL d   1       4.390  -3.477   0.681  0.00  0.00     0.031 A 
BRANCH   6  12
ATOM     12  C   UNL d   1       2.417  -1.759  -2.068  0.00  0.00     0.295 C 
ATOM     13  O   UNL d   1       2.637  -0.557  -1.978  0.00  0.00    -0.259 OA
BRANCH  12  14
ATOM     14  O   UNL d   1       1.726  -2.384  -3.049  0.00  0.00    -0.318 OA
BRANCH  14  15
ATOM     15  C   UNL d   1       0.960  -1.560  -3.942  0.00  0.00     0.174 C 
ATOM     16  C   UNL d   1       1.604  -1.481  -5.310  0.00  0.00     0.034 C 
ENDBRANCH  14  15
ENDBRANCH  12  14
ENDBRANCH   6  12
ENDBRANCH   2   5
BRANCH   1  17
ATOM     17  C   UNL d   1       6.247   0.462   0.289  0.00  0.00     0.096 A 
ATOM     18  S   UNL d   1       7.875   0.938   0.053  0.00  0.00    -0.082 SA
ATOM     19  C   UNL d   1       7.539   2.592   0.367  0.00  0.00     0.017 A 
ATOM     20  C   UNL d   1       8.463   3.656   0.357  0.00  0.00     0.020 A 
ATOM     21  C   UNL d   1       6.187   2.793   0.652  0.00  0.00     0.004 A 
ATOM     22  C   UNL d   1       8.011   4.951   0.615  0.00  0.00     0.001 A 
ATOM     23  C   UNL d   1       6.671   5.186   0.882  0.00  0.00     0.001 A 
ATOM     24  C   UNL d   1       5.762   4.123   0.913  0.00  0.00     0.014 A 
ATOM     25  C   UNL d   1       5.463   1.544   0.641  0.00  0.00     0.068 A 
ATOM     26 CL   UNL d   1       3.800   1.472   1.079  0.00  0.00    -0.082 Cl
ENDBRANCH   1  17
TORSDOF 5
