REMARK  5 active torsions:
REMARK  status: ('A' for Active; 'I' for Inactive)
REMARK       I    between atoms: C_2  and  N_1 
REMARK       I    between atoms: C_4  and  N_1 
REMARK    1  A    between atoms: C_9  and  N_1 
REMARK       I    between atoms: N_3  and  C_2 
REMARK    2  A    between atoms: C_5  and  N_3 
REMARK    3  A    between atoms: C_10  and  C_4 
REMARK    4  A    between atoms: C_17  and  C_9 
REMARK    5  A    between atoms: S_16  and  C_14 
ROOT
ATOM      1  N   UNL d   1       1.033   1.746  -4.029  0.00  0.00    -0.197 NA
ATOM      2  C   UNL d   1       0.982   1.904  -2.882  0.00  0.00     0.068 C 
ATOM      3  C   UNL d   1       0.974   2.100  -1.425  0.00  0.00     0.227 C 
ENDROOT
BRANCH   3   4
ATOM      4  C   UNL d   1       0.043   1.087  -0.785  0.00  0.00     0.241 C 
ATOM      5  N   UNL d   1       0.463   0.339   0.316  0.00  0.00    -0.265 N 
ATOM      6  C   UNL d   1      -0.124  -0.901   0.661  0.00  0.00     0.330 C 
ATOM      7  N   UNL d   1      -1.199  -1.283  -0.107  0.00  0.00    -0.308 N 
ATOM      8  O   UNL d   1       0.321  -1.618   1.558  0.00  0.00    -0.246 OA
ATOM      9  H   UNL d   1      -1.307  -0.835  -1.012  0.00  0.00     0.170 HD
ATOM     10  O   UNL d   1      -1.092   0.960  -1.262  0.00  0.00    -0.272 OA
BRANCH   5  11
ATOM     11  C   UNL d   1       1.625   0.707   1.138  0.00  0.00     0.175 C 
BRANCH  11  12
ATOM     12  C   UNL d   1       1.326   0.835   2.620  0.00  0.00    -0.040 A 
ATOM     13  C   UNL d   1       2.132   0.169   3.557  0.00  0.00     0.009 A 
ATOM     14  C   UNL d   1       1.839   0.231   4.920  0.00  0.00     0.001 A 
ATOM     15  C   UNL d   1       0.745   0.969   5.362  0.00  0.00     0.000 A 
ATOM     16  C   UNL d   1      -0.051   1.653   4.445  0.00  0.00     0.001 A 
ATOM     17  C   UNL d   1       0.240   1.596   3.081  0.00  0.00     0.009 A 
ENDBRANCH  11  12
ENDBRANCH   5  11
BRANCH   7  18
ATOM     18  C   UNL d   1      -2.171  -2.236   0.243  0.00  0.00     0.043 A 
ATOM     19  C   UNL d   1      -2.592  -2.345   1.579  0.00  0.00     0.048 A 
ATOM     20  C   UNL d   1      -3.687  -3.142   1.925  0.00  0.00     0.002 A 
ATOM     21  C   UNL d   1      -4.342  -3.854   0.917  0.00  0.00     0.019 A 
ATOM     22  C   UNL d   1      -3.904  -3.784  -0.406  0.00  0.00     0.010 A 
ATOM     23  C   UNL d   1      -2.817  -2.974  -0.763  0.00  0.00    -0.035 A 
ATOM     24  C   UNL d   1      -2.363  -2.999  -2.196  0.00  0.00     0.050 C 
BRANCH  20  25
ATOM     25  S   UNL d   1      -4.383  -3.227   3.572  0.00  0.00    -0.134 SA
ATOM     26  C   UNL d   1      -2.938  -2.918   4.621  0.00  0.00     0.095 C 
ENDBRANCH  20  25
ENDBRANCH   7  18
ENDBRANCH   3   4
TORSDOF 5
