REMARK  6 active torsions:
REMARK  status: ('A' for Active; 'I' for Inactive)
REMARK    1  A    between atoms: C_9  and  C_1 
REMARK    2  A    between atoms: C_8  and  C_2 
REMARK    3  A    between atoms: C_7  and  C_3 
REMARK       I    between atoms: N_15  and  C_8 
REMARK    4  A    between atoms: O_21  and  C_9 
REMARK    5  A    between atoms: C_10  and  C_18 
REMARK    6  A    between atoms: N_11  and  N_15 
ROOT
ATOM      1  C   UNL d   1      -1.457  -0.267   0.132  0.00  0.00     0.110 A 
ATOM      2  C   UNL d   1      -0.922   1.008   0.007  0.00  0.00     0.186 A 
ATOM      3  C   UNL d   1      -0.350  -1.161  -0.079  0.00  0.00     0.087 A 
ATOM      4  N   UNL d   1       0.755  -0.445  -0.331  0.00  0.00    -0.259 N 
ATOM      5  HN  UNL d   1       1.680  -0.816  -0.551  1.00  0.00     0.195 HD
ATOM      6  O   UNL d   1       0.412   0.876  -0.239  0.00  0.00    -0.231 OA
ENDROOT
BRANCH   2   7
ATOM      7  C   UNL d   1      -1.403   2.382   0.097  0.00  0.00     0.296 C 
ATOM      8  N   UNL d   1      -2.779   2.535   0.194  0.00  0.00    -0.264 N 
ATOM      9  H   UNL d   1      -3.386   1.739   0.052  0.00  0.00     0.190 HD
ATOM     10  O   UNL d   1      -0.632   3.343   0.077  0.00  0.00    -0.264 OA
BRANCH   8  11
ATOM     11  N   UNL d   1      -3.354   3.772   0.223  0.00  0.00    -0.308 N 
ATOM     12  C   UNL d   1      -4.649   3.782   0.205  0.00  0.00     0.122 C 
ATOM     13  HN  UNL d   1      -2.803   4.630   0.256  1.00  0.00     0.186 HD
BRANCH  12  14
ATOM     14  C   UNL d   1      -5.427   5.037   0.209  0.00  0.00     0.024 A 
ATOM     15  C   UNL d   1      -4.989   6.186  -0.465  0.00  0.00     0.047 A 
ATOM     16 CL   UNL d   1      -3.599   6.227  -1.493  0.00  0.00    -0.083 Cl
ATOM     17  C   UNL d   1      -5.735   7.369  -0.392  0.00  0.00     0.025 A 
ATOM     18  C   UNL d   1      -6.926   7.412   0.329  0.00  0.00     0.003 A 
ATOM     19  C   UNL d   1      -7.387   6.265   0.968  0.00  0.00     0.025 A 
ATOM     20  C   UNL d   1      -6.646   5.079   0.908  0.00  0.00     0.047 A 
ATOM     21 CL   UNL d   1      -7.298   3.708   1.742  0.00  0.00    -0.083 Cl
ENDBRANCH  12  14
ENDBRANCH   8  11
ENDBRANCH   2   7
BRANCH   1  22
ATOM     22  C   UNL d   1      -2.830  -0.615   0.398  0.00  0.00     0.298 C 
ATOM     23  O   UNL d   1      -3.163  -1.534   1.138  0.00  0.00    -0.259 OA
BRANCH  22  24
ATOM     24  O   UNL d   1      -3.700   0.140  -0.333  0.00  0.00    -0.322 OA
ATOM     25  C   UNL d   1      -5.068  -0.284  -0.317  0.00  0.00     0.213 C 
ENDBRANCH  22  24
ENDBRANCH   1  22
BRANCH   3  26
ATOM     26  C   UNL d   1      -0.287  -2.640  -0.114  0.00  0.00     0.037 A 
ATOM     27  C   UNL d   1      -1.250  -3.417  -0.796  0.00  0.00     0.048 A 
ATOM     28 CL   UNL d   1      -2.491  -2.747  -1.808  0.00  0.00    -0.083 Cl
ATOM     29  C   UNL d   1      -1.196  -4.820  -0.793  0.00  0.00     0.025 A 
ATOM     30  C   UNL d   1      -0.131  -5.486  -0.204  0.00  0.00     0.003 A 
ATOM     31  C   UNL d   1       0.871  -4.747   0.411  0.00  0.00     0.025 A 
ATOM     32  C   UNL d   1       0.784  -3.346   0.486  0.00  0.00     0.048 A 
ATOM     33 CL   UNL d   1       2.067  -2.585   1.373  0.00  0.00    -0.083 Cl
ENDBRANCH   3  26
TORSDOF 6
