REMARK  5 active torsions:
REMARK  status: ('A' for Active; 'I' for Inactive)
REMARK       I    between atoms: N_5  and  C_1 
REMARK       I    between atoms: N_6  and  C_1 
REMARK    1  A    between atoms: C_2  and  C_3 
REMARK    2  A    between atoms: O_4  and  C_2 
REMARK    3  A    between atoms: C_11  and  O_4 
REMARK    4  A    between atoms: C_10  and  N_5 
REMARK    5  A    between atoms: C_12  and  N_6 
ROOT
ATOM      1  C   UNL d   1       2.653   2.054   3.225  0.00  0.00     0.041 A 
ATOM      2  C   UNL d   1       2.024   1.685   2.033  0.00  0.00     0.047 A 
ATOM      3  C   UNL d   1       0.925   0.812   2.042  0.00  0.00     0.037 A 
ATOM      4  C   UNL d   1       2.152   1.564   4.441  0.00  0.00     0.018 A 
ATOM      5  C   UNL d   1       1.024   0.743   4.463  0.00  0.00     0.003 A 
ATOM      6  C   UNL d   1       0.408   0.375   3.267  0.00  0.00     0.029 A 
ENDROOT
BRANCH   3   7
ATOM      7  N   UNL d   1       0.318   0.308   0.869  0.00  0.00    -0.309 N 
ATOM      8  C   UNL d   1       0.903   0.295  -0.386  0.00  0.00     0.325 C 
ATOM      9  N   UNL d   1       0.080  -0.319  -1.316  0.00  0.00    -0.309 N 
ATOM     10  O   UNL d   1       2.014   0.747  -0.642  0.00  0.00    -0.247 OA
ATOM     11  H   UNL d   1      -0.908  -0.317  -1.112  0.00  0.00     0.170 HD
ATOM     12  H   UNL d   1      -0.451  -0.333   0.999  0.00  0.00     0.170 HD
BRANCH   9  13
ATOM     13  C   UNL d   1       0.457  -0.657  -2.634  0.00  0.00     0.036 A 
ATOM     14  C   UNL d   1       1.791  -0.746  -3.046  0.00  0.00     0.029 A 
ATOM     15  C   UNL d   1       2.109  -1.059  -4.368  0.00  0.00     0.002 A 
ATOM     16  C   UNL d   1       1.095  -1.300  -5.288  0.00  0.00     0.000 A 
ATOM     17  C   UNL d   1      -0.237  -1.244  -4.882  0.00  0.00     0.002 A 
ATOM     18  C   UNL d   1      -0.556  -0.932  -3.557  0.00  0.00     0.029 A 
ENDBRANCH   9  13
ENDBRANCH   3   7
BRANCH   1  19
ATOM     19  C   UNL d   1       3.877   2.905   3.262  0.00  0.00     0.294 C 
ATOM     20  O   UNL d   1       4.503   3.080   4.296  0.00  0.00    -0.259 OA
BRANCH  19  21
ATOM     21  O   UNL d   1       4.184   3.423   2.047  0.00  0.00    -0.307 OA
BRANCH  21  22
ATOM     22  C   UNL d   1       5.393   4.218   1.875  0.00  0.00     0.060 C 
ATOM     23  C   UNL d   1       6.652   3.403   2.210  0.00  0.00     0.046 C 
ATOM     24  C   UNL d   1       5.429   4.600   0.386  0.00  0.00     0.046 C 
ATOM     25  C   UNL d   1       5.340   5.512   2.698  0.00  0.00     0.046 C 
ENDBRANCH  21  22
ENDBRANCH  19  21
ENDBRANCH   1  19
TORSDOF 5
