REMARK  2 active torsions:
REMARK  status: ('A' for Active; 'I' for Inactive)
REMARK    1  A    between atoms: C_9  and  C_1 
REMARK    2  A    between atoms: C_10  and  C_2 
ROOT
ATOM      1  C   UNL d   1       1.403   1.145   0.002  0.00  0.00    -0.046 C 
ATOM      2  C   UNL d   1      -1.359  -1.146   0.059  0.00  0.00    -0.046 C 
ATOM      3  C   UNL d   1       0.008   0.691  -0.298  0.00  0.00     0.031 C 
ATOM      4  C   UNL d   1       0.036  -0.697   0.367  0.00  0.00     0.031 C 
ATOM      5  C   UNL d   1       2.192   0.050   0.039  0.00  0.00    -0.018 C 
ATOM      6  C   UNL d   1      -2.147  -0.049   0.028  0.00  0.00    -0.018 C 
ATOM      7  C   UNL d   1      -1.337   1.224   0.173  0.00  0.00     0.037 C 
ATOM      8  C   UNL d   1       1.383  -1.227  -0.101  0.00  0.00     0.037 C 
ENDROOT
BRANCH   1   9
ATOM      9  C   UNL d   1       1.811   2.550   0.065  0.00  0.00    -0.030 A 
ATOM     10  C   UNL d   1       1.029   3.545  -0.537  0.00  0.00     0.012 A 
ATOM     11  C   UNL d   1       1.387   4.893  -0.459  0.00  0.00     0.001 A 
ATOM     12  C   UNL d   1       2.544   5.267   0.218  0.00  0.00     0.000 A 
ATOM     13  C   UNL d   1       3.341   4.293   0.813  0.00  0.00     0.001 A 
ATOM     14  C   UNL d   1       2.976   2.944   0.739  0.00  0.00     0.012 A 
ENDBRANCH   1   9
BRANCH   2  15
ATOM     15  C   UNL d   1      -1.783  -2.544  -0.018  0.00  0.00    -0.030 A 
ATOM     16  C   UNL d   1      -2.941  -2.914  -0.718  0.00  0.00     0.012 A 
ATOM     17  C   UNL d   1      -3.341  -4.250  -0.790  0.00  0.00     0.001 A 
ATOM     18  C   UNL d   1      -2.584  -5.240  -0.169  0.00  0.00     0.000 A 
ATOM     19  C   UNL d   1      -1.428  -4.892   0.524  0.00  0.00     0.001 A 
ATOM     20  C   UNL d   1      -1.033  -3.554   0.599  0.00  0.00     0.012 A 
ENDBRANCH   2  15
TORSDOF 2
