REMARK  1 active torsions:
REMARK  status: ('A' for Active; 'I' for Inactive)
REMARK    1  A    between atoms: O_10  and  C_2 
ROOT
ATOM      1  C   UNL d   1       0.821   0.321  -0.023  0.00  0.00     0.101 A 
ATOM      2  C   UNL d   1      -0.038   1.419  -0.031  0.00  0.00     0.163 A 
ATOM      3  N   UNL d   1      -1.390   1.320  -0.021  0.00  0.00    -0.340 N 
ATOM      4  HN  UNL d   1      -1.982   2.150  -0.027  1.00  0.00     0.167 HD
ATOM      5  C   UNL d   1       0.256  -0.964  -0.009  0.00  0.00    -0.035 A 
ATOM      6  C   UNL d   1       2.237   0.528  -0.029  0.00  0.00     0.104 C 
ATOM      7  N   UNL d   1       3.392   0.654  -0.031  0.00  0.00    -0.191 NA
ATOM      8  C   UNL d   1      -1.925   0.076  -0.002  0.00  0.00     0.008 A 
ATOM      9  C   UNL d   1      -1.142  -1.076   0.002  0.00  0.00     0.033 A 
ATOM     10  C   UNL d   1       1.075  -2.227  -0.009  0.00  0.00     0.050 C 
ATOM     11  C   UNL d   1      -3.423  -0.019   0.011  0.00  0.00     0.068 C 
ENDROOT
BRANCH   2  12
ATOM     12  O   UNL d   1       0.543   2.674  -0.056  0.00  0.00    -0.340 OA
ATOM     13  C   UNL d   1      -0.385   3.750  -0.066  0.00  0.00     0.211 C 
ENDBRANCH   2  12
TORSDOF 1
