REMARK  4 active torsions:
REMARK  status: ('A' for Active; 'I' for Inactive)
REMARK    1  A    between atoms: C_6  and  C_1 
REMARK    2  A    between atoms: N_4  and  C_2 
REMARK       I    between atoms: C_3  and  N_4 
REMARK    3  A    between atoms: C_5  and  C_3 
REMARK    4  A    between atoms: O_14  and  C_6 
ROOT
ATOM      1  C   UNL d   1       0.714  -0.173   0.311  0.00  0.00     0.070 C 
ATOM      2  C   UNL d   1       0.315   1.173   0.158  0.00  0.00     0.052 C 
ATOM      3  C   UNL d   1      -0.171  -1.224  -0.035  0.00  0.00    -0.043 C 
ATOM      4  C   UNL d   1      -1.024   1.442  -0.169  0.00  0.00     0.030 C 
ATOM      5  C   UNL d   1      -1.925   0.409  -0.421  0.00  0.00     0.003 C 
ATOM      6  C   UNL d   1      -1.494  -0.913  -0.383  0.00  0.00     0.008 C 
ATOM      7  C   UNL d   1       0.226  -2.675   0.026  0.00  0.00     0.049 C 
ENDROOT
BRANCH   2   8
ATOM      8  N   UNL d   1       1.136   2.319   0.296  0.00  0.00    -0.321 N 
ATOM      9  C   UNL d   1       2.506   2.405   0.112  0.00  0.00     0.263 C 
ATOM     10  O   UNL d   1       3.205   1.469  -0.268  0.00  0.00    -0.267 OA
ATOM     11  H   UNL d   1       0.663   3.212   0.362  0.00  0.00     0.169 HD
BRANCH   9  12
ATOM     12  C   UNL d   1       3.071   3.738   0.330  0.00  0.00     0.072 A 
ATOM     13  S   UNL d   1       2.115   5.074   0.829  0.00  0.00    -0.097 SA
ATOM     14  C   UNL d   1       3.465   6.122   0.861  0.00  0.00     0.050 A 
ATOM     15  C   UNL d   1       4.624   5.481   0.488  0.00  0.00     0.009 A 
ATOM     16  C   UNL d   1       4.395   4.109   0.176  0.00  0.00     0.025 A 
ENDBRANCH   9  12
ENDBRANCH   2   8
BRANCH   1  17
ATOM     17  C   UNL d   1       1.947  -0.539   1.052  0.00  0.00     0.179 C 
ATOM     18  O   UNL d   1       2.746  -1.420   0.796  0.00  0.00    -0.646 OA
BRANCH  17  19
ATOM     19  O   UNL d   1       1.975   0.103   2.239  0.00  0.00    -0.773 OA
ATOM     20  H   UNL d   1       2.757  -0.286   2.681  0.00  0.00     0.167 HD
ENDBRANCH  17  19
ENDBRANCH   1  17
TORSDOF 4
