REMARK  5 active torsions:
REMARK  status: ('A' for Active; 'I' for Inactive)
REMARK    1  A    between atoms: S_12  and  C_2 
REMARK    2  A    between atoms: N_13  and  C_3 
REMARK    3  A    between atoms: C_14  and  C_8 
REMARK    4  A    between atoms: S_11  and  C_14 
REMARK    5  A    between atoms: C_15  and  S_11 
ROOT
ATOM      1  C   UNL d   1      -0.484  -0.298  -0.044  0.00  0.00     0.116 A 
ATOM      2  C   UNL d   1       0.317  -1.426   0.006  0.00  0.00     0.095 A 
ATOM      3  C   UNL d   1       0.184   0.916  -0.058  0.00  0.00     0.103 A 
ATOM      4  N   UNL d   1       1.664  -1.357   0.033  0.00  0.00    -0.339 N 
ATOM      5  HN  UNL d   1       2.236  -2.201   0.066  1.00  0.00     0.168 HD
ATOM      6  N   UNL d   1       1.525   1.008  -0.034  0.00  0.00    -0.335 N 
ATOM      7  HN  UNL d   1       1.993   1.915  -0.051  1.00  0.00     0.168 HD
ATOM      8  C   UNL d   1       2.227  -0.138   0.012  0.00  0.00     0.093 A 
ATOM      9  C   UNL d   1      -1.910  -0.354  -0.069  0.00  0.00     0.105 C 
ATOM     10  N   UNL d   1      -3.071  -0.359  -0.062  0.00  0.00    -0.191 NA
ENDROOT
BRANCH   2  11
ATOM     11  S   UNL d   1      -0.375  -3.082   0.020  0.00  0.00    -0.115 SA
ATOM     12  C   UNL d   1       1.138  -4.086   0.048  0.00  0.00     0.097 C 
ENDBRANCH   2  11
BRANCH   3  13
ATOM     13  N   UNL d   1      -0.475   2.136  -0.208  0.00  0.00    -0.287 NA
ATOM     14  H   UNL d   1      -1.291   2.264   0.382  0.00  0.00     0.125 HD
ATOM     15  H   UNL d   1       0.198   2.893  -0.113  0.00  0.00     0.125 HD
ENDBRANCH   3  13
BRANCH   8  16
ATOM     16  C   UNL d   1       3.738  -0.065  -0.006  0.00  0.00     0.156 C 
BRANCH  16  17
ATOM     17  S   UNL d   1       4.444  -0.049   1.679  0.00  0.00    -0.122 SA
BRANCH  17  18
ATOM     18  C   UNL d   1       6.213   0.004   1.409  0.00  0.00     0.001 A 
ATOM     19  C   UNL d   1       6.844   0.016   0.159  0.00  0.00     0.020 A 
ATOM     20  C   UNL d   1       8.242   0.064   0.065  0.00  0.00     0.025 A 
ATOM     21  C   UNL d   1       9.020   0.100   1.220  0.00  0.00     0.034 A 
ATOM     22  C   UNL d   1       8.412   0.085   2.470  0.00  0.00     0.025 A 
ATOM     23 CL   UNL d   1      10.734   0.164   1.101  0.00  0.00    -0.084 Cl
ATOM     24  C   UNL d   1       7.016   0.036   2.560  0.00  0.00     0.020 A 
ENDBRANCH  17  18
ENDBRANCH  16  17
ENDBRANCH   8  16
TORSDOF 5
