REMARK  5 active torsions:
REMARK  status: ('A' for Active; 'I' for Inactive)
REMARK    1  A    between atoms: C_2  and  S_1 
REMARK    2  A    between atoms: N_5  and  S_1 
REMARK    3  A    between atoms: C_10  and  C_4 
REMARK    4  A    between atoms: C_8  and  N_9 
REMARK    5  A    between atoms: O_25  and  C_10 
ROOT
ATOM      1  N   UNL d   1       0.437  -0.415   1.560  0.00  0.00    -0.204 NA
ATOM      2  N   UNL d   1      -1.670  -0.520   3.776  0.00  0.00    -0.377 N 
ATOM      3  C   UNL d   1      -0.417   0.750   1.969  0.00  0.00     0.127 C 
ATOM      4  C   UNL d   1      -0.916   0.709   3.425  0.00  0.00     0.138 C 
ATOM      5  C   UNL d   1      -0.135  -2.345   2.986  0.00  0.00     0.035 C 
ATOM      6  C   UNL d   1      -0.336  -1.692   1.623  0.00  0.00     0.109 C 
ATOM      7  C   UNL d   1      -0.812  -1.649   4.172  0.00  0.00     0.124 C 
ENDROOT
BRANCH   1   8
ATOM      8  S   UNL d   1       1.169  -0.172   0.026  0.00  0.00     0.259 S 
ATOM      9  O   UNL d   1       1.891  -1.370  -0.345  0.00  0.00    -0.204 OA
ATOM     10  O   UNL d   1       0.198   0.438  -0.851  0.00  0.00    -0.204 OA
BRANCH   8  11
ATOM     11  C   UNL d   1       2.456   1.049   0.228  0.00  0.00     0.146 A 
ATOM     12  N   UNL d   1       3.591   0.865   1.002  0.00  0.00    -0.336 N 
ATOM     13  C   UNL d   1       4.454   1.949   0.860  0.00  0.00     0.111 A 
ATOM     14  C   UNL d   1       3.891  -0.293   1.823  0.00  0.00     0.157 C 
ATOM     15  C   UNL d   1       3.817   2.849   0.020  0.00  0.00     0.039 A 
ATOM     16  C   UNL d   1       2.581   2.297  -0.364  0.00  0.00     0.046 A 
BRANCH  13  17
ATOM     17  C   UNL d   1       5.769   2.075   1.476  0.00  0.00     0.309 C 
ATOM     18  O   UNL d   1       6.290   1.261   2.223  0.00  0.00    -0.258 OA
BRANCH  17  19
ATOM     19  O   UNL d   1       6.341   3.248   1.086  0.00  0.00    -0.321 OA
ATOM     20  C   UNL d   1       7.645   3.483   1.618  0.00  0.00     0.213 C 
ENDBRANCH  17  19
ENDBRANCH  13  17
ENDBRANCH   8  11
ENDBRANCH   1   8
BRANCH   2  21
ATOM     21  C   UNL d   1      -3.055  -0.558   4.012  0.00  0.00     0.077 A 
ATOM     22  C   UNL d   1      -3.858  -1.690   3.678  0.00  0.00     0.077 A 
ATOM     23 CL   UNL d   1      -3.279  -3.156   2.959  0.00  0.00    -0.080 Cl
ATOM     24  C   UNL d   1      -5.245  -1.672   3.870  0.00  0.00     0.113 A 
ATOM     25  N   UNL d   1      -5.938  -0.625   4.350  0.00  0.00    -0.372 N 
ATOM     26  C   UNL d   1      -5.192   0.439   4.697  0.00  0.00     0.113 A 
ATOM     27  HN  UNL d   1      -6.954  -0.636   4.443  1.00  0.00     0.164 HD
ATOM     28  C   UNL d   1      -3.796   0.512   4.586  0.00  0.00     0.077 A 
ATOM     29 CL   UNL d   1      -3.102   1.908   5.351  0.00  0.00    -0.080 Cl
ENDBRANCH   2  21
TORSDOF 5
