REMARK  4 active torsions:
REMARK  status: ('A' for Active; 'I' for Inactive)
REMARK    1  A    between atoms: C_5  and  C_1 
REMARK    2  A    between atoms: O_16  and  C_1 
REMARK    3  A    between atoms: C_7  and  C_5 
REMARK    4  A    between atoms: C_8  and  C_7 
ROOT
ATOM      1  C   UNL d   1      -1.062  -2.059  -0.062  0.00  0.00     0.174 C 
ATOM      2  C   UNL d   1      -2.087  -1.009   0.406  0.00  0.00     0.262 C 
ATOM      3  C   UNL d   1       0.270  -1.412   0.207  0.00  0.00     0.014 C 
ATOM      4  N   UNL d   1      -1.343   0.138   0.645  0.00  0.00    -0.324 N 
ATOM      5  C   UNL d   1       0.011  -0.061   0.347  0.00  0.00     0.044 C 
ATOM      6  C   UNL d   1       1.572  -1.916   0.127  0.00  0.00     0.032 C 
ATOM      7  O   UNL d   1      -3.286  -1.163   0.573  0.00  0.00    -0.269 OA
ATOM      8  C   UNL d   1       1.012   0.825   0.023  0.00  0.00     0.031 C 
ATOM      9  C   UNL d   1       2.619  -0.998   0.054  0.00  0.00     0.011 C 
ATOM     10  C   UNL d   1       2.333   0.361  -0.087  0.00  0.00     0.021 C 
ATOM     11 BR   UNL d   1       4.429  -1.552   0.037  0.00  0.00    -0.051 Br
ATOM     12  H   UNL d   1      -1.818   0.976   0.938  0.00  0.00     0.169 HD
ENDROOT
BRANCH   1  13
ATOM     13  C   UNL d   1      -1.200  -2.265  -1.620  0.00  0.00     0.137 C 
BRANCH  13  14
ATOM     14  C   UNL d   1      -1.075  -1.011  -2.579  0.00  0.00     0.163 C 
ATOM     15  O   UNL d   1      -1.796  -0.024  -2.369  0.00  0.00    -0.292 OA
BRANCH  14  16
ATOM     16  C   UNL d   1      -0.054  -0.858  -3.755  0.00  0.00     0.007 C 
ATOM     17  C   UNL d   1       1.050  -1.616  -4.276  0.00  0.00     0.026 C 
ATOM     18  C   UNL d   1       2.321  -0.904  -5.037  0.00  0.00    -0.036 C 
ATOM     19  C   UNL d   1       3.600  -0.163  -5.794  0.00  0.00    -0.015 C 
ATOM     20  C   UNL d   1       2.322   0.027  -4.173  0.00  0.00    -0.067 C 
ATOM     21  C   UNL d   1       4.419   0.968  -5.252  0.00  0.00     0.028 C 
ATOM     22  C   UNL d   1       4.800   0.688  -3.980  0.00  0.00     0.008 C 
ATOM     23  C   UNL d   1       3.727   0.007  -3.436  0.00  0.00     0.036 C 
ATOM     24  C   UNL d   1       1.212   0.841  -4.714  0.00  0.00     0.063 C 
ATOM     25  C   UNL d   1      -0.061   0.359  -4.396  0.00  0.00    -0.007 C 
ENDBRANCH  14  16
ENDBRANCH  13  14
ENDBRANCH   1  13
BRANCH   1  26
ATOM     26  O   UNL d   1      -1.200  -3.176   0.812  0.00  0.00    -0.375 OA
ATOM     27  H   UNL d   1      -1.246  -2.792   1.719  0.00  0.00     0.211 HD
ENDBRANCH   1  26
TORSDOF 4
