REMARK  2 active torsions:
REMARK  status: ('A' for Active; 'I' for Inactive)
REMARK    1  A    between atoms: C_2  and  C_1 
REMARK       I    between atoms: N_6  and  C_2 
REMARK    2  A    between atoms: C_12  and  N_6 
ROOT
ATOM      1  C   UNL d   1       1.594  -1.006   0.237  0.00  0.00     0.050 A 
ATOM      2  C   UNL d   1       0.306  -0.398  -0.087  0.00  0.00    -0.001 A 
ATOM      3  C   UNL d   1       2.583  -0.038   0.315  0.00  0.00     0.068 A 
ATOM      4  S   UNL d   1       2.049   1.526  -0.051  0.00  0.00    -0.100 SA
ATOM      5  C   UNL d   1       0.438   0.986  -0.293  0.00  0.00     0.016 A 
ATOM      6  C   UNL d   1      -1.008  -0.931  -0.204  0.00  0.00     0.037 A 
ATOM      7  C   UNL d   1      -0.652   1.809  -0.646  0.00  0.00     0.021 A 
ATOM      8  C   UNL d   1      -2.089  -0.114  -0.565  0.00  0.00     0.035 A 
ATOM      9  C   UNL d   1      -1.915   1.240  -0.791  0.00  0.00     0.025 A 
ATOM     10 CL   UNL d   1      -3.656  -0.807  -0.732  0.00  0.00    -0.084 Cl
ENDROOT
BRANCH   1  11
ATOM     11  C   UNL d   1       1.973  -2.407   0.504  0.00  0.00     0.257 C 
ATOM     12  N   UNL d   1       1.179  -3.376  -0.084  0.00  0.00    -0.323 N 
ATOM     13  H   UNL d   1       0.419  -3.057  -0.665  0.00  0.00     0.169 HD
ATOM     14  O   UNL d   1       2.980  -2.640   1.168  0.00  0.00    -0.267 OA
BRANCH  12  15
ATOM     15  C   UNL d   1       1.398  -4.775  -0.082  0.00  0.00     0.035 A 
ATOM     16  C   UNL d   1       2.490  -5.398   0.529  0.00  0.00     0.029 A 
ATOM     17  C   UNL d   1       2.673  -6.783   0.432  0.00  0.00     0.002 A 
ATOM     18  C   UNL d   1       1.756  -7.563  -0.265  0.00  0.00     0.000 A 
ATOM     19  C   UNL d   1       0.649  -6.960  -0.856  0.00  0.00     0.002 A 
ATOM     20  C   UNL d   1       0.472  -5.575  -0.765  0.00  0.00     0.029 A 
ENDBRANCH  12  15
ENDBRANCH   1  11
TORSDOF 2
