REMARK  2 active torsions:
REMARK  status: ('A' for Active; 'I' for Inactive)
REMARK    1  A    between atoms: C_6  and  S_1 
REMARK    2  A    between atoms: C_14  and  S_1 
ROOT
ATOM      1  C   UNL d   1      -1.060   0.675   5.779  0.00  0.00     0.370 A 
ATOM      2  N   UNL d   1      -0.757   1.460   4.691  0.00  0.00    -0.300 N 
ATOM      3  C   UNL d   1      -0.322   0.640   3.692  0.00  0.00     0.072 A 
ATOM      4  O   UNL d   1      -0.823  -0.679   5.508  0.00  0.00    -0.259 OA
ATOM      5  C   UNL d   1       0.477  -0.167   1.631  0.00  0.00     0.061 A 
ATOM      6  C   UNL d   1       0.089   0.929   2.413  0.00  0.00     0.055 A 
ATOM      7  C   UNL d   1      -0.369  -0.642   4.199  0.00  0.00     0.107 A 
ATOM      8  O   UNL d   1      -1.479   1.094   6.848  0.00  0.00    -0.238 OA
ATOM      9  C   UNL d   1       0.421  -1.490   2.128  0.00  0.00     0.026 A 
ATOM     10  C   UNL d   1      -0.006  -1.733   3.439  0.00  0.00     0.041 A 
ATOM     11  H   UNL d   1      -0.869   2.461   4.678  0.00  0.00     0.171 HD
ENDROOT
BRANCH   5  12
ATOM     12  S   UNL d   1       0.980   0.108  -0.057  0.00  0.00     0.175 S 
ATOM     13  O   UNL d   1       0.364   1.350  -0.482  0.00  0.00    -0.223 OA
ATOM     14  O   UNL d   1       0.744  -1.128  -0.778  0.00  0.00    -0.223 OA
BRANCH  12  15
ATOM     15  C   UNL d   1       2.740   0.362   0.076  0.00  0.00     0.141 C 
ATOM     16  C   UNL d   1       3.367   0.622  -1.280  0.00  0.00     0.021 C 
ENDBRANCH  12  15
ENDBRANCH   5  12
TORSDOF 2
