REMARK  2 active torsions:
REMARK  status: ('A' for Active; 'I' for Inactive)
REMARK    1  A    between atoms: C_9  and  N_1 
REMARK    2  A    between atoms: S_11  and  C_6 
ROOT
ATOM      1  N   UNL d   1       0.019  -1.201  -0.024  0.00  0.00    -0.238 N 
ATOM      2  C   UNL d   1       1.206   0.663   0.105  0.00  0.00     0.124 C 
ATOM      3  C   UNL d   1       1.327  -0.710   0.117  0.00  0.00     0.145 C 
ATOM      4  N   UNL d   1      -0.869  -0.197  -0.283  0.00  0.00    -0.284 N 
ATOM      5  HN  UNL d   1      -1.851  -0.280  -0.543  1.00  0.00     0.188 HD
ATOM      6  C   UNL d   1      -0.155   0.920  -0.119  0.00  0.00     0.109 C 
ATOM      7  C   UNL d   1       2.277   1.590   0.227  0.00  0.00     0.106 C 
ATOM      8  N   UNL d   1       3.184   2.312   0.310  0.00  0.00    -0.191 NA
ATOM      9  N   UNL d   1       2.444  -1.490   0.177  0.00  0.00    -0.383 N 
ATOM     10  H   UNL d   1       3.368  -1.069   0.067  0.00  0.00     0.157 HD
ATOM     11  H   UNL d   1       2.424  -2.439  -0.199  0.00  0.00     0.157 HD
ENDROOT
BRANCH   6  12
ATOM     12  S   UNL d   1      -0.852   2.524  -0.232  0.00  0.00    -0.114 SA
ATOM     13  C   UNL d   1      -2.609   2.186  -0.432  0.00  0.00     0.097 C 
ENDBRANCH   6  12
BRANCH   1  14
ATOM     14  C   UNL d   1      -0.404  -2.560   0.025  0.00  0.00     0.058 A 
ATOM     15  C   UNL d   1       0.284  -3.488   0.821  0.00  0.00     0.031 A 
ATOM     16  C   UNL d   1      -0.062  -4.839   0.784  0.00  0.00     0.002 A 
ATOM     17  C   UNL d   1      -1.098  -5.267  -0.041  0.00  0.00     0.000 A 
ATOM     18  C   UNL d   1      -1.818  -4.340  -0.797  0.00  0.00     0.002 A 
ATOM     19  C   UNL d   1      -1.490  -2.982  -0.751  0.00  0.00     0.031 A 
ENDBRANCH   1  14
TORSDOF 2
