REMARK  5 active torsions:
REMARK  status: ('A' for Active; 'I' for Inactive)
REMARK    1  A    between atoms: S_6  and  C_3 
REMARK    2  A    between atoms: C_5  and  C_10 
REMARK    3  A    between atoms: O_12  and  C_5 
REMARK    4  A    between atoms: C_10  and  S_6 
REMARK    5  A    between atoms: C_15  and  O_12 
ROOT
ATOM      1  N   UNL d   1      -1.257   1.424  -0.046  0.00  0.00    -0.350 N 
ATOM      2  HN  UNL d   1      -1.272   2.444  -0.068  1.00  0.00     0.166 HD
ATOM      3  C   UNL d   1      -2.409   0.710  -0.016  0.00  0.00     0.070 A 
ATOM      4  C   UNL d   1      -0.087   0.746  -0.046  0.00  0.00     0.043 A 
ATOM      5  C   UNL d   1      -0.031  -0.666  -0.032  0.00  0.00    -0.009 A 
ATOM      6  C   UNL d   1      -1.237  -1.373  -0.019  0.00  0.00     0.016 A 
ATOM      7  C   UNL d   1      -2.442  -0.674  -0.003  0.00  0.00     0.038 A 
ATOM      8  C   UNL d   1       1.122   1.436  -0.044  0.00  0.00     0.030 A 
ATOM      9  C   UNL d   1       1.205  -1.339  -0.018  0.00  0.00     0.013 A 
ATOM     10  C   UNL d   1       2.353   0.773  -0.027  0.00  0.00     0.002 A 
ATOM     11  C   UNL d   1       2.397  -0.617  -0.015  0.00  0.00     0.001 A 
ENDROOT
BRANCH   3  12
ATOM     12  S   UNL d   1      -3.964   1.590   0.090  0.00  0.00    -0.102 SA
BRANCH  12  13
ATOM     13  C   UNL d   1      -3.583   3.078  -0.888  0.00  0.00     0.191 C 
BRANCH  13  14
ATOM     14  C   UNL d   1      -3.109   2.729  -2.283  0.00  0.00     0.268 C 
ATOM     15  O   UNL d   1      -3.492   1.781  -2.954  0.00  0.00    -0.264 OA
BRANCH  14  16
ATOM     16  O   UNL d   1      -2.184   3.648  -2.692  0.00  0.00    -0.321 OA
BRANCH  16  17
ATOM     17  C   UNL d   1      -1.330   3.225  -3.761  0.00  0.00     0.174 C 
ATOM     18  C   UNL d   1      -1.654   3.956  -5.048  0.00  0.00     0.034 C 
ENDBRANCH  16  17
ENDBRANCH  14  16
ENDBRANCH  13  14
ENDBRANCH  12  13
ENDBRANCH   3  12
TORSDOF 5
