REMARK  1 active torsions:
REMARK  status: ('A' for Active; 'I' for Inactive)
REMARK    1  A    between atoms: C_10  and  C_6 
ROOT
ATOM      1  C   UNL d   1      -1.228  -0.710  -0.550  0.00  0.00    -0.006 C 
ATOM      2  C   UNL d   1       0.025   1.166   0.358  0.00  0.00     0.029 C 
ATOM      3  C   UNL d   1      -1.173   0.797  -0.518  0.00  0.00     0.165 C 
ATOM      4  C   UNL d   1      -0.032   0.013   1.404  0.00  0.00    -0.025 C 
ATOM      5  C   UNL d   1      -0.032  -1.093   0.310  0.00  0.00     0.031 C 
ATOM      6  C   UNL d   1      -2.107  -1.524  -1.143  0.00  0.00     0.022 C 
ATOM      7  C   UNL d   1       1.250   0.799  -0.519  0.00  0.00     0.018 C 
ATOM      8  C   UNL d   1       1.221  -0.751  -0.531  0.00  0.00     0.011 C 
ATOM      9  O   UNL d   1      -1.908   1.567  -1.104  0.00  0.00    -0.292 OA
ATOM     10  C   UNL d   1       0.015   2.585   0.873  0.00  0.00     0.025 C 
ATOM     11  C   UNL d   1       1.180  -0.043   2.356  0.00  0.00     0.016 C 
ATOM     12  C   UNL d   1      -1.291   0.007   2.300  0.00  0.00     0.016 C 
ENDROOT
BRANCH   6  13
ATOM     13  C   UNL d   1      -3.233  -1.080  -1.965  0.00  0.00    -0.036 A 
ATOM     14  C   UNL d   1      -3.068  -0.911  -3.344  0.00  0.00     0.011 A 
ATOM     15  C   UNL d   1      -4.141  -0.493  -4.134  0.00  0.00     0.001 A 
ATOM     16  C   UNL d   1      -5.382  -0.244  -3.550  0.00  0.00     0.000 A 
ATOM     17  C   UNL d   1      -5.552  -0.412  -2.176  0.00  0.00     0.001 A 
ATOM     18  C   UNL d   1      -4.480  -0.830  -1.384  0.00  0.00     0.011 A 
ENDBRANCH   6  13
TORSDOF 1
