REMARK  6 active torsions:
REMARK  status: ('A' for Active; 'I' for Inactive)
REMARK    1  A    between atoms: C_2  and  C_1 
REMARK    2  A    between atoms: C_8  and  C_1 
REMARK    3  A    between atoms: C_11  and  C_2 
REMARK    4  A    between atoms: N_5  and  N_3 
REMARK    5  A    between atoms: N_10  and  C_7 
REMARK    6  A    between atoms: C_15  and  C_14 
ROOT
ATOM      1  C   UNL d   1       0.892   0.102  -0.184  0.00  0.00     0.109 C 
ATOM      2  N   UNL d   1       0.228   1.232  -0.223  0.00  0.00    -0.296 N 
ATOM      3  HN  UNL d   1       0.699   2.136  -0.259  1.00  0.00     0.187 HD
ENDROOT
BRANCH   1   4
ATOM      4  C   UNL d   1       0.223  -1.266  -0.157  0.00  0.00     0.210 C 
ATOM      5  O   UNL d   1       0.643  -2.135  -0.917  0.00  0.00    -0.285 OA
BRANCH   4   6
ATOM      6  C   UNL d   1      -0.935  -1.560   0.735  0.00  0.00     0.016 A 
ATOM      7  C   UNL d   1      -1.926  -2.438   0.274  0.00  0.00     0.015 A 
ATOM      8  C   UNL d   1      -3.097  -2.622   1.012  0.00  0.00     0.001 A 
ATOM      9  C   UNL d   1      -3.272  -1.944   2.219  0.00  0.00     0.000 A 
ATOM     10  C   UNL d   1      -2.265  -1.107   2.703  0.00  0.00     0.001 A 
ATOM     11  C   UNL d   1      -1.091  -0.922   1.969  0.00  0.00     0.015 A 
ENDBRANCH   4   6
ENDBRANCH   1   4
BRANCH   1  12
ATOM     12  C   UNL d   1       2.381   0.178  -0.195  0.00  0.00    -0.004 A 
ATOM     13  C   UNL d   1       2.979   1.315  -0.758  0.00  0.00     0.014 A 
ATOM     14  C   UNL d   1       4.364   1.481  -0.727  0.00  0.00     0.001 A 
ATOM     15  C   UNL d   1       5.162   0.511  -0.130  0.00  0.00     0.000 A 
ATOM     16  C   UNL d   1       4.577  -0.634   0.417  0.00  0.00     0.001 A 
ATOM     17  C   UNL d   1       3.188  -0.808   0.382  0.00  0.00     0.014 A 
ENDBRANCH   1  12
BRANCH   2  18
ATOM     18  N   UNL d   1      -1.148   1.125  -0.211  0.00  0.00    -0.311 N 
ATOM     19  C   UNL d   1      -1.695   2.256   0.114  0.00  0.00     0.118 C 
ATOM     20  HN  UNL d   1      -1.665   0.273  -0.428  1.00  0.00     0.186 HD
BRANCH  19  21
ATOM     21  C   UNL d   1      -3.149   2.391   0.313  0.00  0.00    -0.019 A 
ATOM     22  C   UNL d   1      -3.976   1.273   0.326  0.00  0.00     0.015 A 
ATOM     23  C   UNL d   1      -5.346   1.411   0.585  0.00  0.00     0.030 A 
ATOM     24  C   UNL d   1      -5.935   2.663   0.822  0.00  0.00     0.029 A 
ATOM     25  C   UNL d   1      -5.067   3.773   0.796  0.00  0.00     0.030 A 
ATOM     26  C   UNL d   1      -3.692   3.649   0.548  0.00  0.00     0.015 A 
BRANCH  24  27
ATOM     27  N   UNL d   1      -7.282   2.819   1.147  0.00  0.00    -0.390 N 
ATOM     28  C   UNL d   1      -8.025   3.923   0.535  0.00  0.00     0.149 C 
ATOM     29  C   UNL d   1      -8.105   1.652   1.459  0.00  0.00     0.149 C 
ENDBRANCH  24  27
ENDBRANCH  19  21
ENDBRANCH   2  18
TORSDOF 6
