REMARK  7 active torsions:
REMARK  status: ('A' for Active; 'I' for Inactive)
REMARK    1  A    between atoms: N_10  and  C_1 
REMARK    2  A    between atoms: C_5  and  C_2 
REMARK    3  A    between atoms: C_9  and  O_16 
REMARK       I    between atoms: N_11  and  C_9 
REMARK    4  A    between atoms: C_20  and  N_10 
REMARK    5  A    between atoms: C_17  and  N_11 
REMARK    6  A    between atoms: O_16  and  C_19 
REMARK    7  A    between atoms: C_19  and  C_20 
ROOT
ATOM      1  C   UNL d   1      -1.276  -1.819   0.009  0.00  0.00     0.044 A 
ATOM      2  C   UNL d   1      -2.025   0.316  -0.885  0.00  0.00     0.119 A 
ATOM      3  N   UNL d   1      -1.005   0.985  -0.297  0.00  0.00    -0.352 N 
ATOM      4  HN  UNL d   1      -0.900   1.991  -0.428  1.00  0.00     0.166 HD
ATOM      5  C   UNL d   1      -2.200  -1.056  -0.719  0.00  0.00     0.064 A 
ATOM      6  C   UNL d   1      -0.211  -1.098   0.660  0.00  0.00     0.017 A 
ATOM      7  C   UNL d   1      -0.140   0.304   0.457  0.00  0.00     0.045 A 
ATOM      8  C   UNL d   1       0.769  -1.658   1.525  0.00  0.00     0.016 A 
ATOM      9  C   UNL d   1       0.868   1.051   1.052  0.00  0.00     0.030 A 
ATOM     10  C   UNL d   1       1.790  -0.892   2.100  0.00  0.00     0.001 A 
ATOM     11  C   UNL d   1       1.841   0.469   1.860  0.00  0.00     0.002 A 
ENDROOT
BRANCH   1  12
ATOM     12  N   UNL d   1      -1.409  -3.214   0.032  0.00  0.00    -0.382 N 
ATOM     13  C   UNL d   1      -0.235  -4.060  -0.167  0.00  0.00     0.150 C 
BRANCH  12  14
ATOM     14  C   UNL d   1      -2.729  -3.888   0.036  0.00  0.00     0.149 C 
BRANCH  14  15
ATOM     15  C   UNL d   1      -3.207  -4.356  -1.357  0.00  0.00     0.200 C 
BRANCH  15  16
ATOM     16  O   UNL d   1      -4.437  -5.123  -1.320  0.00  0.00    -0.302 OA
BRANCH  16  17
ATOM     17  C   UNL d   1      -5.560  -4.377  -1.165  0.00  0.00     0.365 C 
ATOM     18  N   UNL d   1      -6.768  -5.006  -1.309  0.00  0.00    -0.303 N 
ATOM     19  H   UNL d   1      -7.515  -4.341  -1.155  0.00  0.00     0.171 HD
ATOM     20  O   UNL d   1      -5.540  -3.171  -0.917  0.00  0.00    -0.238 OA
BRANCH  18  21
ATOM     21  C   UNL d   1      -7.170  -6.302  -1.681  0.00  0.00     0.036 A 
ATOM     22  C   UNL d   1      -6.317  -7.363  -1.979  0.00  0.00     0.029 A 
ATOM     23  C   UNL d   1      -6.846  -8.606  -2.357  0.00  0.00     0.002 A 
ATOM     24  C   UNL d   1      -8.224  -8.799  -2.446  0.00  0.00     0.000 A 
ATOM     25  C   UNL d   1      -9.085  -7.750  -2.152  0.00  0.00     0.002 A 
ATOM     26  C   UNL d   1      -8.558  -6.512  -1.772  0.00  0.00     0.029 A 
ENDBRANCH  18  21
ENDBRANCH  16  17
ENDBRANCH  15  16
ENDBRANCH  14  15
ENDBRANCH  12  14
ENDBRANCH   1  12
BRANCH   2  27
ATOM     27  C   UNL d   1      -2.965   1.070  -1.813  0.00  0.00     0.432 C 
ATOM     28  F   UNL d   1      -2.655   2.389  -1.976  0.00  0.00    -0.165 F 
ATOM     29  F   UNL d   1      -2.976   0.542  -3.075  0.00  0.00    -0.165 F 
ATOM     30  F   UNL d   1      -4.263   1.043  -1.395  0.00  0.00    -0.165 F 
ENDBRANCH   2  27
TORSDOF 7
