REMARK  8 active torsions:
REMARK  status: ('A' for Active; 'I' for Inactive)
REMARK    1  A    between atoms: C_3  and  C_1 
REMARK    2  A    between atoms: N_2  and  C_4 
REMARK    3  A    between atoms: C_7  and  C_11 
REMARK    4  A    between atoms: C_11  and  N_8 
REMARK    5  A    between atoms: O_26  and  C_9 
REMARK    6  A    between atoms: O_24  and  C_21 
REMARK    7  A    between atoms: C_27  and  O_24 
REMARK    8  A    between atoms: C_28  and  C_27 
ROOT
ATOM      1  N   UNL d   1      -5.285   1.006   7.399  0.00  0.00    -0.364 N 
ATOM      2  N   UNL d   1      -2.407   0.458   7.803  0.00  0.00     0.095 N 
ATOM      3  C   UNL d   1      -4.273   1.856   6.746  0.00  0.00     0.154 C 
ATOM      4  C   UNL d   1      -4.834   0.377   8.648  0.00  0.00     0.154 C 
ATOM      5  C   UNL d   1      -3.479  -0.350   8.432  0.00  0.00     0.292 C 
ATOM      6  C   UNL d   1      -2.973   1.037   6.554  0.00  0.00     0.292 C 
ENDROOT
BRANCH   2   7
ATOM      7  C   UNL d   1      -1.860   1.516   8.678  0.00  0.00     0.314 C 
BRANCH   7   8
ATOM      8  C   UNL d   1      -1.066   1.030   9.882  0.00  0.00     0.003 A 
ATOM      9  C   UNL d   1       0.285   0.626   9.886  0.00  0.00     0.078 A 
ATOM     10  C   UNL d   1       0.903   0.252  11.097  0.00  0.00     0.074 A 
ATOM     11  C   UNL d   1       0.207   0.247  12.303  0.00  0.00     0.071 A 
ATOM     12  C   UNL d   1      -1.101   0.718  12.321  0.00  0.00     0.037 A 
ATOM     13  C   UNL d   1      -1.728   1.083  11.129  0.00  0.00     0.014 A 
BRANCH   9  14
ATOM     14  O   UNL d   1       1.169   0.633   8.841  0.00  0.00    -0.355 OA
ATOM     15  C   UNL d   1       0.682   0.251   7.565  0.00  0.00     0.210 C 
ENDBRANCH   9  14
BRANCH  11  16
ATOM     16  O   UNL d   1       0.881  -0.221  13.400  0.00  0.00    -0.347 OA
BRANCH  16  17
ATOM     17  C   UNL d   1       0.040  -0.789  14.410  0.00  0.00     0.214 C 
BRANCH  17  18
ATOM     18  C   UNL d   1       0.792  -1.810  15.229  0.00  0.00    -0.034 A 
ATOM     19  C   UNL d   1       0.853  -1.702  16.625  0.00  0.00     0.009 A 
ATOM     20  C   UNL d   1       1.469  -2.697  17.386  0.00  0.00     0.001 A 
ATOM     21  C   UNL d   1       2.027  -3.810  16.760  0.00  0.00     0.000 A 
ATOM     22  C   UNL d   1       1.976  -3.927  15.373  0.00  0.00     0.001 A 
ATOM     23  C   UNL d   1       1.361  -2.932  14.610  0.00  0.00     0.009 A 
ENDBRANCH  17  18
ENDBRANCH  16  17
ENDBRANCH  11  16
ENDBRANCH   7   8
ENDBRANCH   2   7
BRANCH   1  24
ATOM     24  C   UNL d   1      -6.610   1.209   7.071  0.00  0.00     0.103 A 
ATOM     25  C   UNL d   1      -7.642   0.444   7.621  0.00  0.00     0.049 A 
ATOM     26  C   UNL d   1      -8.962   0.616   7.194  0.00  0.00     0.021 A 
ATOM     27  C   UNL d   1      -9.259   1.554   6.215  0.00  0.00     0.063 A 
ATOM     28  C   UNL d   1      -8.196   2.279   5.711  0.00  0.00     0.106 A 
ATOM     29  N   UNL d   1      -6.911   2.123   6.121  0.00  0.00    -0.352 N 
ATOM     30  HN  UNL d   1      -6.172   2.696   5.712  1.00  0.00     0.166 HD
BRANCH  27  31
ATOM     31  C   UNL d   1     -10.655   1.768   5.725  0.00  0.00     0.418 C 
ATOM     32  F   UNL d   1     -10.761   2.720   4.758  0.00  0.00    -0.166 F 
ATOM     33  F   UNL d   1     -11.499   2.154   6.721  0.00  0.00    -0.166 F 
ATOM     34  F   UNL d   1     -11.201   0.637   5.196  0.00  0.00    -0.166 F 
ENDBRANCH  27  31
ENDBRANCH   1  24
TORSDOF 8
