REMARK  5 active torsions:
REMARK  status: ('A' for Active; 'I' for Inactive)
REMARK    1  A    between atoms: N_14  and  C_3 
REMARK    2  A    between atoms: S_24  and  C_8 
REMARK    3  A    between atoms: C_13  and  C_12 
REMARK    4  A    between atoms: C_17  and  C_13 
REMARK    5  A    between atoms: C_16  and  N_14 
ROOT
ATOM      1  C   UNL d   1       2.417  -4.925   0.015  0.00  0.00     0.111 C 
ATOM      2  C   UNL d   1       2.431  -3.579   0.003  0.00  0.00     0.133 C 
ATOM      3  C   UNL d   1       3.615  -5.679   0.059  0.00  0.00     0.105 C 
ATOM      4  N   UNL d   1       4.614  -6.275   0.078  0.00  0.00    -0.191 NA
ENDROOT
BRANCH   1   5
ATOM      5  C   UNL d   1       1.080  -5.623   0.041  0.00  0.00     0.210 C 
ATOM      6  O   UNL d   1       0.107  -4.999   0.470  0.00  0.00    -0.285 OA
BRANCH   5   7
ATOM      7  C   UNL d   1       0.976  -7.002  -0.436  0.00  0.00     0.056 A 
ATOM      8  S   UNL d   1      -0.228  -8.021   0.251  0.00  0.00    -0.098 SA
ATOM      9  C   UNL d   1       0.232  -9.349  -0.722  0.00  0.00     0.050 A 
ATOM     10  C   UNL d   1       1.262  -9.027  -1.575  0.00  0.00     0.009 A 
ATOM     11  C   UNL d   1       1.684  -7.673  -1.419  0.00  0.00     0.023 A 
ENDBRANCH   5   7
ENDBRANCH   1   5
BRANCH   2  12
ATOM     12  N   UNL d   1       3.486  -2.681  -0.002  0.00  0.00    -0.198 N 
ATOM     13  H   UNL d   1       4.437  -3.056   0.013  0.00  0.00     0.183 HD
BRANCH  12  14
ATOM     14  C   UNL d   1       3.399  -1.295  -0.009  0.00  0.00     0.707 A 
ATOM     15  N   UNL d   1       4.595  -0.556  -0.009  0.00  0.00    -0.069 N 
ATOM     16  C   UNL d   1       4.567   0.808  -0.018  0.00  0.00     0.149 A 
ATOM     17  N   UNL d   1       5.843  -1.091  -0.007  0.00  0.00    -0.282 N 
ATOM     18  N   UNL d   1       3.386   1.469  -0.024  0.00  0.00    -0.321 N 
ATOM     19  C   UNL d   1       5.879   1.205  -0.017  0.00  0.00     0.077 A 
ATOM     20  C   UNL d   1       2.305   0.745  -0.023  0.00  0.00     0.160 A 
ATOM     21  HN  UNL d   1       3.346   2.488  -0.028  1.00  0.00     0.169 HD
ATOM     22  N   UNL d   1       2.269  -0.636  -0.018  0.00  0.00    -0.168 N 
ATOM     23  HN  UNL d   1       1.379  -1.133  -0.022  1.00  0.00     0.186 HD
ATOM     24  C   UNL d   1       6.632   0.003  -0.011  0.00  0.00     0.026 A 
ATOM     25  C   UNL d   1       8.115  -0.085  -0.008  0.00  0.00     0.070 C 
ATOM     26  HN  UNL d   1       6.115  -2.073  -0.004  1.00  0.00     0.188 HD
BRANCH  20  27
ATOM     27  S   UNL d   1       0.801   1.651  -0.031  0.00  0.00    -0.098 SA
ATOM     28  C   UNL d   1      -0.432   0.344  -0.021  0.00  0.00     0.099 C 
ENDBRANCH  20  27
ENDBRANCH  12  14
ENDBRANCH   2  12
TORSDOF 5
