REMARK  5 active torsions:
REMARK  status: ('A' for Active; 'I' for Inactive)
REMARK    1  A    between atoms: C_2  and  S_1 
REMARK    2  A    between atoms: N_3  and  S_1 
REMARK    3  A    between atoms: C_8  and  N_3 
REMARK    4  A    between atoms: O_14  and  C_7 
REMARK    5  A    between atoms: O_16  and  C_9 
ROOT
ATOM      1  S   UNL d   1       1.124   0.019  -0.087  0.00  0.00     0.263 S 
ATOM      2  O   UNL d   1       1.900   1.217   0.138  0.00  0.00    -0.200 OA
ATOM      3  O   UNL d   1       1.721  -1.294   0.041  0.00  0.00    -0.200 OA
ENDROOT
BRANCH   1   4
ATOM      4  C   UNL d   1       0.407   0.146  -1.711  0.00  0.00     0.082 A 
ATOM      5  C   UNL d   1       0.074  -1.022  -2.405  0.00  0.00     0.065 A 
ATOM      6  C   UNL d   1      -0.494  -0.956  -3.685  0.00  0.00     0.102 A 
ATOM      7  C   UNL d   1      -0.677   0.306  -4.286  0.00  0.00     0.101 A 
ATOM      8  C   UNL d   1      -0.303   1.466  -3.586  0.00  0.00     0.041 A 
ATOM      9  C   UNL d   1       0.237   1.395  -2.302  0.00  0.00     0.028 A 
BRANCH   6  10
ATOM     10  O   UNL d   1      -0.888  -2.069  -4.376  0.00  0.00    -0.353 OA
ATOM     11  C   UNL d   1      -0.711  -3.342  -3.771  0.00  0.00     0.210 C 
ENDBRANCH   6  10
BRANCH   7  12
ATOM     12  O   UNL d   1      -1.185   0.597  -5.527  0.00  0.00    -0.353 OA
ATOM     13  C   UNL d   1      -1.614  -0.468  -6.364  0.00  0.00     0.210 C 
ENDBRANCH   7  12
ENDBRANCH   1   4
BRANCH   1  14
ATOM     14  N   UNL d   1      -0.196   0.125   0.930  0.00  0.00    -0.281 N 
ATOM     15  H   UNL d   1      -0.273   0.970   1.491  0.00  0.00     0.179 HD
BRANCH  14  16
ATOM     16  C   UNL d   1      -1.198  -0.870   1.006  0.00  0.00     0.043 A 
ATOM     17  C   UNL d   1      -2.386  -0.695   0.300  0.00  0.00     0.049 A 
ATOM     18  C   UNL d   1      -3.434  -1.597   0.482  0.00  0.00     0.013 A 
ATOM     19 BR   UNL d   1      -5.054  -1.347  -0.461  0.00  0.00    -0.051 Br
ATOM     20  C   UNL d   1      -3.310  -2.664   1.371  0.00  0.00     0.019 A 
ATOM     21  C   UNL d   1      -2.117  -2.836   2.076  0.00  0.00     0.004 A 
ATOM     22  C   UNL d   1      -1.060  -1.938   1.893  0.00  0.00     0.030 A 
ENDBRANCH  14  16
ENDBRANCH   1  14
TORSDOF 5
