REMARK  4 active torsions:
REMARK  status: ('A' for Active; 'I' for Inactive)
REMARK    1  A    between atoms: C_6  and  C_3 
REMARK    2  A    between atoms: C_10  and  C_4 
REMARK    3  A    between atoms: O_14  and  C_11 
REMARK    4  A    between atoms: C_17  and  O_14 
ROOT
ATOM      1  C   UNL d   1       0.058  -2.606  -0.108  0.00  0.00     0.013 A 
ATOM      2  N   UNL d   1      -0.865  -4.585  -1.177  0.00  0.00    -0.346 N 
ATOM      3  HN  UNL d   1      -1.377  -5.012  -1.949  1.00  0.00     0.167 HD
ATOM      4  C   UNL d   1      -0.382  -5.323  -0.154  0.00  0.00     0.147 A 
ATOM      5  C   UNL d   1      -0.637  -3.252  -1.127  0.00  0.00     0.104 A 
ATOM      6  C   UNL d   1       0.596  -3.417   0.897  0.00  0.00     0.020 A 
ATOM      7  C   UNL d   1       0.376  -4.796   0.879  0.00  0.00     0.057 A 
ENDROOT
BRANCH   1   8
ATOM      8  C   UNL d   1       0.245  -1.151  -0.075  0.00  0.00     0.086 A 
ATOM      9  N   UNL d   1       1.277  -0.546   0.478  0.00  0.00    -0.349 N 
ATOM     10  C   UNL d   1       1.178   0.830   0.316  0.00  0.00     0.050 A 
ATOM     11  HN  UNL d   1       2.042  -1.021   0.958  1.00  0.00     0.166 HD
ATOM     12  C   UNL d   1       0.015   1.255  -0.294  0.00  0.00     0.082 A 
ATOM     13  S   UNL d   1      -0.950  -0.089  -0.722  0.00  0.00    -0.081 SA
BRANCH  10  14
ATOM     14  C   UNL d   1       2.229   1.725   0.785  0.00  0.00    -0.009 A 
ATOM     15  C   UNL d   1       2.455   2.972   0.186  0.00  0.00     0.014 A 
ATOM     16  C   UNL d   1       3.472   3.811   0.651  0.00  0.00     0.007 A 
ATOM     17  C   UNL d   1       4.283   3.419   1.721  0.00  0.00    -0.062 A 
ATOM     18  C   UNL d   1       4.067   2.172   2.315  0.00  0.00     0.007 A 
ATOM     19  C   UNL d   1       5.367   4.333   2.210  0.00  0.00     0.048 C 
ATOM     20  C   UNL d   1       3.052   1.331   1.847  0.00  0.00     0.014 A 
ENDBRANCH  10  14
ENDBRANCH   1   8
BRANCH   4  21
ATOM     21  O   UNL d   1      -0.632  -6.687  -0.122  0.00  0.00    -0.294 OA
BRANCH  21  22
ATOM     22  C   UNL d   1      -1.843  -7.124  -0.613  0.00  0.00     0.077 A 
ATOM     23  C   UNL d   1      -1.846  -8.361  -1.262  0.00  0.00     0.039 A 
ATOM     24  C   UNL d   1      -3.041  -8.890  -1.756  0.00  0.00     0.026 A 
ATOM     25  C   UNL d   1      -4.232  -8.184  -1.592  0.00  0.00     0.034 A 
ATOM     26  C   UNL d   1      -4.241  -6.959  -0.927  0.00  0.00     0.026 A 
ATOM     27 CL   UNL d   1      -5.704  -8.829  -2.207  0.00  0.00    -0.084 Cl
ATOM     28  C   UNL d   1      -3.048  -6.437  -0.423  0.00  0.00     0.039 A 
ENDBRANCH  21  22
ENDBRANCH   4  21
TORSDOF 4
