REMARK  8 active torsions:
REMARK  status: ('A' for Active; 'I' for Inactive)
REMARK    1  A    between atoms: N_2  and  C_1 
REMARK    2  A    between atoms: C_3  and  C_1 
REMARK    3  A    between atoms: C_5  and  C_1 
REMARK    4  A    between atoms: N_6  and  C_1 
REMARK       I    between atoms: C_4  and  N_2 
REMARK    5  A    between atoms: C_7  and  C_4 
REMARK    6  A    between atoms: O_18  and  C_5 
REMARK    7  A    between atoms: C_17  and  N_6 
REMARK    8  A    between atoms: C_24  and  O_18 
ROOT
ATOM      1  C   UNL d   1       0.972  -0.111   0.064  0.00  0.00     0.281 C 
ENDROOT
BRANCH   1   2
ATOM      2  N   UNL d   1       0.547  -0.861   1.238  0.00  0.00    -0.317 N 
ATOM      3  C   UNL d   1      -0.767  -1.046   1.567  0.00  0.00     0.277 C 
ATOM      4  O   UNL d   1      -1.674  -0.610   0.869  0.00  0.00    -0.265 OA
ATOM      5  H   UNL d   1       1.273  -1.271   1.808  0.00  0.00     0.165 HD
BRANCH   3   6
ATOM      6  C   UNL d   1      -0.968  -1.804   2.779  0.00  0.00     0.142 A 
ATOM      7  O   UNL d   1       0.109  -2.108   3.573  0.00  0.00    -0.317 OA
ATOM      8  C   UNL d   1      -0.364  -2.788   4.649  0.00  0.00     0.143 A 
ATOM      9  C   UNL d   1      -1.726  -2.949   4.556  0.00  0.00     0.027 A 
ATOM     10  C   UNL d   1      -2.116  -2.321   3.350  0.00  0.00     0.045 A 
ENDBRANCH   3   6
ENDBRANCH   1   2
BRANCH   1  11
ATOM     11  C   UNL d   1       0.292   1.286  -0.186  0.00  0.00     0.436 C 
ATOM     12  F   UNL d   1      -0.279   1.784   0.944  0.00  0.00    -0.166 F 
ATOM     13  F   UNL d   1       1.201   2.219  -0.583  0.00  0.00    -0.166 F 
ATOM     14  F   UNL d   1      -0.672   1.269  -1.135  0.00  0.00    -0.166 F 
ENDBRANCH   1  11
BRANCH   1  15
ATOM     15  C   UNL d   1       0.693  -0.900  -1.253  0.00  0.00     0.312 C 
ATOM     16  O   UNL d   1       1.110  -0.554  -2.355  0.00  0.00    -0.260 OA
BRANCH  15  17
ATOM     17  O   UNL d   1      -0.037  -2.034  -1.033  0.00  0.00    -0.319 OA
BRANCH  17  18
ATOM     18  C   UNL d   1      -0.510  -2.750  -2.180  0.00  0.00     0.174 C 
ATOM     19  C   UNL d   1      -1.807  -2.132  -2.667  0.00  0.00     0.034 C 
ENDBRANCH  17  18
ENDBRANCH  15  17
ENDBRANCH   1  15
BRANCH   1  20
ATOM     20  N   UNL d   1       2.463  -0.070   0.226  0.00  0.00    -0.250 NA
ATOM     21  H   UNL d   1       2.911   0.060  -0.686  0.00  0.00     0.131 HD
BRANCH  20  22
ATOM     22  C   UNL d   1       3.126   0.683   1.199  0.00  0.00     0.011 A 
ATOM     23  C   UNL d   1       2.513   1.243   2.323  0.00  0.00     0.024 A 
ATOM     24  C   UNL d   1       3.257   1.897   3.310  0.00  0.00     0.008 A 
ATOM     25  C   UNL d   1       4.650   1.985   3.214  0.00  0.00    -0.062 A 
ATOM     26  C   UNL d   1       5.279   1.409   2.112  0.00  0.00     0.008 A 
ATOM     27  C   UNL d   1       5.426   2.667   4.298  0.00  0.00     0.048 C 
ATOM     28  C   UNL d   1       4.525   0.761   1.125  0.00  0.00     0.024 A 
ENDBRANCH  20  22
ENDBRANCH   1  20
TORSDOF 8
