REMARK  4 active torsions:
REMARK  status: ('A' for Active; 'I' for Inactive)
REMARK    1  A    between atoms: C_2  and  S_1 
REMARK    2  A    between atoms: N_5  and  S_1 
REMARK    3  A    between atoms: C_7  and  N_5 
REMARK    4  A    between atoms: N_10  and  C_11 
ROOT
ATOM      1  C   UNL d   1       0.749   2.476   0.617  0.00  0.00     0.049 A 
ATOM      2  C   UNL d   1       2.116   2.499   0.979  0.00  0.00     0.052 A 
ATOM      3  C   UNL d   1      -0.086   3.579   0.862  0.00  0.00     0.027 A 
ATOM      4  C   UNL d   1       2.579   3.675   1.607  0.00  0.00     0.031 A 
ATOM      5  C   UNL d   1       0.411   4.722   1.482  0.00  0.00     0.002 A 
ATOM      6  C   UNL d   1       1.746   4.770   1.856  0.00  0.00     0.002 A 
ENDROOT
BRANCH   1   7
ATOM      7  N   UNL d   1       0.176   1.348  -0.057  0.00  0.00    -0.178 NA
ATOM      8  H   UNL d   1      -0.703   1.037   0.353  0.00  0.00     0.146 HD
BRANCH   7   9
ATOM      9  S   UNL d   1      -0.052   1.538  -1.727  0.00  0.00     0.263 S 
ATOM     10  O   UNL d   1      -1.308   2.237  -1.922  0.00  0.00    -0.204 OA
ATOM     11  O   UNL d   1       1.176   1.946  -2.378  0.00  0.00    -0.204 OA
BRANCH   9  12
ATOM     12  C   UNL d   1      -0.367  -0.059  -2.364  0.00  0.00     0.161 A 
ATOM     13  N   UNL d   1      -0.299  -1.206  -1.583  0.00  0.00    -0.341 N 
ATOM     14  C   UNL d   1      -0.609  -2.189  -2.399  0.00  0.00     0.183 A 
ATOM     15  HN  UNL d   1      -0.061  -1.272  -0.594  1.00  0.00     0.167 HD
ATOM     16  N   UNL d   1      -0.902  -1.729  -3.652  0.00  0.00    -0.354 N 
ATOM     17  C   UNL d   1      -0.746  -0.374  -3.654  0.00  0.00     0.134 A 
ATOM     18  C   UNL d   1      -1.326  -2.550  -4.758  0.00  0.00     0.156 C 
ENDBRANCH   9  12
ENDBRANCH   7   9
ENDBRANCH   1   7
BRANCH   2  19
ATOM     19  N   UNL d   1       3.029   1.444   0.850  0.00  0.00    -0.375 N 
ATOM     20  C   UNL d   1       2.572   0.051   0.681  0.00  0.00     0.149 C 
ATOM     21  C   UNL d   1       3.739  -0.906   0.991  0.00  0.00     0.187 C 
ATOM     22  O   UNL d   1       4.901  -0.627   0.189  0.00  0.00    -0.388 OA
ATOM     23  C   UNL d   1       5.323   0.735   0.380  0.00  0.00     0.187 C 
ATOM     24  C   UNL d   1       4.210   1.726   0.004  0.00  0.00     0.149 C 
ENDBRANCH   2  19
TORSDOF 4
