REMARK  9 active torsions:
REMARK  status: ('A' for Active; 'I' for Inactive)
REMARK    1  A    between atoms: C_2  and  N_1 
REMARK    2  A    between atoms: C_3  and  C_5 
REMARK    3  A    between atoms: S_10  and  C_6 
REMARK    4  A    between atoms: C_7  and  C_12 
REMARK    5  A    between atoms: O_25  and  C_7 
REMARK    6  A    between atoms: C_9  and  C_21 
REMARK       I    between atoms: N_13  and  C_9 
REMARK    7  A    between atoms: C_21  and  S_10 
REMARK    8  A    between atoms: C_24  and  N_13 
REMARK    9  A    between atoms: C_28  and  O_25 
ROOT
ATOM      1  C   UNL d   1      -0.331   3.602  -1.395  0.00  0.00     0.231 C 
ATOM      2  N   UNL d   1      -1.607   3.983  -1.790  0.00  0.00    -0.327 N 
ATOM      3  O   UNL d   1       0.667   4.321  -1.413  0.00  0.00    -0.272 OA
ATOM      4  H   UNL d   1      -2.328   3.274  -1.797  0.00  0.00     0.169 HD
ENDROOT
BRANCH   1   5
ATOM      5  C   UNL d   1      -0.221   2.143  -0.952  0.00  0.00     0.182 C 
BRANCH   5   6
ATOM      6  S   UNL d   1       0.432   2.110   0.751  0.00  0.00    -0.118 SA
BRANCH   6   7
ATOM      7  C   UNL d   1       1.104   0.453   0.880  0.00  0.00     0.034 A 
ATOM      8  C   UNL d   1       0.662  -0.466   1.838  0.00  0.00     0.120 A 
ATOM      9  C   UNL d   1       1.395  -1.621   2.167  0.00  0.00     0.053 A 
ATOM     10  C   UNL d   1       2.604  -1.887   1.510  0.00  0.00     0.050 A 
ATOM     11  C   UNL d   1       3.009  -1.020   0.479  0.00  0.00     0.017 A 
ATOM     12  C   UNL d   1       2.277   0.140   0.176  0.00  0.00     0.022 A 
BRANCH   8  13
ATOM     13  N   UNL d   1      -0.597  -0.261   2.534  0.00  0.00    -0.114 N 
ATOM     14  O   UNL d   1      -0.568  -0.267   3.769  0.00  0.00    -0.532 OA
ATOM     15  O   UNL d   1      -1.617  -0.165   1.833  0.00  0.00    -0.532 OA
ENDBRANCH   8  13
BRANCH  10  16
ATOM     16  C   UNL d   1       3.477  -3.050   1.919  0.00  0.00     0.417 C 
ATOM     17  F   UNL d   1       3.042  -3.678   3.046  0.00  0.00    -0.166 F 
ATOM     18  F   UNL d   1       3.552  -4.010   0.959  0.00  0.00    -0.166 F 
ATOM     19  F   UNL d   1       4.758  -2.670   2.175  0.00  0.00    -0.166 F 
ENDBRANCH  10  16
ENDBRANCH   6   7
ENDBRANCH   5   6
ENDBRANCH   1   5
BRANCH   2  20
ATOM     20  C   UNL d   1      -1.998   5.262  -2.256  0.00  0.00     0.034 A 
ATOM     21  C   UNL d   1      -1.153   6.375  -2.256  0.00  0.00     0.030 A 
ATOM     22  C   UNL d   1      -1.575   7.598  -2.782  0.00  0.00     0.020 A 
ATOM     23  C   UNL d   1      -2.858   7.732  -3.324  0.00  0.00     0.039 A 
ATOM     24  C   UNL d   1      -3.725   6.636  -3.291  0.00  0.00     0.020 A 
ATOM     25  C   UNL d   1      -3.300   5.411  -2.755  0.00  0.00     0.030 A 
BRANCH  23  26
ATOM     26  C   UNL d   1      -3.290   8.979  -4.016  0.00  0.00     0.293 C 
ATOM     27  O   UNL d   1      -4.361   9.101  -4.586  0.00  0.00    -0.259 OA
BRANCH  26  28
ATOM     28  O   UNL d   1      -2.274   9.877  -4.003  0.00  0.00    -0.318 OA
BRANCH  28  29
ATOM     29  C   UNL d   1      -2.357  10.944  -4.957  0.00  0.00     0.174 C 
ATOM     30  C   UNL d   1      -1.704  10.481  -6.247  0.00  0.00     0.034 C 
ENDBRANCH  28  29
ENDBRANCH  26  28
ENDBRANCH  23  26
ENDBRANCH   2  20
TORSDOF 9
