REMARK  2 active torsions:
REMARK  status: ('A' for Active; 'I' for Inactive)
REMARK    1  A    between atoms: S_3  and  C_2 
REMARK    2  A    between atoms: C_11  and  S_3 
ROOT
ATOM      1  S   UNL d   1      -1.424  -1.720  -0.012  0.00  0.00     0.177 S 
ATOM      2  C   UNL d   1      -1.893   0.926   0.043  0.00  0.00     0.162 A 
ATOM      3  C   UNL d   1      -2.640  -0.419  -0.009  0.00  0.00     0.171 A 
ATOM      4  C   UNL d   1      -0.403   0.677   0.066  0.00  0.00    -0.017 A 
ATOM      5  C   UNL d   1      -0.037  -0.668   0.062  0.00  0.00     0.067 A 
ATOM      6  O   UNL d   1      -1.419  -2.352  -1.315  0.00  0.00    -0.223 OA
ATOM      7  O   UNL d   1      -1.493  -2.462   1.224  0.00  0.00    -0.223 OA
ATOM      8  C   UNL d   1       0.617   1.623   0.015  0.00  0.00     0.010 A 
ATOM      9  C   UNL d   1       1.275  -1.116   0.044  0.00  0.00     0.024 A 
ATOM     10  C   UNL d   1       1.954   1.204   0.014  0.00  0.00     0.001 A 
ATOM     11  C   UNL d   1       2.282  -0.158   0.032  0.00  0.00     0.002 A 
ENDROOT
BRANCH   2  12
ATOM     12  S   UNL d   1      -2.455   1.816   1.489  0.00  0.00     0.184 S 
ATOM     13  O   UNL d   1      -3.888   1.995   1.352  0.00  0.00    -0.222 OA
ATOM     14  O   UNL d   1      -1.908   1.165   2.665  0.00  0.00    -0.222 OA
BRANCH  12  15
ATOM     15  C   UNL d   1      -1.764   3.450   1.392  0.00  0.00     0.059 A 
ATOM     16  C   UNL d   1      -2.054   4.256   0.285  0.00  0.00     0.023 A 
ATOM     17  C   UNL d   1      -1.488   5.528   0.197  0.00  0.00     0.002 A 
ATOM     18  C   UNL d   1      -0.658   5.997   1.217  0.00  0.00     0.000 A 
ATOM     19  C   UNL d   1      -0.397   5.200   2.333  0.00  0.00     0.002 A 
ATOM     20  C   UNL d   1      -0.949   3.922   2.425  0.00  0.00     0.023 A 
ENDBRANCH  12  15
ENDBRANCH   2  12
TORSDOF 2
