REMARK  6 active torsions:
REMARK  status: ('A' for Active; 'I' for Inactive)
REMARK    1  A    between atoms: C_5  and  C_1 
REMARK    2  A    between atoms: C_8  and  C_1 
REMARK    3  A    between atoms: C_3  and  C_2 
REMARK    4  A    between atoms: C_6  and  C_3 
REMARK    5  A    between atoms: C_4  and  C_5 
REMARK    6  A    between atoms: C_7  and  C_4 
ROOT
ATOM      1  C   UNL d   1       2.325   0.052   0.062  0.00  0.00    -0.037 C 
ATOM      2  C   UNL d   1       2.773  -1.108  -0.457  0.00  0.00     0.064 C 
ENDROOT
BRANCH   1   3
ATOM      3  C   UNL d   1       3.293   1.192   0.264  0.00  0.00     0.123 C 
BRANCH   3   4
ATOM      4  C   UNL d   1       4.146   1.342   1.534  0.00  0.00     0.163 C 
ATOM      5  O   UNL d   1       4.697   2.434   1.728  0.00  0.00    -0.292 OA
BRANCH   4   6
ATOM      6  C   UNL d   1       4.479   0.237   2.497  0.00  0.00     0.010 A 
ATOM      7  C   UNL d   1       3.736  -0.932   2.685  0.00  0.00     0.016 A 
ATOM      8  C   UNL d   1       4.157  -1.916   3.592  0.00  0.00     0.020 A 
ATOM      9  C   UNL d   1       5.304  -1.720   4.354  0.00  0.00     0.011 A 
ATOM     10  C   UNL d   1       6.033  -0.544   4.224  0.00  0.00     0.020 A 
ATOM     11 BR   UNL d   1       5.862  -3.046   5.577  0.00  0.00    -0.051 Br
ATOM     12  C   UNL d   1       5.624   0.422   3.298  0.00  0.00     0.016 A 
ENDBRANCH   4   6
ENDBRANCH   3   4
ENDBRANCH   1   3
BRANCH   1  13
ATOM     13  C   UNL d   1       0.901   0.358   0.353  0.00  0.00    -0.029 A 
ATOM     14  C   UNL d   1       0.526   1.009   1.537  0.00  0.00     0.012 A 
ATOM     15  C   UNL d   1      -0.795   1.419   1.742  0.00  0.00     0.001 A 
ATOM     16  C   UNL d   1      -1.760   1.185   0.766  0.00  0.00     0.000 A 
ATOM     17  C   UNL d   1      -1.409   0.530  -0.410  0.00  0.00     0.001 A 
ATOM     18  C   UNL d   1      -0.087   0.123  -0.617  0.00  0.00     0.012 A 
ENDBRANCH   1  13
BRANCH   2  19
ATOM     19  C   UNL d   1       2.001  -2.372  -0.610  0.00  0.00     0.182 C 
ATOM     20  O   UNL d   1       1.194  -2.757   0.226  0.00  0.00    -0.288 OA
BRANCH  19  21
ATOM     21  C   UNL d   1       2.397  -3.223  -1.755  0.00  0.00     0.014 A 
ATOM     22  C   UNL d   1       2.515  -4.604  -1.570  0.00  0.00     0.016 A 
ATOM     23  C   UNL d   1       2.967  -5.404  -2.621  0.00  0.00     0.007 A 
ATOM     24  C   UNL d   1       3.280  -4.840  -3.863  0.00  0.00    -0.062 A 
ATOM     25  C   UNL d   1       3.123  -3.460  -4.050  0.00  0.00     0.007 A 
ATOM     26  C   UNL d   1       3.809  -5.702  -4.970  0.00  0.00     0.048 C 
ATOM     27  C   UNL d   1       2.680  -2.655  -3.001  0.00  0.00     0.016 A 
ENDBRANCH  19  21
ENDBRANCH   2  19
TORSDOF 6
