REMARK  2 active torsions:
REMARK  status: ('A' for Active; 'I' for Inactive)
REMARK    1  A    between atoms: N_7  and  C_2 
REMARK    2  A    between atoms: C_12  and  C_3 
ROOT
ATOM      1  C   UNL d   1       0.179   1.040   0.043  0.00  0.00     0.048 A 
ATOM      2  C   UNL d   1       1.552   1.443   0.151  0.00  0.00     0.097 A 
ATOM      3  C   UNL d   1      -1.120   1.706  -0.150  0.00  0.00    -0.003 A 
ATOM      4  C   UNL d   1      -0.028  -0.343   0.082  0.00  0.00     0.089 A 
ATOM      5  C   UNL d   1      -2.165   0.789  -0.147  0.00  0.00     0.065 A 
ATOM      6  S   UNL d   1      -1.659  -0.813   0.042  0.00  0.00    -0.082 SA
ATOM      7  N   UNL d   1       2.486   0.446   0.167  0.00  0.00    -0.342 N 
ATOM      8  HN  UNL d   1       3.477   0.689   0.196  1.00  0.00     0.167 HD
ATOM      9  N   UNL d   1       0.895  -1.314   0.137  0.00  0.00    -0.346 N 
ATOM     10  HN  UNL d   1       0.670  -2.308   0.170  1.00  0.00     0.167 HD
ATOM     11  C   UNL d   1       2.129  -0.839   0.144  0.00  0.00     0.182 A 
ENDROOT
BRANCH   2  12
ATOM     12  N   UNL d   1       2.050   2.757   0.157  0.00  0.00    -0.265 NA
ATOM     13  C   UNL d   1       1.495   3.673   1.173  0.00  0.00     0.127 C 
ATOM     14  C   UNL d   1       1.928   5.114   0.810  0.00  0.00     0.284 C 
ATOM     15  N   UNL d   1       3.394   5.290   0.822  0.00  0.00     0.085 N 
ATOM     16  C   UNL d   1       4.015   4.285  -0.066  0.00  0.00     0.284 C 
ATOM     17  H   UNL d   1       3.621   6.220   0.474  0.00  0.00     0.315 HD
ATOM     18  C   UNL d   1       3.536   2.832   0.173  0.00  0.00     0.127 C 
ENDBRANCH   2  12
BRANCH   3  19
ATOM     19  C   UNL d   1      -1.462   3.112  -0.408  0.00  0.00    -0.024 A 
ATOM     20  C   UNL d   1      -0.708   3.887  -1.291  0.00  0.00     0.013 A 
ATOM     21  C   UNL d   1      -1.059   5.217  -1.554  0.00  0.00     0.007 A 
ATOM     22  C   UNL d   1      -2.201   5.784  -0.974  0.00  0.00    -0.062 A 
ATOM     23  C   UNL d   1      -2.963   5.014  -0.096  0.00  0.00     0.007 A 
ATOM     24  C   UNL d   1      -2.570   7.209  -1.265  0.00  0.00     0.048 C 
ATOM     25  C   UNL d   1      -2.595   3.696   0.191  0.00  0.00     0.013 A 
ENDBRANCH   3  19
TORSDOF 2
