REMARK  7 active torsions:
REMARK  status: ('A' for Active; 'I' for Inactive)
REMARK       I    between atoms: N_3  and  C_1 
REMARK    1  A    between atoms: C_5  and  C_1 
REMARK       I    between atoms: C_2  and  N_4 
REMARK    2  A    between atoms: C_6  and  C_2 
REMARK    3  A    between atoms: C_7  and  C_6 
REMARK    4  A    between atoms: C_10  and  C_7 
REMARK    5  A    between atoms: C_21  and  C_7 
REMARK    6  A    between atoms: C_8  and  C_10 
REMARK    7  A    between atoms: O_22  and  C_8 
ROOT
ATOM      1  C   UNL d   1       0.764  -0.168  -0.005  0.00  0.00     0.277 C 
ATOM      2  C   UNL d   1      -1.171  -0.490  -5.124  0.00  0.00     0.220 C 
ATOM      3  N   UNL d   1      -0.109  -0.486  -1.050  0.00  0.00    -0.343 N 
ATOM      4  N   UNL d   1      -0.643  -0.309  -3.856  0.00  0.00    -0.349 N 
ATOM      5  C   UNL d   1       0.172  -1.638  -1.911  0.00  0.00     0.146 C 
ATOM      6  C   UNL d   1      -1.179   0.395  -1.541  0.00  0.00     0.146 C 
ATOM      7  C   UNL d   1      -0.896   0.842  -2.985  0.00  0.00     0.145 C 
ATOM      8  C   UNL d   1       0.408  -1.220  -3.371  0.00  0.00     0.145 C 
ATOM      9  O   UNL d   1       1.858  -0.720   0.090  0.00  0.00    -0.265 OA
ATOM     10  O   UNL d   1      -0.819  -1.430  -5.838  0.00  0.00    -0.273 OA
ENDROOT
BRANCH   2  11
ATOM     11  C   UNL d   1      -2.214   0.517  -5.606  0.00  0.00     0.113 C 
BRANCH  11  12
ATOM     12  C   UNL d   1      -2.779   0.166  -7.004  0.00  0.00     0.037 C 
BRANCH  12  13
ATOM     13  C   UNL d   1      -3.599  -1.142  -7.061  0.00  0.00     0.119 C 
BRANCH  13  14
ATOM     14  C   UNL d   1      -4.826  -1.201  -6.179  0.00  0.00     0.140 C 
ATOM     15  O   UNL d   1      -5.119  -0.414  -5.293  0.00  0.00    -0.650 OA
BRANCH  14  16
ATOM     16  O   UNL d   1      -5.583  -2.297  -6.438  0.00  0.00    -0.776 OA
ATOM     17  H   UNL d   1      -5.222  -2.861  -7.147  0.00  0.00     0.167 HD
ENDBRANCH  14  16
ENDBRANCH  13  14
ENDBRANCH  12  13
BRANCH  12  18
ATOM     18  C   UNL d   1      -3.542   1.290  -7.703  0.00  0.00    -0.053 A 
ATOM     19  C   UNL d   1      -3.498   1.358  -9.108  0.00  0.00     0.007 A 
ATOM     20  C   UNL d   1      -4.226   2.322  -9.807  0.00  0.00     0.001 A 
ATOM     21  C   UNL d   1      -5.007   3.239  -9.114  0.00  0.00     0.000 A 
ATOM     22  C   UNL d   1      -5.058   3.191  -7.721  0.00  0.00     0.001 A 
ATOM     23  C   UNL d   1      -4.334   2.221  -7.019  0.00  0.00     0.007 A 
ENDBRANCH  12  18
ENDBRANCH  11  12
ENDBRANCH   2  11
BRANCH   1  24
ATOM     24  C   UNL d   1       0.342   0.842   0.951  0.00  0.00     0.142 A 
ATOM     25  O   UNL d   1      -0.981   0.948   1.301  0.00  0.00    -0.317 OA
ATOM     26  C   UNL d   1      -1.083   1.959   2.201  0.00  0.00     0.143 A 
ATOM     27  C   UNL d   1       0.153   2.498   2.461  0.00  0.00     0.027 A 
ATOM     28  C   UNL d   1       1.077   1.757   1.684  0.00  0.00     0.045 A 
ENDBRANCH   1  24
TORSDOF 7
