REMARK  4 active torsions:
REMARK  status: ('A' for Active; 'I' for Inactive)
REMARK    1  A    between atoms: C_2  and  C_1 
REMARK    2  A    between atoms: C_4  and  C_1 
REMARK    3  A    between atoms: O_12  and  C_2 
REMARK    4  A    between atoms: N_6  and  C_5 
ROOT
ATOM      1  C   UNL d   1       2.406  -0.054  -0.105  0.00  0.00    -0.020 A 
ATOM      2  C   UNL d   1       5.256  -0.078   0.159  0.00  0.00     0.029 A 
ATOM      3  C   UNL d   1       3.147   1.113  -0.287  0.00  0.00     0.014 A 
ATOM      4  C   UNL d   1       3.086  -1.240   0.169  0.00  0.00     0.014 A 
ATOM      5  C   UNL d   1       4.482  -1.243   0.306  0.00  0.00     0.030 A 
ATOM      6  C   UNL d   1       4.545   1.093  -0.160  0.00  0.00     0.030 A 
ENDROOT
BRANCH   1   7
ATOM      7  C   UNL d   1       0.928  -0.018  -0.140  0.00  0.00     0.051 C 
ATOM      8  C   UNL d   1       0.235  -0.347  -1.258  0.00  0.00    -0.070 C 
ATOM      9  C   UNL d   1       0.889  -0.686  -2.579  0.00  0.00     0.044 C 
ATOM     10  C   UNL d   1      -1.273  -0.431  -1.338  0.00  0.00     0.044 C 
BRANCH   7  11
ATOM     11  C   UNL d   1       0.217   0.413   1.112  0.00  0.00     0.294 C 
ATOM     12  O   UNL d   1      -0.763   1.144   1.141  0.00  0.00    -0.259 OA
BRANCH  11  13
ATOM     13  O   UNL d   1       0.835  -0.123   2.195  0.00  0.00    -0.322 OA
ATOM     14  C   UNL d   1       0.261   0.257   3.447  0.00  0.00     0.213 C 
ENDBRANCH  11  13
ENDBRANCH   7  11
ENDBRANCH   1   7
BRANCH   2  15
ATOM     15  N   UNL d   1       6.627  -0.079   0.410  0.00  0.00    -0.390 N 
ATOM     16  C   UNL d   1       7.444  -1.236   0.042  0.00  0.00     0.149 C 
ATOM     17  C   UNL d   1       7.363   1.182   0.468  0.00  0.00     0.149 C 
ENDBRANCH   2  15
TORSDOF 4
