REMARK  4 active torsions:
REMARK  status: ('A' for Active; 'I' for Inactive)
REMARK    1  A    between atoms: N_2  and  S_1 
REMARK    2  A    between atoms: C_5  and  S_1 
REMARK    3  A    between atoms: C_11  and  N_2 
REMARK    4  A    between atoms: C_12  and  C_11 
ROOT
ATOM      1  N   UNL d   1       0.600  -0.770  -1.373  0.00  0.00    -0.311 N 
ATOM      2  H   UNL d   1      -0.402  -0.938  -1.348  0.00  0.00     0.172 HD
ENDROOT
BRANCH   1   3
ATOM      3  S   UNL d   1       1.250  -0.386   0.127  0.00  0.00     0.259 S 
ATOM      4  O   UNL d   1       2.695  -0.460   0.018  0.00  0.00    -0.201 OA
ATOM      5  O   UNL d   1       0.515  -1.137   1.115  0.00  0.00    -0.201 OA
BRANCH   3   6
ATOM      6  C   UNL d   1       0.794   1.320   0.306  0.00  0.00     0.079 A 
ATOM      7  C   UNL d   1      -0.564   1.640   0.411  0.00  0.00     0.025 A 
ATOM      8  C   UNL d   1      -0.946   2.975   0.508  0.00  0.00     0.002 A 
ATOM      9  C   UNL d   1       0.024   3.979   0.510  0.00  0.00     0.000 A 
ATOM     10  C   UNL d   1       1.379   3.652   0.423  0.00  0.00     0.002 A 
ATOM     11  C   UNL d   1       1.772   2.319   0.319  0.00  0.00     0.025 A 
ENDBRANCH   3   6
ENDBRANCH   1   3
BRANCH   1  12
ATOM     12  C   UNL d   1       1.121  -0.050  -2.531  0.00  0.00     0.170 C 
BRANCH  12  13
ATOM     13  C   UNL d   1       0.678  -0.663  -3.837  0.00  0.00    -0.039 A 
ATOM     14  C   UNL d   1       0.994  -2.004  -4.111  0.00  0.00     0.019 A 
ATOM     15  C   UNL d   1       0.783  -2.484  -5.389  0.00  0.00    -0.022 A 
ATOM     16  C   UNL d   1       1.141  -3.799  -5.959  0.00  0.00     0.068 C 
ATOM     17  C   UNL d   1       0.201  -1.692  -6.363  0.00  0.00     0.075 A 
ATOM     18  C   UNL d   1       0.893  -3.505  -7.441  0.00  0.00     0.180 C 
ATOM     19  O   UNL d   1       0.086  -2.311  -7.579  0.00  0.00    -0.350 OA
ATOM     20  C   UNL d   1      -0.188  -0.394  -6.109  0.00  0.00     0.038 A 
ATOM     21  C   UNL d   1       0.070   0.129  -4.838  0.00  0.00     0.011 A 
ENDBRANCH  12  13
ENDBRANCH   1  12
TORSDOF 4
