REMARK  1 active torsions:
REMARK  status: ('A' for Active; 'I' for Inactive)
REMARK    1  A    between atoms: C_13  and  C_4 
ROOT
ATOM      1  C   UNL d   1      -0.034   0.704   0.052  0.00  0.00     0.024 C 
ATOM      2  C   UNL d   1      -0.068  -0.645   0.076  0.00  0.00     0.021 C 
ATOM      3  C   UNL d   1      -2.581   0.698   0.048  0.00  0.00     0.057 C 
ATOM      4  C   UNL d   1      -1.301   1.532  -0.070  0.00  0.00     0.103 C 
ATOM      5  N   UNL d   1      -1.288  -1.299   0.050  0.00  0.00    -0.362 N 
ATOM      6  C   UNL d   1      -2.519  -0.655   0.073  0.00  0.00     0.023 C 
ATOM      7  C   UNL d   1       1.268   1.424   0.147  0.00  0.00     0.159 C 
ATOM      8  C   UNL d   1      -3.817   1.405   0.108  0.00  0.00     0.098 C 
ATOM      9  N   UNL d   1      -4.827   1.978   0.167  0.00  0.00    -0.192 NA
ATOM     10  C   UNL d   1       1.186  -1.496   0.089  0.00  0.00     0.067 C 
ATOM     11  C   UNL d   1       2.445  -0.732  -0.388  0.00  0.00    -0.036 C 
ATOM     12  C   UNL d   1       2.515   0.602   0.366  0.00  0.00     0.092 C 
ATOM     13  O   UNL d   1       1.320   2.651   0.120  0.00  0.00    -0.293 OA
ATOM     14  C   UNL d   1      -3.734  -1.553   0.104  0.00  0.00     0.069 C 
ATOM     15  C   UNL d   1       2.399  -0.495  -1.915  0.00  0.00     0.015 C 
ATOM     16  C   UNL d   1       3.711  -1.546  -0.076  0.00  0.00     0.015 C 
ATOM     17  H   UNL d   1      -1.286  -2.315   0.110  0.00  0.00     0.165 HD
ENDROOT
BRANCH   4  18
ATOM     18  C   UNL d   1      -1.309   2.319  -1.384  0.00  0.00    -0.044 A 
ATOM     19  C   UNL d   1      -1.251   3.722  -1.357  0.00  0.00     0.011 A 
ATOM     20  C   UNL d   1      -1.231   4.449  -2.546  0.00  0.00     0.043 A 
ATOM     21  C   UNL d   1      -1.269   3.777  -3.760  0.00  0.00     0.116 A 
ATOM     22  C   UNL d   1      -1.331   2.390  -3.813  0.00  0.00     0.043 A 
ATOM     23  F   UNL d   1      -1.242   4.476  -4.902  0.00  0.00    -0.206 F 
ATOM     24  C   UNL d   1      -1.353   1.659  -2.627  0.00  0.00     0.011 A 
ENDBRANCH   4  18
TORSDOF 1
