REMARK  5 active torsions:
REMARK  status: ('A' for Active; 'I' for Inactive)
REMARK    1  A    between atoms: C_6  and  C_1 
REMARK    2  A    between atoms: C_12  and  N_2 
REMARK    3  A    between atoms: C_18  and  C_3 
REMARK       I    between atoms: N_8  and  C_6 
REMARK    4  A    between atoms: C_13  and  N_8 
REMARK    5  A    between atoms: C_24  and  C_18 
ROOT
ATOM      1  C   UNL d   1      -0.210   1.124   0.115  0.00  0.00     0.073 A 
ATOM      2  N   UNL d   1       0.821  -0.876   0.246  0.00  0.00    -0.260 N 
ATOM      3  C   UNL d   1       0.989   0.505   0.498  0.00  0.00     0.051 A 
ATOM      4  N   UNL d   1      -0.407  -1.109  -0.290  0.00  0.00    -0.304 N 
ATOM      5  HN  UNL d   1      -0.784  -2.008  -0.594  1.00  0.00     0.186 HD
ATOM      6  C   UNL d   1      -1.014   0.064  -0.338  0.00  0.00     0.126 A 
ENDROOT
BRANCH   1   7
ATOM      7  C   UNL d   1      -0.698   2.512   0.122  0.00  0.00     0.259 C 
ATOM      8  N   UNL d   1       0.263   3.493   0.244  0.00  0.00    -0.323 N 
ATOM      9  H   UNL d   1       1.216   3.192   0.323  0.00  0.00     0.169 HD
ATOM     10  O   UNL d   1      -1.897   2.726  -0.009  0.00  0.00    -0.267 OA
BRANCH   8  11
ATOM     11  C   UNL d   1       0.097   4.891   0.143  0.00  0.00     0.037 A 
ATOM     12  C   UNL d   1      -1.094   5.514  -0.232  0.00  0.00     0.069 A 
ATOM     13  C   UNL d   1      -1.112   6.890  -0.475  0.00  0.00     0.104 A 
ATOM     14  O   UNL d   1      -2.283   7.416  -0.962  0.00  0.00    -0.346 OA
ATOM     15  C   UNL d   1       0.031   7.666  -0.268  0.00  0.00     0.102 A 
ATOM     16  C   UNL d   1      -2.009   8.606  -1.709  0.00  0.00     0.202 C 
ATOM     17  C   UNL d   1      -1.179   9.568  -0.875  0.00  0.00     0.202 C 
ATOM     18  O   UNL d   1       0.094   9.010  -0.525  0.00  0.00    -0.346 OA
ATOM     19  C   UNL d   1       1.201   7.062   0.176  0.00  0.00     0.042 A 
ATOM     20  C   UNL d   1       1.237   5.678   0.368  0.00  0.00     0.032 A 
ENDBRANCH   8  11
ENDBRANCH   1   7
BRANCH   3  21
ATOM     21  C   UNL d   1       2.224   1.121   1.078  0.00  0.00     0.060 C 
BRANCH  21  22
ATOM     22  C   UNL d   1       3.244   1.431  -0.025  0.00  0.00     0.002 C 
ATOM     23  C   UNL d   1       4.498   2.091   0.522  0.00  0.00     0.005 C 
ENDBRANCH  21  22
ENDBRANCH   3  21
BRANCH   2  24
ATOM     24  C   UNL d   1       1.661  -2.031   0.460  0.00  0.00     0.056 A 
ATOM     25  C   UNL d   1       2.953  -1.991   0.991  0.00  0.00     0.031 A 
ATOM     26  C   UNL d   1       3.674  -3.172   1.227  0.00  0.00     0.002 A 
ATOM     27  C   UNL d   1       3.128  -4.411   0.913  0.00  0.00     0.000 A 
ATOM     28  C   UNL d   1       1.861  -4.475   0.349  0.00  0.00     0.002 A 
ATOM     29  C   UNL d   1       1.137  -3.300   0.127  0.00  0.00     0.031 A 
ENDBRANCH   2  24
TORSDOF 5
