REMARK  5 active torsions:
REMARK  status: ('A' for Active; 'I' for Inactive)
REMARK    1  A    between atoms: C_2  and  N_1 
REMARK    2  A    between atoms: N_3  and  C_2 
REMARK    3  A    between atoms: C_5  and  C_2 
REMARK       I    between atoms: C_6  and  N_3 
REMARK    4  A    between atoms: C_16  and  C_5 
REMARK    5  A    between atoms: C_15  and  C_6 
ROOT
ATOM      1  C   UNL d   1      -2.706  -0.244  -0.115  0.00  0.00     0.271 C 
ENDROOT
BRANCH   1   2
ATOM      2  N   UNL d   1      -1.260  -0.078   0.000  0.00  0.00    -0.281 N 
ATOM      3  C   UNL d   1      -0.709   0.441   1.152  0.00  0.00     0.251 C 
ATOM      4  C   UNL d   1       0.737   0.716   1.088  0.00  0.00     0.091 C 
ATOM      5  O   UNL d   1      -1.313   0.614   2.209  0.00  0.00    -0.268 OA
ATOM      6  C   UNL d   1       1.411   0.266   0.027  0.00  0.00     0.094 C 
ATOM      7  N   UNL d   1       0.850  -0.410  -1.021  0.00  0.00    -0.362 N 
ATOM      8  C   UNL d   1      -0.436  -0.533  -1.000  0.00  0.00     0.188 C 
ATOM      9  HN  UNL d   1       1.415  -0.796  -1.777  1.00  0.00     0.166 HD
ENDBRANCH   1   2
BRANCH   1  10
ATOM     10  N   UNL d   1      -3.237  -0.990   1.005  0.00  0.00    -0.328 N 
ATOM     11  C   UNL d   1      -3.976  -2.130   0.829  0.00  0.00     0.253 C 
ATOM     12  O   UNL d   1      -4.282  -2.552  -0.280  0.00  0.00    -0.268 OA
ATOM     13  H   UNL d   1      -3.045  -0.602   1.925  0.00  0.00     0.165 HD
BRANCH  11  14
ATOM     14  C   UNL d   1      -4.416  -2.857   2.045  0.00  0.00     0.032 A 
ATOM     15  C   UNL d   1      -5.603  -3.603   1.970  0.00  0.00     0.017 A 
ATOM     16  C   UNL d   1      -6.037  -4.342   3.068  0.00  0.00     0.001 A 
ATOM     17  C   UNL d   1      -5.284  -4.351   4.241  0.00  0.00     0.000 A 
ATOM     18  C   UNL d   1      -4.097  -3.620   4.317  0.00  0.00     0.001 A 
ATOM     19  C   UNL d   1      -3.659  -2.871   3.221  0.00  0.00     0.017 A 
ENDBRANCH  11  14
ENDBRANCH   1  10
BRANCH   1  20
ATOM     20  C   UNL d   1      -3.392   1.143  -0.259  0.00  0.00     0.202 C 
ATOM     21  O   UNL d   1      -2.946   2.156   0.288  0.00  0.00    -0.288 OA
BRANCH  20  22
ATOM     22  C   UNL d   1      -4.667   1.287  -1.042  0.00  0.00     0.014 A 
ATOM     23  C   UNL d   1      -5.268   0.244  -1.755  0.00  0.00     0.015 A 
ATOM     24  C   UNL d   1      -6.450   0.464  -2.473  0.00  0.00     0.001 A 
ATOM     25  C   UNL d   1      -7.043   1.724  -2.488  0.00  0.00     0.000 A 
ATOM     26  C   UNL d   1      -6.459   2.770  -1.782  0.00  0.00     0.001 A 
ATOM     27  C   UNL d   1      -5.280   2.553  -1.064  0.00  0.00     0.015 A 
ENDBRANCH  20  22
ENDBRANCH   1  20
TORSDOF 5
