REMARK  0 active torsions:
REMARK  status: ('A' for Active; 'I' for Inactive)
ROOT
ATOM      1  N   UNL d   1       1.006  -1.336  -0.145  0.00  0.00    -0.326 N 
ATOM      2  C   UNL d   1      -0.235  -0.689  -0.020  0.00  0.00     0.056 A 
ATOM      3  C   UNL d   1      -0.433   0.668   0.235  0.00  0.00     0.036 A 
ATOM      4  C   UNL d   1       2.278  -0.887  -0.271  0.00  0.00     0.223 C 
ATOM      5  N   UNL d   1       0.575   1.592   0.547  0.00  0.00    -0.286 NA
ATOM      6  C   UNL d   1       2.700   0.543  -0.107  0.00  0.00     0.122 C 
ATOM      7  C   UNL d   1      -1.358  -1.506  -0.240  0.00  0.00     0.038 A 
ATOM      8  C   UNL d   1      -1.745   1.168   0.241  0.00  0.00     0.033 A 
ATOM      9  C   UNL d   1      -2.864   0.376  -0.068  0.00  0.00    -0.054 A 
ATOM     10  C   UNL d   1      -2.670  -0.992  -0.295  0.00  0.00    -0.054 A 
ATOM     11  C   UNL d   1       1.691   1.635  -0.395  0.00  0.00     0.065 C 
ATOM     12  O   UNL d   1       3.151  -1.744  -0.469  0.00  0.00    -0.273 OA
ATOM     13  C   UNL d   1      -3.761  -1.968  -0.637  0.00  0.00     0.049 C 
ATOM     14  C   UNL d   1      -4.183   1.092  -0.176  0.00  0.00     0.049 C 
ATOM     15  C   UNL d   1       1.248   1.738  -1.856  0.00  0.00     0.027 C 
ATOM     16  H   UNL d   1       0.976  -2.337  -0.298  0.00  0.00     0.169 HD
ATOM     17  H   UNL d   1       0.902   1.401   1.496  0.00  0.00     0.128 HD
ENDROOT
TORSDOF 0
