REMARK  6 active torsions:
REMARK  status: ('A' for Active; 'I' for Inactive)
REMARK    1  A    between atoms: C_10  and  C_1 
REMARK    2  A    between atoms: N_3  and  C_10 
REMARK    3  A    between atoms: S_17  and  C_4 
REMARK    4  A    between atoms: C_11  and  C_15 
REMARK    5  A    between atoms: C_26  and  S_17 
REMARK    6  A    between atoms: C_27  and  C_26 
ROOT
ATOM      1  C   UNL d   1      -0.025   0.986  -0.233  0.00  0.00     0.118 A 
ATOM      2  N   UNL d   1       0.786  -0.097   0.040  0.00  0.00    -0.318 N 
ATOM      3  C   UNL d   1      -0.009  -1.201  -0.125  0.00  0.00     0.162 A 
ATOM      4  N   UNL d   1      -1.236   0.536  -0.512  0.00  0.00    -0.285 N 
ATOM      5  HN  UNL d   1      -2.045   1.112  -0.742  1.00  0.00     0.188 HD
ATOM      6  N   UNL d   1      -1.225  -0.829  -0.442  0.00  0.00    -0.278 N 
ATOM      7  HN  UNL d   1      -2.019  -1.446  -0.607  1.00  0.00     0.189 HD
ATOM      8  C   UNL d   1       2.178  -0.092   0.410  0.00  0.00     0.160 C 
ENDROOT
BRANCH   1   9
ATOM      9  C   UNL d   1       0.361   2.429  -0.137  0.00  0.00     0.210 C 
BRANCH   9  10
ATOM     10  N   UNL d   1       0.095   3.159  -1.382  0.00  0.00    -0.309 N 
ATOM     11  C   UNL d   1      -1.137   3.884  -1.542  0.00  0.00     0.055 A 
ATOM     12  C   UNL d   1      -2.289   3.524  -0.823  0.00  0.00     0.047 A 
ATOM     13  C   UNL d   1      -1.229   4.988  -2.410  0.00  0.00     0.028 A 
ATOM     14  C   UNL d   1      -3.506   4.215  -0.965  0.00  0.00     0.050 A 
ATOM     15  C   UNL d   1      -3.556   5.331  -1.804  0.00  0.00     0.017 A 
ATOM     16  C   UNL d   1      -2.422   5.718  -2.514  0.00  0.00     0.021 A 
ATOM     17  S   UNL d   1       0.164   5.551  -3.363  0.00  0.00    -0.118 SA
ATOM     18  C   UNL d   1       0.900   3.929  -3.620  0.00  0.00     0.182 C 
ATOM     19  C   UNL d   1       1.141   3.214  -2.305  0.00  0.00     0.234 C 
ATOM     20  O   UNL d   1       2.209   2.625  -2.113  0.00  0.00    -0.272 OA
BRANCH  14  21
ATOM     21  C   UNL d   1      -4.752   3.759  -0.239  0.00  0.00     0.417 C 
ATOM     22  F   UNL d   1      -4.580   2.622   0.490  0.00  0.00    -0.166 F 
ATOM     23  F   UNL d   1      -5.208   4.697   0.637  0.00  0.00    -0.166 F 
ATOM     24  F   UNL d   1      -5.785   3.508  -1.089  0.00  0.00    -0.166 F 
ENDBRANCH  14  21
ENDBRANCH   9  10
ENDBRANCH   1   9
BRANCH   3  25
ATOM     25  S   UNL d   1       0.529  -2.837   0.045  0.00  0.00    -0.088 SA
BRANCH  25  26
ATOM     26  C   UNL d   1      -0.747  -3.671  -0.948  0.00  0.00     0.121 C 
BRANCH  26  27
ATOM     27  C   UNL d   1      -0.597  -5.172  -0.950  0.00  0.00    -0.049 A 
ATOM     28  C   UNL d   1      -1.295  -5.957  -0.020  0.00  0.00     0.008 A 
ATOM     29  C   UNL d   1      -1.200  -7.349  -0.053  0.00  0.00     0.001 A 
ATOM     30  C   UNL d   1      -0.399  -7.971  -1.009  0.00  0.00     0.000 A 
ATOM     31  C   UNL d   1       0.317  -7.202  -1.925  0.00  0.00     0.001 A 
ATOM     32  C   UNL d   1       0.222  -5.809  -1.894  0.00  0.00     0.008 A 
ENDBRANCH  26  27
ENDBRANCH  25  26
ENDBRANCH   3  25
TORSDOF 6
