REMARK  6 active torsions:
REMARK  status: ('A' for Active; 'I' for Inactive)
REMARK    1  A    between atoms: N_6  and  C_1 
REMARK       I    between atoms: C_8  and  N_6 
REMARK    2  A    between atoms: C_11  and  C_8 
REMARK    3  A    between atoms: C_9  and  C_11 
REMARK    4  A    between atoms: C_13  and  C_9 
REMARK    5  A    between atoms: C_10  and  C_13 
REMARK    6  A    between atoms: O_15  and  C_10 
ROOT
ATOM      1  N   UNL d   1       2.300  -3.501   0.192  0.00  0.00    -0.312 N 
ATOM      2  C   UNL d   1       1.096  -3.009   0.659  0.00  0.00     0.224 C 
ATOM      3  O   UNL d   1       0.940  -2.041   1.391  0.00  0.00    -0.273 OA
ATOM      4  H   UNL d   1       2.287  -3.995  -0.696  0.00  0.00     0.170 HD
ENDROOT
BRANCH   2   5
ATOM      5  C   UNL d   1      -0.070  -3.885   0.218  0.00  0.00     0.113 C 
BRANCH   5   6
ATOM      6  C   UNL d   1      -1.337  -3.166  -0.290  0.00  0.00    -0.023 C 
ATOM      7  C   UNL d   1      -2.073  -2.417   0.844  0.00  0.00     0.010 C 
ATOM      8  C   UNL d   1      -3.554  -2.412   0.456  0.00  0.00     0.001 C 
ATOM      9  C   UNL d   1      -3.736  -3.514  -0.583  0.00  0.00     0.001 C 
ATOM     10  C   UNL d   1      -2.396  -4.229  -0.659  0.00  0.00     0.010 C 
BRANCH   6  11
ATOM     11  C   UNL d   1      -1.054  -2.180  -1.456  0.00  0.00     0.119 C 
BRANCH  11  12
ATOM     12  C   UNL d   1      -0.413  -2.779  -2.692  0.00  0.00     0.140 C 
ATOM     13  O   UNL d   1      -0.007  -3.924  -2.802  0.00  0.00    -0.650 OA
BRANCH  12  14
ATOM     14  O   UNL d   1      -0.290  -1.878  -3.694  0.00  0.00    -0.776 OA
ATOM     15  H   UNL d   1      -0.622  -0.987  -3.471  0.00  0.00     0.167 HD
ENDBRANCH  12  14
ENDBRANCH  11  12
ENDBRANCH   6  11
ENDBRANCH   5   6
ENDBRANCH   2   5
BRANCH   1  16
ATOM     16  C   UNL d   1       3.547  -3.236   0.729  0.00  0.00     0.126 A 
ATOM     17  N   UNL d   1       3.882  -2.846   2.010  0.00  0.00    -0.281 N 
ATOM     18  N   UNL d   1       5.222  -2.752   2.196  0.00  0.00    -0.302 N 
ATOM     19  C   UNL d   1       3.059  -2.744   3.192  0.00  0.00     0.179 C 
ATOM     20  C   UNL d   1       5.752  -3.145   1.035  0.00  0.00     0.025 A 
ATOM     21  HN  UNL d   1       5.716  -2.450   3.036  1.00  0.00     0.186 HD
ATOM     22  C   UNL d   1       4.752  -3.440   0.087  0.00  0.00     0.076 A 
ATOM     23  C   UNL d   1       7.222  -3.250   0.881  0.00  0.00     0.070 C 
ENDBRANCH   1  16
TORSDOF 6
