REMARK  10 active torsions:
REMARK  status: ('A' for Active; 'I' for Inactive)
REMARK    1  A    between atoms: C_8  and  N_1 
REMARK    2  A    between atoms: S_7  and  C_2 
REMARK    3  A    between atoms: C_18  and  S_7 
REMARK    4  A    between atoms: C_9  and  C_18 
REMARK       I    between atoms: N_19  and  C_9 
REMARK    5  A    between atoms: C_10  and  C_25 
REMARK    6  A    between atoms: C_26  and  N_19 
REMARK    7  A    between atoms: O_24  and  C_20 
REMARK    8  A    between atoms: S_23  and  C_27 
REMARK    9  A    between atoms: C_25  and  S_23 
REMARK   10  A    between atoms: C_27  and  C_26 
ROOT
ATOM      1  S   UNL d   1       2.727  -1.403  -0.208  0.00  0.00    -0.082 SA
ENDROOT
BRANCH   1   2
ATOM      2  C   UNL d   1       1.105  -0.865   0.068  0.00  0.00     0.177 C 
ATOM      3  N   UNL d   1       0.684   0.458   0.115  0.00  0.00    -0.219 N 
ATOM      4  N   UNL d   1      -0.564   0.457   0.662  0.00  0.00     0.001 NA
ATOM      5  N   UNL d   1      -0.914  -0.814   0.788  0.00  0.00    -0.006 NA
ATOM      6  N   UNL d   1       0.112  -1.645   0.438  0.00  0.00    -0.264 N 
ATOM      7  HN  UNL d   1       0.109  -2.665   0.458  1.00  0.00     0.186 HD
BRANCH   3   8
ATOM      8  C   UNL d   1       1.261   1.679  -0.331  0.00  0.00     0.057 A 
ATOM      9  C   UNL d   1       2.245   1.708  -1.329  0.00  0.00     0.034 A 
ATOM     10  C   UNL d   1       2.727   2.933  -1.800  0.00  0.00     0.039 A 
ATOM     11  C   UNL d   1       2.237   4.122  -1.278  0.00  0.00     0.065 A 
ATOM     12  C   UNL d   1       1.271   4.114  -0.278  0.00  0.00     0.039 A 
ATOM     13  C   UNL d   1       0.777   2.893   0.189  0.00  0.00     0.034 A 
BRANCH  11  14
ATOM     14  O   UNL d   1       2.719   5.288  -1.793  0.00  0.00    -0.361 OA
ATOM     15  H   UNL d   1       2.243   6.031  -1.386  0.00  0.00     0.217 HD
ENDBRANCH  11  14
ENDBRANCH   3   8
ENDBRANCH   1   2
BRANCH   1  16
ATOM     16  C   UNL d   1       2.559  -3.200   0.003  0.00  0.00     0.185 C 
BRANCH  16  17
ATOM     17  C   UNL d   1       3.915  -3.898  -0.022  0.00  0.00     0.227 C 
ATOM     18  O   UNL d   1       5.000  -3.325  -0.097  0.00  0.00    -0.273 OA
ATOM     19  N   UNL d   1       3.825  -5.277   0.072  0.00  0.00    -0.360 N 
ATOM     20  H   UNL d   1       2.939  -5.715  -0.158  0.00  0.00     0.162 HD
BRANCH  19  21
ATOM     21  C   UNL d   1       5.020  -6.098  -0.059  0.00  0.00     0.132 C 
BRANCH  21  22
ATOM     22  C   UNL d   1       4.717  -7.598  -0.093  0.00  0.00     0.094 C 
BRANCH  22  23
ATOM     23  S   UNL d   1       3.647  -7.965  -1.524  0.00  0.00    -0.161 SA
BRANCH  23  24
ATOM     24  C   UNL d   1       3.573  -9.784  -1.393  0.00  0.00     0.139 C 
BRANCH  24  25
ATOM     25  C   UNL d   1       2.782 -10.322  -2.529  0.00  0.00     0.061 A 
ATOM     26  O   UNL d   1       1.613 -10.954  -2.221  0.00  0.00    -0.326 OA
ATOM     27  C   UNL d   1       1.034 -11.310  -3.397  0.00  0.00     0.142 A 
ATOM     28  C   UNL d   1       1.819 -10.929  -4.458  0.00  0.00     0.027 A 
ATOM     29  C   UNL d   1       2.959 -10.305  -3.899  0.00  0.00     0.035 A 
ENDBRANCH  24  25
ENDBRANCH  23  24
ENDBRANCH  22  23
ENDBRANCH  21  22
ENDBRANCH  19  21
ENDBRANCH  16  17
ENDBRANCH   1  16
TORSDOF 10
