REMARK  5 active torsions:
REMARK  status: ('A' for Active; 'I' for Inactive)
REMARK    1  A    between atoms: C_2  and  C_1 
REMARK       I    between atoms: N_6  and  C_1 
REMARK    2  A    between atoms: O_11  and  C_3 
REMARK    3  A    between atoms: O_13  and  C_4 
REMARK    4  A    between atoms: O_12  and  C_5 
REMARK    5  A    between atoms: N_10  and  N_6 
ROOT
ATOM      1  C   UNL d   1       0.323  -0.788  -0.938  0.00  0.00     0.038 A 
ATOM      2  C   UNL d   1      -0.906  -2.722  -2.560  0.00  0.00     0.135 A 
ATOM      3  C   UNL d   1      -1.392  -1.389  -2.525  0.00  0.00     0.105 A 
ATOM      4  C   UNL d   1       0.205  -3.079  -1.765  0.00  0.00     0.105 A 
ATOM      5  C   UNL d   1       0.814  -2.099  -0.974  0.00  0.00     0.057 A 
ATOM      6  C   UNL d   1      -0.786  -0.439  -1.703  0.00  0.00     0.057 A 
ENDROOT
BRANCH   1   7
ATOM      7  C   UNL d   1       0.950   0.161   0.011  0.00  0.00     0.266 C 
ATOM      8  N   UNL d   1       0.928   1.507  -0.351  0.00  0.00    -0.286 N 
ATOM      9  H   UNL d   1       0.602   1.786  -1.269  0.00  0.00     0.184 HD
ATOM     10  O   UNL d   1       1.449  -0.292   1.037  0.00  0.00    -0.266 OA
BRANCH   8  11
ATOM     11  N   UNL d   1       1.445   2.532   0.474  0.00  0.00    -0.237 NA
ATOM     12  C   UNL d   1       0.681   2.673   1.716  0.00  0.00     0.135 C 
ATOM     13  C   UNL d   1       2.874   2.364   0.753  0.00  0.00     0.135 C 
ENDBRANCH   8  11
ENDBRANCH   1   7
BRANCH   4  14
ATOM     14  O   UNL d   1       0.619  -4.385  -1.764  0.00  0.00    -0.353 OA
ATOM     15  C   UNL d   1       1.724  -4.742  -0.941  0.00  0.00     0.210 C 
ENDBRANCH   4  14
BRANCH   3  16
ATOM     16  O   UNL d   1      -2.497  -1.104  -3.297  0.00  0.00    -0.353 OA
ATOM     17  C   UNL d   1      -2.681   0.266  -3.644  0.00  0.00     0.210 C 
ENDBRANCH   3  16
BRANCH   2  18
ATOM     18  O   UNL d   1      -1.638  -3.585  -3.345  0.00  0.00    -0.351 OA
ATOM     19  C   UNL d   1      -0.949  -4.673  -3.948  0.00  0.00     0.210 C 
ENDBRANCH   2  18
TORSDOF 5
