REMARK  4 active torsions:
REMARK  status: ('A' for Active; 'I' for Inactive)
REMARK    1  A    between atoms: C_8  and  N_2 
REMARK    2  A    between atoms: C_7  and  N_3 
REMARK    3  A    between atoms: N_11  and  C_4 
REMARK    4  A    between atoms: C_15  and  C_8 
ROOT
ATOM      1  C   UNL d   1      -0.606   1.235   0.249  0.00  0.00     0.338 A 
ATOM      2  N   UNL d   1      -1.319   0.051   0.069  0.00  0.00    -0.262 N 
ATOM      3  N   UNL d   1       0.791   1.153   0.061  0.00  0.00    -0.254 N 
ATOM      4  C   UNL d   1       1.444  -0.060  -0.162  0.00  0.00     0.094 A 
ATOM      5  C   UNL d   1      -0.734  -1.175  -0.131  0.00  0.00     0.254 A 
ATOM      6  C   UNL d   1       0.727  -1.187  -0.232  0.00  0.00     0.117 A 
ATOM      7  O   UNL d   1      -1.188   2.288   0.533  0.00  0.00    -0.246 OA
ATOM      8  O   UNL d   1      -1.335  -2.244  -0.211  0.00  0.00    -0.268 OA
ENDROOT
BRANCH   2   9
ATOM      9  C   UNL d   1      -2.774   0.118   0.084  0.00  0.00     0.175 C 
BRANCH   9  10
ATOM     10  C   UNL d   1      -3.345   0.453  -1.280  0.00  0.00    -0.040 A 
ATOM     11  C   UNL d   1      -3.640  -0.557  -2.207  0.00  0.00     0.009 A 
ATOM     12  C   UNL d   1      -4.150  -0.239  -3.469  0.00  0.00     0.001 A 
ATOM     13  C   UNL d   1      -4.362   1.094  -3.819  0.00  0.00     0.000 A 
ATOM     14  C   UNL d   1      -4.067   2.108  -2.911  0.00  0.00     0.001 A 
ATOM     15  C   UNL d   1      -3.560   1.789  -1.650  0.00  0.00     0.009 A 
ENDBRANCH   9  10
ENDBRANCH   2   9
BRANCH   3  16
ATOM     16  C   UNL d   1       1.510   2.395   0.033  0.00  0.00     0.045 A 
ATOM     17  C   UNL d   1       1.482   3.268   1.130  0.00  0.00     0.033 A 
ATOM     18  C   UNL d   1       2.204   4.463   1.095  0.00  0.00     0.044 A 
ATOM     19  C   UNL d   1       2.930   4.796  -0.044  0.00  0.00     0.116 A 
ATOM     20  C   UNL d   1       2.958   3.951  -1.146  0.00  0.00     0.044 A 
ATOM     21  F   UNL d   1       3.612   5.948  -0.078  0.00  0.00    -0.206 F 
ATOM     22  C   UNL d   1       2.259   2.744  -1.104  0.00  0.00     0.033 A 
ENDBRANCH   3  16
BRANCH   4  23
ATOM     23  N   UNL d   1       2.828  -0.146  -0.253  0.00  0.00    -0.288 NA
ATOM     24  H   UNL d   1       3.294   0.599   0.263  0.00  0.00     0.125 HD
ATOM     25  H   UNL d   1       3.207  -1.059  -0.016  0.00  0.00     0.125 HD
ENDBRANCH   4  23
TORSDOF 4
