REMARK  5 active torsions:
REMARK  status: ('A' for Active; 'I' for Inactive)
REMARK       I    between atoms: C_3  and  N_4 
REMARK    1  A    between atoms: C_12  and  C_3 
REMARK    2  A    between atoms: N_4  and  C_6 
REMARK    3  A    between atoms: C_5  and  C_13 
REMARK    4  A    between atoms: O_15  and  C_5 
REMARK    5  A    between atoms: C_13  and  C_12 
ROOT
ATOM      1  C   UNL d   1      -4.372  -1.123  -0.161  0.00  0.00     0.222 C 
ATOM      2  N   UNL d   1      -3.094  -1.434   0.258  0.00  0.00    -0.327 N 
ATOM      3  O   UNL d   1      -4.757  -0.051  -0.625  0.00  0.00    -0.273 OA
ATOM      4  H   UNL d   1      -2.934  -2.380   0.583  0.00  0.00     0.169 HD
ENDROOT
BRANCH   2   5
ATOM      5  C   UNL d   1      -1.946  -0.618   0.160  0.00  0.00     0.037 A 
ATOM      6  C   UNL d   1      -1.966   0.708  -0.266  0.00  0.00     0.072 A 
ATOM      7  C   UNL d   1      -0.775   1.427  -0.365  0.00  0.00     0.124 A 
ATOM      8  C   UNL d   1       0.455   0.850  -0.049  0.00  0.00    -0.023 A 
ATOM      9  F   UNL d   1      -0.829   2.701  -0.779  0.00  0.00    -0.205 F 
ATOM     10  C   UNL d   1       0.474  -0.478   0.385  0.00  0.00     0.012 A 
ATOM     11  C   UNL d   1       1.732   1.624  -0.170  0.00  0.00     0.051 C 
ATOM     12  C   UNL d   1      -0.717  -1.205   0.492  0.00  0.00     0.030 A 
ENDBRANCH   2   5
BRANCH   1  13
ATOM     13  C   UNL d   1      -5.328  -2.296  -0.057  0.00  0.00     0.113 C 
BRANCH  13  14
ATOM     14  C   UNL d   1      -6.458  -2.149  -1.068  0.00  0.00     0.119 C 
BRANCH  14  15
ATOM     15  C   UNL d   1      -5.924  -2.227  -2.477  0.00  0.00     0.139 C 
ATOM     16  O   UNL d   1      -5.871  -3.267  -3.117  0.00  0.00    -0.650 OA
BRANCH  15  17
ATOM     17  O   UNL d   1      -5.458  -1.054  -2.955  0.00  0.00    -0.776 OA
ATOM     18  H   UNL d   1      -5.424  -0.332  -2.280  0.00  0.00     0.167 HD
ENDBRANCH  15  17
ENDBRANCH  14  15
ENDBRANCH  13  14
ENDBRANCH   1  13
TORSDOF 5
