REMARK  3 active torsions:
REMARK  status: ('A' for Active; 'I' for Inactive)
REMARK    1  A    between atoms: C_5  and  C_4 
REMARK    2  A    between atoms: C_6  and  C_5 
REMARK       I    between atoms: N_9  and  C_6 
REMARK    3  A    between atoms: C_10  and  N_9 
ROOT
ATOM      1  N   UNL d   1       0.057  -2.311  -0.217  0.00  0.00    -0.325 N 
ATOM      2  C   UNL d   1       0.328  -0.970  -0.296  0.00  0.00     0.236 C 
ATOM      3  S   UNL d   1       3.046  -1.475  -0.204  0.00  0.00    -0.113 SA
ATOM      4  C   UNL d   1       1.621  -0.455   0.317  0.00  0.00     0.153 C 
ATOM      5  C   UNL d   1       0.982  -3.328   0.072  0.00  0.00     0.051 A 
ATOM      6  C   UNL d   1       2.363  -3.090   0.109  0.00  0.00     0.028 A 
ATOM      7  O   UNL d   1      -0.538  -0.202  -0.718  0.00  0.00    -0.272 OA
ATOM      8  C   UNL d   1       0.491  -4.621   0.278  0.00  0.00     0.031 A 
ATOM      9  C   UNL d   1       3.243  -4.152   0.345  0.00  0.00     0.021 A 
ATOM     10  C   UNL d   1       2.746  -5.441   0.563  0.00  0.00     0.002 A 
ATOM     11  C   UNL d   1       1.374  -5.671   0.535  0.00  0.00     0.002 A 
ATOM     12  H   UNL d   1      -0.891  -2.565  -0.465  0.00  0.00     0.169 HD
ENDROOT
BRANCH   4  13
ATOM     13  C   UNL d   1       1.445  -0.409   1.833  0.00  0.00     0.128 C 
BRANCH  13  14
ATOM     14  C   UNL d   1       2.355   0.571   2.541  0.00  0.00     0.223 C 
ATOM     15  N   UNL d   1       3.689   0.223   2.472  0.00  0.00    -0.326 N 
ATOM     16  H   UNL d   1       3.927  -0.604   1.929  0.00  0.00     0.169 HD
ATOM     17  O   UNL d   1       1.878   1.492   3.197  0.00  0.00    -0.273 OA
BRANCH  15  18
ATOM     18  C   UNL d   1       4.715   0.679   3.333  0.00  0.00     0.056 A 
ATOM     19  C   UNL d   1       5.863  -0.121   3.485  0.00  0.00     0.060 A 
ATOM     20 CL   UNL d   1       6.074  -1.565   2.551  0.00  0.00    -0.082 Cl
ATOM     21  C   UNL d   1       6.831   0.193   4.441  0.00  0.00     0.026 A 
ATOM     22  C   UNL d   1       6.683   1.332   5.229  0.00  0.00     0.002 A 
ATOM     23  C   UNL d   1       5.586   2.170   5.038  0.00  0.00     0.002 A 
ATOM     24  C   UNL d   1       4.608   1.847   4.093  0.00  0.00     0.031 A 
ENDBRANCH  15  18
ENDBRANCH  13  14
ENDBRANCH   4  13
TORSDOF 3
