REMARK  6 active torsions:
REMARK  status: ('A' for Active; 'I' for Inactive)
REMARK    1  A    between atoms: C_5  and  N_1 
REMARK    2  A    between atoms: C_3  and  C_2 
REMARK    3  A    between atoms: O_15  and  C_3 
REMARK    4  A    between atoms: C_4  and  O_9 
REMARK    5  A    between atoms: O_9  and  C_16 
REMARK    6  A    between atoms: C_16  and  C_17 
ROOT
ATOM      1  C   UNL d   1      -2.643   5.687   5.276  0.00  0.00     0.073 A 
ATOM      2  C   UNL d   1      -2.161   5.817   3.961  0.00  0.00     0.085 A 
ATOM      3  C   UNL d   1      -3.172   6.811   5.943  0.00  0.00     0.027 A 
ATOM      4  C   UNL d   1      -2.222   7.079   3.352  0.00  0.00     0.038 A 
ATOM      5  C   UNL d   1      -3.234   8.062   5.320  0.00  0.00    -0.061 A 
ATOM      6  C   UNL d   1      -2.757   8.184   4.018  0.00  0.00     0.009 A 
ATOM      7  C   UNL d   1      -3.774   9.254   6.052  0.00  0.00     0.048 C 
ENDROOT
BRANCH   2   8
ATOM      8  O   UNL d   1      -1.554   4.740   3.363  0.00  0.00    -0.346 OA
BRANCH   8   9
ATOM      9  C   UNL d   1      -1.634   4.682   1.935  0.00  0.00     0.214 C 
BRANCH   9  10
ATOM     10  C   UNL d   1      -0.762   3.559   1.419  0.00  0.00    -0.034 A 
ATOM     11  C   UNL d   1      -1.000   2.233   1.803  0.00  0.00     0.012 A 
ATOM     12  C   UNL d   1      -0.187   1.201   1.325  0.00  0.00     0.037 A 
ATOM     13  C   UNL d   1       0.871   1.500   0.454  0.00  0.00     0.102 A 
ATOM     14  C   UNL d   1       1.109   2.817   0.049  0.00  0.00     0.037 A 
ATOM     15  C   UNL d   1       0.292   3.840   0.531  0.00  0.00     0.012 A 
BRANCH  13  16
ATOM     16  N   UNL d   1       1.742   0.423  -0.031  0.00  0.00    -0.116 N 
ATOM     17  O   UNL d   1       2.675   0.734  -0.789  0.00  0.00    -0.532 OA
ATOM     18  O   UNL d   1       1.499  -0.730   0.345  0.00  0.00    -0.532 OA
ENDBRANCH  13  16
ENDBRANCH   9  10
ENDBRANCH   8   9
ENDBRANCH   2   8
BRANCH   1  19
ATOM     19  C   UNL d   1      -2.606   4.430   6.065  0.00  0.00     0.295 C 
ATOM     20  O   UNL d   1      -2.436   4.424   7.277  0.00  0.00    -0.259 OA
BRANCH  19  21
ATOM     21  O   UNL d   1      -2.905   3.349   5.303  0.00  0.00    -0.322 OA
ATOM     22  C   UNL d   1      -2.996   2.119   6.030  0.00  0.00     0.213 C 
ENDBRANCH  19  21
ENDBRANCH   1  19
TORSDOF 6
