REMARK  10 active torsions:
REMARK  status: ('A' for Active; 'I' for Inactive)
REMARK    1  A    between atoms: N_9  and  C_1 
REMARK    2  A    between atoms: N_10  and  C_1 
REMARK    3  A    between atoms: N_2  and  N_10 
REMARK    4  A    between atoms: N_4  and  N_9 
REMARK    5  A    between atoms: O_23  and  C_6 
REMARK    6  A    between atoms: O_24  and  C_7 
REMARK    7  A    between atoms: O_25  and  C_11 
REMARK    8  A    between atoms: O_26  and  C_12 
REMARK    9  A    between atoms: C_19  and  C_17 
REMARK   10  A    between atoms: C_20  and  C_18 
ROOT
ATOM      1  C   UNL d   1       1.037   0.030   0.048  0.00  0.00     0.205 C 
ATOM      2  S   UNL d   1       0.040  -1.105   0.763  0.00  0.00    -0.038 SA
ENDROOT
BRANCH   1   3
ATOM      3  N   UNL d   1       0.490   1.200  -0.450  0.00  0.00    -0.275 N 
ATOM      4  H   UNL d   1      -0.520   1.291  -0.395  0.00  0.00     0.189 HD
BRANCH   3   5
ATOM      5  N   UNL d   1       1.202   1.953  -1.341  0.00  0.00    -0.309 N 
ATOM      6  C   UNL d   1       0.534   2.899  -1.925  0.00  0.00     0.118 C 
ATOM      7  HN  UNL d   1       2.189   1.783  -1.533  1.00  0.00     0.186 HD
BRANCH   6   8
ATOM      8  C   UNL d   1       1.148   3.699  -3.005  0.00  0.00    -0.017 A 
ATOM      9  C   UNL d   1       0.471   4.822  -3.501  0.00  0.00     0.052 A 
ATOM     10  C   UNL d   1       1.032   5.560  -4.549  0.00  0.00     0.102 A 
ATOM     11  C   UNL d   1       2.261   5.149  -5.091  0.00  0.00     0.099 A 
ATOM     12  C   UNL d   1       2.930   4.027  -4.603  0.00  0.00     0.040 A 
ATOM     13  C   UNL d   1       2.371   3.302  -3.554  0.00  0.00     0.016 A 
BRANCH  10  14
ATOM     14  O   UNL d   1       0.473   6.675  -5.116  0.00  0.00    -0.353 OA
ATOM     15  C   UNL d   1      -0.754   7.148  -4.583  0.00  0.00     0.210 C 
ENDBRANCH  10  14
BRANCH  11  16
ATOM     16  O   UNL d   1       2.808   5.865  -6.122  0.00  0.00    -0.358 OA
ATOM     17  H   UNL d   1       3.645   5.454  -6.391  0.00  0.00     0.217 HD
ENDBRANCH  11  16
ENDBRANCH   6   8
ENDBRANCH   3   5
ENDBRANCH   1   3
BRANCH   1  18
ATOM     18  N   UNL d   1       2.403  -0.054  -0.127  0.00  0.00    -0.275 N 
ATOM     19  H   UNL d   1       2.813   0.744  -0.605  0.00  0.00     0.189 HD
BRANCH  18  20
ATOM     20  N   UNL d   1       3.071  -1.236  -0.061  0.00  0.00    -0.309 N 
ATOM     21  C   UNL d   1       4.347  -1.170  -0.268  0.00  0.00     0.118 C 
ATOM     22  HN  UNL d   1       2.598  -2.117   0.139  1.00  0.00     0.186 HD
BRANCH  21  23
ATOM     23  C   UNL d   1       5.168  -2.396  -0.355  0.00  0.00    -0.017 A 
ATOM     24  C   UNL d   1       6.563  -2.292  -0.424  0.00  0.00     0.052 A 
ATOM     25  C   UNL d   1       7.340  -3.449  -0.556  0.00  0.00     0.102 A 
ATOM     26  C   UNL d   1       6.697  -4.695  -0.628  0.00  0.00     0.099 A 
ATOM     27  C   UNL d   1       5.309  -4.800  -0.558  0.00  0.00     0.040 A 
ATOM     28  C   UNL d   1       4.542  -3.646  -0.417  0.00  0.00     0.016 A 
BRANCH  25  29
ATOM     29  O   UNL d   1       8.708  -3.478  -0.635  0.00  0.00    -0.353 OA
ATOM     30  C   UNL d   1       9.406  -2.247  -0.527  0.00  0.00     0.210 C 
ENDBRANCH  25  29
BRANCH  26  31
ATOM     31  O   UNL d   1       7.453  -5.829  -0.772  0.00  0.00    -0.358 OA
ATOM     32  H   UNL d   1       6.866  -6.601  -0.795  0.00  0.00     0.217 HD
ENDBRANCH  26  31
ENDBRANCH  21  23
ENDBRANCH  18  20
ENDBRANCH   1  18
TORSDOF 10
