REMARK  6 active torsions:
REMARK  status: ('A' for Active; 'I' for Inactive)
REMARK    1  A    between atoms: N_4  and  C_1 
REMARK       I    between atoms: C_2  and  N_6 
REMARK    2  A    between atoms: C_12  and  C_2 
REMARK    3  A    between atoms: N_6  and  N_4 
REMARK    4  A    between atoms: C_9  and  C_12 
REMARK    5  A    between atoms: C_17  and  N_11 
REMARK    6  A    between atoms: C_18  and  C_17 
ROOT
ATOM      1  C   UNL d   1      -0.027   0.103   3.645  0.00  0.00     0.240 C 
ATOM      2  N   UNL d   1       0.835   0.160   2.570  0.00  0.00    -0.268 N 
ATOM      3  O   UNL d   1      -1.246   0.035   3.548  0.00  0.00    -0.272 OA
ATOM      4  H   UNL d   1       1.818  -0.089   2.663  0.00  0.00     0.190 HD
ENDROOT
BRANCH   1   5
ATOM      5  C   UNL d   1       0.699   0.197   4.986  0.00  0.00     0.143 C 
BRANCH   5   6
ATOM      6  C   UNL d   1       1.267  -1.113   5.470  0.00  0.00    -0.048 A 
ATOM      7  C   UNL d   1       2.649  -1.266   5.664  0.00  0.00     0.033 A 
ATOM      8  C   UNL d   1       3.180  -2.492   6.087  0.00  0.00     0.056 A 
ATOM      9 CL   UNL d   1       4.894  -2.598   6.283  0.00  0.00    -0.083 Cl
ATOM     10  C   UNL d   1       2.329  -3.574   6.329  0.00  0.00     0.055 A 
ATOM     11  C   UNL d   1       0.950  -3.417   6.169  0.00  0.00     0.026 A 
ATOM     12 CL   UNL d   1       2.914  -5.124   6.817  0.00  0.00    -0.083 Cl
ATOM     13  C   UNL d   1       0.422  -2.194   5.748  0.00  0.00     0.009 A 
ENDBRANCH   5   6
ENDBRANCH   1   5
BRANCH   2  14
ATOM     14  N   UNL d   1       0.331   0.209   1.265  0.00  0.00    -0.274 N 
ATOM     15  H   UNL d   1      -0.645   0.486   1.171  0.00  0.00     0.189 HD
BRANCH  14  16
ATOM     16  C   UNL d   1       0.937  -0.489   0.253  0.00  0.00     0.186 C 
ATOM     17  S   UNL d   1       2.129  -1.645   0.457  0.00  0.00    -0.040 SA
ATOM     18  N   UNL d   1       0.592  -0.134  -1.020  0.00  0.00    -0.366 N 
ATOM     19  H   UNL d   1       1.088  -0.665  -1.727  0.00  0.00     0.161 HD
BRANCH  18  20
ATOM     20  C   UNL d   1       0.055   1.150  -1.448  0.00  0.00     0.121 C 
BRANCH  20  21
ATOM     21  C   UNL d   1       0.995   2.331  -1.179  0.00  0.00     0.015 C 
ATOM     22  C   UNL d   1       2.348   2.197  -1.865  0.00  0.00     0.006 C 
ENDBRANCH  20  21
ENDBRANCH  18  20
ENDBRANCH  14  16
ENDBRANCH   2  14
TORSDOF 6
