REMARK  4 active torsions:
REMARK  status: ('A' for Active; 'I' for Inactive)
REMARK    1  A    between atoms: C_3  and  C_1 
REMARK    2  A    between atoms: C_7  and  C_1 
REMARK    3  A    between atoms: C_8  and  C_2 
REMARK    4  A    between atoms: N_4  and  C_3 
ROOT
ATOM      1  C   UNL d   1       1.074  -0.037   0.057  0.00  0.00     0.037 C 
ATOM      2  C   UNL d   1       0.423  -1.220   0.098  0.00  0.00     0.033 C 
ENDROOT
BRANCH   1   3
ATOM      3  C   UNL d   1       2.594  -0.037   0.057  0.00  0.00    -0.036 C 
BRANCH   3   4
ATOM      4  N   UNL d   1       3.855  -0.037   0.057  0.00  0.00    -0.365 N 
ATOM      5  HN2 UNL d   1       2.835  -0.037   0.057  1.00  0.00     0.165 HD
ATOM      6  HN1 UNL d   1       4.875  -0.037   0.057  1.00  0.00     0.165 HD
ENDBRANCH   3   4
ENDBRANCH   1   3
BRANCH   1   7
ATOM      7  C   UNL d   1       0.346   1.257   0.032  0.00  0.00    -0.017 A 
ATOM      8  C   UNL d   1       0.896   2.398   0.637  0.00  0.00     0.013 A 
ATOM      9  C   UNL d   1       0.225   3.625   0.603  0.00  0.00     0.001 A 
ATOM     10  C   UNL d   1      -1.006   3.732  -0.038  0.00  0.00     0.000 A 
ATOM     11  C   UNL d   1      -1.565   2.615  -0.651  0.00  0.00     0.001 A 
ATOM     12  C   UNL d   1      -0.892   1.391  -0.622  0.00  0.00     0.013 A 
ENDBRANCH   1   7
BRANCH   2  13
ATOM     13  C   UNL d   1       1.089  -2.529   0.107  0.00  0.00    -0.035 A 
ATOM     14  C   UNL d   1       1.421  -3.141   1.322  0.00  0.00     0.013 A 
ATOM     15  C   UNL d   1       2.075  -4.376   1.331  0.00  0.00     0.024 A 
ATOM     16  C   UNL d   1       2.398  -4.999   0.127  0.00  0.00     0.034 A 
ATOM     17  C   UNL d   1       2.073  -4.398  -1.087  0.00  0.00     0.024 A 
ATOM     18 CL   UNL d   1       3.202  -6.520   0.140  0.00  0.00    -0.084 Cl
ATOM     19  C   UNL d   1       1.419  -3.162  -1.098  0.00  0.00     0.013 A 
ENDBRANCH   2  13
TORSDOF 4
