REMARK  7 active torsions:
REMARK  status: ('A' for Active; 'I' for Inactive)
REMARK       I    between atoms: C_2  and  N_1 
REMARK    1  A    between atoms: C_3  and  N_1 
REMARK    2  A    between atoms: C_5  and  C_2 
REMARK    3  A    between atoms: C_10  and  C_3 
REMARK    4  A    between atoms: C_4  and  C_9 
REMARK    5  A    between atoms: C_6  and  C_25 
REMARK    6  A    between atoms: O_24  and  C_13 
REMARK    7  A    between atoms: C_25  and  O_24 
ROOT
ATOM      1  N   UNL d   1       1.176  -0.042   0.243  0.00  0.00    -0.308 N 
ATOM      2  C   UNL d   1       0.286  -1.096   0.422  0.00  0.00     0.258 C 
ATOM      3  O   UNL d   1      -0.929  -1.017   0.277  0.00  0.00    -0.267 OA
ATOM      4  H   UNL d   1       2.144  -0.219   0.459  0.00  0.00     0.170 HD
ENDROOT
BRANCH   1   5
ATOM      5  C   UNL d   1       0.877   1.213  -0.252  0.00  0.00     0.112 C 
ATOM      6  N   UNL d   1      -0.322   1.548  -0.582  0.00  0.00    -0.385 N 
ATOM      7  H   UNL d   1      -0.959   0.757  -0.384  0.00  0.00     0.157 HD
ATOM      8  HN  UNL d   1      -0.600   2.448  -0.974  1.00  0.00     0.157 HD
BRANCH   5   9
ATOM      9  C   UNL d   1       2.014   2.163  -0.438  0.00  0.00     0.007 A 
ATOM     10  C   UNL d   1       1.888   3.153  -1.421  0.00  0.00     0.016 A 
ATOM     11  C   UNL d   1       2.935   4.042  -1.674  0.00  0.00     0.017 A 
ATOM     12  C   UNL d   1       4.129   3.963  -0.943  0.00  0.00     0.048 A 
ATOM     13  C   UNL d   1       4.244   2.988   0.061  0.00  0.00     0.017 A 
ATOM     14  C   UNL d   1       3.192   2.097   0.316  0.00  0.00     0.016 A 
BRANCH  12  15
ATOM     15  C   UNL d   1       5.258   4.923  -1.241  0.00  0.00     0.417 C 
ATOM     16  F   UNL d   1       6.350   4.739  -0.448  0.00  0.00    -0.166 F 
ATOM     17  F   UNL d   1       5.706   4.814  -2.522  0.00  0.00    -0.166 F 
ATOM     18  F   UNL d   1       4.894   6.225  -1.079  0.00  0.00    -0.166 F 
ENDBRANCH  12  15
ENDBRANCH   5   9
ENDBRANCH   1   5
BRANCH   2  19
ATOM     19  C   UNL d   1       0.886  -2.364   0.892  0.00  0.00     0.048 A 
ATOM     20  C   UNL d   1       2.149  -2.770   0.494  0.00  0.00     0.107 A 
ATOM     21  N   UNL d   1       2.775  -3.862   0.984  0.00  0.00    -0.346 N 
ATOM     22  C   UNL d   1       2.109  -4.619   1.880  0.00  0.00     0.142 A 
ATOM     23  HN  UNL d   1       3.719  -4.107   0.686  1.00  0.00     0.167 HD
ATOM     24  C   UNL d   1       0.818  -4.321   2.299  0.00  0.00     0.057 A 
ATOM     25  C   UNL d   1       0.194  -3.180   1.786  0.00  0.00     0.022 A 
BRANCH  22  26
ATOM     26  O   UNL d   1       2.865  -5.646   2.350  0.00  0.00    -0.327 OA
BRANCH  26  27
ATOM     27  C   UNL d   1       2.170  -6.805   2.811  0.00  0.00     0.294 C 
BRANCH  27  28
ATOM     28  C   UNL d   1       3.062  -8.041   2.722  0.00  0.00     0.408 C 
ATOM     29  F   UNL d   1       4.312  -7.767   2.296  0.00  0.00    -0.169 F 
ATOM     30  F   UNL d   1       3.169  -8.640   3.932  0.00  0.00    -0.169 F 
ATOM     31  F   UNL d   1       2.532  -8.951   1.871  0.00  0.00    -0.169 F 
ENDBRANCH  27  28
ENDBRANCH  26  27
ENDBRANCH  22  26
ENDBRANCH   2  19
TORSDOF 7
