REMARK  2 active torsions:
REMARK  status: ('A' for Active; 'I' for Inactive)
REMARK    1  A    between atoms: C_5  and  C_1 
REMARK    2  A    between atoms: C_6  and  C_2 
REMARK       I    between atoms: N_9  and  C_5 
ROOT
ATOM      1  C   UNL d   1      -0.093  -1.243  -0.058  0.00  0.00     0.092 C 
ATOM      2  C   UNL d   1      -1.405  -0.649  -0.032  0.00  0.00     0.085 C 
ATOM      3  N   UNL d   1      -1.296   0.662  -0.302  0.00  0.00    -0.259 N 
ATOM      4  HN  UNL d   1      -2.064   1.306  -0.495  1.00  0.00     0.195 HD
ATOM      5  O   UNL d   1       0.034   0.974  -0.270  0.00  0.00    -0.241 OA
ATOM      6  C   UNL d   1       0.758  -0.152  -0.072  0.00  0.00     0.090 C 
ATOM      7  C   UNL d   1       2.212   0.058   0.080  0.00  0.00     0.080 C 
ENDROOT
BRANCH   1   8
ATOM      8  C   UNL d   1       0.315  -2.637   0.056  0.00  0.00     0.258 C 
ATOM      9  N   UNL d   1       1.315  -3.094  -0.810  0.00  0.00    -0.344 N 
ATOM     10  C   UNL d   1       1.775  -4.484  -0.704  0.00  0.00     0.152 C 
ATOM     11  C   UNL d   1       1.702  -2.470  -2.085  0.00  0.00     0.152 C 
ATOM     12  C   UNL d   1       3.271  -4.605  -1.042  0.00  0.00     0.187 C 
ATOM     13  O   UNL d   1       3.598  -3.974  -2.292  0.00  0.00    -0.388 OA
ATOM     14  C   UNL d   1       3.217  -2.592  -2.275  0.00  0.00     0.187 C 
ATOM     15  O   UNL d   1      -0.204  -3.377   0.886  0.00  0.00    -0.267 OA
ENDBRANCH   1   8
BRANCH   2  16
ATOM     16  C   UNL d   1      -2.736  -1.245   0.197  0.00  0.00     0.015 A 
ATOM     17  C   UNL d   1      -3.777  -0.556   0.863  0.00  0.00     0.046 A 
ATOM     18 CL   UNL d   1      -3.643   1.058   1.487  0.00  0.00    -0.083 Cl
ATOM     19  C   UNL d   1      -5.013  -1.178   1.103  0.00  0.00     0.025 A 
ATOM     20  C   UNL d   1      -5.235  -2.490   0.700  0.00  0.00     0.002 A 
ATOM     21  C   UNL d   1      -4.230  -3.178   0.029  0.00  0.00     0.001 A 
ATOM     22  C   UNL d   1      -3.001  -2.558  -0.232  0.00  0.00     0.015 A 
ENDBRANCH   2  16
TORSDOF 2
