REMARK  10 active torsions:
REMARK  status: ('A' for Active; 'I' for Inactive)
REMARK    1  A    between atoms: C_3  and  C_1 
REMARK    2  A    between atoms: C_12  and  N_4 
REMARK    3  A    between atoms: C_5  and  O_18 
REMARK    4  A    between atoms: N_6  and  O_17 
REMARK    5  A    between atoms: C_15  and  C_8 
REMARK    6  A    between atoms: N_28  and  C_8 
REMARK    7  A    between atoms: C_10  and  C_11 
REMARK    8  A    between atoms: O_17  and  C_10 
REMARK    9  A    between atoms: C_11  and  C_12 
REMARK   10  A    between atoms: O_18  and  C_29 
ROOT
ATOM      1  N   UNL d   1       1.174   3.292  -0.514  0.00  0.00    -0.246 N 
ATOM      2  HN  UNL d   1       0.323   2.771  -0.300  1.00  0.00     0.196 HD
ATOM      3  C   UNL d   1       1.191   4.558  -0.805  0.00  0.00     0.109 C 
ENDROOT
BRANCH   1   4
ATOM      4  O   UNL d   1       2.464   2.715  -0.526  0.00  0.00    -0.198 OA
BRANCH   4   5
ATOM      5  C   UNL d   1       2.352   1.353  -0.346  0.00  0.00     0.282 C 
ATOM      6  O   UNL d   1       1.322   0.732  -0.100  0.00  0.00    -0.263 OA
BRANCH   5   7
ATOM      7  C   UNL d   1       3.713   0.701  -0.434  0.00  0.00     0.133 C 
BRANCH   7   8
ATOM      8  C   UNL d   1       3.543  -0.780  -0.773  0.00  0.00     0.141 C 
BRANCH   8   9
ATOM      9  N   UNL d   1       4.799  -1.541  -0.768  0.00  0.00    -0.324 N 
ATOM     10  C   UNL d   1       5.508  -1.696  -1.971  0.00  0.00     0.262 A 
ATOM     11  C   UNL d   1       6.659  -2.638  -1.936  0.00  0.00     0.115 A 
ATOM     12  O   UNL d   1       5.199  -1.096  -2.995  0.00  0.00    -0.267 OA
ATOM     13  C   UNL d   1       7.017  -3.194  -0.765  0.00  0.00     0.023 A 
ATOM     14  C   UNL d   1       6.301  -2.907   0.450  0.00  0.00     0.018 A 
ATOM     15  C   UNL d   1       5.221  -2.124   0.414  0.00  0.00     0.094 A 
BRANCH  11  16
ATOM     16  C   UNL d   1       7.348  -2.966  -3.213  0.00  0.00     0.422 C 
ATOM     17  F   UNL d   1       6.827  -2.436  -4.343  0.00  0.00    -0.166 F 
ATOM     18  F   UNL d   1       8.654  -2.582  -3.172  0.00  0.00    -0.166 F 
ATOM     19  F   UNL d   1       7.373  -4.316  -3.409  0.00  0.00    -0.166 F 
ENDBRANCH  11  16
ENDBRANCH   8   9
ENDBRANCH   7   8
ENDBRANCH   5   7
ENDBRANCH   4   5
ENDBRANCH   1   4
BRANCH   3  20
ATOM     20  C   UNL d   1      -0.129   5.266  -0.898  0.00  0.00     0.004 A 
ATOM     21  C   UNL d   1      -1.208   4.833  -0.126  0.00  0.00     0.017 A 
ATOM     22  C   UNL d   1      -2.447   5.472  -0.237  0.00  0.00     0.038 A 
ATOM     23  C   UNL d   1      -2.629   6.545  -1.116  0.00  0.00     0.078 A 
ATOM     24  C   UNL d   1      -1.561   6.953  -1.916  0.00  0.00     0.038 A 
ATOM     25  C   UNL d   1      -0.309   6.328  -1.793  0.00  0.00     0.017 A 
BRANCH  23  26
ATOM     26  O   UNL d   1      -3.890   7.055  -1.110  0.00  0.00    -0.255 OA
BRANCH  26  27
ATOM     27  C   UNL d   1      -4.139   8.367  -1.589  0.00  0.00     0.530 C 
ATOM     28  F   UNL d   1      -3.046   9.158  -1.598  0.00  0.00    -0.144 F 
ATOM     29  F   UNL d   1      -4.657   8.312  -2.833  0.00  0.00    -0.144 F 
ATOM     30  F   UNL d   1      -5.054   8.946  -0.777  0.00  0.00    -0.144 F 
ENDBRANCH  26  27
ENDBRANCH  23  26
ENDBRANCH   3  20
BRANCH   3  31
ATOM     31  N   UNL d   1       2.340   5.281  -1.028  0.00  0.00    -0.286 NA
ATOM     32  H   UNL d   1       3.171   4.801  -0.701  0.00  0.00     0.125 HD
ATOM     33  H   UNL d   1       2.312   6.250  -0.729  0.00  0.00     0.125 HD
ENDBRANCH   3  31
TORSDOF 10
