REMARK  3 active torsions:
REMARK  status: ('A' for Active; 'I' for Inactive)
REMARK    1  A    between atoms: N_13  and  C_3 
REMARK    2  A    between atoms: C_12  and  C_10 
REMARK    3  A    between atoms: C_14  and  C_11 
ROOT
ATOM      1  N   UNL d   1       0.317   0.635   0.017  0.00  0.00    -0.224 N 
ATOM      2  C   UNL d   1       0.152  -0.756   0.010  0.00  0.00     0.131 A 
ATOM      3  C   UNL d   1      -0.819   1.499   0.012  0.00  0.00     0.129 A 
ATOM      4  N   UNL d   1       1.641   0.959   0.008  0.00  0.00    -0.294 N 
ATOM      5  HN  UNL d   1       2.044   1.896   0.020  1.00  0.00     0.187 HD
ATOM      6  C   UNL d   1      -2.038   0.924  -0.003  0.00  0.00     0.084 A 
ATOM      7  N   UNL d   1      -1.072  -1.359   0.030  0.00  0.00    -0.337 N 
ATOM      8  HN  UNL d   1      -1.166  -2.375   0.042  1.00  0.00     0.167 HD
ATOM      9  C   UNL d   1       1.415  -1.297  -0.006  0.00  0.00     0.077 A 
ATOM     10  C   UNL d   1      -2.117  -0.575   0.034  0.00  0.00     0.121 A 
ATOM     11  C   UNL d   1       2.304  -0.202  -0.021  0.00  0.00     0.037 A 
ENDROOT
BRANCH   3  12
ATOM     12  N   UNL d   1      -0.679   2.909   0.045  0.00  0.00    -0.362 N 
ATOM     13  C   UNL d   1       0.521   3.542   0.658  0.00  0.00     0.154 C 
ATOM     14  C   UNL d   1       0.211   4.994   1.081  0.00  0.00     0.289 C 
ATOM     15  N   UNL d   1      -0.270   5.834  -0.031  0.00  0.00     0.086 N 
ATOM     16  C   UNL d   1      -1.433   5.186  -0.660  0.00  0.00     0.289 C 
ATOM     17  H   UNL d   1      -0.546   6.744   0.334  0.00  0.00     0.316 HD
ATOM     18  C   UNL d   1      -1.175   3.724  -1.094  0.00  0.00     0.154 C 
ENDBRANCH   3  12
BRANCH  10  19
ATOM     19  C   UNL d   1      -3.518  -1.187   0.094  0.00  0.00     0.432 C 
ATOM     20  F   UNL d   1      -4.507  -0.250   0.129  0.00  0.00    -0.165 F 
ATOM     21  F   UNL d   1      -3.785  -1.976  -0.982  0.00  0.00    -0.165 F 
ATOM     22  F   UNL d   1      -3.695  -1.962   1.200  0.00  0.00    -0.165 F 
ENDBRANCH  10  19
BRANCH  11  23
ATOM     23  C   UNL d   1       3.825  -0.218  -0.017  0.00  0.00    -0.007 C 
ATOM     24  C   UNL d   1       4.335  -0.247   1.436  0.00  0.00     0.021 C 
ATOM     25  C   UNL d   1       4.369  -1.457  -0.758  0.00  0.00     0.021 C 
ATOM     26  C   UNL d   1       4.405   1.032  -0.716  0.00  0.00     0.021 C 
ENDBRANCH  11  23
TORSDOF 3
