REMARK  3 active torsions:
REMARK  status: ('A' for Active; 'I' for Inactive)
REMARK    1  A    between atoms: C_4  and  N_1 
REMARK    2  A    between atoms: C_9  and  N_3 
REMARK    3  A    between atoms: C_16  and  C_9 
ROOT
ATOM      1  N   UNL d   1       0.067   0.964   0.133  0.00  0.00    -0.234 N 
ATOM      2  C   UNL d   1      -1.191   0.344   0.042  0.00  0.00     0.332 C 
ATOM      3  N   UNL d   1      -1.170  -1.035  -0.118  0.00  0.00    -0.329 N 
ATOM      4  C   UNL d   1       1.288   0.332  -0.125  0.00  0.00     0.234 C 
ATOM      5  C   UNL d   1       1.208  -1.108  -0.548  0.00  0.00     0.123 C 
ATOM      6  C   UNL d   1       0.043  -1.776   0.129  0.00  0.00     0.137 C 
ATOM      7  O   UNL d   1      -2.259   0.960   0.062  0.00  0.00    -0.246 OA
ATOM      8  O   UNL d   1       2.397   0.867  -0.056  0.00  0.00    -0.272 OA
ENDROOT
BRANCH   1   9
ATOM      9  C   UNL d   1       0.085   2.366   0.419  0.00  0.00     0.048 A 
ATOM     10  C   UNL d   1      -0.562   2.856   1.562  0.00  0.00     0.037 A 
ATOM     11  C   UNL d   1      -0.533   4.222   1.869  0.00  0.00    -0.059 A 
ATOM     12  C   UNL d   1      -1.157   4.738   3.132  0.00  0.00     0.048 C 
ATOM     13  C   UNL d   1       0.092   5.107   0.983  0.00  0.00     0.013 A 
ATOM     14  C   UNL d   1       0.712   4.639  -0.183  0.00  0.00    -0.059 A 
ATOM     15  C   UNL d   1       0.733   3.263  -0.440  0.00  0.00     0.037 A 
ATOM     16  C   UNL d   1       1.338   5.609  -1.141  0.00  0.00     0.048 C 
ENDBRANCH   1   9
BRANCH   3  17
ATOM     17  C   UNL d   1      -2.433  -1.763  -0.214  0.00  0.00     0.166 C 
BRANCH  17  18
ATOM     18  C   UNL d   1      -2.900  -1.915  -1.644  0.00  0.00    -0.040 A 
ATOM     19  C   UNL d   1      -2.554  -3.045  -2.398  0.00  0.00     0.009 A 
ATOM     20  C   UNL d   1      -2.994  -3.179  -3.718  0.00  0.00     0.001 A 
ATOM     21  C   UNL d   1      -3.775  -2.180  -4.302  0.00  0.00     0.000 A 
ATOM     22  C   UNL d   1      -4.122  -1.050  -3.562  0.00  0.00     0.001 A 
ATOM     23  C   UNL d   1      -3.685  -0.918  -2.244  0.00  0.00     0.009 A 
ENDBRANCH  17  18
ENDBRANCH   3  17
TORSDOF 3
