REMARK  6 active torsions:
REMARK  status: ('A' for Active; 'I' for Inactive)
REMARK    1  A    between atoms: C_14  and  N_1 
REMARK    2  A    between atoms: C_8  and  C_3 
REMARK    3  A    between atoms: C_12  and  N_4 
REMARK    4  A    between atoms: N_15  and  C_8 
REMARK    5  A    between atoms: O_16  and  N_10 
REMARK    6  A    between atoms: C_19  and  C_14 
ROOT
ATOM      1  N   UNL d   1       5.722  -2.527   0.026  0.00  0.00    -0.263 N 
ATOM      2  C   UNL d   1       5.024  -3.723   0.024  0.00  0.00     0.351 A 
ATOM      3  C   UNL d   1       3.605  -1.312  -0.055  0.00  0.00     0.157 A 
ATOM      4  N   UNL d   1       3.617  -3.624   0.014  0.00  0.00    -0.205 N 
ATOM      5  N   UNL d   1       2.930  -2.428  -0.049  0.00  0.00    -0.282 N 
ATOM      6  HN  UNL d   1       1.911  -2.417  -0.090  1.00  0.00     0.188 HD
ATOM      7  C   UNL d   1       5.111  -1.293  -0.051  0.00  0.00     0.283 A 
ATOM      8  O   UNL d   1       5.639  -4.793  -0.016  0.00  0.00    -0.244 OA
ATOM      9  O   UNL d   1       5.709  -0.231  -0.162  0.00  0.00    -0.265 OA
ENDROOT
BRANCH   3  10
ATOM     10  C   UNL d   1       2.768  -0.034  -0.090  0.00  0.00     0.132 C 
ATOM     11  N   UNL d   1       3.224   0.990   0.567  0.00  0.00    -0.256 N 
ATOM     12  HN  UNL d   1       4.097   0.996   1.096  1.00  0.00     0.195 HD
BRANCH  11  13
ATOM     13  O   UNL d   1       2.356   2.088   0.452  0.00  0.00    -0.288 OA
ATOM     14  H   UNL d   1       2.897   2.813   0.822  0.00  0.00     0.244 HD
ENDBRANCH  11  13
BRANCH  10  15
ATOM     15  N   UNL d   1       1.570  -0.040  -0.771  0.00  0.00    -0.285 NA
ATOM     16  H   UNL d   1       1.082  -0.930  -0.738  0.00  0.00     0.125 HD
ATOM     17  H   UNL d   1       0.996   0.748  -0.486  0.00  0.00     0.125 HD
ENDBRANCH  10  15
ENDBRANCH   3  10
BRANCH   1  18
ATOM     18  C   UNL d   1       7.183  -2.577  -0.027  0.00  0.00     0.137 C 
BRANCH  18  19
ATOM     19  C   UNL d   1       7.849  -2.482   1.350  0.00  0.00     0.016 C 
ATOM     20  C   UNL d   1       7.561  -3.670   2.256  0.00  0.00     0.006 C 
ENDBRANCH  18  19
ENDBRANCH   1  18
BRANCH   4  21
ATOM     21  C   UNL d   1       2.776  -4.792   0.006  0.00  0.00     0.061 A 
ATOM     22  C   UNL d   1       3.206  -6.021   0.533  0.00  0.00     0.032 A 
ATOM     23  C   UNL d   1       2.417  -7.173   0.445  0.00  0.00     0.002 A 
ATOM     24  C   UNL d   1       1.172  -7.116  -0.168  0.00  0.00     0.000 A 
ATOM     25  C   UNL d   1       0.703  -5.901  -0.660  0.00  0.00     0.002 A 
ATOM     26  C   UNL d   1       1.490  -4.746  -0.559  0.00  0.00     0.032 A 
ENDBRANCH   4  21
TORSDOF 6
