REMARK  4 active torsions:
REMARK  status: ('A' for Active; 'I' for Inactive)
REMARK    1  A    between atoms: C_9  and  N_1 
REMARK    2  A    between atoms: S_14  and  C_12 
REMARK    3  A    between atoms: C_20  and  S_14 
REMARK    4  A    between atoms: C_21  and  C_20 
ROOT
ATOM      1  N   UNL d   1       2.356  -0.036   0.130  0.00  0.00    -0.244 N 
ATOM      2  C   UNL d   1       1.694   1.196   0.033  0.00  0.00     0.266 A 
ATOM      3  C   UNL d   1       1.700  -1.273   0.125  0.00  0.00     0.266 A 
ATOM      4  C   UNL d   1       0.209   1.166   0.039  0.00  0.00     0.045 A 
ATOM      5  C   UNL d   1       0.220  -1.261   0.090  0.00  0.00     0.045 A 
ATOM      6  C   UNL d   1      -0.483  -0.047   0.066  0.00  0.00     0.007 A 
ATOM      7  C   UNL d   1      -1.914  -0.049   0.044  0.00  0.00    -0.007 A 
ATOM      8  C   UNL d   1      -0.482   2.381   0.012  0.00  0.00     0.019 A 
ATOM      9  O   UNL d   1       2.256  -2.371   0.101  0.00  0.00    -0.267 OA
ATOM     10  O   UNL d   1       2.237   2.299  -0.009  0.00  0.00    -0.267 OA
ATOM     11  C   UNL d   1      -2.601   1.196   0.033  0.00  0.00     0.011 A 
ATOM     12  C   UNL d   1      -1.874   2.394   0.011  0.00  0.00     0.020 A 
ATOM     13  C   UNL d   1      -0.462  -2.484   0.078  0.00  0.00     0.018 A 
ATOM     14  C   UNL d   1      -2.558  -1.309   0.008  0.00  0.00     0.014 A 
ATOM     15  C   UNL d   1      -1.849  -2.506   0.032  0.00  0.00     0.002 A 
ENDROOT
BRANCH   1  16
ATOM     16  C   UNL d   1       3.789  -0.035   0.229  0.00  0.00     0.045 A 
ATOM     17  C   UNL d   1       4.577   0.759  -0.615  0.00  0.00     0.030 A 
ATOM     18  C   UNL d   1       5.971   0.754  -0.502  0.00  0.00     0.002 A 
ATOM     19  C   UNL d   1       6.590  -0.020   0.477  0.00  0.00     0.000 A 
ATOM     20  C   UNL d   1       5.820  -0.804   1.330  0.00  0.00     0.002 A 
ATOM     21  C   UNL d   1       4.430  -0.823   1.198  0.00  0.00     0.030 A 
ENDBRANCH   1  16
BRANCH  11  22
ATOM     22  S   UNL d   1      -4.383   1.412  -0.097  0.00  0.00    -0.129 SA
BRANCH  22  23
ATOM     23  C   UNL d   1      -5.020   0.691   1.460  0.00  0.00     0.079 C 
BRANCH  23  24
ATOM     24  C   UNL d   1      -4.467   1.323   2.732  0.00  0.00     0.006 C 
ATOM     25  C   UNL d   1      -5.130   0.698   3.954  0.00  0.00     0.006 C 
ENDBRANCH  23  24
ENDBRANCH  22  23
ENDBRANCH  11  22
TORSDOF 4
