REMARK  6 active torsions:
REMARK  status: ('A' for Active; 'I' for Inactive)
REMARK    1  A    between atoms: C_2  and  S_1 
REMARK    2  A    between atoms: N_6  and  S_1 
REMARK    3  A    between atoms: N_5  and  C_3 
REMARK       I    between atoms: C_9  and  N_5 
REMARK    4  A    between atoms: C_14  and  C_9 
REMARK    5  A    between atoms: C_15  and  C_14 
REMARK    6  A    between atoms: C_16  and  C_15 
ROOT
ATOM      1  C   UNL d   1       0.487   1.430   0.674  0.00  0.00     0.081 A 
ATOM      2  C   UNL d   1       0.586   3.857   0.875  0.00  0.00     0.042 A 
ATOM      3  C   UNL d   1       1.035   2.658   0.303  0.00  0.00     0.055 A 
ATOM      4  C   UNL d   1      -0.408   3.790   1.881  0.00  0.00    -0.035 A 
ATOM      5  C   UNL d   1      -0.480   1.356   1.668  0.00  0.00     0.026 A 
ATOM      6  C   UNL d   1      -0.925   2.533   2.265  0.00  0.00     0.010 A 
ATOM      7  C   UNL d   1      -0.939   4.993   2.613  0.00  0.00     0.050 C 
ENDROOT
BRANCH   2   8
ATOM      8  N   UNL d   1       1.118   5.112   0.466  0.00  0.00    -0.327 N 
ATOM      9  C   UNL d   1       2.075   5.331  -0.522  0.00  0.00     0.222 C 
ATOM     10  O   UNL d   1       2.565   4.480  -1.261  0.00  0.00    -0.273 OA
ATOM     11  H   UNL d   1       0.737   5.930   0.925  0.00  0.00     0.169 HD
BRANCH   9  12
ATOM     12  C   UNL d   1       2.495   6.777  -0.687  0.00  0.00     0.108 C 
BRANCH  12  13
ATOM     13  C   UNL d   1       3.137   7.329   0.580  0.00  0.00     0.047 C 
BRANCH  13  14
ATOM     14  C   UNL d   1       3.623   8.751   0.439  0.00  0.00    -0.058 A 
ATOM     15  C   UNL d   1       3.061   9.767   1.224  0.00  0.00     0.007 A 
ATOM     16  C   UNL d   1       3.543  11.074   1.147  0.00  0.00     0.001 A 
ATOM     17  C   UNL d   1       4.590  11.382   0.281  0.00  0.00     0.000 A 
ATOM     18  C   UNL d   1       5.153  10.383  -0.511  0.00  0.00     0.001 A 
ATOM     19  C   UNL d   1       4.674   9.073  -0.432  0.00  0.00     0.007 A 
ENDBRANCH  13  14
ENDBRANCH  12  13
ENDBRANCH   9  12
ENDBRANCH   2   8
BRANCH   1  20
ATOM     20  S   UNL d   1       1.091  -0.056  -0.098  0.00  0.00     0.260 S 
ATOM     21  O   UNL d   1       0.779  -1.153   0.796  0.00  0.00    -0.200 OA
ATOM     22  O   UNL d   1       2.450   0.185  -0.526  0.00  0.00    -0.200 OA
BRANCH  20  23
ATOM     23  N   UNL d   1       0.100  -0.204  -1.472  0.00  0.00    -0.315 N 
ATOM     24  C   UNL d   1      -1.315  -0.524  -1.236  0.00  0.00     0.162 C 
ATOM     25  C   UNL d   1       0.303   0.790  -2.549  0.00  0.00     0.162 C 
ENDBRANCH  20  23
ENDBRANCH   1  20
TORSDOF 6
