REMARK  6 active torsions:
REMARK  status: ('A' for Active; 'I' for Inactive)
REMARK    1  A    between atoms: C_8  and  C_1 
REMARK    2  A    between atoms: C_11  and  C_2 
REMARK    3  A    between atoms: C_3  and  O_9 
REMARK    4  A    between atoms: C_7  and  C_3 
REMARK    5  A    between atoms: O_9  and  N_4 
REMARK    6  A    between atoms: C_10  and  C_12 
ROOT
ATOM      1  C   UNL d   1      -2.076  -0.012   0.036  0.00  0.00     0.018 A 
ATOM      2  C   UNL d   1      -4.880   0.006  -0.074  0.00  0.00    -0.019 A 
ATOM      3  C   UNL d   1      -2.773   1.200  -0.021  0.00  0.00     0.021 A 
ATOM      4  C   UNL d   1      -2.786  -1.215   0.048  0.00  0.00     0.021 A 
ATOM      5  C   UNL d   1      -4.184  -1.206  -0.007  0.00  0.00     0.014 A 
ATOM      6  C   UNL d   1      -4.175   1.213  -0.076  0.00  0.00     0.014 A 
ENDROOT
BRANCH   2   7
ATOM      7  C   UNL d   1      -6.361   0.010  -0.148  0.00  0.00     0.126 C 
ATOM      8  N   UNL d   1      -7.025  -1.100  -0.163  0.00  0.00    -0.268 N 
ATOM      9  HN  UNL d   1      -6.598  -2.026  -0.129  1.00  0.00     0.194 HD
BRANCH   8  10
ATOM     10  O   UNL d   1      -8.415  -0.868  -0.231  0.00  0.00    -0.195 OA
BRANCH  10  11
ATOM     11  C   UNL d   1      -9.068  -2.075  -0.247  0.00  0.00     0.315 C 
ATOM     12  O   UNL d   1      -8.559  -3.189  -0.242  0.00  0.00    -0.257 OA
BRANCH  11  13
ATOM     13  C   UNL d   1     -10.549  -1.894  -0.259  0.00  0.00     0.041 A 
ATOM     14  C   UNL d   1     -11.348  -3.049  -0.315  0.00  0.00     0.017 A 
ATOM     15  C   UNL d   1     -12.741  -2.954  -0.286  0.00  0.00     0.001 A 
ATOM     16  C   UNL d   1     -13.349  -1.704  -0.200  0.00  0.00     0.000 A 
ATOM     17  C   UNL d   1     -12.566  -0.550  -0.157  0.00  0.00     0.001 A 
ATOM     18  C   UNL d   1     -11.169  -0.641  -0.190  0.00  0.00     0.017 A 
ENDBRANCH  11  13
ENDBRANCH  10  11
ENDBRANCH   8  10
ENDBRANCH   2   7
BRANCH   1  19
ATOM     19  C   UNL d   1      -0.642  -0.022   0.066  0.00  0.00    -0.061 C 
ATOM     20  C   UNL d   1       0.559  -0.026   0.066  0.00  0.00    -0.061 C 
BRANCH  20  21
ATOM     21  C   UNL d   1       1.993  -0.013   0.036  0.00  0.00     0.018 A 
ATOM     22  C   UNL d   1       2.712  -1.209  -0.021  0.00  0.00     0.020 A 
ATOM     23  C   UNL d   1       4.109  -1.187  -0.076  0.00  0.00     0.001 A 
ATOM     24  C   UNL d   1       4.789   0.031  -0.072  0.00  0.00     0.000 A 
ATOM     25  C   UNL d   1       4.075   1.227  -0.009  0.00  0.00     0.001 A 
ATOM     26  C   UNL d   1       2.679   1.205   0.046  0.00  0.00     0.020 A 
ENDBRANCH  20  21
ENDBRANCH   1  19
TORSDOF 6
