REMARK  3 active torsions:
REMARK  status: ('A' for Active; 'I' for Inactive)
REMARK    1  A    between atoms: C_2  and  N_1 
REMARK    2  A    between atoms: C_3  and  O_7 
REMARK    3  A    between atoms: O_7  and  C_13 
ROOT
ATOM      1  C   UNL d   1      -5.869   3.136   2.029  0.00  0.00     0.103 A 
ATOM      2  C   UNL d   1      -5.290   4.408   1.983  0.00  0.00     0.039 A 
ATOM      3  C   UNL d   1      -5.091   2.010   2.328  0.00  0.00     0.039 A 
ATOM      4  C   UNL d   1      -3.157   3.442   2.623  0.00  0.00     0.069 A 
ATOM      5  C   UNL d   1      -3.930   4.550   2.264  0.00  0.00     0.039 A 
ATOM      6  C   UNL d   1      -3.731   2.169   2.617  0.00  0.00     0.039 A 
ENDROOT
BRANCH   4   7
ATOM      7  O   UNL d   1      -1.833   3.514   2.980  0.00  0.00    -0.345 OA
BRANCH   7   8
ATOM      8  C   UNL d   1      -1.491   4.677   3.755  0.00  0.00     0.133 C 
ATOM      9  C   UNL d   1      -0.838   5.758   2.847  0.00  0.00     0.015 C 
ATOM     10  C   UNL d   1       0.657   5.927   3.151  0.00  0.00     0.012 C 
ATOM     11  C   UNL d   1      -1.380   7.148   3.237  0.00  0.00     0.007 C 
ATOM     12  C   UNL d   1       0.580   6.529   4.554  0.00  0.00    -0.014 C 
ATOM     13  C   UNL d   1       0.060   5.485   5.570  0.00  0.00     0.007 C 
ATOM     14  C   UNL d   1      -0.439   7.661   4.331  0.00  0.00     0.005 C 
ATOM     15  C   UNL d   1      -0.552   4.255   4.893  0.00  0.00     0.033 C 
ENDBRANCH   7   8
ENDBRANCH   4   7
BRANCH   1  16
ATOM     16  N   UNL d   1      -7.307   2.994   1.768  0.00  0.00    -0.116 N 
ATOM     17  O   UNL d   1      -7.954   4.021   1.538  0.00  0.00    -0.532 OA
ATOM     18  O   UNL d   1      -7.786   1.851   1.802  0.00  0.00    -0.532 OA
ENDBRANCH   1  16
TORSDOF 3
