REMARK  4 active torsions:
REMARK  status: ('A' for Active; 'I' for Inactive)
REMARK    1  A    between atoms: C_2  and  S_1 
REMARK    2  A    between atoms: C_13  and  S_1 
REMARK    3  A    between atoms: N_14  and  C_5 
REMARK    4  A    between atoms: C_7  and  C_6 
ROOT
ATOM      1  C   UNL d   1       0.493  -1.718   0.539  0.00  0.00     0.113 A 
ATOM      2  N   UNL d   1       0.415  -4.081   0.350  0.00  0.00    -0.328 N 
ATOM      3  HN  UNL d   1       0.649  -4.937  -0.152  1.00  0.00     0.168 HD
ATOM      4  C   UNL d   1       0.763  -2.881  -0.143  0.00  0.00     0.102 A 
ATOM      5  C   UNL d   1      -0.254  -4.131   1.530  0.00  0.00     0.191 A 
ATOM      6  N   UNL d   1      -0.615  -3.019   2.217  0.00  0.00    -0.347 N 
ATOM      7  HN  UNL d   1      -1.144  -3.077   3.087  1.00  0.00     0.166 HD
ATOM      8  C   UNL d   1      -0.242  -1.833   1.695  0.00  0.00     0.116 A 
ENDROOT
BRANCH   1   9
ATOM      9  S   UNL d   1       0.984  -0.134  -0.019  0.00  0.00     0.183 S 
ATOM     10  O   UNL d   1       0.056   0.808   0.583  0.00  0.00    -0.222 OA
ATOM     11  O   UNL d   1       1.113  -0.183  -1.465  0.00  0.00    -0.222 OA
BRANCH   9  12
ATOM     12  C   UNL d   1       2.599   0.145   0.727  0.00  0.00     0.105 C 
ATOM     13  C   UNL d   1       3.643  -0.873   0.285  0.00  0.00     0.026 C 
ATOM     14  C   UNL d   1       3.087   1.560   0.422  0.00  0.00     0.026 C 
ENDBRANCH   9  12
ENDBRANCH   1   9
BRANCH   4  15
ATOM     15  N   UNL d   1       1.501  -2.938  -1.314  0.00  0.00    -0.287 NA
ATOM     16  H   UNL d   1       1.486  -3.888  -1.680  0.00  0.00     0.125 HD
ATOM     17  H   UNL d   1       1.204  -2.248  -2.010  0.00  0.00     0.125 HD
ENDBRANCH   4  15
BRANCH   5  18
ATOM     18  C   UNL d   1      -0.575  -5.505   2.135  0.00  0.00     0.449 C 
ATOM     19  F   UNL d   1      -0.100  -6.556   1.399  0.00  0.00    -0.163 F 
ATOM     20  F   UNL d   1      -0.042  -5.673   3.384  0.00  0.00    -0.163 F 
ATOM     21  F   UNL d   1      -1.915  -5.735   2.271  0.00  0.00    -0.163 F 
ENDBRANCH   5  18
TORSDOF 4
