REMARK  3 active torsions:
REMARK  status: ('A' for Active; 'I' for Inactive)
REMARK    1  A    between atoms: C_4  and  C_1 
REMARK       I    between atoms: N_7  and  C_4 
REMARK    2  A    between atoms: N_9  and  N_7 
REMARK    3  A    between atoms: C_14  and  N_9 
ROOT
ATOM      1  C   UNL d   1       3.667  -0.340   0.578  0.00  0.00     0.274 C 
ATOM      2  N   UNL d   1       4.714  -1.243   0.404  0.00  0.00    -0.282 N 
ATOM      3  O   UNL d   1       2.551  -0.618   0.131  0.00  0.00    -0.266 OA
ATOM      4  H   UNL d   1       5.676  -0.927   0.483  0.00  0.00     0.184 HD
ENDROOT
BRANCH   1   5
ATOM      5  C   UNL d   1       3.977   0.909   1.270  0.00  0.00     0.097 A 
ATOM      6  S   UNL d   1       2.740   2.101   1.313  0.00  0.00    -0.082 SA
ATOM      7  C   UNL d   1       3.675   3.187   2.251  0.00  0.00     0.017 A 
ATOM      8  C   UNL d   1       3.269   4.454   2.719  0.00  0.00     0.020 A 
ATOM      9  C   UNL d   1       4.940   2.667   2.526  0.00  0.00     0.004 A 
ATOM     10  C   UNL d   1       4.151   5.207   3.494  0.00  0.00     0.001 A 
ATOM     11  C   UNL d   1       5.413   4.717   3.792  0.00  0.00     0.001 A 
ATOM     12  C   UNL d   1       5.816   3.464   3.313  0.00  0.00     0.014 A 
ATOM     13  C   UNL d   1       5.105   1.358   1.930  0.00  0.00     0.068 A 
ATOM     14 CL   UNL d   1       6.587   0.495   2.097  0.00  0.00    -0.082 Cl
ENDBRANCH   1   5
BRANCH   2  15
ATOM     15  N   UNL d   1       4.495  -2.267  -0.542  0.00  0.00    -0.203 NA
ATOM     16  H   UNL d   1       3.510  -2.288  -0.839  0.00  0.00     0.153 HD
BRANCH  15  17
ATOM     17  C   UNL d   1       4.931  -3.566  -0.177  0.00  0.00     0.028 A 
ATOM     18  C   UNL d   1       5.853  -3.829   0.843  0.00  0.00     0.032 A 
ATOM     19  C   UNL d   1       6.339  -5.131   1.085  0.00  0.00    -0.054 A 
ATOM     20  C   UNL d   1       7.304  -5.359   2.217  0.00  0.00     0.049 C 
ATOM     21  C   UNL d   1       5.926  -6.191   0.256  0.00  0.00    -0.056 A 
ATOM     22  C   UNL d   1       5.015  -5.931  -0.774  0.00  0.00     0.009 A 
ATOM     23  C   UNL d   1       6.450  -7.590   0.441  0.00  0.00     0.049 C 
ATOM     24  C   UNL d   1       4.532  -4.637  -0.987  0.00  0.00     0.026 A 
ENDBRANCH  15  17
ENDBRANCH   2  15
TORSDOF 3
