REMARK  9 active torsions:
REMARK  status: ('A' for Active; 'I' for Inactive)
REMARK    1  A    between atoms: N_5  and  S_1 
REMARK    2  A    between atoms: C_14  and  S_1 
REMARK    3  A    between atoms: C_10  and  C_2 
REMARK    4  A    between atoms: C_4  and  C_3 
REMARK    5  A    between atoms: N_9  and  N_5 
REMARK    6  A    between atoms: C_8  and  N_9 
REMARK    7  A    between atoms: O_17  and  C_10 
REMARK    8  A    between atoms: C_24  and  O_17 
REMARK    9  A    between atoms: C_29  and  C_24 
ROOT
ATOM      1  C   UNL d   1      -0.151   5.749   3.000  0.00  0.00     0.087 A 
ATOM      2  C   UNL d   1       1.149   5.316   3.163  0.00  0.00     0.150 A 
ATOM      3  N   UNL d   1       1.529   4.051   2.776  0.00  0.00    -0.184 N 
ATOM      4  HN  UNL d   1       2.479   3.720   2.949  1.00  0.00     0.184 HD
ATOM      5  C   UNL d   1       0.631   3.258   2.168  0.00  0.00     0.697 A 
ATOM      6  N   UNL d   1      -0.631   3.626   1.944  0.00  0.00    -0.199 N 
ATOM      7  HN  UNL d   1      -1.291   3.008   1.471  1.00  0.00     0.183 HD
ATOM      8  C   UNL d   1      -0.997   4.853   2.372  0.00  0.00     0.126 A 
ENDROOT
BRANCH   5   9
ATOM      9  N   UNL d   1       1.019   2.009   1.704  0.00  0.00    -0.122 N 
ATOM     10  H   UNL d   1       0.292   1.490   1.218  0.00  0.00     0.206 HD
BRANCH   9  11
ATOM     11  N   UNL d   1       2.278   1.347   1.998  0.00  0.00    -0.208 N 
ATOM     12  H   UNL d   1       2.955   1.764   2.641  0.00  0.00     0.201 HD
BRANCH  11  13
ATOM     13  S   UNL d   1       2.619  -0.178   1.370  0.00  0.00     0.276 S 
ATOM     14  O   UNL d   1       1.371  -0.909   1.295  0.00  0.00    -0.199 OA
ATOM     15  O   UNL d   1       3.782  -0.692   2.057  0.00  0.00    -0.199 OA
BRANCH  13  16
ATOM     16  C   UNL d   1       3.113   0.237  -0.285  0.00  0.00     0.081 A 
ATOM     17  C   UNL d   1       4.204   1.098  -0.472  0.00  0.00     0.027 A 
ATOM     18  C   UNL d   1       4.568   1.469  -1.766  0.00  0.00     0.025 A 
ATOM     19  C   UNL d   1       3.852   0.979  -2.858  0.00  0.00     0.034 A 
ATOM     20  C   UNL d   1       2.774   0.112  -2.671  0.00  0.00     0.025 A 
ATOM     21 CL   UNL d   1       4.297   1.451  -4.453  0.00  0.00    -0.084 Cl
ATOM     22  C   UNL d   1       2.401  -0.265  -1.378  0.00  0.00     0.027 A 
ENDBRANCH  13  16
ENDBRANCH  11  13
ENDBRANCH   9  11
ENDBRANCH   5   9
BRANCH   2  23
ATOM     23  C   UNL d   1       2.267   6.189   3.702  0.00  0.00     0.434 C 
ATOM     24  F   UNL d   1       1.997   7.520   3.779  0.00  0.00    -0.165 F 
ATOM     25  F   UNL d   1       2.671   5.813   4.949  0.00  0.00    -0.165 F 
ATOM     26  F   UNL d   1       3.388   6.119   2.921  0.00  0.00    -0.165 F 
ENDBRANCH   2  23
BRANCH   1  27
ATOM     27  C   UNL d   1      -0.720   7.069   3.303  0.00  0.00     0.297 C 
ATOM     28  O   UNL d   1      -1.509   7.603   2.541  0.00  0.00    -0.259 OA
BRANCH  27  29
ATOM     29  O   UNL d   1      -0.320   7.531   4.504  0.00  0.00    -0.313 OA
BRANCH  29  30
ATOM     30  C   UNL d   1      -0.765   8.866   4.817  0.00  0.00     0.217 C 
BRANCH  30  31
ATOM     31  C   UNL d   1      -1.248   8.915   6.243  0.00  0.00    -0.034 A 
ATOM     32  C   UNL d   1      -0.367   8.640   7.298  0.00  0.00     0.009 A 
ATOM     33  C   UNL d   1      -0.811   8.685   8.620  0.00  0.00     0.001 A 
ATOM     34  C   UNL d   1      -2.137   9.009   8.902  0.00  0.00     0.000 A 
ATOM     35  C   UNL d   1      -3.019   9.296   7.862  0.00  0.00     0.001 A 
ATOM     36  C   UNL d   1      -2.578   9.250   6.538  0.00  0.00     0.009 A 
ENDBRANCH  30  31
ENDBRANCH  29  30
ENDBRANCH  27  29
ENDBRANCH   1  27
TORSDOF 9
