REMARK  2 active torsions:
REMARK  status: ('A' for Active; 'I' for Inactive)
REMARK    1  A    between atoms: C_12  and  C_4 
REMARK    2  A    between atoms: C_13  and  C_9 
ROOT
ATOM      1  C   UNL d   1      -5.814  -0.645  -0.229  0.00  0.00    -0.026 A 
ATOM      2  C   UNL d   1      -3.071  -1.349  -0.067  0.00  0.00    -0.034 A 
ATOM      3  C   UNL d   1      -5.318  -1.431   0.827  0.00  0.00     0.013 A 
ATOM      4  C   UNL d   1      -4.892  -0.233  -1.209  0.00  0.00     0.013 A 
ATOM      5  C   UNL d   1      -3.966  -1.770   0.917  0.00  0.00     0.012 A 
ATOM      6  C   UNL d   1      -3.539  -0.588  -1.137  0.00  0.00     0.012 A 
ENDROOT
BRANCH   2   7
ATOM      7  C   UNL d   1      -1.669  -1.746   0.010  0.00  0.00     0.038 C 
ATOM      8  C   UNL d   1      -1.222  -2.876  -0.552  0.00  0.00     0.058 C 
ATOM      9  C   UNL d   1       0.234  -3.268  -0.441  0.00  0.00     0.174 C 
ATOM     10  N   UNL d   1      -1.948  -3.831  -1.301  0.00  0.00    -0.280 NA
ATOM     11  C   UNL d   1       0.494  -4.566  -1.207  0.00  0.00     0.064 C 
ATOM     12  O   UNL d   1       1.084  -2.641   0.174  0.00  0.00    -0.291 OA
ATOM     13  C   UNL d   1      -0.428  -5.641  -0.595  0.00  0.00     0.027 C 
ATOM     14  C   UNL d   1       0.051  -4.311  -2.663  0.00  0.00     0.027 C 
ATOM     15  C   UNL d   1      -1.903  -5.187  -0.680  0.00  0.00     0.096 C 
ATOM     16  C   UNL d   1      -1.450  -3.939  -2.703  0.00  0.00     0.096 C 
ENDBRANCH   2   7
BRANCH   1  17
ATOM     17  C   UNL d   1      -7.247  -0.279  -0.301  0.00  0.00    -0.026 A 
ATOM     18  C   UNL d   1      -7.904  -0.089  -1.532  0.00  0.00     0.012 A 
ATOM     19  C   UNL d   1      -9.262   0.240  -1.591  0.00  0.00     0.001 A 
ATOM     20  C   UNL d   1     -10.001   0.370  -0.419  0.00  0.00     0.000 A 
ATOM     21  C   UNL d   1      -9.378   0.190   0.810  0.00  0.00     0.001 A 
ATOM     22  C   UNL d   1      -8.017  -0.117   0.867  0.00  0.00     0.012 A 
ENDBRANCH   1  17
TORSDOF 2
