REMARK  4 active torsions:
REMARK  status: ('A' for Active; 'I' for Inactive)
REMARK    1  A    between atoms: C_5  and  C_1 
REMARK    2  A    between atoms: C_4  and  C_5 
REMARK    3  A    between atoms: N_6  and  C_12 
REMARK    4  A    between atoms: C_18  and  C_9 
ROOT
ATOM      1  C   UNL d   1       4.531  -1.282  -0.022  0.00  0.00     0.096 C 
ATOM      2  C   UNL d   1       5.866  -1.192   0.196  0.00  0.00     0.038 C 
ATOM      3  C   UNL d   1       3.949  -2.580  -0.185  0.00  0.00     0.103 C 
ATOM      4  N   UNL d   1       3.506  -3.642  -0.314  0.00  0.00    -0.191 NA
ENDROOT
BRANCH   1   5
ATOM      5  C   UNL d   1       3.654  -0.058  -0.208  0.00  0.00     0.210 C 
ATOM      6  O   UNL d   1       4.165   0.939  -0.722  0.00  0.00    -0.285 OA
BRANCH   5   7
ATOM      7  C   UNL d   1       2.224  -0.059   0.144  0.00  0.00     0.064 C 
ATOM      8  S   UNL d   1       1.613  -1.059   1.390  0.00  0.00    -0.085 SA
ATOM      9  C   UNL d   1      -0.004  -0.534   1.169  0.00  0.00     0.016 A 
ATOM     10  C   UNL d   1      -1.145  -0.979   1.868  0.00  0.00     0.021 A 
ATOM     11  C   UNL d   1      -0.085   0.448   0.182  0.00  0.00    -0.010 A 
ATOM     12  C   UNL d   1      -2.389  -0.420   1.567  0.00  0.00     0.025 A 
ATOM     13  C   UNL d   1      -2.498   0.544   0.578  0.00  0.00     0.035 A 
ATOM     14  C   UNL d   1      -1.369   0.978  -0.119  0.00  0.00     0.037 A 
ATOM     15 CL   UNL d   1      -4.035   1.229   0.214  0.00  0.00    -0.084 Cl
ATOM     16  C   UNL d   1       1.224   0.778  -0.355  0.00  0.00    -0.029 C 
ATOM     17  C   UNL d   1       1.424   1.887  -1.349  0.00  0.00     0.050 C 
ENDBRANCH   5   7
ENDBRANCH   1   5
BRANCH   2  18
ATOM     18  C   UNL d   1       6.650   0.044   0.336  0.00  0.00    -0.035 A 
ATOM     19  C   UNL d   1       6.824   0.631   1.596  0.00  0.00     0.014 A 
ATOM     20  C   UNL d   1       7.453   1.877   1.716  0.00  0.00     0.037 A 
ATOM     21  C   UNL d   1       7.914   2.535   0.568  0.00  0.00     0.102 A 
ATOM     22  C   UNL d   1       7.800   1.929  -0.688  0.00  0.00     0.037 A 
ATOM     23  C   UNL d   1       7.177   0.680  -0.798  0.00  0.00     0.014 A 
BRANCH  21  24
ATOM     24  N   UNL d   1       8.491   3.882   0.681  0.00  0.00    -0.116 N 
ATOM     25  O   UNL d   1       8.547   4.393   1.809  0.00  0.00    -0.532 OA
ATOM     26  O   UNL d   1       8.884   4.431  -0.359  0.00  0.00    -0.532 OA
ENDBRANCH  21  24
ENDBRANCH   2  18
TORSDOF 4
