REMARK  4 active torsions:
REMARK  status: ('A' for Active; 'I' for Inactive)
REMARK    1  A    between atoms: C_2  and  C_1 
REMARK       I    between atoms: N_3  and  C_2 
REMARK    2  A    between atoms: C_13  and  N_3 
REMARK    3  A    between atoms: N_15  and  C_4 
REMARK    4  A    between atoms: C_5  and  C_13 
ROOT
ATOM      1  C   UNL d   1       1.796   1.197   0.138  0.00  0.00     0.059 A 
ATOM      2  C   UNL d   1       2.163  -0.159   0.261  0.00  0.00     0.043 A 
ATOM      3  C   UNL d   1       0.458   1.549  -0.182  0.00  0.00     0.043 A 
ATOM      4  C   UNL d   1       1.123  -1.107   0.093  0.00  0.00     0.032 A 
ATOM      5  C   UNL d   1      -0.519   0.580  -0.358  0.00  0.00     0.035 A 
ATOM      6  C   UNL d   1      -0.194  -0.755  -0.216  0.00  0.00     0.026 A 
ATOM      7 CL   UNL d   1      -2.136   1.037  -0.721  0.00  0.00    -0.084 Cl
ENDROOT
BRANCH   1   8
ATOM      8  C   UNL d   1       2.642   2.397   0.366  0.00  0.00     0.254 C 
ATOM      9  N   UNL d   1       3.752   2.561  -0.434  0.00  0.00    -0.351 N 
ATOM     10  H   UNL d   1       3.995   1.849  -1.106  0.00  0.00     0.163 HD
ATOM     11  O   UNL d   1       2.242   3.261   1.143  0.00  0.00    -0.268 OA
BRANCH   9  12
ATOM     12  C   UNL d   1       4.414   3.845  -0.528  0.00  0.00     0.187 C 
BRANCH  12  13
ATOM     13  C   UNL d   1       5.856   3.807  -0.155  0.00  0.00     0.070 A 
ATOM     14  O   UNL d   1       6.467   2.602   0.050  0.00  0.00    -0.325 OA
ATOM     15  C   UNL d   1       7.758   2.866   0.389  0.00  0.00     0.142 A 
ATOM     16  C   UNL d   1       7.997   4.218   0.379  0.00  0.00     0.027 A 
ATOM     17  C   UNL d   1       6.770   4.827   0.026  0.00  0.00     0.036 A 
ENDBRANCH  12  13
ENDBRANCH   9  12
ENDBRANCH   1   8
BRANCH   2  18
ATOM     18  N   UNL d   1       3.370  -0.708   0.684  0.00  0.00    -0.393 N 
ATOM     19  C   UNL d   1       4.635  -0.024   0.819  0.00  0.00     0.146 C 
ATOM     20  H   UNL d   1       3.484  -1.688   0.430  0.00  0.00     0.159 HD
ENDBRANCH   2  18
TORSDOF 4
