REMARK  5 active torsions:
REMARK  status: ('A' for Active; 'I' for Inactive)
REMARK    1  A    between atoms: C_6  and  N_1 
REMARK    2  A    between atoms: C_7  and  C_6 
REMARK       I    between atoms: N_8  and  C_7 
REMARK    3  A    between atoms: C_13  and  N_8 
REMARK    4  A    between atoms: O_9  and  C_12 
REMARK    5  A    between atoms: C_10  and  O_9 
ROOT
ATOM      1  C   UNL d   1       3.453  -2.371  -0.825  0.00  0.00     0.240 C 
ATOM      2  N   UNL d   1       4.276  -1.289  -0.530  0.00  0.00    -0.323 N 
ATOM      3  O   UNL d   1       2.226  -2.365  -0.767  0.00  0.00    -0.271 OA
ATOM      4  H   UNL d   1       5.093  -1.215  -1.138  0.00  0.00     0.169 HD
ENDROOT
BRANCH   2   5
ATOM      5  C   UNL d   1       3.787  -0.069  -0.015  0.00  0.00     0.069 A 
ATOM      6  C   UNL d   1       2.891   0.030   1.063  0.00  0.00     0.102 A 
ATOM      7  C   UNL d   1       2.374   1.279   1.427  0.00  0.00     0.039 A 
ATOM      8  C   UNL d   1       2.796   2.435   0.770  0.00  0.00     0.003 A 
ATOM      9  C   UNL d   1       3.753   2.349  -0.238  0.00  0.00     0.002 A 
ATOM     10  C   UNL d   1       4.258   1.104  -0.618  0.00  0.00     0.032 A 
BRANCH   6  11
ATOM     11  O   UNL d   1       2.451  -1.033   1.815  0.00  0.00    -0.307 OA
BRANCH  11  12
ATOM     12  C   UNL d   1       3.360  -1.817   2.500  0.00  0.00     0.098 A 
ATOM     13  C   UNL d   1       2.900  -3.060   2.963  0.00  0.00     0.069 A 
ATOM     14  C   UNL d   1       3.755  -3.932   3.643  0.00  0.00     0.050 A 
ATOM     15 CL   UNL d   1       1.265  -3.565   2.720  0.00  0.00    -0.081 Cl
ATOM     16  C   UNL d   1       5.075  -3.559   3.869  0.00  0.00     0.035 A 
ATOM     17  C   UNL d   1       5.541  -2.316   3.448  0.00  0.00     0.026 A 
ATOM     18 CL   UNL d   1       6.141  -4.640   4.680  0.00  0.00    -0.084 Cl
ATOM     19  C   UNL d   1       4.681  -1.438   2.779  0.00  0.00     0.041 A 
ENDBRANCH  11  12
ENDBRANCH   6  11
ENDBRANCH   2   5
BRANCH   1  20
ATOM     20  C   UNL d   1       4.228  -3.574  -1.369  0.00  0.00     0.239 C 
BRANCH  20  21
ATOM     21  N   UNL d   1       4.490  -3.428  -2.779  0.00  0.00    -0.268 N 
ATOM     22  C   UNL d   1       5.298  -2.481  -3.360  0.00  0.00     0.374 A 
ATOM     23  O   UNL d   1       5.496  -2.731  -4.722  0.00  0.00    -0.257 OA
ATOM     24  O   UNL d   1       5.807  -1.534  -2.770  0.00  0.00    -0.237 OA
ATOM     25  C   UNL d   1       4.868  -3.949  -4.870  0.00  0.00     0.125 A 
ATOM     26  C   UNL d   1       4.272  -4.404  -3.716  0.00  0.00     0.146 A 
ATOM     27  C   UNL d   1       4.851  -4.720  -6.009  0.00  0.00     0.043 A 
ATOM     28  N   UNL d   1       3.675  -5.590  -3.568  0.00  0.00    -0.350 N 
ATOM     29  C   UNL d   1       3.666  -6.350  -4.692  0.00  0.00     0.090 A 
ATOM     30  HN  UNL d   1       3.263  -5.898  -2.687  1.00  0.00     0.166 HD
ATOM     31  C   UNL d   1       4.225  -5.964  -5.916  0.00  0.00     0.020 A 
ENDBRANCH  20  21
ENDBRANCH   1  20
TORSDOF 5
