REMARK  5 active torsions:
REMARK  status: ('A' for Active; 'I' for Inactive)
REMARK    1  A    between atoms: C_4  and  N_1 
REMARK    2  A    between atoms: C_2  and  C_7 
REMARK       I    between atoms: N_3  and  C_2 
REMARK    3  A    between atoms: C_5  and  N_3 
REMARK    4  A    between atoms: C_14  and  C_5 
REMARK    5  A    between atoms: C_15  and  C_14 
ROOT
ATOM      1  C   UNL d   1      -3.397   5.182  -2.702  0.00  0.00     0.252 C 
ATOM      2  N   UNL d   1      -2.860   5.037  -1.439  0.00  0.00    -0.348 N 
ATOM      3  O   UNL d   1      -4.575   4.956  -2.962  0.00  0.00    -0.268 OA
ATOM      4  H   UNL d   1      -1.898   5.286  -1.285  0.00  0.00     0.163 HD
ENDROOT
BRANCH   1   5
ATOM      5  C   UNL d   1      -2.480   5.612  -3.811  0.00  0.00     0.032 A 
ATOM      6  C   UNL d   1      -1.100   5.817  -3.653  0.00  0.00     0.019 A 
ATOM      7  C   UNL d   1      -0.306   6.200  -4.744  0.00  0.00     0.037 A 
ATOM      8  C   UNL d   1      -0.889   6.375  -6.005  0.00  0.00     0.102 A 
ATOM      9  C   UNL d   1      -2.260   6.164  -6.182  0.00  0.00     0.037 A 
ATOM     10  C   UNL d   1      -3.046   5.785  -5.088  0.00  0.00     0.019 A 
BRANCH   8  11
ATOM     11  N   UNL d   1      -0.057   6.777  -7.145  0.00  0.00    -0.116 N 
ATOM     12  O   UNL d   1      -0.617   6.934  -8.242  0.00  0.00    -0.532 OA
ATOM     13  O   UNL d   1       1.155   6.936  -6.945  0.00  0.00    -0.532 OA
ENDBRANCH   8  11
ENDBRANCH   1   5
BRANCH   2  14
ATOM     14  C   UNL d   1      -3.588   4.537  -0.257  0.00  0.00     0.026 C 
ATOM     15  C   UNL d   1      -2.625   4.591   0.946  0.00  0.00     0.038 C 
ATOM     16  C   UNL d   1      -4.752   5.503   0.083  0.00  0.00     0.038 C 
BRANCH  14  17
ATOM     17  C   UNL d   1      -4.198   3.108  -0.453  0.00  0.00     0.038 C 
BRANCH  17  18
ATOM     18  C   UNL d   1      -3.341   1.856  -0.827  0.00  0.00    -0.049 C 
ATOM     19  C   UNL d   1      -2.409   1.402   0.307  0.00  0.00     0.014 C 
ATOM     20  C   UNL d   1      -4.328   0.689  -1.085  0.00  0.00     0.014 C 
ATOM     21  C   UNL d   1      -2.519   2.052  -2.108  0.00  0.00     0.014 C 
ENDBRANCH  17  18
ENDBRANCH  14  17
ENDBRANCH   2  14
TORSDOF 5
