REMARK  3 active torsions:
REMARK  status: ('A' for Active; 'I' for Inactive)
REMARK    1  A    between atoms: C_4  and  C_1 
REMARK    2  A    between atoms: O_12  and  C_3 
REMARK    3  A    between atoms: C_10  and  N_5 
ROOT
ATOM      1  C   UNL d   1      -0.063   2.008   0.015  0.00  0.00     0.016 A 
ATOM      2  C   UNL d   1      -0.922  -0.252  -0.051  0.00  0.00     0.069 A 
ATOM      3  C   UNL d   1      -1.149   1.129  -0.039  0.00  0.00     0.099 A 
ATOM      4  C   UNL d   1       0.375  -0.758  -0.006  0.00  0.00     0.050 A 
ATOM      5  C   UNL d   1       1.243   1.504   0.050  0.00  0.00     0.039 A 
ATOM      6  C   UNL d   1       1.452   0.126   0.043  0.00  0.00     0.036 A 
ATOM      7 CL   UNL d   1      -2.252  -1.350  -0.118  0.00  0.00    -0.081 Cl
ATOM      8 CL   UNL d   1       3.055  -0.496   0.106  0.00  0.00    -0.084 Cl
ENDROOT
BRANCH   1   9
ATOM      9  C   UNL d   1      -0.294   3.467   0.056  0.00  0.00     0.102 C 
ATOM     10  N   UNL d   1       0.681   4.313  -0.055  0.00  0.00    -0.365 N 
ATOM     11  HN  UNL d   1       1.639   3.987  -0.187  1.00  0.00     0.165 HD
BRANCH  10  12
ATOM     12  C   UNL d   1       0.398   5.688   0.010  0.00  0.00     0.032 A 
ATOM     13  C   UNL d   1       1.306   6.511   0.689  0.00  0.00     0.032 A 
ATOM     14  C   UNL d   1       1.098   7.891   0.774  0.00  0.00     0.044 A 
ATOM     15  C   UNL d   1      -0.021   8.450   0.176  0.00  0.00     0.116 A 
ATOM     16  C   UNL d   1      -0.930   7.659  -0.516  0.00  0.00     0.044 A 
ATOM     17  F   UNL d   1      -0.226   9.770   0.259  0.00  0.00    -0.206 F 
ATOM     18  C   UNL d   1      -0.711   6.281  -0.610  0.00  0.00     0.032 A 
ENDBRANCH  10  12
ENDBRANCH   1   9
BRANCH   3  19
ATOM     19  O   UNL d   1      -2.425   1.627  -0.087  0.00  0.00    -0.358 OA
ATOM     20  H   UNL d   1      -3.040   0.869  -0.133  0.00  0.00     0.217 HD
ENDBRANCH   3  19
TORSDOF 3
