REMARK  8 active torsions:
REMARK  status: ('A' for Active; 'I' for Inactive)
REMARK    1  A    between atoms: C_3  and  C_1 
REMARK    2  A    between atoms: O_14  and  C_1 
REMARK       I    between atoms: C_2  and  N_5 
REMARK    3  A    between atoms: C_12  and  C_2 
REMARK    4  A    between atoms: C_4  and  C_13 
REMARK    5  A    between atoms: O_15  and  C_4 
REMARK    6  A    between atoms: N_5  and  C_11 
REMARK    7  A    between atoms: C_13  and  C_12 
REMARK    8  A    between atoms: C_18  and  O_14 
ROOT
ATOM      1  C   UNL d   1       0.124  -0.566   1.061  0.00  0.00     0.039 A 
ATOM      2  C   UNL d   1       0.487  -0.345   2.394  0.00  0.00     0.020 A 
ATOM      3  C   UNL d   1      -1.023  -1.317   0.785  0.00  0.00     0.020 A 
ATOM      4  C   UNL d   1      -1.421  -1.647   3.158  0.00  0.00     0.034 A 
ATOM      5  C   UNL d   1      -1.789  -1.849   1.826  0.00  0.00     0.030 A 
ATOM      6  C   UNL d   1      -0.282  -0.880   3.435  0.00  0.00     0.030 A 
ENDROOT
BRANCH   4   7
ATOM      7  N   UNL d   1      -2.136  -2.177   4.255  0.00  0.00    -0.327 N 
ATOM      8  C   UNL d   1      -3.143  -3.117   4.197  0.00  0.00     0.222 C 
ATOM      9  O   UNL d   1      -3.585  -3.660   3.185  0.00  0.00    -0.273 OA
ATOM     10  H   UNL d   1      -1.778  -1.935   5.172  0.00  0.00     0.169 HD
BRANCH   8  11
ATOM     11  C   UNL d   1      -3.647  -3.561   5.556  0.00  0.00     0.113 C 
BRANCH  11  12
ATOM     12  C   UNL d   1      -3.801  -5.077   5.551  0.00  0.00     0.119 C 
BRANCH  12  13
ATOM     13  C   UNL d   1      -2.456  -5.724   5.345  0.00  0.00     0.139 C 
ATOM     14  O   UNL d   1      -1.699  -6.005   6.262  0.00  0.00    -0.650 OA
BRANCH  13  15
ATOM     15  O   UNL d   1      -2.124  -5.894   4.047  0.00  0.00    -0.776 OA
ATOM     16  H   UNL d   1      -2.765  -5.500   3.410  0.00  0.00     0.167 HD
ENDBRANCH  13  15
ENDBRANCH  12  13
ENDBRANCH  11  12
ENDBRANCH   8  11
ENDBRANCH   4   7
BRANCH   1  17
ATOM     17  C   UNL d   1       0.968   0.016  -0.019  0.00  0.00     0.293 C 
ATOM     18  O   UNL d   1       1.895   0.779   0.188  0.00  0.00    -0.259 OA
BRANCH  17  19
ATOM     19  O   UNL d   1       0.555  -0.438  -1.229  0.00  0.00    -0.318 OA
BRANCH  19  20
ATOM     20  C   UNL d   1       1.271   0.056  -2.369  0.00  0.00     0.174 C 
ATOM     21  C   UNL d   1       2.509  -0.783  -2.623  0.00  0.00     0.034 C 
ENDBRANCH  19  20
ENDBRANCH  17  19
ENDBRANCH   1  17
TORSDOF 8
