REMARK  3 active torsions:
REMARK  status: ('A' for Active; 'I' for Inactive)
REMARK    1  A    between atoms: N_11  and  C_5 
REMARK       I    between atoms: C_12  and  N_11 
REMARK    2  A    between atoms: C_14  and  N_11 
REMARK    3  A    between atoms: C_19  and  C_14 
ROOT
ATOM      1  C   UNL d   1      -1.102   0.008  -1.031  0.00  0.00     0.160 A 
ATOM      2  C   UNL d   1      -0.856   0.269   0.281  0.00  0.00     0.162 A 
ATOM      3  N   UNL d   1      -2.439  -0.145  -1.270  0.00  0.00    -0.173 N 
ATOM      4  HN  UNL d   1      -2.887  -0.457  -2.131  1.00  0.00     0.186 HD
ATOM      5  C   UNL d   1      -3.021   0.202  -0.137  0.00  0.00     0.689 C 
ATOM      6  N   UNL d   1      -0.073  -0.051  -1.941  0.00  0.00    -0.287 N 
ATOM      7  N   UNL d   1       1.453   0.244  -0.112  0.00  0.00    -0.269 N 
ATOM      8  C   UNL d   1       1.248   0.093  -1.499  0.00  0.00     0.332 A 
ATOM      9  C   UNL d   1       0.438   0.379   0.842  0.00  0.00     0.282 A 
ATOM     10  N   UNL d   1      -2.079   0.461   0.839  0.00  0.00    -0.182 N 
ATOM     11  O   UNL d   1       2.191   0.093  -2.297  0.00  0.00    -0.246 OA
ATOM     12  O   UNL d   1       0.631   0.552   2.037  0.00  0.00    -0.265 OA
ATOM     13  C   UNL d   1      -0.320  -0.112  -3.367  0.00  0.00     0.163 C 
ATOM     14  C   UNL d   1       2.809   0.347   0.383  0.00  0.00     0.164 C 
ATOM     15  H   UNL d   1      -2.279   0.748   1.789  0.00  0.00     0.184 HD
ENDROOT
BRANCH   5  16
ATOM     16  N   UNL d   1      -4.385   0.260   0.123  0.00  0.00    -0.147 N 
ATOM     17  C   UNL d   1      -4.820   1.377   0.839  0.00  0.00     0.234 C 
ATOM     18  O   UNL d   1      -4.065   2.245   1.284  0.00  0.00    -0.273 OA
ATOM     19  C   UNL d   1      -6.305   1.521   1.046  0.00  0.00     0.118 C 
BRANCH  16  20
ATOM     20  C   UNL d   1      -5.163  -0.983   0.049  0.00  0.00     0.189 C 
BRANCH  20  21
ATOM     21  C   UNL d   1      -6.146  -1.159  -1.081  0.00  0.00    -0.039 A 
ATOM     22  C   UNL d   1      -5.920  -0.658  -2.367  0.00  0.00     0.009 A 
ATOM     23  C   UNL d   1      -6.783  -0.997  -3.419  0.00  0.00     0.001 A 
ATOM     24  C   UNL d   1      -7.870  -1.840  -3.196  0.00  0.00     0.000 A 
ATOM     25  C   UNL d   1      -8.112  -2.334  -1.923  0.00  0.00     0.001 A 
ATOM     26  C   UNL d   1      -7.258  -1.999  -0.872  0.00  0.00     0.009 A 
ENDBRANCH  20  21
ENDBRANCH  16  20
ENDBRANCH   5  16
TORSDOF 3
