REMARK  3 active torsions:
REMARK  status: ('A' for Active; 'I' for Inactive)
REMARK    1  A    between atoms: C_6  and  C_2 
REMARK    2  A    between atoms: S_16  and  C_3 
REMARK    3  A    between atoms: C_9  and  C_7 
ROOT
ATOM      1  C   UNL d   1       0.554   0.061   0.049  0.00  0.00     0.093 A 
ATOM      2  C   UNL d   1      -0.098   1.305   0.027  0.00  0.00     0.073 A 
ATOM      3  C   UNL d   1      -0.236  -1.096   0.050  0.00  0.00     0.091 A 
ATOM      4  N   UNL d   1      -1.592  -1.058   0.000  0.00  0.00    -0.348 N 
ATOM      5  HN  UNL d   1      -2.135  -1.922   0.012  1.00  0.00     0.166 HD
ATOM      6  C   UNL d   1      -2.212   0.140  -0.066  0.00  0.00     0.051 A 
ATOM      7  C   UNL d   1      -1.503   1.329  -0.022  0.00  0.00     0.048 A 
ATOM      8  C   UNL d   1       1.986  -0.036   0.049  0.00  0.00     0.103 C 
ATOM      9  N   UNL d   1       3.144  -0.096   0.036  0.00  0.00    -0.191 NA
ENDROOT
BRANCH   2  10
ATOM     10  C   UNL d   1       0.602   2.640   0.025  0.00  0.00     0.419 C 
ATOM     11  F   UNL d   1       1.954   2.595   0.069  0.00  0.00    -0.166 F 
ATOM     12  F   UNL d   1       0.288   3.365  -1.084  0.00  0.00    -0.166 F 
ATOM     13  F   UNL d   1       0.221   3.405   1.085  0.00  0.00    -0.166 F 
ENDBRANCH   2  10
BRANCH   3  14
ATOM     14  S   UNL d   1       0.494  -2.737   0.091  0.00  0.00    -0.115 SA
ATOM     15  C   UNL d   1      -0.983  -3.789   0.105  0.00  0.00     0.097 C 
ENDBRANCH   3  14
BRANCH   6  16
ATOM     16  C   UNL d   1      -3.669   0.066  -0.234  0.00  0.00     0.031 A 
ATOM     17  S   UNL d   1      -4.532   1.324  -1.031  0.00  0.00    -0.100 SA
ATOM     18  C   UNL d   1      -6.019   0.499  -0.898  0.00  0.00     0.050 A 
ATOM     19  C   UNL d   1      -5.882  -0.709  -0.256  0.00  0.00     0.008 A 
ATOM     20  C   UNL d   1      -4.530  -0.960   0.123  0.00  0.00     0.021 A 
ENDBRANCH   6  16
TORSDOF 3
