REMARK  3 active torsions:
REMARK  status: ('A' for Active; 'I' for Inactive)
REMARK    1  A    between atoms: C_3  and  C_1 
REMARK    2  A    between atoms: N_14  and  C_2 
REMARK    3  A    between atoms: C_10  and  C_8 
ROOT
ATOM      1  C   UNL d   1       0.853   3.645  -0.127  0.00  0.00     0.155 A 
ATOM      2  C   UNL d   1       0.523   1.376  -0.127  0.00  0.00     0.121 A 
ATOM      3  N   UNL d   1       1.345   2.429   0.098  0.00  0.00    -0.329 N 
ATOM      4  HN  UNL d   1       2.302   2.295   0.426  1.00  0.00     0.168 HD
ATOM      5  N   UNL d   1      -0.398   3.900  -0.515  0.00  0.00    -0.332 N 
ATOM      6  HN  UNL d   1      -0.723   4.857  -0.649  1.00  0.00     0.168 HD
ATOM      7  C   UNL d   1      -1.218   2.849  -0.726  0.00  0.00     0.046 A 
ATOM      8  C   UNL d   1      -0.783   1.550  -0.549  0.00  0.00     0.064 A 
ENDROOT
BRANCH   7   9
ATOM      9  C   UNL d   1      -2.591   3.176  -1.171  0.00  0.00    -0.009 A 
ATOM     10  C   UNL d   1      -2.845   4.328  -1.940  0.00  0.00     0.015 A 
ATOM     11  C   UNL d   1      -4.133   4.638  -2.393  0.00  0.00     0.020 A 
ATOM     12  C   UNL d   1      -5.195   3.798  -2.077  0.00  0.00     0.011 A 
ATOM     13  C   UNL d   1      -4.983   2.660  -1.306  0.00  0.00     0.020 A 
ATOM     14 BR   UNL d   1      -6.934   4.202  -2.695  0.00  0.00    -0.051 Br
ATOM     15  C   UNL d   1      -3.693   2.357  -0.855  0.00  0.00     0.015 A 
ENDBRANCH   7   9
BRANCH   1  16
ATOM     16  N   UNL d   1       1.688   4.717   0.095  0.00  0.00    -0.274 NA
ATOM     17  H   UNL d   1       2.417   4.465   0.746  0.00  0.00     0.127 HD
ATOM     18  H   UNL d   1       1.147   5.546   0.299  0.00  0.00     0.127 HD
ENDBRANCH   1  16
BRANCH   2  19
ATOM     19  C   UNL d   1       1.037  -0.037   0.078  0.00  0.00     0.432 C 
ATOM     20  F   UNL d   1       2.321  -0.115   0.524  0.00  0.00    -0.165 F 
ATOM     21  F   UNL d   1       0.993  -0.776  -1.069  0.00  0.00    -0.165 F 
ATOM     22  F   UNL d   1       0.286  -0.731   0.983  0.00  0.00    -0.165 F 
ENDBRANCH   2  19
TORSDOF 3
