REMARK  3 active torsions:
REMARK  status: ('A' for Active; 'I' for Inactive)
REMARK    1  A    between atoms: C_2  and  C_1 
REMARK    2  A    between atoms: O_15  and  C_3 
REMARK    3  A    between atoms: O_17  and  C_14 
ROOT
ATOM      1  C   UNL d   1       0.873   2.475   0.273  0.00  0.00     0.144 C 
ATOM      2  S   UNL d   1       2.247   2.840  -0.883  0.00  0.00    -0.144 SA
ATOM      3  S   UNL d   1       1.361   2.396   2.038  0.00  0.00    -0.144 SA
ATOM      4  C   UNL d   1       3.585   4.672   0.684  0.00  0.00    -0.041 A 
ATOM      5  C   UNL d   1       3.185   4.423   2.008  0.00  0.00    -0.041 A 
ATOM      6  C   UNL d   1       4.942   4.933   0.423  0.00  0.00     0.015 A 
ATOM      7  C   UNL d   1       4.157   4.355   3.020  0.00  0.00     0.015 A 
ATOM      8  C   UNL d   1       5.908   4.905   1.442  0.00  0.00    -0.056 A 
ATOM      9  C   UNL d   1       5.515   4.571   2.751  0.00  0.00    -0.056 A 
ATOM     10  C   UNL d   1       2.610   4.575  -0.464  0.00  0.00     0.114 C 
ATOM     11  C   UNL d   1       1.752   4.126   2.358  0.00  0.00     0.114 C 
ATOM     12  C   UNL d   1       7.345   5.196   1.111  0.00  0.00     0.049 C 
ATOM     13  C   UNL d   1       6.517   4.415   3.861  0.00  0.00     0.049 C 
ENDROOT
BRANCH   1  14
ATOM     14  C   UNL d   1       0.205   1.139  -0.061  0.00  0.00     0.001 A 
ATOM     15  C   UNL d   1       0.906  -0.095  -0.127  0.00  0.00     0.107 A 
ATOM     16  C   UNL d   1       0.211  -1.312  -0.225  0.00  0.00     0.101 A 
ATOM     17  C   UNL d   1      -1.186  -1.289  -0.300  0.00  0.00     0.039 A 
ATOM     18  C   UNL d   1      -1.889  -0.089  -0.280  0.00  0.00     0.003 A 
ATOM     19  C   UNL d   1      -1.200   1.115  -0.159  0.00  0.00     0.012 A 
BRANCH  15  20
ATOM     20  O   UNL d   1       2.274  -0.112  -0.072  0.00  0.00    -0.357 OA
ATOM     21  H   UNL d   1       2.615   0.796  -0.185  0.00  0.00     0.217 HD
ENDBRANCH  15  20
BRANCH  16  22
ATOM     22  O   UNL d   1       0.717  -2.584  -0.248  0.00  0.00    -0.353 OA
ATOM     23  C   UNL d   1       2.111  -2.763  -0.039  0.00  0.00     0.210 C 
ENDBRANCH  16  22
ENDBRANCH   1  14
TORSDOF 3
