REMARK  4 active torsions:
REMARK  status: ('A' for Active; 'I' for Inactive)
REMARK       I    between atoms: C_4  and  N_1 
REMARK    1  A    between atoms: C_6  and  C_4 
REMARK    2  A    between atoms: C_7  and  C_5 
REMARK    3  A    between atoms: C_11  and  C_12 
REMARK    4  A    between atoms: C_18  and  C_13 
ROOT
ATOM      1  N   UNL d   1      -0.781  -0.656   0.211  0.00  0.00    -0.231 N 
ATOM      2  N   UNL d   1      -1.229   0.627   0.132  0.00  0.00    -0.290 N 
ATOM      3  HN  UNL d   1      -2.174   0.970   0.303  1.00  0.00     0.187 HD
ATOM      4  C   UNL d   1      -1.670  -1.738   0.379  0.00  0.00     0.278 C 
ATOM      5  C   UNL d   1      -0.149   1.339  -0.222  0.00  0.00     0.067 C 
ATOM      6  C   UNL d   1       1.004   0.531  -0.318  0.00  0.00     0.051 C 
ATOM      7  C   UNL d   1       0.586  -0.725   0.045  0.00  0.00     0.122 C 
ATOM      8  O   UNL d   1      -1.168  -2.833   0.633  0.00  0.00    -0.265 OA
ENDROOT
BRANCH   5   9
ATOM      9  C   UNL d   1      -0.214   2.813  -0.479  0.00  0.00     0.034 A 
ATOM     10  S   UNL d   1       0.966   3.697  -1.349  0.00  0.00    -0.079 SA
ATOM     11  C   UNL d   1       0.095   5.151  -1.181  0.00  0.00     0.059 A 
ATOM     12  C   UNL d   1      -1.042   4.984  -0.420  0.00  0.00     0.029 A 
ATOM     13  C   UNL d   1      -1.237   3.625  -0.037  0.00  0.00     0.023 A 
BRANCH  11  14
ATOM     14  C   UNL d   1       0.485   6.402  -1.741  0.00  0.00    -0.054 C 
ATOM     15  C   UNL d   1       0.669   7.519  -2.138  0.00  0.00    -0.061 C 
BRANCH  15  16
ATOM     16  C   UNL d   1       0.714   8.906  -2.483  0.00  0.00     0.018 A 
ATOM     17  C   UNL d   1       1.393   9.366  -3.611  0.00  0.00     0.020 A 
ATOM     18  C   UNL d   1       1.377  10.730  -3.921  0.00  0.00     0.001 A 
ATOM     19  C   UNL d   1       0.683  11.627  -3.106  0.00  0.00     0.000 A 
ATOM     20  C   UNL d   1       0.007  11.167  -1.978  0.00  0.00     0.001 A 
ATOM     21  C   UNL d   1       0.024   9.809  -1.668  0.00  0.00     0.020 A 
ENDBRANCH  15  16
ENDBRANCH  11  14
ENDBRANCH   5   9
BRANCH   4  22
ATOM     22  C   UNL d   1      -3.130  -1.657   0.125  0.00  0.00     0.055 A 
ATOM     23  C   UNL d   1      -4.066  -2.317   0.931  0.00  0.00     0.049 A 
ATOM     24 CL   UNL d   1      -3.649  -3.089   2.418  0.00  0.00    -0.083 Cl
ATOM     25  C   UNL d   1      -5.415  -2.341   0.552  0.00  0.00     0.025 A 
ATOM     26  C   UNL d   1      -5.833  -1.709  -0.620  0.00  0.00     0.002 A 
ATOM     27  C   UNL d   1      -4.909  -1.040  -1.417  0.00  0.00     0.001 A 
ATOM     28  C   UNL d   1      -3.562  -1.018  -1.050  0.00  0.00     0.019 A 
ENDBRANCH   4  22
TORSDOF 4
