REMARK  2 active torsions:
REMARK  status: ('A' for Active; 'I' for Inactive)
REMARK    1  A    between atoms: C_2  and  S_1 
REMARK    2  A    between atoms: N_8  and  S_1 
ROOT
ATOM      1  C   UNL d   1       0.427  -0.486   1.677  0.00  0.00     0.096 A 
ATOM      2  C   UNL d   1       0.437  -1.817   2.116  0.00  0.00     0.031 A 
ATOM      3  C   UNL d   1       0.033   0.536   2.562  0.00  0.00     0.028 A 
ATOM      4  C   UNL d   1       0.066  -2.105   3.441  0.00  0.00     0.043 A 
ATOM      5  C   UNL d   1      -0.311  -1.082   4.310  0.00  0.00     0.035 A 
ATOM      6  I   UNL d   1       0.981  -3.489   0.965  0.00  0.00    -0.043 I 
ATOM      7  C   UNL d   1      -0.332   0.238   3.875  0.00  0.00     0.025 A 
ATOM      8 CL   UNL d   1      -0.749  -1.453   5.931  0.00  0.00    -0.084 Cl
ENDROOT
BRANCH   1   9
ATOM      9  S   UNL d   1       0.866   0.009   0.026  0.00  0.00     0.259 S 
ATOM     10  O   UNL d   1       0.836   1.455  -0.044  0.00  0.00    -0.201 OA
ATOM     11  O   UNL d   1       0.101  -0.792  -0.902  0.00  0.00    -0.201 OA
BRANCH   9  12
ATOM     12  N   UNL d   1       2.473  -0.459  -0.107  0.00  0.00    -0.320 N 
ATOM     13  C   UNL d   1       3.506   0.436   0.397  0.00  0.00     0.159 C 
ATOM     14  H   UNL d   1       2.655  -0.983  -0.963  0.00  0.00     0.171 HD
ENDBRANCH   9  12
ENDBRANCH   1   9
TORSDOF 2
