REMARK  5 active torsions:
REMARK  status: ('A' for Active; 'I' for Inactive)
REMARK       I    between atoms: N_4  and  C_1 
REMARK    1  A    between atoms: O_7  and  C_1 
REMARK    2  A    between atoms: N_2  and  N_4 
REMARK    3  A    between atoms: C_8  and  C_6 
REMARK    4  A    between atoms: C_15  and  O_7 
REMARK    5  A    between atoms: O_14  and  C_9 
ROOT
ATOM      1  N   UNL d   1       1.004   1.585  -1.802  0.00  0.00    -0.307 N 
ATOM      2  HN  UNL d   1       1.993   1.395  -1.963  1.00  0.00     0.186 HD
ATOM      3  C   UNL d   1       0.371   2.505  -2.455  0.00  0.00     0.118 C 
ENDROOT
BRANCH   1   4
ATOM      4  N   UNL d   1       0.278   0.884  -0.891  0.00  0.00    -0.246 N 
ATOM      5  C   UNL d   1       0.835  -0.123  -0.130  0.00  0.00     0.379 C 
ATOM      6  O   UNL d   1       0.185  -0.725   0.718  0.00  0.00    -0.237 OA
ATOM      7  H   UNL d   1      -0.695   1.099  -0.718  0.00  0.00     0.192 HD
BRANCH   5   8
ATOM      8  O   UNL d   1       2.144  -0.356  -0.421  0.00  0.00    -0.303 OA
BRANCH   8   9
ATOM      9  C   UNL d   1       2.803  -1.353   0.368  0.00  0.00     0.176 C 
ATOM     10  C   UNL d   1       2.560  -2.738  -0.201  0.00  0.00     0.034 C 
ENDBRANCH   8   9
ENDBRANCH   5   8
ENDBRANCH   1   4
BRANCH   3  11
ATOM     11  C   UNL d   1       1.070   3.321  -3.470  0.00  0.00    -0.019 A 
ATOM     12  C   UNL d   1       2.444   3.152  -3.678  0.00  0.00     0.015 A 
ATOM     13  C   UNL d   1       3.096   3.903  -4.654  0.00  0.00     0.037 A 
ATOM     14  C   UNL d   1       2.375   4.814  -5.415  0.00  0.00     0.065 A 
ATOM     15  C   UNL d   1       1.008   4.998  -5.210  0.00  0.00     0.037 A 
ATOM     16  C   UNL d   1       0.350   4.249  -4.229  0.00  0.00     0.015 A 
BRANCH  14  17
ATOM     17  O   UNL d   1       3.052   5.512  -6.369  0.00  0.00    -0.361 OA
ATOM     18  H   UNL d   1       2.425   6.066  -6.862  0.00  0.00     0.217 HD
ENDBRANCH  14  17
ENDBRANCH   3  11
TORSDOF 5
