REMARK  4 active torsions:
REMARK  status: ('A' for Active; 'I' for Inactive)
REMARK    1  A    between atoms: O_7  and  C_4 
REMARK    2  A    between atoms: C_5  and  C_8 
REMARK    3  A    between atoms: O_11  and  C_6 
REMARK    4  A    between atoms: C_8  and  O_7 
ROOT
ATOM      1  C   UNL d   1      -0.515  -0.032  -0.015  0.00  0.00     0.111 A 
ATOM      2  C   UNL d   1      -1.945   0.093   0.037  0.00  0.00     0.105 C 
ATOM      3  N   UNL d   1      -3.101   0.190   0.064  0.00  0.00    -0.191 NA
ATOM      4  C   UNL d   1       0.265   1.152  -0.010  0.00  0.00     0.092 A 
ATOM      5  C   UNL d   1       0.136  -1.278  -0.008  0.00  0.00     0.091 A 
ATOM      6  C   UNL d   1       2.298  -0.162  -0.021  0.00  0.00     0.006 A 
ATOM      7  C   UNL d   1       1.664   1.075  -0.044  0.00  0.00     0.038 A 
ATOM      8  C   UNL d   1       1.538  -1.326   0.010  0.00  0.00     0.038 A 
ENDROOT
BRANCH   4   9
ATOM      9  O   UNL d   1      -0.410   2.351   0.035  0.00  0.00    -0.345 OA
BRANCH   9  10
ATOM     10  C   UNL d   1       0.325   3.473   0.547  0.00  0.00     0.216 C 
BRANCH  10  11
ATOM     11  C   UNL d   1      -0.582   4.591   1.013  0.00  0.00    -0.012 A 
ATOM     12  C   UNL d   1      -0.042   5.747   1.608  0.00  0.00     0.042 A 
ATOM     13 CL   UNL d   1       1.665   5.952   1.804  0.00  0.00    -0.084 Cl
ATOM     14  C   UNL d   1      -0.873   6.772   2.068  0.00  0.00     0.024 A 
ATOM     15  C   UNL d   1      -2.255   6.662   1.937  0.00  0.00     0.002 A 
ATOM     16  C   UNL d   1      -2.806   5.530   1.343  0.00  0.00     0.001 A 
ATOM     17  C   UNL d   1      -1.978   4.504   0.883  0.00  0.00     0.011 A 
ENDBRANCH  10  11
ENDBRANCH   9  10
ENDBRANCH   4   9
BRANCH   5  18
ATOM     18  O   UNL d   1      -0.429  -2.521   0.104  0.00  0.00    -0.354 OA
ATOM     19  C   UNL d   1      -1.585  -2.803  -0.675  0.00  0.00     0.210 C 
ENDBRANCH   5  18
TORSDOF 4
