REMARK  2 active torsions:
REMARK  status: ('A' for Active; 'I' for Inactive)
REMARK    1  A    between atoms: C_2  and  C_1 
REMARK    2  A    between atoms: N_7  and  C_8 
ROOT
ATOM      1  C   UNL d   1       1.649  -1.576  -0.006  0.00  0.00     0.165 A 
ATOM      2  N   UNL d   1       0.466  -1.769  -0.476  0.00  0.00    -0.335 N 
ATOM      3  HN  UNL d   1       0.191  -2.670  -0.868  1.00  0.00     0.168 HD
ATOM      4  O   UNL d   1       2.110  -0.453   0.585  0.00  0.00    -0.256 OA
ATOM      5  C   UNL d   1       1.278   0.608   0.744  0.00  0.00     0.302 A 
ATOM      6  C   UNL d   1      -0.070   0.501   0.169  0.00  0.00     0.066 A 
ATOM      7  C   UNL d   1      -0.420  -0.699  -0.428  0.00  0.00     0.050 A 
ATOM      8  O   UNL d   1       1.636   1.621   1.332  0.00  0.00    -0.259 OA
ATOM      9  C   UNL d   1      -0.966   1.575   0.204  0.00  0.00     0.020 A 
ATOM     10  C   UNL d   1      -1.678  -0.829  -1.016  0.00  0.00     0.030 A 
ATOM     11  C   UNL d   1      -2.223   1.440  -0.386  0.00  0.00     0.001 A 
ATOM     12  C   UNL d   1      -2.578   0.239  -0.999  0.00  0.00     0.002 A 
ENDROOT
BRANCH   1  13
ATOM     13  C   UNL d   1       2.698  -2.615  -0.060  0.00  0.00     0.049 A 
ATOM     14  C   UNL d   1       2.745  -3.557  -1.093  0.00  0.00     0.117 A 
ATOM     15  C   UNL d   1       3.689  -4.592  -1.102  0.00  0.00     0.037 A 
ATOM     16  C   UNL d   1       4.609  -4.683  -0.058  0.00  0.00     0.009 A 
ATOM     17  C   UNL d   1       4.590  -3.749   0.987  0.00  0.00    -0.061 A 
ATOM     18  C   UNL d   1       3.634  -2.720   0.982  0.00  0.00     0.025 A 
ATOM     19  C   UNL d   1       5.590  -3.864   2.103  0.00  0.00     0.048 C 
BRANCH  14  20
ATOM     20  N   UNL d   1       1.865  -3.455  -2.240  0.00  0.00    -0.115 N 
ATOM     21  O   UNL d   1       2.004  -2.460  -2.965  0.00  0.00    -0.532 OA
ATOM     22  O   UNL d   1       1.110  -4.413  -2.456  0.00  0.00    -0.532 OA
ENDBRANCH  14  20
ENDBRANCH   1  13
TORSDOF 2
