REMARK  3 active torsions:
REMARK  status: ('A' for Active; 'I' for Inactive)
REMARK    1  A    between atoms: N_2  and  S_1 
REMARK    2  A    between atoms: C_8  and  S_1 
REMARK    3  A    between atoms: N_3  and  N_2 
ROOT
ATOM      1  N   UNL d   1       1.679  -2.888   0.031  0.00  0.00    -0.223 N 
ATOM      2  H   UNL d   1       1.840  -3.860  -0.219  0.00  0.00     0.200 HD
ENDROOT
BRANCH   1   3
ATOM      3  S   UNL d   1       2.189  -1.720  -1.109  0.00  0.00     0.276 S 
ATOM      4  O   UNL d   1       3.128  -0.821  -0.466  0.00  0.00    -0.199 OA
ATOM      5  O   UNL d   1       1.027  -1.222  -1.813  0.00  0.00    -0.199 OA
BRANCH   3   6
ATOM      6  C   UNL d   1       3.121  -2.704  -2.275  0.00  0.00     0.081 A 
ATOM      7  C   UNL d   1       2.479  -3.236  -3.398  0.00  0.00     0.026 A 
ATOM      8  C   UNL d   1       3.225  -3.919  -4.365  0.00  0.00     0.008 A 
ATOM      9  C   UNL d   1       4.612  -4.069  -4.225  0.00  0.00    -0.062 A 
ATOM     10  C   UNL d   1       5.246  -3.518  -3.102  0.00  0.00     0.008 A 
ATOM     11  C   UNL d   1       5.397  -4.786  -5.286  0.00  0.00     0.048 C 
ATOM     12  C   UNL d   1       4.506  -2.833  -2.132  0.00  0.00     0.026 A 
ENDBRANCH   3   6
ENDBRANCH   1   3
BRANCH   1  13
ATOM     13  N   UNL d   1       0.837  -2.464   1.121  0.00  0.00    -0.299 N 
ATOM     14  C   UNL d   1       0.409  -3.329   1.988  0.00  0.00     0.013 C 
ATOM     15  C   UNL d   1       0.705  -4.821   2.023  0.00  0.00     0.034 C 
ATOM     16  C   UNL d   1      -0.483  -2.848   3.138  0.00  0.00     0.034 C 
ATOM     17  C   UNL d   1       1.408  -5.107   3.360  0.00  0.00     0.015 C 
ATOM     18  C   UNL d   1      -0.646  -5.551   1.960  0.00  0.00     0.015 C 
ATOM     19  C   UNL d   1       0.511  -4.693   4.542  0.00  0.00    -0.013 C 
ATOM     20  C   UNL d   1       0.235  -3.179   4.455  0.00  0.00     0.015 C 
ATOM     21  C   UNL d   1      -0.818  -5.463   4.465  0.00  0.00     0.009 C 
ATOM     22  C   UNL d   1      -1.540  -5.139   3.146  0.00  0.00    -0.013 C 
ATOM     23  C   UNL d   1      -1.806  -3.622   3.064  0.00  0.00     0.015 C 
ATOM     24  HN  UNL d   1       0.577  -1.481   1.211  1.00  0.00     0.187 HD
ENDBRANCH   1  13
TORSDOF 3
