REMARK  5 active torsions:
REMARK  status: ('A' for Active; 'I' for Inactive)
REMARK       I    between atoms: N_2  and  C_1 
REMARK    1  A    between atoms: C_7  and  C_1 
REMARK    2  A    between atoms: C_3  and  N_2 
REMARK    3  A    between atoms: N_4  and  C_7 
REMARK    4  A    between atoms: O_6  and  C_5 
REMARK    5  A    between atoms: C_10  and  O_6 
ROOT
ATOM      1  C   UNL d   1       1.530   0.919  -2.214  0.00  0.00     0.069 A 
ATOM      2  C   UNL d   1       2.541   0.098  -2.738  0.00  0.00     0.102 A 
ATOM      3  C   UNL d   1       1.050   1.996  -2.974  0.00  0.00     0.032 A 
ATOM      4  C   UNL d   1       2.970   0.305  -4.058  0.00  0.00     0.039 A 
ATOM      5  C   UNL d   1       2.511   1.397  -4.794  0.00  0.00     0.003 A 
ATOM      6  C   UNL d   1       1.567   2.256  -4.244  0.00  0.00     0.002 A 
ENDROOT
BRANCH   1   7
ATOM      7  N   UNL d   1       1.016   0.710  -0.913  0.00  0.00    -0.323 N 
ATOM      8  C   UNL d   1      -0.348   0.651  -0.654  0.00  0.00     0.250 C 
ATOM      9  O   UNL d   1      -1.225   0.665  -1.516  0.00  0.00    -0.271 OA
ATOM     10  H   UNL d   1       1.626   0.277  -0.230  0.00  0.00     0.169 HD
BRANCH   8  11
ATOM     11  C   UNL d   1      -0.713   0.489   0.832  0.00  0.00     0.375 C 
BRANCH  11  12
ATOM     12  N   UNL d   1      -0.058   1.523   1.661  0.00  0.00     0.101 N 
ATOM     13  C   UNL d   1      -0.576   2.882   1.367  0.00  0.00     0.299 C 
ATOM     14  C   UNL d   1      -1.988   3.156   1.913  0.00  0.00     0.198 C 
ATOM     15  O   UNL d   1      -2.043   2.941   3.327  0.00  0.00    -0.388 OA
ATOM     16  C   UNL d   1      -1.638   1.611   3.666  0.00  0.00     0.198 C 
ATOM     17  C   UNL d   1      -0.243   1.270   3.107  0.00  0.00     0.299 C 
ENDBRANCH  11  12
ENDBRANCH   8  11
ENDBRANCH   1   7
BRANCH   2  18
ATOM     18  O   UNL d   1       2.983  -0.957  -1.950  0.00  0.00    -0.309 OA
BRANCH  18  19
ATOM     19  C   UNL d   1       4.178  -1.572  -2.252  0.00  0.00     0.076 A 
ATOM     20  C   UNL d   1       5.361  -0.855  -2.498  0.00  0.00     0.037 A 
ATOM     21  C   UNL d   1       6.531  -1.533  -2.813  0.00  0.00     0.003 A 
ATOM     22  C   UNL d   1       6.547  -2.934  -2.838  0.00  0.00     0.000 A 
ATOM     23  C   UNL d   1       5.386  -3.649  -2.543  0.00  0.00     0.003 A 
ATOM     24  C   UNL d   1       4.206  -2.965  -2.248  0.00  0.00     0.037 A 
ENDBRANCH  18  19
ENDBRANCH   2  18
TORSDOF 5
