REMARK  3 active torsions:
REMARK  status: ('A' for Active; 'I' for Inactive)
REMARK    1  A    between atoms: N_7  and  C_2 
REMARK    2  A    between atoms: C_12  and  C_3 
REMARK       I    between atoms: C_4  and  N_7 
REMARK       I    between atoms: N_9  and  C_4 
REMARK    3  A    between atoms: C_10  and  N_9 
ROOT
ATOM      1  C   UNL d   1      -0.933  -2.990   0.175  0.00  0.00     0.326 C 
ATOM      2  N   UNL d   1      -0.055  -1.959   0.220  0.00  0.00    -0.293 N 
ATOM      3  N   UNL d   1      -2.252  -2.768   0.482  0.00  0.00    -0.308 N 
ATOM      4  O   UNL d   1      -0.442  -4.088  -0.116  0.00  0.00    -0.247 OA
ATOM      5  H   UNL d   1       0.889  -2.264   0.012  0.00  0.00     0.172 HD
ATOM      6  H   UNL d   1      -2.424  -1.908   0.994  0.00  0.00     0.170 HD
ENDROOT
BRANCH   2   7
ATOM      7  C   UNL d   1      -0.225  -0.635   0.527  0.00  0.00     0.132 A 
ATOM      8  C   UNL d   1       0.832   0.309   0.547  0.00  0.00     0.086 A 
ATOM      9  C   UNL d   1       0.243   1.496   0.909  0.00  0.00     0.087 A 
ATOM     10  O   UNL d   1      -1.099   1.272   1.063  0.00  0.00    -0.240 OA
ATOM     11  N   UNL d   1      -1.387  -0.060   0.853  0.00  0.00    -0.245 N 
ATOM     12  HN  UNL d   1      -2.298  -0.512   0.929  1.00  0.00     0.196 HD
BRANCH   9  13
ATOM     13  C   UNL d   1       0.709   2.917   1.127  0.00  0.00     0.000 C 
ATOM     14  C   UNL d   1       0.515   3.723  -0.169  0.00  0.00     0.021 C 
ATOM     15  C   UNL d   1      -0.106   3.568   2.263  0.00  0.00     0.021 C 
ATOM     16  C   UNL d   1       2.197   2.988   1.524  0.00  0.00     0.021 C 
ENDBRANCH   9  13
ENDBRANCH   2   7
BRANCH   3  17
ATOM     17  C   UNL d   1      -3.175  -3.847   0.611  0.00  0.00     0.043 C 
ATOM     18  C   UNL d   1      -4.115  -3.894   1.659  0.00  0.00    -0.013 C 
ATOM     19  C   UNL d   1      -4.730  -5.139   1.930  0.00  0.00     0.042 C 
ATOM     20  C   UNL d   1      -4.392  -2.715   2.552  0.00  0.00     0.052 C 
ATOM     21 CL   UNL d   1      -5.729  -5.380   3.326  0.00  0.00    -0.084 Cl
ATOM     22  C   UNL d   1      -4.515  -6.256   1.117  0.00  0.00     0.024 C 
ATOM     23  C   UNL d   1      -3.725  -6.141  -0.016  0.00  0.00     0.004 C 
ATOM     24  C   UNL d   1      -3.071  -4.940  -0.269  0.00  0.00     0.030 C 
ENDBRANCH   3  17
TORSDOF 3
