REMARK  5 active torsions:
REMARK  status: ('A' for Active; 'I' for Inactive)
REMARK    1  A    between atoms: C_3  and  C_1 
REMARK    2  A    between atoms: S_14  and  C_6 
REMARK       I    between atoms: N_13  and  C_16 
REMARK    3  A    between atoms: C_17  and  N_13 
REMARK    4  A    between atoms: C_20  and  S_14 
REMARK    5  A    between atoms: C_16  and  C_20 
ROOT
ATOM      1  C   UNL d   1      -1.356   0.401  -0.041  0.00  0.00     0.153 A 
ATOM      2  N   UNL d   1      -0.917  -0.427   0.968  0.00  0.00    -0.314 N 
ATOM      3  N   UNL d   1      -0.552   0.268  -1.082  0.00  0.00    -0.281 N 
ATOM      4  HN  UNL d   1      -0.640   0.757  -1.972  1.00  0.00     0.188 HD
ATOM      5  C   UNL d   1       0.154  -1.097   0.440  0.00  0.00     0.163 A 
ATOM      6  N   UNL d   1       0.419  -0.639  -0.761  0.00  0.00    -0.278 N 
ATOM      7  HN  UNL d   1       1.207  -0.911  -1.348  1.00  0.00     0.189 HD
ATOM      8  C   UNL d   1      -1.500  -0.631   2.268  0.00  0.00     0.160 C 
ENDROOT
BRANCH   5   9
ATOM      9  S   UNL d   1       0.870  -2.514   1.124  0.00  0.00    -0.083 SA
BRANCH   9  10
ATOM     10  C   UNL d   1       2.288  -2.811   0.032  0.00  0.00     0.185 C 
BRANCH  10  11
ATOM     11  C   UNL d   1       2.010  -3.378  -1.358  0.00  0.00     0.231 C 
ATOM     12  N   UNL d   1       0.781  -3.095  -1.920  0.00  0.00    -0.325 N 
ATOM     13  H   UNL d   1       0.369  -2.239  -1.562  0.00  0.00     0.169 HD
ATOM     14  O   UNL d   1       2.932  -3.936  -1.961  0.00  0.00    -0.272 OA
BRANCH  12  15
ATOM     15  C   UNL d   1       0.438  -3.377  -3.263  0.00  0.00     0.056 A 
ATOM     16  C   UNL d   1       0.652  -4.599  -3.919  0.00  0.00     0.060 A 
ATOM     17 CL   UNL d   1       1.129  -6.044  -3.096  0.00  0.00    -0.082 Cl
ATOM     18  C   UNL d   1       0.341  -4.721  -5.279  0.00  0.00     0.026 A 
ATOM     19  C   UNL d   1      -0.208  -3.646  -5.981  0.00  0.00     0.002 A 
ATOM     20  C   UNL d   1      -0.484  -2.455  -5.319  0.00  0.00     0.002 A 
ATOM     21  C   UNL d   1      -0.175  -2.326  -3.965  0.00  0.00     0.031 A 
ENDBRANCH  12  15
ENDBRANCH  10  11
ENDBRANCH   9  10
ENDBRANCH   5   9
BRANCH   1  22
ATOM     22  C   UNL d   1      -2.555   1.285  -0.072  0.00  0.00     0.102 A 
ATOM     23  N   UNL d   1      -3.281   1.598   1.007  0.00  0.00    -0.257 N 
ATOM     24  O   UNL d   1      -4.321   2.387   0.545  0.00  0.00    -0.242 OA
ATOM     25  HN  UNL d   1      -3.106   1.314   1.971  1.00  0.00     0.195 HD
ATOM     26  C   UNL d   1      -4.218   2.527  -0.804  0.00  0.00     0.074 A 
ATOM     27  C   UNL d   1      -3.095   1.872  -1.240  0.00  0.00     0.070 A 
ATOM     28  C   UNL d   1      -5.287   3.294  -1.467  0.00  0.00     0.079 C 
ENDBRANCH   1  22
TORSDOF 5
