REMARK  2 active torsions:
REMARK  status: ('A' for Active; 'I' for Inactive)
REMARK    1  A    between atoms: C_3  and  C_1 
REMARK       I    between atoms: N_6  and  C_3 
REMARK    2  A    between atoms: C_20  and  N_12 
ROOT
ATOM      1  C   UNL d   1      -3.629  -1.501   0.075  0.00  0.00     0.254 C 
ATOM      2  N   UNL d   1      -3.707  -2.892   0.213  0.00  0.00    -0.345 N 
ATOM      3  N   UNL d   1      -3.834  -5.786   0.105  0.00  0.00    -0.378 N 
ATOM      4  C   UNL d   1      -2.979  -3.722   1.191  0.00  0.00     0.146 C 
ATOM      5  C   UNL d   1      -4.830  -3.572  -0.453  0.00  0.00     0.146 C 
ATOM      6  O   UNL d   1      -4.265  -0.888  -0.779  0.00  0.00    -0.267 OA
ATOM      7  C   UNL d   1      -2.651  -5.147   0.697  0.00  0.00     0.143 C 
ATOM      8  C   UNL d   1      -4.484  -4.986  -0.946  0.00  0.00     0.143 C 
ENDROOT
BRANCH   1   9
ATOM      9  C   UNL d   1      -2.744  -0.686   0.959  0.00  0.00     0.034 A 
ATOM     10  C   UNL d   1      -2.685  -0.930   2.345  0.00  0.00     0.051 A 
ATOM     11  C   UNL d   1      -1.781  -0.117   3.050  0.00  0.00     0.086 A 
ATOM     12  N   UNL d   1      -1.443  -0.163   4.343  0.00  0.00    -0.240 N 
ATOM     13  C   UNL d   1      -1.034   0.960   2.417  0.00  0.00     0.085 A 
ATOM     14  O   UNL d   1      -0.509   0.844   4.522  0.00  0.00    -0.156 OA
ATOM     15  HN  UNL d   1      -1.799  -0.805   5.050  1.00  0.00     0.197 HD
ATOM     16  N   UNL d   1      -0.268   1.539   3.348  0.00  0.00    -0.240 N 
ATOM     17  HN  UNL d   1       0.363   2.330   3.220  1.00  0.00     0.197 HD
ATOM     18  C   UNL d   1      -1.169   1.265   1.052  0.00  0.00     0.035 A 
ATOM     19  C   UNL d   1      -2.038   0.401   0.349  0.00  0.00     0.019 A 
ENDBRANCH   1   9
BRANCH   3  20
ATOM     20  C   UNL d   1      -4.502  -6.778   0.804  0.00  0.00     0.030 A 
ATOM     21  C   UNL d   1      -3.790  -7.852   1.366  0.00  0.00     0.029 A 
ATOM     22  C   UNL d   1      -4.434  -8.904   2.028  0.00  0.00     0.002 A 
ATOM     23  C   UNL d   1      -5.817  -8.903   2.151  0.00  0.00     0.000 A 
ATOM     24  C   UNL d   1      -6.549  -7.849   1.616  0.00  0.00     0.002 A 
ATOM     25  C   UNL d   1      -5.896  -6.804   0.948  0.00  0.00     0.029 A 
ENDBRANCH   3  20
TORSDOF 2
