REMARK  4 active torsions:
REMARK  status: ('A' for Active; 'I' for Inactive)
REMARK    1  A    between atoms: C_10  and  N_1 
REMARK    2  A    between atoms: C_6  and  C_2 
REMARK    3  A    between atoms: S_16  and  C_5 
REMARK    4  A    between atoms: C_12  and  C_10 
ROOT
ATOM      1  N   UNL d   1      -0.162  -1.183  -0.049  0.00  0.00    -0.305 N 
ATOM      2  C   UNL d   1       1.059  -0.534  -0.169  0.00  0.00     0.136 A 
ATOM      3  N   UNL d   1       0.813   0.766  -0.222  0.00  0.00    -0.283 N 
ATOM      4  HN  UNL d   1       1.519   1.495  -0.318  1.00  0.00     0.188 HD
ATOM      5  C   UNL d   1      -1.111  -0.190  -0.030  0.00  0.00     0.163 A 
ATOM      6  N   UNL d   1      -0.534   0.979  -0.129  0.00  0.00    -0.278 N 
ATOM      7  HN  UNL d   1      -1.003   1.884  -0.135  1.00  0.00     0.189 HD
ENDROOT
BRANCH   2   8
ATOM      8  C   UNL d   1       2.412  -1.114  -0.270  0.00  0.00     0.031 A 
ATOM      9  C   UNL d   1       3.535  -0.499   0.329  0.00  0.00     0.049 A 
ATOM     10  C   UNL d   1       4.832  -0.990   0.116  0.00  0.00     0.048 A 
ATOM     11 CL   UNL d   1       3.410   0.870   1.384  0.00  0.00    -0.083 Cl
ATOM     12  C   UNL d   1       5.027  -2.113  -0.677  0.00  0.00     0.035 A 
ATOM     13  C   UNL d   1       3.941  -2.753  -1.258  0.00  0.00     0.025 A 
ATOM     14 CL   UNL d   1       6.617  -2.706  -0.954  0.00  0.00    -0.084 Cl
ATOM     15  C   UNL d   1       2.650  -2.248  -1.067  0.00  0.00     0.018 A 
ENDBRANCH   2   8
BRANCH   1  16
ATOM     16  C   UNL d   1      -0.412  -2.608   0.098  0.00  0.00     0.198 C 
BRANCH  16  17
ATOM     17  C   UNL d   1      -0.710  -3.267  -1.201  0.00  0.00     0.070 A 
ATOM     18  O   UNL d   1      -0.905  -4.620  -1.133  0.00  0.00    -0.325 OA
ATOM     19  C   UNL d   1      -1.128  -5.056  -2.399  0.00  0.00     0.142 A 
ATOM     20  C   UNL d   1      -1.069  -4.010  -3.285  0.00  0.00     0.027 A 
ATOM     21  C   UNL d   1      -0.818  -2.850  -2.515  0.00  0.00     0.036 A 
ENDBRANCH  16  17
ENDBRANCH   1  16
BRANCH   5  22
ATOM     22  S   UNL d   1      -2.816  -0.469   0.067  0.00  0.00    -0.097 SA
ATOM     23  C   UNL d   1      -3.423   1.232   0.154  0.00  0.00     0.099 C 
ENDBRANCH   5  22
TORSDOF 4
