REMARK  3 active torsions:
REMARK  status: ('A' for Active; 'I' for Inactive)
REMARK    1  A    between atoms: N_2  and  C_1 
REMARK    2  A    between atoms: N_4  and  C_1 
REMARK    3  A    between atoms: C_3  and  N_2 
ROOT
ATOM      1  N   UNL d   1       0.480   0.101   1.075  0.00  0.00    -0.331 N 
ATOM      2  H   UNL d   1      -0.534   0.120   1.096  0.00  0.00     0.168 HD
ENDROOT
BRANCH   1   3
ATOM      3  C   UNL d   1       0.963  -0.547  -0.051  0.00  0.00     0.174 C 
ATOM      4  S   UNL d   1       1.802  -2.004   0.002  0.00  0.00    -0.041 SA
BRANCH   3   5
ATOM      5  N   UNL d   1       0.612   0.104  -1.233  0.00  0.00    -0.358 N 
ATOM      6  C   UNL d   1       1.147  -0.221  -2.554  0.00  0.00     0.125 C 
ATOM      7  C   UNL d   1       1.124   1.107  -3.295  0.00  0.00     0.021 C 
ATOM      8  C   UNL d   1      -0.131   1.772  -2.752  0.00  0.00     0.021 C 
ATOM      9  C   UNL d   1      -0.132   1.362  -1.286  0.00  0.00     0.125 C 
ENDBRANCH   3   5
ENDBRANCH   1   3
BRANCH   1  10
ATOM     10  C   UNL d   1       1.085   0.153   2.360  0.00  0.00     0.062 A 
ATOM     11  C   UNL d   1       0.250   0.024   3.489  0.00  0.00     0.061 A 
ATOM     12 CL   UNL d   1      -1.461  -0.187   3.315  0.00  0.00    -0.082 Cl
ATOM     13  C   UNL d   1       0.775   0.054   4.782  0.00  0.00     0.026 A 
ATOM     14  C   UNL d   1       2.142   0.230   4.968  0.00  0.00     0.002 A 
ATOM     15  C   UNL d   1       2.972   0.417   3.864  0.00  0.00     0.009 A 
ATOM     16  C   UNL d   1       2.456   0.419   2.553  0.00  0.00    -0.034 A 
ATOM     17  C   UNL d   1       3.417   0.775   1.449  0.00  0.00     0.050 C 
ENDBRANCH   1  10
TORSDOF 3
