REMARK  4 active torsions:
REMARK  status: ('A' for Active; 'I' for Inactive)
REMARK    1  A    between atoms: C_5  and  C_1 
REMARK    2  A    between atoms: N_8  and  C_2 
REMARK       I    between atoms: C_9  and  N_8 
REMARK       I    between atoms: N_10  and  C_9 
REMARK    3  A    between atoms: N_13  and  N_10 
REMARK    4  A    between atoms: C_17  and  N_13 
ROOT
ATOM      1  C   UNL d   1      -1.651  -0.961   0.067  0.00  0.00     0.097 A 
ATOM      2  C   UNL d   1      -0.231  -1.131   0.175  0.00  0.00     0.097 A 
ATOM      3  N   UNL d   1      -1.996   0.293   0.393  0.00  0.00    -0.258 N 
ATOM      4  HN  UNL d   1      -2.939   0.683   0.409  1.00  0.00     0.195 HD
ATOM      5  C   UNL d   1       0.230   0.098   0.594  0.00  0.00     0.101 A 
ATOM      6  O   UNL d   1      -0.826   0.950   0.699  0.00  0.00    -0.240 OA
ATOM      7  C   UNL d   1       1.551   0.713   0.833  0.00  0.00     0.081 C 
ENDROOT
BRANCH   2   8
ATOM      8  N   UNL d   1       0.496  -2.267  -0.138  0.00  0.00    -0.308 N 
ATOM      9  C   UNL d   1       1.535  -2.840   0.541  0.00  0.00     0.313 C 
ATOM     10  N   UNL d   1       1.722  -2.447   1.855  0.00  0.00    -0.172 NA
ATOM     11  O   UNL d   1       2.170  -3.761   0.025  0.00  0.00    -0.252 OA
ATOM     12  H   UNL d   1       0.870  -2.149   2.318  0.00  0.00     0.152 HD
ATOM     13  H   UNL d   1       0.112  -2.891  -0.838  0.00  0.00     0.170 HD
BRANCH  10  14
ATOM     14  N   UNL d   1       2.436  -3.396   2.630  0.00  0.00    -0.219 NA
ATOM     15  H   UNL d   1       3.046  -3.982   2.048  0.00  0.00     0.147 HD
BRANCH  14  16
ATOM     16  C   UNL d   1       3.062  -2.934   3.808  0.00  0.00     0.023 A 
ATOM     17  C   UNL d   1       2.685  -1.769   4.486  0.00  0.00     0.025 A 
ATOM     18  C   UNL d   1       3.255  -1.437   5.720  0.00  0.00     0.002 A 
ATOM     19  C   UNL d   1       4.197  -2.278   6.311  0.00  0.00     0.000 A 
ATOM     20  C   UNL d   1       4.565  -3.454   5.668  0.00  0.00     0.002 A 
ATOM     21  C   UNL d   1       3.995  -3.783   4.434  0.00  0.00     0.025 A 
ENDBRANCH  14  16
ENDBRANCH  10  14
ENDBRANCH   2   8
BRANCH   1  22
ATOM     22  C   UNL d   1      -2.675  -1.974  -0.201  0.00  0.00     0.038 A 
ATOM     23  C   UNL d   1      -2.780  -3.118   0.619  0.00  0.00     0.048 A 
ATOM     24 CL   UNL d   1      -1.784  -3.377   2.016  0.00  0.00    -0.083 Cl
ATOM     25  C   UNL d   1      -3.749  -4.098   0.371  0.00  0.00     0.025 A 
ATOM     26  C   UNL d   1      -4.659  -3.938  -0.668  0.00  0.00     0.003 A 
ATOM     27  C   UNL d   1      -4.596  -2.799  -1.466  0.00  0.00     0.025 A 
ATOM     28  C   UNL d   1      -3.607  -1.827  -1.245  0.00  0.00     0.048 A 
ATOM     29 CL   UNL d   1      -3.596  -0.481  -2.334  0.00  0.00    -0.083 Cl
ENDBRANCH   1  22
TORSDOF 4
