REMARK  4 active torsions:
REMARK  status: ('A' for Active; 'I' for Inactive)
REMARK    1  A    between atoms: C_2  and  C_1 
REMARK    2  A    between atoms: C_10  and  C_2 
REMARK    3  A    between atoms: N_5  and  C_3 
REMARK       I    between atoms: C_4  and  N_5 
REMARK    4  A    between atoms: C_6  and  C_4 
ROOT
ATOM      1  C   UNL d   1       1.344   1.111  -0.396  0.00  0.00     0.043 A 
ATOM      2  C   UNL d   1       2.271   0.092  -0.098  0.00  0.00     0.049 A 
ATOM      3  C   UNL d   1      -0.037   0.831  -0.318  0.00  0.00     0.041 A 
ATOM      4  C   UNL d   1       1.785  -1.192   0.219  0.00  0.00     0.032 A 
ATOM      5  C   UNL d   1      -0.489  -0.432   0.052  0.00  0.00     0.035 A 
ATOM      6  C   UNL d   1       0.417  -1.450   0.308  0.00  0.00     0.026 A 
ATOM      7 CL   UNL d   1      -2.178  -0.745   0.145  0.00  0.00    -0.084 Cl
ENDROOT
BRANCH   2   8
ATOM      8  N   UNL d   1       3.681   0.198  -0.090  0.00  0.00    -0.322 N 
ATOM      9  C   UNL d   1       4.426   1.315   0.241  0.00  0.00     0.256 C 
ATOM     10  O   UNL d   1       3.981   2.385   0.641  0.00  0.00    -0.267 OA
ATOM     11  H   UNL d   1       4.183  -0.669  -0.212  0.00  0.00     0.169 HD
BRANCH   9  12
ATOM     12  C   UNL d   1       5.911   1.122   0.180  0.00  0.00     0.032 A 
ATOM     13  C   UNL d   1       6.711   2.199  -0.226  0.00  0.00     0.018 A 
ATOM     14  C   UNL d   1       8.105   2.063  -0.286  0.00  0.00     0.025 A 
ATOM     15  C   UNL d   1       8.698   0.854   0.069  0.00  0.00     0.034 A 
ATOM     16  C   UNL d   1       7.916  -0.221   0.488  0.00  0.00     0.025 A 
ATOM     17 CL   UNL d   1      10.410   0.685   0.003  0.00  0.00    -0.084 Cl
ATOM     18  C   UNL d   1       6.523  -0.086   0.550  0.00  0.00     0.018 A 
ENDBRANCH   9  12
ENDBRANCH   2   8
BRANCH   1  19
ATOM     19  C   UNL d   1       1.718   2.391  -1.067  0.00  0.00     0.194 C 
ATOM     20  O   UNL d   1       2.553   2.365  -1.971  0.00  0.00    -0.287 OA
BRANCH  19  21
ATOM     21  C   UNL d   1       0.945   3.643  -0.811  0.00  0.00     0.015 A 
ATOM     22  C   UNL d   1       0.715   4.511  -1.887  0.00  0.00     0.015 A 
ATOM     23  C   UNL d   1      -0.107   5.629  -1.728  0.00  0.00     0.001 A 
ATOM     24  C   UNL d   1      -0.695   5.891  -0.492  0.00  0.00     0.000 A 
ATOM     25  C   UNL d   1      -0.445   5.049   0.592  0.00  0.00     0.001 A 
ATOM     26  C   UNL d   1       0.383   3.932   0.440  0.00  0.00     0.015 A 
ENDBRANCH  19  21
ENDBRANCH   1  19
TORSDOF 4
