REMARK  6 active torsions:
REMARK  status: ('A' for Active; 'I' for Inactive)
REMARK    1  A    between atoms: C_7  and  C_1 
REMARK    2  A    between atoms: C_2  and  N_6 
REMARK    3  A    between atoms: N_10  and  C_2 
REMARK    4  A    between atoms: C_5  and  C_17 
REMARK    5  A    between atoms: N_6  and  C_18 
REMARK    6  A    between atoms: C_17  and  N_10 
ROOT
ATOM      1  C   UNL d   1       0.153  -2.479   0.024  0.00  0.00     0.015 A 
ATOM      2  C   UNL d   1      -0.572  -3.006  -1.050  0.00  0.00     0.018 A 
ATOM      3  C   UNL d   1       0.825  -3.345   0.893  0.00  0.00     0.018 A 
ATOM      4  C   UNL d   1       0.010  -5.256  -0.366  0.00  0.00     0.034 A 
ATOM      5  C   UNL d   1      -0.647  -4.388  -1.240  0.00  0.00     0.030 A 
ATOM      6  C   UNL d   1       0.768  -4.728   0.684  0.00  0.00     0.030 A 
ENDROOT
BRANCH   4   7
ATOM      7  N   UNL d   1       0.026  -6.649  -0.559  0.00  0.00    -0.333 N 
ATOM      8  H   UNL d   1       0.767  -7.154  -0.080  0.00  0.00     0.168 HD
BRANCH   7   9
ATOM      9  C   UNL d   1      -0.925  -7.465  -1.112  0.00  0.00     0.172 C 
ATOM     10  S   UNL d   1      -2.574  -7.208  -1.191  0.00  0.00    -0.041 SA
BRANCH   9  11
ATOM     11  N   UNL d   1      -0.449  -8.652  -1.607  0.00  0.00    -0.361 N 
ATOM     12  H   UNL d   1      -1.181  -9.228  -2.003  0.00  0.00     0.162 HD
BRANCH  11  13
ATOM     13  C   UNL d   1       0.875  -8.826  -2.183  0.00  0.00     0.187 C 
BRANCH  13  14
ATOM     14  C   UNL d   1       1.853  -9.231  -1.145  0.00  0.00     0.070 A 
ATOM     15  O   UNL d   1       2.452  -8.224  -0.441  0.00  0.00    -0.325 OA
ATOM     16  C   UNL d   1       3.335  -8.803   0.410  0.00  0.00     0.142 A 
ATOM     17  C   UNL d   1       3.310 -10.172   0.271  0.00  0.00     0.027 A 
ATOM     18  C   UNL d   1       2.348 -10.449  -0.731  0.00  0.00     0.036 A 
ENDBRANCH  13  14
ENDBRANCH  11  13
ENDBRANCH   9  11
ENDBRANCH   7   9
ENDBRANCH   4   7
BRANCH   1  19
ATOM     19  C   UNL d   1       0.188  -1.017   0.199  0.00  0.00     0.148 C 
ATOM     20  N   UNL d   1      -0.348  -0.146  -0.598  0.00  0.00    -0.368 N 
ATOM     21  C   UNL d   1       0.015   1.140   0.004  0.00  0.00     0.148 C 
ATOM     22  HN  UNL d   1      -0.894  -0.315  -1.443  1.00  0.00     0.161 HD
ATOM     23  C   UNL d   1       0.551   0.798   1.375  0.00  0.00     0.197 C 
ATOM     24  O   UNL d   1       0.834  -0.592   1.312  0.00  0.00    -0.334 OA
ENDBRANCH   1  19
TORSDOF 6
