REMARK  3 active torsions:
REMARK  status: ('A' for Active; 'I' for Inactive)
REMARK    1  A    between atoms: N_2  and  C_1 
REMARK    2  A    between atoms: N_3  and  C_1 
REMARK    3  A    between atoms: C_5  and  N_3 
ROOT
ATOM      1  C   UNL d   1       1.114  -0.193   0.075  0.00  0.00     0.179 C 
ATOM      2  S   UNL d   1       2.795   0.055   0.127  0.00  0.00    -0.040 SA
ENDROOT
BRANCH   1   3
ATOM      3  N   UNL d   1       0.394  -0.656   1.202  0.00  0.00    -0.323 N 
ATOM      4  C   UNL d   1      -0.744  -1.585   1.231  0.00  0.00     0.049 C 
ATOM      5  C   UNL d   1      -1.322  -1.889   2.503  0.00  0.00    -0.031 C 
ATOM      6  C   UNL d   1      -1.293  -2.292   0.135  0.00  0.00    -0.035 C 
ATOM      7  C   UNL d   1      -2.509  -2.639   2.625  0.00  0.00     0.009 C 
ATOM      8  C   UNL d   1      -0.679  -1.501   3.816  0.00  0.00     0.042 C 
ATOM      9  C   UNL d   1      -3.128  -3.162   1.509  0.00  0.00     0.001 C 
ATOM     10  C   UNL d   1      -2.511  -3.007   0.280  0.00  0.00     0.009 C 
ATOM     11  C   UNL d   1       0.748  -1.049   3.619  0.00  0.00     0.025 C 
ATOM     12  C   UNL d   1       0.734  -0.035   2.502  0.00  0.00     0.132 C 
ATOM     13  C   UNL d   1      -0.671  -2.472  -1.218  0.00  0.00     0.050 C 
ENDBRANCH   1   3
BRANCH   1  14
ATOM     14  N   UNL d   1       0.332   0.203  -1.000  0.00  0.00    -0.333 N 
ATOM     15  H   UNL d   1      -0.605   0.500  -0.757  0.00  0.00     0.168 HD
BRANCH  14  16
ATOM     16  C   UNL d   1       0.672   0.207  -2.388  0.00  0.00     0.040 A 
ATOM     17  C   UNL d   1      -0.081   0.952  -3.311  0.00  0.00    -0.035 A 
ATOM     18  C   UNL d   1       0.087   0.708  -4.690  0.00  0.00     0.015 A 
ATOM     19  C   UNL d   1      -1.050   2.035  -2.922  0.00  0.00     0.050 C 
ATOM     20  C   UNL d   1       0.995  -0.251  -5.164  0.00  0.00    -0.061 A 
ATOM     21  C   UNL d   1       1.800  -0.914  -4.245  0.00  0.00     0.009 A 
ATOM     22  C   UNL d   1       1.113  -0.545  -6.627  0.00  0.00     0.048 C 
ATOM     23  C   UNL d   1       1.637  -0.687  -2.881  0.00  0.00     0.030 A 
ENDBRANCH  14  16
ENDBRANCH   1  14
TORSDOF 3
