REMARK  4 active torsions:
REMARK  status: ('A' for Active; 'I' for Inactive)
REMARK    1  A    between atoms: C_4  and  C_1 
REMARK       I    between atoms: C_3  and  N_2 
REMARK    2  A    between atoms: C_7  and  C_3 
REMARK    3  A    between atoms: S_9  and  C_7 
REMARK    4  A    between atoms: C_15  and  S_9 
ROOT
ATOM      1  N   UNL d   1      -1.350  -2.742   0.379  0.00  0.00    -0.351 N 
ATOM      2  C   UNL d   1      -2.153  -3.737   0.938  0.00  0.00     0.229 C 
ATOM      3  C   UNL d   1       0.512  -0.680   1.232  0.00  0.00     0.096 C 
ATOM      4  C   UNL d   1       0.066  -2.889   0.059  0.00  0.00     0.126 C 
ATOM      5  C   UNL d   1      -1.817  -1.355   0.408  0.00  0.00     0.126 C 
ATOM      6  O   UNL d   1      -3.234  -3.476   1.460  0.00  0.00    -0.273 OA
ATOM      7  C   UNL d   1       0.886  -2.169   1.127  0.00  0.00     0.033 C 
ATOM      8  C   UNL d   1      -1.014  -0.524   1.419  0.00  0.00     0.033 C 
ENDROOT
BRANCH   2   9
ATOM      9  C   UNL d   1      -1.698  -5.196   0.842  0.00  0.00     0.182 C 
BRANCH   9  10
ATOM     10  S   UNL d   1      -0.491  -5.598   2.153  0.00  0.00    -0.121 SA
BRANCH  10  11
ATOM     11  C   UNL d   1      -0.196  -7.341   1.879  0.00  0.00     0.001 A 
ATOM     12  C   UNL d   1       1.126  -7.813   1.925  0.00  0.00     0.020 A 
ATOM     13  C   UNL d   1       1.406  -9.182   1.864  0.00  0.00     0.025 A 
ATOM     14  C   UNL d   1       0.355 -10.093   1.763  0.00  0.00     0.034 A 
ATOM     15  C   UNL d   1      -0.962  -9.640   1.691  0.00  0.00     0.025 A 
ATOM     16 CL   UNL d   1       0.684 -11.782   1.759  0.00  0.00    -0.084 Cl
ATOM     17  C   UNL d   1      -1.234  -8.268   1.750  0.00  0.00     0.020 A 
ENDBRANCH  10  11
ENDBRANCH   9  10
ENDBRANCH   2   9
BRANCH   3  18
ATOM     18  C   UNL d   1       1.035   0.145   0.056  0.00  0.00     0.391 C 
ATOM     19  F   UNL d   1       2.052  -0.476  -0.580  0.00  0.00    -0.171 F 
ATOM     20  F   UNL d   1       1.507   1.335   0.493  0.00  0.00    -0.171 F 
ATOM     21  F   UNL d   1       0.086   0.406  -0.865  0.00  0.00    -0.171 F 
ENDBRANCH   3  18
TORSDOF 4
