REMARK  7 active torsions:
REMARK  status: ('A' for Active; 'I' for Inactive)
REMARK    1  A    between atoms: N_7  and  S_1 
REMARK    2  A    between atoms: C_10  and  S_1 
REMARK    3  A    between atoms: C_16  and  N_2 
REMARK    4  A    between atoms: C_3  and  N_9 
REMARK    5  A    between atoms: C_8  and  C_3 
REMARK    6  A    between atoms: N_9  and  C_19 
REMARK    7  A    between atoms: C_20  and  C_14 
ROOT
ATOM      1  N   UNL d   1      -3.901   4.327  -1.907  0.00  0.00    -0.281 N 
ATOM      2  C   UNL d   1      -2.406   5.953  -0.997  0.00  0.00     0.139 A 
ATOM      3  C   UNL d   1      -4.264   4.499  -0.607  0.00  0.00     0.230 A 
ATOM      4  C   UNL d   1      -2.836   5.131  -2.233  0.00  0.00     0.259 A 
ATOM      5  C   UNL d   1      -3.442   5.552   0.046  0.00  0.00     0.148 A 
ATOM      6  O   UNL d   1      -5.131   3.921   0.029  0.00  0.00    -0.273 OA
ATOM      7  O   UNL d   1      -2.270   5.154  -3.321  0.00  0.00    -0.270 OA
ENDROOT
BRANCH   2   8
ATOM      8  N   UNL d   1      -1.030   5.572  -0.601  0.00  0.00    -0.369 N 
ATOM      9  H   UNL d   1      -0.624   4.832  -1.171  0.00  0.00     0.161 HD
BRANCH   8  10
ATOM     10  C   UNL d   1      -0.526   5.686   0.688  0.00  0.00     0.029 A 
ATOM     11  C   UNL d   1       0.469   4.794   1.121  0.00  0.00     0.031 A 
ATOM     12  C   UNL d   1       0.943   4.817   2.440  0.00  0.00     0.027 A 
ATOM     13  C   UNL d   1       0.425   5.748   3.338  0.00  0.00     0.074 A 
ATOM     14  C   UNL d   1      -0.523   6.679   2.920  0.00  0.00     0.027 A 
ATOM     15  C   UNL d   1      -0.975   6.653   1.600  0.00  0.00     0.031 A 
BRANCH  13  16
ATOM     16  S   UNL d   1       1.006   5.783   5.014  0.00  0.00     0.243 S 
ATOM     17  O   UNL d   1       2.453   5.846   4.954  0.00  0.00    -0.206 OA
ATOM     18  O   UNL d   1       0.242   6.764   5.745  0.00  0.00    -0.206 OA
BRANCH  16  19
ATOM     19  N   UNL d   1       0.575   4.236   5.611  0.00  0.00    -0.206 NA
ATOM     20  C   UNL d   1      -0.878   3.956   5.738  0.00  0.00     0.107 C 
ATOM     21  C   UNL d   1      -1.205   4.322   7.173  0.00  0.00     0.017 C 
ATOM     22  C   UNL d   1       0.023   3.871   7.941  0.00  0.00     0.017 C 
ATOM     23  C   UNL d   1       1.176   3.924   6.942  0.00  0.00     0.107 C 
ENDBRANCH  16  19
ENDBRANCH  13  16
ENDBRANCH   8  10
ENDBRANCH   2   8
BRANCH   2  24
ATOM     24  C   UNL d   1      -2.481   7.423  -1.363  0.00  0.00     0.015 C 
ATOM     25  C   UNL d   1      -1.459   8.183  -1.797  0.00  0.00     0.010 C 
BRANCH  25  26
ATOM     26  C   UNL d   1      -1.549   9.615  -2.114  0.00  0.00    -0.036 A 
ATOM     27  C   UNL d   1      -2.430  10.483  -1.455  0.00  0.00     0.011 A 
ATOM     28  C   UNL d   1      -2.433  11.850  -1.743  0.00  0.00     0.001 A 
ATOM     29  C   UNL d   1      -1.547  12.367  -2.685  0.00  0.00     0.000 A 
ATOM     30  C   UNL d   1      -0.661  11.517  -3.342  0.00  0.00     0.001 A 
ATOM     31  C   UNL d   1      -0.660  10.150  -3.056  0.00  0.00     0.011 A 
ENDBRANCH  25  26
ENDBRANCH   2  24
BRANCH   1  32
ATOM     32  C   UNL d   1      -4.478   3.377  -2.877  0.00  0.00     0.096 C 
ATOM     33  C   UNL d   1      -5.954   3.631  -3.206  0.00  0.00     0.026 C 
ATOM     34  C   UNL d   1      -6.930   3.133  -2.148  0.00  0.00     0.002 C 
ATOM     35  C   UNL d   1      -6.643   1.708  -1.672  0.00  0.00     0.000 C 
ATOM     36  C   UNL d   1      -5.171   1.363  -1.441  0.00  0.00     0.002 C 
ATOM     37  C   UNL d   1      -4.245   1.902  -2.524  0.00  0.00     0.026 C 
ENDBRANCH   1  32
TORSDOF 7
