REMARK  4 active torsions:
REMARK  status: ('A' for Active; 'I' for Inactive)
REMARK    1  A    between atoms: C_13  and  N_1 
REMARK    2  A    between atoms: C_12  and  N_3 
REMARK    3  A    between atoms: S_7  and  C_15 
REMARK    4  A    between atoms: C_24  and  C_13 
ROOT
ATOM      1  N   UNL d   1       2.107   0.658   0.023  0.00  0.00    -0.260 N 
ATOM      2  C   UNL d   1       2.140  -0.748   0.145  0.00  0.00     0.338 A 
ATOM      3  N   UNL d   1       0.909  -1.428   0.089  0.00  0.00    -0.247 N 
ATOM      4  C   UNL d   1      -0.266  -0.704   0.032  0.00  0.00     0.150 A 
ATOM      5  C   UNL d   1      -0.238   0.658  -0.034  0.00  0.00     0.147 A 
ATOM      6  C   UNL d   1       0.949   1.432  -0.054  0.00  0.00     0.282 A 
ATOM      7  N   UNL d   1      -1.555  -1.161  -0.008  0.00  0.00    -0.336 N 
ATOM      8  HN  UNL d   1      -1.869  -2.131   0.003  1.00  0.00     0.168 HD
ATOM      9  N   UNL d   1      -1.541   1.060  -0.073  0.00  0.00    -0.345 N 
ATOM     10  C   UNL d   1      -2.304  -0.078  -0.063  0.00  0.00     0.182 A 
ATOM     11  O   UNL d   1       3.209  -1.335   0.352  0.00  0.00    -0.246 OA
ATOM     12  O   UNL d   1       0.925   2.659  -0.116  0.00  0.00    -0.265 OA
ATOM     13  H   UNL d   1      -1.873   2.015  -0.107  0.00  0.00     0.167 HD
ENDROOT
BRANCH   3  14
ATOM     14  C   UNL d   1       0.846  -2.851   0.139  0.00  0.00     0.045 A 
ATOM     15  C   UNL d   1      -0.041  -3.521   0.995  0.00  0.00     0.031 A 
ATOM     16  C   UNL d   1      -0.019  -4.917   1.102  0.00  0.00     0.026 A 
ATOM     17  C   UNL d   1       0.878  -5.654   0.326  0.00  0.00     0.059 A 
ATOM     18  C   UNL d   1       1.733  -5.013  -0.570  0.00  0.00     0.026 A 
ATOM     19  C   UNL d   1       1.726  -3.617  -0.646  0.00  0.00     0.031 A 
BRANCH  17  20
ATOM     20  S   UNL d   1       0.883  -7.429   0.418  0.00  0.00     0.171 S 
ATOM     21  O   UNL d   1      -0.398  -7.843   0.966  0.00  0.00    -0.223 OA
ATOM     22  O   UNL d   1       1.336  -7.932  -0.864  0.00  0.00    -0.223 OA
ATOM     23  C   UNL d   1       2.132  -7.794   1.623  0.00  0.00     0.167 C 
ENDBRANCH  17  20
ENDBRANCH   3  14
BRANCH   1  24
ATOM     24  C   UNL d   1       3.383   1.365   0.040  0.00  0.00     0.175 C 
BRANCH  24  25
ATOM     25  C   UNL d   1       4.007   1.439  -1.337  0.00  0.00    -0.040 A 
ATOM     26  C   UNL d   1       3.718   2.506  -2.198  0.00  0.00     0.009 A 
ATOM     27  C   UNL d   1       4.235   2.530  -3.495  0.00  0.00     0.001 A 
ATOM     28  C   UNL d   1       5.045   1.488  -3.945  0.00  0.00     0.000 A 
ATOM     29  C   UNL d   1       5.359   0.434  -3.091  0.00  0.00     0.001 A 
ATOM     30  C   UNL d   1       4.845   0.410  -1.794  0.00  0.00     0.009 A 
ENDBRANCH  24  25
ENDBRANCH   1  24
TORSDOF 4
