REMARK  3 active torsions:
REMARK  status: ('A' for Active; 'I' for Inactive)
REMARK       I    between atoms: N_4  and  C_1 
REMARK    1  A    between atoms: O_7  and  C_1 
REMARK    2  A    between atoms: N_2  and  N_4 
REMARK    3  A    between atoms: C_10  and  O_7 
ROOT
ATOM      1  N   UNL d   1       1.128   0.700  -2.181  0.00  0.00    -0.305 N 
ATOM      2  HN  UNL d   1       1.020   1.654  -2.524  1.00  0.00     0.186 HD
ATOM      3  C   UNL d   1       1.928  -0.144  -2.756  0.00  0.00     0.004 C 
ATOM      4  C   UNL d   1       2.225  -1.556  -2.314  0.00  0.00     0.054 C 
ATOM      5  C   UNL d   1       2.713   0.242  -3.980  0.00  0.00     0.054 C 
ATOM      6  C   UNL d   1       3.877  -0.735  -3.891  0.00  0.00     0.006 C 
ATOM      7  C   UNL d   1       3.262  -2.014  -3.335  0.00  0.00     0.006 C 
ENDROOT
BRANCH   1   8
ATOM      8  N   UNL d   1       0.438   0.248  -1.097  0.00  0.00    -0.245 N 
ATOM      9  C   UNL d   1      -0.351   1.046  -0.296  0.00  0.00     0.379 C 
ATOM     10  O   UNL d   1      -1.036   0.562   0.601  0.00  0.00    -0.237 OA
ATOM     11  H   UNL d   1       0.404  -0.737  -0.874  0.00  0.00     0.192 HD
BRANCH   9  12
ATOM     12  O   UNL d   1      -0.270   2.374  -0.580  0.00  0.00    -0.303 OA
BRANCH  12  13
ATOM     13  C   UNL d   1      -1.080   3.232   0.235  0.00  0.00     0.176 C 
ATOM     14  C   UNL d   1      -0.423   3.501   1.579  0.00  0.00     0.034 C 
ENDBRANCH  12  13
ENDBRANCH   9  12
ENDBRANCH   1   8
TORSDOF 3
