REMARK  4 active torsions:
REMARK  status: ('A' for Active; 'I' for Inactive)
REMARK    1  A    between atoms: N_11  and  C_3 
REMARK    2  A    between atoms: N_12  and  C_5 
REMARK    3  A    between atoms: S_10  and  C_8 
REMARK    4  A    between atoms: C_13  and  S_10 
ROOT
ATOM      1  N   UNL d   1       1.929  -0.716  -0.065  0.00  0.00    -0.323 N 
ATOM      2  HN  UNL d   1       2.800  -1.248  -0.049  1.00  0.00     0.169 HD
ATOM      3  C   UNL d   1       0.734  -1.324   0.012  0.00  0.00     0.094 A 
ATOM      4  C   UNL d   1      -0.501  -0.641  -0.002  0.00  0.00     0.046 A 
ATOM      5  C   UNL d   1       1.926   0.607  -0.162  0.00  0.00     0.156 A 
ATOM      6  N   UNL d   1       0.836   1.367  -0.134  0.00  0.00    -0.332 N 
ATOM      7  HN  UNL d   1       0.901   2.385  -0.170  1.00  0.00     0.168 HD
ATOM      8  C   UNL d   1      -1.834  -1.180   0.035  0.00  0.00     0.021 A 
ATOM      9  C   UNL d   1      -0.347   0.753  -0.057  0.00  0.00     0.049 A 
ATOM     10  C   UNL d   1      -2.941  -0.319   0.088  0.00  0.00     0.020 A 
ATOM     11  C   UNL d   1      -1.469   1.570  -0.025  0.00  0.00     0.030 A 
ATOM     12  C   UNL d   1      -2.759   1.055   0.056  0.00  0.00     0.004 A 
ENDROOT
BRANCH   8  13
ATOM     13  S   UNL d   1      -2.227  -2.933   0.023  0.00  0.00    -0.090 SA
BRANCH  13  14
ATOM     14  C   UNL d   1      -2.237  -3.354  -1.716  0.00  0.00     0.005 A 
ATOM     15  C   UNL d   1      -1.821  -4.639  -2.084  0.00  0.00     0.019 A 
ATOM     16  C   UNL d   1      -1.859  -5.050  -3.421  0.00  0.00     0.008 A 
ATOM     17  C   UNL d   1      -2.324  -4.183  -4.415  0.00  0.00    -0.062 A 
ATOM     18  C   UNL d   1      -2.734  -2.897  -4.051  0.00  0.00     0.008 A 
ATOM     19  C   UNL d   1      -2.392  -4.640  -5.842  0.00  0.00     0.048 C 
ATOM     20  C   UNL d   1      -2.695  -2.489  -2.713  0.00  0.00     0.019 A 
ENDBRANCH  13  14
ENDBRANCH   8  13
BRANCH   3  21
ATOM     21  N   UNL d   1       0.836  -2.700   0.215  0.00  0.00    -0.288 NA
ATOM     22  H   UNL d   1       1.807  -2.969   0.096  0.00  0.00     0.125 HD
ATOM     23  H   UNL d   1       0.198  -3.224  -0.373  0.00  0.00     0.125 HD
ENDBRANCH   3  21
BRANCH   5  24
ATOM     24  N   UNL d   1       3.147   1.244  -0.243  0.00  0.00    -0.274 NA
ATOM     25  H   UNL d   1       3.862   0.653   0.157  0.00  0.00     0.127 HD
ATOM     26  H   UNL d   1       3.065   2.182   0.125  0.00  0.00     0.127 HD
ENDBRANCH   5  24
TORSDOF 4
