REMARK  3 active torsions:
REMARK  status: ('A' for Active; 'I' for Inactive)
REMARK    1  A    between atoms: C_9  and  N_1 
REMARK    2  A    between atoms: C_12  and  N_3 
REMARK    3  A    between atoms: C_14  and  C_9 
ROOT
ATOM      1  N   UNL d   1      -0.667   1.193  -0.063  0.00  0.00    -0.258 N 
ATOM      2  C   UNL d   1      -1.387   0.011  -0.216  0.00  0.00     0.351 A 
ATOM      3  N   UNL d   1      -0.651  -1.184  -0.050  0.00  0.00    -0.204 N 
ATOM      4  N   UNL d   1       0.719  -1.225   0.134  0.00  0.00    -0.275 N 
ATOM      5  HN  UNL d   1       1.208  -2.112   0.251  1.00  0.00     0.188 HD
ATOM      6  C   UNL d   1       0.702   1.228   0.078  0.00  0.00     0.290 A 
ATOM      7  C   UNL d   1       1.363  -0.103   0.153  0.00  0.00     0.198 A 
ATOM      8  C   UNL d   1       2.794  -0.270   0.239  0.00  0.00     0.125 C 
ATOM      9  N   UNL d   1       3.946  -0.409   0.290  0.00  0.00    -0.190 NA
ATOM     10  O   UNL d   1      -2.597   0.058  -0.452  0.00  0.00    -0.244 OA
ATOM     11  O   UNL d   1       1.397   2.234   0.138  0.00  0.00    -0.264 OA
ENDROOT
BRANCH   3  12
ATOM     12  C   UNL d   1      -1.274  -2.482  -0.037  0.00  0.00     0.061 A 
ATOM     13  C   UNL d   1      -2.505  -2.730  -0.664  0.00  0.00     0.032 A 
ATOM     14  C   UNL d   1      -3.136  -3.975  -0.569  0.00  0.00     0.002 A 
ATOM     15  C   UNL d   1      -2.545  -5.003   0.155  0.00  0.00     0.000 A 
ATOM     16  C   UNL d   1      -1.308  -4.795   0.757  0.00  0.00     0.002 A 
ATOM     17  C   UNL d   1      -0.670  -3.553   0.648  0.00  0.00     0.032 A 
ENDBRANCH   3  12
BRANCH   1  18
ATOM     18  C   UNL d   1      -1.401   2.453  -0.050  0.00  0.00     0.175 C 
BRANCH  18  19
ATOM     19  C   UNL d   1      -1.924   2.786   1.334  0.00  0.00    -0.040 A 
ATOM     20  C   UNL d   1      -1.150   3.539   2.228  0.00  0.00     0.009 A 
ATOM     21  C   UNL d   1      -1.616   3.807   3.518  0.00  0.00     0.001 A 
ATOM     22  C   UNL d   1      -2.856   3.322   3.931  0.00  0.00     0.000 A 
ATOM     23  C   UNL d   1      -3.638   2.579   3.050  0.00  0.00     0.001 A 
ATOM     24  C   UNL d   1      -3.176   2.313   1.760  0.00  0.00     0.009 A 
ENDBRANCH  18  19
ENDBRANCH   1  18
TORSDOF 3
