REMARK  8 active torsions:
REMARK  status: ('A' for Active; 'I' for Inactive)
REMARK    1  A    between atoms: C_2  and  S_1 
REMARK    2  A    between atoms: N_9  and  S_1 
REMARK    3  A    between atoms: C_3  and  C_5 
REMARK    4  A    between atoms: C_21  and  N_9 
REMARK    5  A    between atoms: C_10  and  C_23 
REMARK    6  A    between atoms: C_24  and  C_21 
REMARK    7  A    between atoms: S_22  and  C_24 
REMARK    8  A    between atoms: C_23  and  S_22 
ROOT
ATOM      1  S   UNL d   1       1.044  -0.086   0.115  0.00  0.00     0.243 S 
ATOM      2  O   UNL d   1       0.686   1.209   0.649  0.00  0.00    -0.206 OA
ATOM      3  O   UNL d   1       0.487  -0.564  -1.133  0.00  0.00    -0.206 OA
ENDROOT
BRANCH   1   4
ATOM      4  C   UNL d   1       0.696  -1.301   1.362  0.00  0.00     0.097 A 
ATOM      5  C   UNL d   1      -0.116  -2.397   1.016  0.00  0.00     0.042 A 
ATOM      6  C   UNL d   1      -0.427  -3.386   1.961  0.00  0.00     0.049 A 
ATOM      7  C   UNL d   1       0.085  -3.260   3.260  0.00  0.00     0.018 A 
ATOM      8  C   UNL d   1       0.887  -2.168   3.604  0.00  0.00     0.026 A 
ATOM      9  C   UNL d   1       1.195  -1.181   2.660  0.00  0.00     0.057 A 
ATOM     10 CL   UNL d   1       2.207   0.111   3.192  0.00  0.00    -0.083 Cl
BRANCH   6  11
ATOM     11  C   UNL d   1      -1.298  -4.570   1.603  0.00  0.00     0.417 C 
ATOM     12  F   UNL d   1      -1.723  -4.560   0.310  0.00  0.00    -0.166 F 
ATOM     13  F   UNL d   1      -0.651  -5.755   1.776  0.00  0.00    -0.166 F 
ATOM     14  F   UNL d   1      -2.421  -4.638   2.369  0.00  0.00    -0.166 F 
ENDBRANCH   6  11
ENDBRANCH   1   4
BRANCH   1  15
ATOM     15  N   UNL d   1       2.719  -0.146  -0.042  0.00  0.00    -0.215 NA
ATOM     16  H   UNL d   1       3.188   0.211   0.798  0.00  0.00     0.140 HD
BRANCH  15  17
ATOM     17  C   UNL d   1       3.314  -1.377  -0.601  0.00  0.00     0.114 C 
BRANCH  17  18
ATOM     18  C   UNL d   1       4.843  -1.289  -0.567  0.00  0.00     0.089 C 
BRANCH  18  19
ATOM     19  S   UNL d   1       5.405  -1.125   1.163  0.00  0.00    -0.161 SA
BRANCH  19  20
ATOM     20  C   UNL d   1       7.205  -1.058   0.883  0.00  0.00     0.139 C 
BRANCH  20  21
ATOM     21  C   UNL d   1       7.906  -0.851   2.175  0.00  0.00     0.061 A 
ATOM     22  O   UNL d   1       8.770  -1.832   2.569  0.00  0.00    -0.326 OA
ATOM     23  C   UNL d   1       9.276  -1.455   3.772  0.00  0.00     0.142 A 
ATOM     24  C   UNL d   1       8.759  -0.241   4.154  0.00  0.00     0.027 A 
ATOM     25  C   UNL d   1       7.879   0.156   3.120  0.00  0.00     0.035 A 
ENDBRANCH  20  21
ENDBRANCH  19  20
ENDBRANCH  18  19
ENDBRANCH  17  18
ENDBRANCH  15  17
ENDBRANCH   1  15
TORSDOF 8
