REMARK  8 active torsions:
REMARK  status: ('A' for Active; 'I' for Inactive)
REMARK    1  A    between atoms: C_5  and  C_1 
REMARK    2  A    between atoms: O_11  and  C_2 
REMARK    3  A    between atoms: O_15  and  C_5 
REMARK    4  A    between atoms: C_13  and  C_9 
REMARK    5  A    between atoms: O_12  and  C_13 
REMARK    6  A    between atoms: C_14  and  O_12 
REMARK    7  A    between atoms: C_22  and  O_15 
REMARK    8  A    between atoms: O_21  and  C_16 
ROOT
ATOM      1  C   UNL d   1      -0.196   1.298   0.042  0.00  0.00     0.105 A 
ATOM      2  C   UNL d   1       0.024   0.600   1.210  0.00  0.00     0.159 A 
ATOM      3  N   UNL d   1       0.668  -0.582   1.257  0.00  0.00    -0.324 N 
ATOM      4  HN  UNL d   1       0.816  -1.074   2.137  1.00  0.00     0.169 HD
ATOM      5  C   UNL d   1       0.295   0.705  -1.100  0.00  0.00     0.111 A 
ATOM      6  N   UNL d   1       0.943  -0.478  -1.109  0.00  0.00    -0.353 N 
ATOM      7  HN  UNL d   1       1.291  -0.893  -1.974  1.00  0.00     0.166 HD
ATOM      8  C   UNL d   1       1.108  -1.083   0.086  0.00  0.00     0.107 A 
ENDROOT
BRANCH   8   9
ATOM      9  C   UNL d   1       1.800  -2.426   0.099  0.00  0.00     0.252 C 
BRANCH   9  10
ATOM     10  O   UNL d   1       3.212  -2.239   0.196  0.00  0.00    -0.344 OA
BRANCH  10  11
ATOM     11  C   UNL d   1       3.980  -3.369   0.168  0.00  0.00     0.069 A 
ATOM     12  C   UNL d   1       3.509  -4.679   0.080  0.00  0.00     0.039 A 
ATOM     13  C   UNL d   1       4.406  -5.755   0.061  0.00  0.00     0.039 A 
ATOM     14  C   UNL d   1       5.779  -5.530   0.136  0.00  0.00     0.068 A 
ATOM     15  C   UNL d   1       6.248  -4.219   0.223  0.00  0.00     0.039 A 
ATOM     16  C   UNL d   1       5.355  -3.145   0.238  0.00  0.00     0.039 A 
BRANCH  14  17
ATOM     17  O   UNL d   1       6.751  -6.492   0.138  0.00  0.00    -0.356 OA
ATOM     18  C   UNL d   1       6.315  -7.843   0.050  0.00  0.00     0.210 C 
ENDBRANCH  14  17
ENDBRANCH  10  11
ENDBRANCH   9  10
ENDBRANCH   8   9
BRANCH   2  19
ATOM     19  O   UNL d   1      -0.419   1.024   2.431  0.00  0.00    -0.345 OA
ATOM     20  H   UNL d   1      -0.908   1.864   2.315  0.00  0.00     0.219 HD
ENDBRANCH   2  19
BRANCH   1  21
ATOM     21  C   UNL d   1      -0.990   2.530   0.020  0.00  0.00     0.299 C 
ATOM     22  O   UNL d   1      -1.502   2.997   1.024  0.00  0.00    -0.259 OA
BRANCH  21  23
ATOM     23  O   UNL d   1      -1.152   2.951  -1.257  0.00  0.00    -0.318 OA
BRANCH  23  24
ATOM     24  C   UNL d   1      -2.261   3.828  -1.494  0.00  0.00     0.174 C 
ATOM     25  C   UNL d   1      -3.487   2.969  -1.748  0.00  0.00     0.034 C 
ENDBRANCH  23  24
ENDBRANCH  21  23
ENDBRANCH   1  21
TORSDOF 8
