REMARK  3 active torsions:
REMARK  status: ('A' for Active; 'I' for Inactive)
REMARK    1  A    between atoms: C_6  and  N_1 
REMARK    2  A    between atoms: S_8  and  C_4 
REMARK    3  A    between atoms: C_12  and  S_8 
ROOT
ATOM      1  N   UNL d   1       0.024   0.883  -0.136  0.00  0.00    -0.250 N 
ATOM      2  C   UNL d   1      -1.112   0.174   0.133  0.00  0.00     0.232 C 
ATOM      3  C   UNL d   1       1.143   0.086  -0.176  0.00  0.00     0.246 C 
ATOM      4  C   UNL d   1       0.699  -1.360  -0.186  0.00  0.00     0.155 C 
ATOM      5  C   UNL d   1      -0.804  -1.289   0.057  0.00  0.00     0.129 C 
ATOM      6  O   UNL d   1      -2.227   0.612   0.389  0.00  0.00    -0.273 OA
ATOM      7  O   UNL d   1       2.309   0.454  -0.139  0.00  0.00    -0.271 OA
ENDROOT
BRANCH   1   8
ATOM      8  C   UNL d   1       0.073   2.292  -0.188  0.00  0.00     0.062 A 
ATOM      9  C   UNL d   1       0.552   2.972  -1.324  0.00  0.00     0.040 A 
ATOM     10  C   UNL d   1       0.547   4.370  -1.367  0.00  0.00     0.045 A 
ATOM     11 BR   UNL d   1       1.060   2.066  -2.919  0.00  0.00    -0.049 Br
ATOM     12  C   UNL d   1       0.078   5.093  -0.273  0.00  0.00     0.035 A 
ATOM     13  C   UNL d   1      -0.400   4.436   0.858  0.00  0.00     0.026 A 
ATOM     14 CL   UNL d   1       0.062   6.813  -0.331  0.00  0.00    -0.084 Cl
ATOM     15  C   UNL d   1      -0.417   3.039   0.894  0.00  0.00     0.033 A 
ENDBRANCH   1   8
BRANCH   4  16
ATOM     16  S   UNL d   1       1.149  -2.076  -1.809  0.00  0.00    -0.097 SA
BRANCH  16  17
ATOM     17  C   UNL d   1       0.695  -3.782  -1.571  0.00  0.00     0.070 A 
ATOM     18  N   UNL d   1       0.061  -4.127  -0.429  0.00  0.00    -0.361 N 
ATOM     19  C   UNL d   1      -0.306  -5.422  -0.296  0.00  0.00     0.089 A 
ATOM     20  HN  UNL d   1      -0.131  -3.441   0.301  1.00  0.00     0.165 HD
ATOM     21  C   UNL d   1      -0.067  -6.395  -1.251  0.00  0.00     0.017 A 
ATOM     22  C   UNL d   1       0.588  -6.021  -2.417  0.00  0.00     0.004 A 
ATOM     23  C   UNL d   1       0.976  -4.694  -2.582  0.00  0.00     0.037 A 
ENDBRANCH  16  17
ENDBRANCH   4  16
TORSDOF 3
