REMARK  5 active torsions:
REMARK  status: ('A' for Active; 'I' for Inactive)
REMARK    1  A    between atoms: C_2  and  S_1 
REMARK    2  A    between atoms: C_3  and  S_1 
REMARK    3  A    between atoms: C_9  and  C_3 
REMARK    4  A    between atoms: S_8  and  C_9 
REMARK    5  A    between atoms: C_10  and  S_8 
ROOT
ATOM      1  S   UNL d   1       1.092   0.098  -0.003  0.00  0.00     0.176 S 
ATOM      2  O   UNL d   1       2.523  -0.134  -0.028  0.00  0.00    -0.223 OA
ATOM      3  O   UNL d   1       0.557   1.401   0.342  0.00  0.00    -0.223 OA
ENDROOT
BRANCH   1   4
ATOM      4  C   UNL d   1       0.387  -1.081   1.131  0.00  0.00     0.059 A 
ATOM      5  C   UNL d   1       1.055  -2.286   1.378  0.00  0.00     0.026 A 
ATOM      6  C   UNL d   1       0.520  -3.191   2.296  0.00  0.00     0.044 A 
ATOM      7  C   UNL d   1      -0.663  -2.880   2.961  0.00  0.00     0.116 A 
ATOM      8  C   UNL d   1      -1.323  -1.677   2.728  0.00  0.00     0.044 A 
ATOM      9  F   UNL d   1      -1.170  -3.749   3.845  0.00  0.00    -0.206 F 
ATOM     10  C   UNL d   1      -0.796  -0.765   1.812  0.00  0.00     0.026 A 
ENDBRANCH   1   4
BRANCH   1  11
ATOM     11  C   UNL d   1       0.421  -0.382  -1.579  0.00  0.00     0.156 C 
BRANCH  11  12
ATOM     12  C   UNL d   1       0.932   0.547  -2.667  0.00  0.00     0.095 C 
BRANCH  12  13
ATOM     13  S   UNL d   1       0.242   0.021  -4.277  0.00  0.00    -0.129 SA
BRANCH  13  14
ATOM     14  C   UNL d   1       0.911   1.293  -5.334  0.00  0.00     0.000 A 
ATOM     15  C   UNL d   1       2.288   1.411  -5.546  0.00  0.00     0.020 A 
ATOM     16  C   UNL d   1       2.789   2.404  -6.395  0.00  0.00     0.025 A 
ATOM     17  C   UNL d   1       1.911   3.275  -7.036  0.00  0.00     0.034 A 
ATOM     18  C   UNL d   1       0.536   3.155  -6.845  0.00  0.00     0.025 A 
ATOM     19 CL   UNL d   1       2.527   4.501  -8.073  0.00  0.00    -0.084 Cl
ATOM     20  C   UNL d   1       0.037   2.160  -5.998  0.00  0.00     0.020 A 
ENDBRANCH  13  14
ENDBRANCH  12  13
ENDBRANCH  11  12
ENDBRANCH   1  11
TORSDOF 5
