REMARK  4 active torsions:
REMARK  status: ('A' for Active; 'I' for Inactive)
REMARK    1  A    between atoms: C_11  and  N_1 
REMARK    2  A    between atoms: N_7  and  C_2 
REMARK       I    between atoms: C_8  and  N_7 
REMARK    3  A    between atoms: O_13  and  C_8 
REMARK    4  A    between atoms: C_15  and  O_13 
ROOT
ATOM      1  C   UNL d   1       0.492   6.173   1.738  0.00  0.00    -0.091 C 
ATOM      2  C   UNL d   1       0.804   6.357   2.884  0.00  0.00     0.014 C 
ATOM      3  C   UNL d   1       0.136   5.921   0.335  0.00  0.00     0.273 C 
ENDROOT
BRANCH   3   4
ATOM      4  O   UNL d   1      -0.640   4.715   0.217  0.00  0.00    -0.292 OA
BRANCH   4   5
ATOM      5  C   UNL d   1       0.101   3.569   0.158  0.00  0.00     0.367 C 
ATOM      6  N   UNL d   1      -0.747   2.499   0.092  0.00  0.00    -0.287 N 
ATOM      7  H   UNL d   1      -1.733   2.711   0.051  0.00  0.00     0.172 HD
ATOM      8  O   UNL d   1       1.321   3.565   0.148  0.00  0.00    -0.238 OA
BRANCH   6   9
ATOM      9  C   UNL d   1      -0.358   1.178   0.059  0.00  0.00     0.126 C 
ATOM     10  N   UNL d   1       0.893   0.745   0.179  0.00  0.00    -0.278 N 
ATOM     11  N   UNL d   1       0.849  -0.598   0.005  0.00  0.00    -0.259 N 
ATOM     12  HN  UNL d   1       1.721   1.310   0.366  1.00  0.00     0.189 HD
ATOM     13  C   UNL d   1      -0.466  -1.047  -0.055  0.00  0.00     0.034 C 
ATOM     14  C   UNL d   1      -1.249   0.092  -0.066  0.00  0.00     0.076 C 
ATOM     15  C   UNL d   1      -0.889  -2.470   0.007  0.00  0.00     0.070 C 
BRANCH  11  16
ATOM     16  C   UNL d   1       2.064  -1.340  -0.064  0.00  0.00     0.056 A 
ATOM     17  C   UNL d   1       3.206  -0.848   0.585  0.00  0.00     0.031 A 
ATOM     18  C   UNL d   1       4.396  -1.582   0.566  0.00  0.00     0.002 A 
ATOM     19  C   UNL d   1       4.465  -2.789  -0.128  0.00  0.00     0.000 A 
ATOM     20  C   UNL d   1       3.348  -3.258  -0.816  0.00  0.00     0.002 A 
ATOM     21  C   UNL d   1       2.151  -2.537  -0.786  0.00  0.00     0.031 A 
ENDBRANCH  11  16
ENDBRANCH   6   9
ENDBRANCH   4   5
ENDBRANCH   3   4
TORSDOF 4
