REMARK  4 active torsions:
REMARK  status: ('A' for Active; 'I' for Inactive)
REMARK    1  A    between atoms: C_10  and  N_1 
REMARK    2  A    between atoms: C_9  and  N_2 
REMARK    3  A    between atoms: C_13  and  C_9 
REMARK    4  A    between atoms: N_18  and  C_16 
ROOT
ATOM      1  N   UNL d   1       0.878  -1.405   0.037  0.00  0.00    -0.246 N 
ATOM      2  N   UNL d   1       2.094   0.665   0.041  0.00  0.00    -0.259 N 
ATOM      3  C   UNL d   1       2.109  -0.747   0.188  0.00  0.00     0.338 C 
ATOM      4  C   UNL d   1      -0.287  -0.672  -0.054  0.00  0.00     0.150 A 
ATOM      5  C   UNL d   1      -0.250   0.690  -0.091  0.00  0.00     0.147 A 
ATOM      6  C   UNL d   1       0.945   1.452  -0.077  0.00  0.00     0.282 C 
ATOM      7  N   UNL d   1      -1.577  -1.126  -0.065  0.00  0.00    -0.336 N 
ATOM      8  HN  UNL d   1      -1.893  -2.096  -0.051  1.00  0.00     0.168 HD
ATOM      9  N   UNL d   1      -1.552   1.094  -0.124  0.00  0.00    -0.345 N 
ATOM     10  C   UNL d   1      -2.321  -0.041  -0.098  0.00  0.00     0.182 A 
ATOM     11  O   UNL d   1       3.164  -1.352   0.413  0.00  0.00    -0.246 OA
ATOM     12  O   UNL d   1       0.939   2.678  -0.153  0.00  0.00    -0.265 OA
ATOM     13  H   UNL d   1      -1.885   2.049  -0.140  0.00  0.00     0.167 HD
ENDROOT
BRANCH   2  14
ATOM     14  C   UNL d   1       3.379   1.361   0.022  0.00  0.00     0.177 C 
BRANCH  14  15
ATOM     15  C   UNL d   1       3.949   1.463  -1.383  0.00  0.00    -0.019 A 
ATOM     16  C   UNL d   1       3.680   2.545  -2.244  0.00  0.00     0.013 A 
ATOM     17  C   UNL d   1       4.270   2.558  -3.518  0.00  0.00     0.024 A 
ATOM     18  C   UNL d   1       5.033   1.484  -3.978  0.00  0.00     0.002 A 
ATOM     19  C   UNL d   1       5.272   0.403  -3.142  0.00  0.00     0.001 A 
ATOM     20  C   UNL d   1       4.743   0.397  -1.853  0.00  0.00     0.011 A 
BRANCH  16  21
ATOM     21  N   UNL d   1       3.041   3.714  -1.799  0.00  0.00    -0.302 NA
ATOM     22  H   UNL d   1       2.323   3.561  -1.087  0.00  0.00     0.124 HD
ATOM     23  H   UNL d   1       2.673   4.287  -2.552  0.00  0.00     0.124 HD
ENDBRANCH  16  21
ENDBRANCH  14  15
ENDBRANCH   2  14
BRANCH   1  24
ATOM     24  C   UNL d   1       0.741  -2.815   0.141  0.00  0.00     0.051 A 
ATOM     25  C   UNL d   1       0.234  -3.594  -0.921  0.00  0.00    -0.035 A 
ATOM     26  C   UNL d   1      -0.084  -3.034  -2.281  0.00  0.00     0.050 C 
ATOM     27  C   UNL d   1       0.036  -4.973  -0.724  0.00  0.00     0.009 A 
ATOM     28  C   UNL d   1       0.355  -5.575   0.492  0.00  0.00     0.001 A 
ATOM     29  C   UNL d   1       0.892  -4.812   1.524  0.00  0.00     0.002 A 
ATOM     30  C   UNL d   1       1.097  -3.442   1.346  0.00  0.00     0.031 A 
ENDBRANCH   1  24
TORSDOF 4
