REMARK  5 active torsions:
REMARK  status: ('A' for Active; 'I' for Inactive)
REMARK    1  A    between atoms: C_2  and  C_1 
REMARK    2  A    between atoms: O_3  and  C_2 
REMARK    3  A    between atoms: C_7  and  O_3 
REMARK    4  A    between atoms: C_4  and  C_7 
REMARK    5  A    between atoms: C_9  and  C_4 
ROOT
ATOM      1  O   UNL d   1       0.098   3.836   0.082  0.00  0.00    -0.310 OA
ENDROOT
BRANCH   1   2
ATOM      2  C   UNL d   1      -0.647   3.830  -1.041  0.00  0.00     0.295 C 
ATOM      3  O   UNL d   1      -0.200   3.978  -2.171  0.00  0.00    -0.259 OA
BRANCH   2   4
ATOM      4  C   UNL d   1      -2.101   3.579  -0.778  0.00  0.00     0.061 A 
ATOM      5  C   UNL d   1      -2.679   3.215   0.451  0.00  0.00     0.050 A 
ATOM      6 CL   UNL d   1      -1.813   2.980   1.930  0.00  0.00    -0.083 Cl
ATOM      7  C   UNL d   1      -4.064   2.980   0.535  0.00  0.00     0.025 A 
ATOM      8  C   UNL d   1      -4.882   3.092  -0.588  0.00  0.00     0.002 A 
ATOM      9  C   UNL d   1      -4.323   3.441  -1.810  0.00  0.00     0.001 A 
ATOM     10  C   UNL d   1      -2.948   3.683  -1.903  0.00  0.00     0.019 A 
ENDBRANCH   2   4
ENDBRANCH   1   2
BRANCH   1  11
ATOM     11  C   UNL d   1       1.516   3.944  -0.079  0.00  0.00     0.263 C 
BRANCH  11  12
ATOM     12  C   UNL d   1       2.037   5.378  -0.041  0.00  0.00     0.183 C 
ATOM     13  O   UNL d   1       1.285   6.352   0.023  0.00  0.00    -0.290 OA
BRANCH  12  14
ATOM     14  C   UNL d   1       3.521   5.599  -0.059  0.00  0.00     0.012 A 
ATOM     15  C   UNL d   1       4.443   4.543  -0.059  0.00  0.00     0.015 A 
ATOM     16  C   UNL d   1       5.818   4.803  -0.070  0.00  0.00     0.001 A 
ATOM     17  C   UNL d   1       6.285   6.116  -0.082  0.00  0.00     0.000 A 
ATOM     18  C   UNL d   1       5.378   7.172  -0.078  0.00  0.00     0.001 A 
ATOM     19  C   UNL d   1       4.004   6.918  -0.064  0.00  0.00     0.015 A 
ENDBRANCH  12  14
ENDBRANCH  11  12
ENDBRANCH   1  11
TORSDOF 5
