REMARK  8 active torsions:
REMARK  status: ('A' for Active; 'I' for Inactive)
REMARK    1  A    between atoms: N_2  and  C_1 
REMARK    2  A    between atoms: N_3  and  C_8 
REMARK    3  A    between atoms: S_6  and  C_4 
REMARK    4  A    between atoms: C_11  and  S_6 
REMARK    5  A    between atoms: C_14  and  C_7 
REMARK    6  A    between atoms: O_23  and  N_15 
REMARK    7  A    between atoms: C_28  and  O_23 
REMARK    8  A    between atoms: C_26  and  C_28 
ROOT
ATOM      1  C   UNL d   1      -4.290   4.191   1.393  0.00  0.00     0.120 A 
ATOM      2  C   UNL d   1      -5.238   3.506   0.618  0.00  0.00     0.040 A 
ATOM      3  C   UNL d   1      -2.921   3.884   1.336  0.00  0.00     0.051 A 
ATOM      4  C   UNL d   1      -2.474   2.850   0.506  0.00  0.00    -0.010 A 
ATOM      5  C   UNL d   1      -4.771   2.452  -0.185  0.00  0.00     0.022 A 
ATOM      6  C   UNL d   1      -3.406   2.124  -0.242  0.00  0.00     0.015 A 
ENDROOT
BRANCH   4   7
ATOM      7  C   UNL d   1      -1.005   2.607   0.390  0.00  0.00     0.038 C 
ATOM      8  N   UNL d   1      -0.205   3.627   0.516  0.00  0.00    -0.270 N 
ATOM      9  HN  UNL d   1      -0.513   4.579   0.712  1.00  0.00     0.194 HD
ATOM     10  C   UNL d   1      -0.501   1.206   0.100  0.00  0.00     0.071 C 
BRANCH   8  11
ATOM     11  O   UNL d   1       1.135   3.245   0.348  0.00  0.00    -0.276 OA
BRANCH  11  12
ATOM     12  C   UNL d   1       1.888   4.383  -0.076  0.00  0.00     0.239 C 
BRANCH  12  13
ATOM     13  C   UNL d   1       3.324   3.960  -0.268  0.00  0.00    -0.032 A 
ATOM     14  C   UNL d   1       3.921   4.002  -1.538  0.00  0.00     0.012 A 
ATOM     15  C   UNL d   1       5.243   3.588  -1.715  0.00  0.00     0.037 A 
ATOM     16  C   UNL d   1       5.976   3.126  -0.614  0.00  0.00     0.102 A 
ATOM     17  C   UNL d   1       5.397   3.087   0.660  0.00  0.00     0.037 A 
ATOM     18  C   UNL d   1       4.075   3.505   0.827  0.00  0.00     0.012 A 
BRANCH  16  19
ATOM     19  N   UNL d   1       7.359   2.671  -0.799  0.00  0.00    -0.116 N 
ATOM     20  O   UNL d   1       7.833   2.718  -1.943  0.00  0.00    -0.532 OA
ATOM     21  O   UNL d   1       7.971   2.263   0.198  0.00  0.00    -0.532 OA
ENDBRANCH  16  19
ENDBRANCH  12  13
ENDBRANCH  11  12
ENDBRANCH   8  11
ENDBRANCH   4   7
BRANCH   1  22
ATOM     22  N   UNL d   1      -4.688   5.225   2.327  0.00  0.00    -0.114 N 
ATOM     23  O   UNL d   1      -5.476   4.902   3.230  0.00  0.00    -0.532 OA
ATOM     24  O   UNL d   1      -4.138   6.332   2.221  0.00  0.00    -0.532 OA
ENDBRANCH   1  22
BRANCH   2  25
ATOM     25  S   UNL d   1      -6.993   3.850   0.564  0.00  0.00    -0.070 SA
BRANCH  25  26
ATOM     26  C   UNL d   1      -7.080   5.410  -0.312  0.00  0.00     0.074 A 
ATOM     27  N   UNL d   1      -5.929   6.081  -0.549  0.00  0.00    -0.360 N 
ATOM     28  C   UNL d   1      -6.024   7.268  -1.187  0.00  0.00     0.089 A 
ATOM     29  HN  UNL d   1      -5.026   5.706  -0.258  1.00  0.00     0.166 HD
ATOM     30  C   UNL d   1      -7.215   7.820  -1.627  0.00  0.00     0.017 A 
ATOM     31  C   UNL d   1      -8.387   7.113  -1.385  0.00  0.00     0.004 A 
ATOM     32  C   UNL d   1      -8.320   5.895  -0.713  0.00  0.00     0.037 A 
ENDBRANCH  25  26
ENDBRANCH   2  25
TORSDOF 8
