REMARK  2 active torsions:
REMARK  status: ('A' for Active; 'I' for Inactive)
REMARK    1  A    between atoms: C_2  and  N_1 
REMARK    2  A    between atoms: C_14  and  C_5 
ROOT
ATOM      1  C   UNL d   1       3.295  -0.055  -0.126  0.00  0.00     0.129 A 
ATOM      2  C   UNL d   1       4.188   0.570   0.730  0.00  0.00     0.091 A 
ATOM      3  N   UNL d   1       5.664  -0.348  -0.710  0.00  0.00    -0.059 NA
ATOM      4  S   UNL d   1       4.204  -0.921  -1.288  0.00  0.00     0.021 SA
ATOM      5  N   UNL d   1       5.526   0.416   0.362  0.00  0.00    -0.289 N 
ATOM      6  HN  UNL d   1       6.306   0.843   0.861  1.00  0.00     0.183 HD
ENDROOT
BRANCH   1   7
ATOM      7  N   UNL d   1       1.930  -0.059  -0.237  0.00  0.00    -0.234 N 
ATOM      8  C   UNL d   1       1.164  -1.193  -0.164  0.00  0.00     0.267 A 
ATOM      9  C   UNL d   1      -0.219  -0.744  -0.315  0.00  0.00     0.048 A 
ATOM     10  O   UNL d   1       1.480  -2.350   0.037  0.00  0.00    -0.267 OA
ATOM     11  C   UNL d   1      -1.394  -1.469  -0.287  0.00  0.00     0.018 A 
ATOM     12  C   UNL d   1      -0.204   0.627  -0.511  0.00  0.00     0.048 A 
ATOM     13  C   UNL d   1      -2.582  -0.766  -0.509  0.00  0.00     0.001 A 
ATOM     14  C   UNL d   1      -2.564   0.622  -0.756  0.00  0.00     0.001 A 
ATOM     15  C   UNL d   1      -1.362   1.339  -0.754  0.00  0.00     0.018 A 
ATOM     16  C   UNL d   1       1.188   1.078  -0.423  0.00  0.00     0.267 A 
ATOM     17  O   UNL d   1       1.531   2.237  -0.552  0.00  0.00    -0.267 OA
ENDBRANCH   1   7
BRANCH   2  18
ATOM     18  C   UNL d   1       3.850   1.218   1.994  0.00  0.00    -0.006 A 
ATOM     19  C   UNL d   1       2.806   0.745   2.805  0.00  0.00     0.014 A 
ATOM     20  C   UNL d   1       2.558   1.312   4.057  0.00  0.00     0.001 A 
ATOM     21  C   UNL d   1       3.363   2.349   4.523  0.00  0.00     0.000 A 
ATOM     22  C   UNL d   1       4.412   2.820   3.737  0.00  0.00     0.001 A 
ATOM     23  C   UNL d   1       4.655   2.258   2.479  0.00  0.00     0.014 A 
ENDBRANCH   2  18
TORSDOF 2
