REMARK  6 active torsions:
REMARK  status: ('A' for Active; 'I' for Inactive)
REMARK    1  A    between atoms: N_3  and  C_1 
REMARK    2  A    between atoms: S_7  and  C_1 
REMARK    3  A    between atoms: C_5  and  C_2 
REMARK    4  A    between atoms: C_6  and  C_2 
REMARK       I    between atoms: C_4  and  N_3 
REMARK       I    between atoms: N_11  and  C_4 
REMARK    5  A    between atoms: O_12  and  C_5 
REMARK    6  A    between atoms: O_13  and  C_6 
ROOT
ATOM      1  C   UNL d   1       0.812  -0.273   0.410  0.00  0.00     0.095 C 
ATOM      2  C   UNL d   1       0.207  -0.911   1.435  0.00  0.00     0.147 C 
ENDROOT
BRANCH   1   3
ATOM      3  N   UNL d   1       0.326   0.220  -0.781  0.00  0.00    -0.307 N 
ATOM      4  C   UNL d   1      -0.689  -0.041  -1.630  0.00  0.00     0.296 C 
ATOM      5  O   UNL d   1      -0.710   0.474  -2.744  0.00  0.00    -0.254 OA
ATOM      6  N   UNL d   1      -1.635  -0.931  -1.296  0.00  0.00    -0.254 NA
ATOM      7  H   UNL d   1      -2.130  -0.665  -0.448  0.00  0.00     0.128 HD
ATOM      8  H   UNL d   1      -2.307  -1.030  -2.050  0.00  0.00     0.128 HD
ATOM      9  H   UNL d   1       1.004   0.812  -1.256  0.00  0.00     0.170 HD
ENDBRANCH   1   3
BRANCH   1  10
ATOM     10  S   UNL d   1       2.517   0.191   0.492  0.00  0.00    -0.115 SA
ATOM     11  C   UNL d   1       3.295  -1.261  -0.261  0.00  0.00     0.097 C 
ENDBRANCH   1  10
BRANCH   2  12
ATOM     12  C   UNL d   1      -1.252  -1.024   1.640  0.00  0.00     0.301 C 
ATOM     13  O   UNL d   1      -2.083  -0.242   1.201  0.00  0.00    -0.259 OA
BRANCH  12  14
ATOM     14  O   UNL d   1      -1.524  -2.089   2.438  0.00  0.00    -0.322 OA
ATOM     15  C   UNL d   1      -2.851  -2.191   2.963  0.00  0.00     0.213 C 
ENDBRANCH  12  14
ENDBRANCH   2  12
BRANCH   2  16
ATOM     16  C   UNL d   1       1.035  -1.444   2.546  0.00  0.00     0.301 C 
ATOM     17  O   UNL d   1       1.860  -2.336   2.426  0.00  0.00    -0.259 OA
BRANCH  16  18
ATOM     18  O   UNL d   1       0.666  -0.840   3.706  0.00  0.00    -0.322 OA
ATOM     19  C   UNL d   1       1.232  -1.417   4.885  0.00  0.00     0.213 C 
ENDBRANCH  16  18
ENDBRANCH   2  16
TORSDOF 6
