REMARK  2 active torsions:
REMARK  status: ('A' for Active; 'I' for Inactive)
REMARK       I    between atoms: N_2  and  C_1 
REMARK       I    between atoms: N_3  and  C_1 
REMARK       I    between atoms: C_4  and  N_2 
REMARK    1  A    between atoms: C_7  and  N_3 
REMARK    2  A    between atoms: C_8  and  C_4 
ROOT
ATOM      1  N   UNL d   1       5.103   1.268  -1.522  0.00  0.00    -0.197 NA
ATOM      2  C   UNL d   1       4.663   1.225  -0.448  0.00  0.00     0.068 C 
ATOM      3  C   UNL d   1       4.115   1.221   0.905  0.00  0.00     0.227 C 
ENDROOT
BRANCH   3   4
ATOM      4  C   UNL d   1       2.672   0.773   0.866  0.00  0.00     0.238 C 
ATOM      5  N   UNL d   1       1.760   1.811   0.937  0.00  0.00    -0.278 N 
ATOM      6  C   UNL d   1       0.403   1.745   1.152  0.00  0.00     0.327 C 
ATOM      7  H   UNL d   1       2.092   2.750   1.111  0.00  0.00     0.173 HD
ATOM      8  N   UNL d   1      -0.190   0.536   0.902  0.00  0.00    -0.308 N 
ATOM      9  O   UNL d   1      -0.145   2.774   1.540  0.00  0.00    -0.247 OA
ATOM     10  H   UNL d   1       0.394  -0.142   0.423  0.00  0.00     0.170 HD
ATOM     11  O   UNL d   1       2.353  -0.405   0.716  0.00  0.00    -0.272 OA
BRANCH   8  12
ATOM     12  C   UNL d   1      -1.555   0.218   1.085  0.00  0.00     0.042 A 
ATOM     13  C   UNL d   1      -2.128  -0.861   0.379  0.00  0.00    -0.035 A 
ATOM     14  C   UNL d   1      -1.363  -1.679  -0.625  0.00  0.00     0.050 C 
ATOM     15  C   UNL d   1      -3.503  -1.127   0.537  0.00  0.00     0.009 A 
ATOM     16  C   UNL d   1      -4.287  -0.375   1.411  0.00  0.00     0.001 A 
ATOM     17  C   UNL d   1      -3.709   0.655   2.139  0.00  0.00     0.002 A 
ATOM     18  C   UNL d   1      -2.355   0.950   1.974  0.00  0.00     0.030 A 
ENDBRANCH   8  12
ENDBRANCH   3   4
TORSDOF 2
