REMARK  4 active torsions:
REMARK  status: ('A' for Active; 'I' for Inactive)
REMARK    1  A    between atoms: N_5  and  S_1 
REMARK    2  A    between atoms: C_9  and  S_1 
REMARK    3  A    between atoms: C_2  and  C_3 
REMARK       I    between atoms: C_3  and  N_10 
REMARK    4  A    between atoms: N_10  and  C_17 
ROOT
ATOM      1  C   UNL d   1       0.084   0.327   1.750  0.00  0.00     0.074 A 
ATOM      2  C   UNL d   1      -0.627  -0.720   2.349  0.00  0.00     0.027 A 
ATOM      3  C   UNL d   1       0.411   1.451   2.508  0.00  0.00     0.027 A 
ATOM      4  C   UNL d   1      -0.556   0.416   4.511  0.00  0.00     0.035 A 
ATOM      5  C   UNL d   1       0.079   1.496   3.880  0.00  0.00     0.031 A 
ATOM      6  C   UNL d   1      -0.942  -0.672   3.716  0.00  0.00     0.031 A 
ENDROOT
BRANCH   4   7
ATOM      7  N   UNL d   1      -0.775   0.303   5.913  0.00  0.00    -0.323 N 
ATOM      8  C   UNL d   1      -0.413   1.207   6.902  0.00  0.00     0.258 C 
ATOM      9  O   UNL d   1       0.037   2.323   6.677  0.00  0.00    -0.267 OA
ATOM     10  H   UNL d   1      -1.173  -0.570   6.225  0.00  0.00     0.169 HD
BRANCH   8  11
ATOM     11  C   UNL d   1      -0.594   0.735   8.290  0.00  0.00     0.064 A 
ATOM     12  C   UNL d   1      -0.286   1.478   9.429  0.00  0.00     0.065 A 
ATOM     13  O   UNL d   1      -0.520   0.755  10.558  0.00  0.00    -0.319 OA
ATOM     14  C   UNL d   1       0.244   2.835   9.692  0.00  0.00     0.077 C 
ATOM     15  C   UNL d   1      -0.981  -0.461  10.183  0.00  0.00     0.050 A 
ATOM     16  C   UNL d   1      -1.063  -0.521   8.801  0.00  0.00     0.051 A 
ATOM     17  C   UNL d   1      -1.254  -1.405  11.287  0.00  0.00     0.076 C 
ENDBRANCH   8  11
ENDBRANCH   4   7
BRANCH   1  18
ATOM     18  S   UNL d   1       0.831   0.047   0.147  0.00  0.00     0.243 S 
ATOM     19  O   UNL d   1       2.257   0.230   0.324  0.00  0.00    -0.206 OA
ATOM     20  O   UNL d   1       0.317  -1.214  -0.347  0.00  0.00    -0.206 OA
BRANCH  18  21
ATOM     21  N   UNL d   1       0.296   1.260  -0.924  0.00  0.00    -0.202 NA
ATOM     22  C   UNL d   1      -1.172   1.425  -1.148  0.00  0.00     0.134 C 
ATOM     23  C   UNL d   1      -1.733   0.385  -2.124  0.00  0.00     0.183 C 
ATOM     24  O   UNL d   1      -1.059   0.451  -3.387  0.00  0.00    -0.389 OA
ATOM     25  C   UNL d   1       0.343   0.193  -3.225  0.00  0.00     0.183 C 
ATOM     26  C   UNL d   1       0.994   1.208  -2.270  0.00  0.00     0.134 C 
ENDBRANCH  18  21
ENDBRANCH   1  18
TORSDOF 4
