REMARK  6 active torsions:
REMARK  status: ('A' for Active; 'I' for Inactive)
REMARK    1  A    between atoms: C_2  and  N_1 
REMARK       I    between atoms: N_4  and  C_5 
REMARK    2  A    between atoms: C_12  and  N_4 
REMARK    3  A    between atoms: C_13  and  N_4 
REMARK    4  A    between atoms: C_5  and  C_10 
REMARK    5  A    between atoms: N_6  and  C_8 
REMARK    6  A    between atoms: C_10  and  N_6 
ROOT
ATOM      1  N   UNL d   1       0.983   1.328  -7.658  0.00  0.00    -0.312 N 
ATOM      2  C   UNL d   1       1.672   0.462  -6.810  0.00  0.00     0.237 C 
ATOM      3  O   UNL d   1       1.529   0.473  -5.585  0.00  0.00    -0.272 OA
ENDROOT
BRANCH   2   4
ATOM      4  C   UNL d   1       2.640  -0.576  -7.419  0.00  0.00     0.195 C 
BRANCH   4   5
ATOM      5  N   UNL d   1       1.961  -1.850  -7.756  0.00  0.00    -0.284 NA
ATOM      6  H   UNL d   1       1.161  -1.692  -8.360  0.00  0.00     0.128 HD
BRANCH   5   7
ATOM      7  C   UNL d   1       2.752  -2.945  -8.165  0.00  0.00     0.017 A 
ATOM      8  C   UNL d   1       2.216  -3.978  -8.975  0.00  0.00    -0.008 A 
ATOM      9  C   UNL d   1       3.062  -5.062  -9.323  0.00  0.00     0.110 A 
ATOM     10  C   UNL d   1       0.787  -3.917  -9.457  0.00  0.00     0.052 C 
ATOM     11  C   UNL d   1       4.370  -5.187  -8.842  0.00  0.00     0.037 A 
ATOM     12  C   UNL d   1       4.860  -4.213  -7.992  0.00  0.00     0.004 A 
ATOM     13  C   UNL d   1       4.058  -3.119  -7.657  0.00  0.00     0.024 A 
BRANCH   9  14
ATOM     14  N   UNL d   1       2.616  -6.111 -10.228  0.00  0.00    -0.115 N 
ATOM     15  O   UNL d   1       2.339  -5.775 -11.387  0.00  0.00    -0.532 OA
ATOM     16  O   UNL d   1       2.590  -7.265  -9.783  0.00  0.00    -0.532 OA
ENDBRANCH   9  14
ENDBRANCH   5   7
ENDBRANCH   4   5
ENDBRANCH   2   4
BRANCH   1  17
ATOM     17  C   UNL d   1       1.268   1.386  -9.042  0.00  0.00     0.037 A 
ATOM     18  C   UNL d   1       0.452   0.692  -9.933  0.00  0.00     0.030 A 
ATOM     19  C   UNL d   1       0.636   0.844 -11.306  0.00  0.00     0.002 A 
ATOM     20  C   UNL d   1       1.625   1.700 -11.783  0.00  0.00     0.000 A 
ATOM     21  C   UNL d   1       2.450   2.391 -10.897  0.00  0.00     0.002 A 
ATOM     22  C   UNL d   1       2.277   2.236  -9.522  0.00  0.00     0.030 A 
ENDBRANCH   1  17
BRANCH   1  23
ATOM     23  C   UNL d   1      -0.124   2.234  -7.221  0.00  0.00     0.093 C 
ATOM     24  C   UNL d   1       0.313   3.503  -6.477  0.00  0.00     0.026 C 
ATOM     25  C   UNL d   1       0.544   3.309  -4.987  0.00  0.00     0.002 C 
ATOM     26  C   UNL d   1      -0.647   2.650  -4.297  0.00  0.00     0.000 C 
ATOM     27  C   UNL d   1      -1.179   1.401  -4.996  0.00  0.00     0.002 C 
ATOM     28  C   UNL d   1      -1.292   1.528  -6.513  0.00  0.00     0.026 C 
ENDBRANCH   1  23
TORSDOF 6
