REMARK  5 active torsions:
REMARK  status: ('A' for Active; 'I' for Inactive)
REMARK    1  A    between atoms: N_2  and  C_1 
REMARK    2  A    between atoms: O_10  and  C_3 
REMARK    3  A    between atoms: C_4  and  C_11 
REMARK    4  A    between atoms: N_20  and  C_7 
REMARK    5  A    between atoms: C_16  and  O_10 
ROOT
ATOM      1  C   UNL d   1      -0.250  -1.510   0.330  0.00  0.00     0.192 A 
ATOM      2  C   UNL d   1       0.950  -0.884   0.084  0.00  0.00     0.185 A 
ATOM      3  N   UNL d   1       1.018   0.375  -0.405  0.00  0.00    -0.331 N 
ATOM      4  HN  UNL d   1       1.908   0.820  -0.630  1.00  0.00     0.168 HD
ATOM      5  C   UNL d   1      -1.411  -0.800   0.113  0.00  0.00     0.118 A 
ATOM      6  N   UNL d   1      -1.356   0.473  -0.332  0.00  0.00    -0.341 N 
ATOM      7  HN  UNL d   1      -2.207   1.017  -0.479  1.00  0.00     0.167 HD
ATOM      8  C   UNL d   1      -0.147   1.000  -0.573  0.00  0.00     0.183 A 
ENDROOT
BRANCH   2   9
ATOM      9  O   UNL d   1       2.138  -1.560   0.352  0.00  0.00    -0.291 OA
BRANCH   9  10
ATOM     10  C   UNL d   1       3.266  -0.788   0.523  0.00  0.00     0.078 A 
ATOM     11  C   UNL d   1       3.291   0.306   1.394  0.00  0.00     0.053 A 
ATOM     12  C   UNL d   1       4.424   1.125   1.471  0.00  0.00     0.050 A 
ATOM     13  C   UNL d   1       5.563   0.777   0.728  0.00  0.00     0.016 A 
ATOM     14  C   UNL d   1       5.560  -0.362  -0.084  0.00  0.00     0.004 A 
ATOM     15  C   UNL d   1       4.410  -1.145  -0.188  0.00  0.00     0.037 A 
BRANCH  12  16
ATOM     16  C   UNL d   1       4.406   2.384   2.299  0.00  0.00     0.417 C 
ATOM     17  F   UNL d   1       3.211   2.616   2.913  0.00  0.00    -0.166 F 
ATOM     18  F   UNL d   1       5.339   2.376   3.289  0.00  0.00    -0.166 F 
ATOM     19  F   UNL d   1       4.659   3.497   1.554  0.00  0.00    -0.166 F 
ENDBRANCH  12  16
ENDBRANCH   9  10
ENDBRANCH   2   9
BRANCH   1  20
ATOM     20  N   UNL d   1      -0.249  -2.842   0.825  0.00  0.00    -0.108 N 
ATOM     21  O   UNL d   1      -0.089  -3.747  -0.006  0.00  0.00    -0.532 OA
ATOM     22  O   UNL d   1      -0.403  -3.000   2.044  0.00  0.00    -0.532 OA
ENDBRANCH   1  20
BRANCH   5  23
ATOM     23  N   UNL d   1      -2.712  -1.215   0.348  0.00  0.00    -0.281 NA
ATOM     24  C   UNL d   1      -3.158  -2.499  -0.160  0.00  0.00     0.114 C 
ATOM     25  H   UNL d   1      -3.311  -0.445   0.045  0.00  0.00     0.128 HD
ENDBRANCH   5  23
TORSDOF 5
