REMARK  4 active torsions:
REMARK  status: ('A' for Active; 'I' for Inactive)
REMARK    1  A    between atoms: N_3  and  C_1 
REMARK    2  A    between atoms: C_8  and  N_3 
REMARK    3  A    between atoms: C_12  and  C_7 
REMARK    4  A    between atoms: C_13  and  C_12 
ROOT
ATOM      1  C   UNL d   1       1.021   0.542   0.007  0.00  0.00     0.149 C 
ATOM      2  N   UNL d   1       1.116  -0.804  -0.059  0.00  0.00    -0.306 N 
ATOM      3  C   UNL d   1      -0.020  -1.521  -0.273  0.00  0.00     0.238 C 
ATOM      4  S   UNL d   1      -0.651   1.033   0.039  0.00  0.00    -0.079 SA
ATOM      5  C   UNL d   1      -1.260  -0.709   0.045  0.00  0.00     0.151 C 
ATOM      6  O   UNL d   1      -0.010  -2.673  -0.686  0.00  0.00    -0.272 OA
ATOM      7  H   UNL d   1       2.027  -1.200  -0.267  0.00  0.00     0.171 HD
ENDROOT
BRANCH   1   8
ATOM      8  N   UNL d   1       1.987   1.393   0.033  0.00  0.00    -0.323 N 
ATOM      9  HN  UNL d   1       1.779   2.389   0.106  1.00  0.00     0.169 HD
BRANCH   8  10
ATOM     10  C   UNL d   1       3.321   0.968  -0.037  0.00  0.00     0.106 A 
ATOM     11  N   UNL d   1       3.575  -0.258  -0.559  0.00  0.00    -0.352 N 
ATOM     12  C   UNL d   1       4.868  -0.643  -0.643  0.00  0.00     0.089 A 
ATOM     13  HN  UNL d   1       2.819  -0.865  -0.875  1.00  0.00     0.166 HD
ATOM     14  C   UNL d   1       5.930   0.133  -0.220  0.00  0.00     0.017 A 
ATOM     15  C   UNL d   1       5.652   1.385   0.314  0.00  0.00     0.005 A 
ATOM     16  C   UNL d   1       4.329   1.813   0.402  0.00  0.00     0.048 A 
ENDBRANCH   8  10
ENDBRANCH   1   8
BRANCH   5  17
ATOM     17  C   UNL d   1      -1.828  -1.022   1.432  0.00  0.00     0.063 C 
BRANCH  17  18
ATOM     18  C   UNL d   1      -2.353  -2.432   1.574  0.00  0.00    -0.057 A 
ATOM     19  C   UNL d   1      -1.510  -3.454   2.035  0.00  0.00     0.007 A 
ATOM     20  C   UNL d   1      -1.979  -4.762   2.157  0.00  0.00     0.001 A 
ATOM     21  C   UNL d   1      -3.299  -5.061   1.828  0.00  0.00     0.000 A 
ATOM     22  C   UNL d   1      -4.147  -4.053   1.371  0.00  0.00     0.001 A 
ATOM     23  C   UNL d   1      -3.677  -2.744   1.240  0.00  0.00     0.007 A 
ENDBRANCH  17  18
ENDBRANCH   5  17
TORSDOF 4
