REMARK  2 active torsions:
REMARK  status: ('A' for Active; 'I' for Inactive)
REMARK    1  A    between atoms: C_2  and  S_1 
REMARK    2  A    between atoms: O_6  and  S_1 
ROOT
ATOM      1  C   UNL d   1       0.503  -0.021  -1.730  0.00  0.00     0.093 A 
ATOM      2  C   UNL d   1       0.277  -1.236  -2.393  0.00  0.00    -0.036 A 
ATOM      3  N   UNL d   1      -0.244   1.238  -3.655  0.00  0.00    -0.374 N 
ATOM      4  HN  UNL d   1      -0.431   2.132  -4.109  1.00  0.00     0.164 HD
ATOM      5  C   UNL d   1       0.242   1.170  -2.393  0.00  0.00     0.113 A 
ATOM      6  C   UNL d   1      -0.469   0.065  -4.280  0.00  0.00     0.088 A 
ATOM      7  C   UNL d   1      -0.226  -1.173  -3.703  0.00  0.00     0.025 A 
ATOM      8  C   UNL d   1       0.501  -2.599  -1.803  0.00  0.00     0.050 C 
ENDROOT
BRANCH   1   9
ATOM      9  S   UNL d   1       1.057   0.092  -0.062  0.00  0.00     0.131 S 
ATOM     10  O   UNL d   1       0.992   1.476   0.354  0.00  0.00    -0.598 OA
ATOM     11  O   UNL d   1       2.274  -0.678   0.070  0.00  0.00    -0.598 OA
BRANCH   9  12
ATOM     12  O   UNL d   1      -0.111  -0.639   0.780  0.00  0.00    -0.292 OA
ATOM     13  H   UNL d   1      -0.618   0.060   1.247  0.00  0.00     0.232 HD
ENDBRANCH   9  12
ENDBRANCH   1   9
TORSDOF 2
