REMARK  4 active torsions:
REMARK  status: ('A' for Active; 'I' for Inactive)
REMARK    1  A    between atoms: C_9  and  C_1 
REMARK       I    between atoms: C_2  and  N_7 
REMARK       I    between atoms: N_8  and  C_2 
REMARK    2  A    between atoms: C_4  and  N_3 
REMARK    3  A    between atoms: N_7  and  C_20 
REMARK    4  A    between atoms: C_21  and  N_8 
ROOT
ATOM      1  C   UNL d   1      -3.069  -2.422   1.753  0.00  0.00     0.103 A 
ATOM      2  N   UNL d   1      -2.949  -3.639   2.331  0.00  0.00    -0.350 N 
ATOM      3  HN  UNL d   1      -2.030  -4.059   2.469  1.00  0.00     0.166 HD
ATOM      4  C   UNL d   1      -4.325  -1.836   1.645  0.00  0.00     0.051 A 
ATOM      5  C   UNL d   1      -4.075  -4.293   2.723  0.00  0.00     0.119 A 
ATOM      6  C   UNL d   1      -5.367  -3.815   2.547  0.00  0.00     0.051 A 
ATOM      7  C   UNL d   1      -5.470  -2.528   2.044  0.00  0.00     0.035 A 
ENDROOT
BRANCH   6   8
ATOM      8  N   UNL d   1      -6.474  -4.665   2.790  0.00  0.00    -0.307 N 
ATOM      9  C   UNL d   1      -7.787  -4.388   2.426  0.00  0.00     0.325 C 
ATOM     10  N   UNL d   1      -8.596  -5.507   2.481  0.00  0.00    -0.309 N 
ATOM     11  O   UNL d   1      -8.182  -3.285   2.064  0.00  0.00    -0.247 OA
ATOM     12  H   UNL d   1      -8.299  -6.265   3.076  0.00  0.00     0.170 HD
ATOM     13  H   UNL d   1      -6.265  -5.613   3.066  0.00  0.00     0.170 HD
BRANCH  10  14
ATOM     14  C   UNL d   1      -9.890  -5.609   1.908  0.00  0.00     0.036 A 
ATOM     15  C   UNL d   1     -10.397  -4.697   0.974  0.00  0.00     0.031 A 
ATOM     16  C   UNL d   1     -11.666  -4.870   0.412  0.00  0.00     0.026 A 
ATOM     17  C   UNL d   1     -12.438  -5.965   0.781  0.00  0.00     0.034 A 
ATOM     18  C   UNL d   1     -11.952  -6.881   1.711  0.00  0.00     0.026 A 
ATOM     19 CL   UNL d   1     -13.989  -6.196   0.074  0.00  0.00    -0.084 Cl
ATOM     20  C   UNL d   1     -10.680  -6.708   2.269  0.00  0.00     0.031 A 
ENDBRANCH  10  14
ENDBRANCH   6   8
BRANCH   1  21
ATOM     21  N   UNL d   1      -1.938  -1.804   1.266  0.00  0.00    -0.367 N 
ATOM     22  C   UNL d   1      -1.828  -0.367   1.073  0.00  0.00     0.125 C 
ATOM     23  C   UNL d   1      -0.579   0.112   1.817  0.00  0.00     0.033 C 
ATOM     24  C   UNL d   1       0.682  -0.648   1.371  0.00  0.00     0.096 C 
ATOM     25  C   UNL d   1       0.457  -2.168   1.468  0.00  0.00     0.033 C 
ATOM     26  C   UNL d   1      -0.831  -2.622   0.784  0.00  0.00     0.125 C 
BRANCH  24  27
ATOM     27  C   UNL d   1       1.158  -0.200  -0.011  0.00  0.00     0.391 C 
ATOM     28  F   UNL d   1       1.351  -1.234  -0.855  0.00  0.00    -0.171 F 
ATOM     29  F   UNL d   1       2.343   0.449   0.101  0.00  0.00    -0.171 F 
ATOM     30  F   UNL d   1       0.302   0.657  -0.608  0.00  0.00    -0.171 F 
ENDBRANCH  24  27
ENDBRANCH   1  21
TORSDOF 4
