REMARK  5 active torsions:
REMARK  status: ('A' for Active; 'I' for Inactive)
REMARK    1  A    between atoms: C_13  and  N_5 
REMARK    2  A    between atoms: C_16  and  C_13 
REMARK    3  A    between atoms: O_14  and  C_15 
REMARK    4  A    between atoms: C_15  and  C_17 
REMARK    5  A    between atoms: C_17  and  C_16 
ROOT
ATOM      1  N   UNL d   1       1.150   1.049  -0.674  0.00  0.00    -0.350 N 
ATOM      2  HN  UNL d   1       1.143   1.909  -1.222  1.00  0.00     0.166 HD
ATOM      3  C   UNL d   1       0.765  -0.474   0.977  0.00  0.00     0.064 A 
ATOM      4  C   UNL d   1       0.518   0.819   0.521  0.00  0.00     0.061 A 
ATOM      5  N   UNL d   1       1.580  -1.018   0.011  0.00  0.00    -0.341 N 
ATOM      6  C   UNL d   1       0.228  -0.965   2.173  0.00  0.00     0.057 A 
ATOM      7  C   UNL d   1       1.767  -0.073  -0.961  0.00  0.00     0.183 A 
ATOM      8  C   UNL d   1      -0.294   1.678   1.274  0.00  0.00     0.057 A 
ATOM      9  C   UNL d   1      -0.588  -0.098   2.915  0.00  0.00     0.058 A 
ATOM     10  C   UNL d   1      -0.845   1.207   2.473  0.00  0.00     0.058 A 
ATOM     11 CL   UNL d   1      -1.255  -0.719   4.387  0.00  0.00    -0.082 Cl
ATOM     12 CL   UNL d   1      -1.845   2.300   3.367  0.00  0.00    -0.082 Cl
ENDROOT
BRANCH   5  13
ATOM     13  C   UNL d   1       2.133  -2.357  -0.012  0.00  0.00     0.130 C 
BRANCH  13  14
ATOM     14  C   UNL d   1       3.662  -2.408  -0.034  0.00  0.00     0.022 C 
BRANCH  14  15
ATOM     15  C   UNL d   1       4.307  -1.759   1.197  0.00  0.00     0.028 C 
BRANCH  15  16
ATOM     16  C   UNL d   1       5.828  -1.849   1.150  0.00  0.00     0.164 C 
BRANCH  16  17
ATOM     17  O   UNL d   1       6.223  -3.213   1.141  0.00  0.00    -0.401 OA
ATOM     18  H   UNL d   1       7.195  -3.227   1.107  0.00  0.00     0.209 HD
ENDBRANCH  16  17
ENDBRANCH  15  16
ENDBRANCH  14  15
ENDBRANCH  13  14
ENDBRANCH   5  13
TORSDOF 5
