REMARK  6 active torsions:
REMARK  status: ('A' for Active; 'I' for Inactive)
REMARK    1  A    between atoms: C_7  and  C_1 
REMARK    2  A    between atoms: O_17  and  C_7 
REMARK    3  A    between atoms: N_8  and  N_10 
REMARK    4  A    between atoms: N_12  and  C_11 
REMARK    5  A    between atoms: C_18  and  C_16 
REMARK    6  A    between atoms: C_24  and  O_17 
ROOT
ATOM      1  C   UNL d   1       1.002   2.945  -0.679  0.00  0.00     0.109 A 
ATOM      2  C   UNL d   1      -0.339   2.675  -0.491  0.00  0.00     0.153 A 
ATOM      3  N   UNL d   1       0.520   0.923  -1.655  0.00  0.00    -0.302 N 
ATOM      4  HN  UNL d   1       0.592   0.040  -2.161  1.00  0.00     0.186 HD
ATOM      5  N   UNL d   1      -0.568   1.468  -1.085  0.00  0.00    -0.283 N 
ATOM      6  C   UNL d   1       1.487   1.815  -1.402  0.00  0.00     0.042 A 
ATOM      7  N   UNL d   1      -1.355   3.336   0.110  0.00  0.00    -0.284 N 
ATOM      8  C   UNL d   1       2.875   1.547  -1.852  0.00  0.00     0.071 C 
ATOM      9  H   UNL d   1      -1.456   0.983  -1.114  0.00  0.00     0.188 HD
ATOM     10  H   UNL d   1      -1.152   4.201   0.620  0.00  0.00     0.188 HD
ENDROOT
BRANCH   7  11
ATOM     11  N   UNL d   1      -2.614   2.835   0.144  0.00  0.00    -0.309 N 
ATOM     12  C   UNL d   1      -3.620   3.663   0.141  0.00  0.00     0.118 C 
ATOM     13  HN  UNL d   1      -2.771   1.828   0.172  1.00  0.00     0.186 HD
BRANCH  12  14
ATOM     14  C   UNL d   1      -3.648   5.130  -0.042  0.00  0.00    -0.019 A 
ATOM     15  C   UNL d   1      -2.697   5.811  -0.794  0.00  0.00     0.015 A 
ATOM     16  C   UNL d   1      -2.801   7.199  -0.971  0.00  0.00     0.030 A 
ATOM     17  C   UNL d   1      -3.873   7.944  -0.457  0.00  0.00     0.029 A 
ATOM     18  C   UNL d   1      -4.829   7.219   0.279  0.00  0.00     0.030 A 
ATOM     19  C   UNL d   1      -4.725   5.834   0.491  0.00  0.00     0.015 A 
BRANCH  17  20
ATOM     20  N   UNL d   1      -4.012   9.299  -0.704  0.00  0.00    -0.390 N 
ATOM     21  C   UNL d   1      -4.697  10.192   0.227  0.00  0.00     0.149 C 
ATOM     22  C   UNL d   1      -3.298   9.971  -1.786  0.00  0.00     0.149 C 
ENDBRANCH  17  20
ENDBRANCH  12  14
ENDBRANCH   7  11
BRANCH   1  23
ATOM     23  C   UNL d   1       1.766   4.084  -0.214  0.00  0.00     0.299 C 
ATOM     24  O   UNL d   1       2.974   4.196  -0.378  0.00  0.00    -0.259 OA
BRANCH  23  25
ATOM     25  O   UNL d   1       1.006   4.974   0.501  0.00  0.00    -0.318 OA
BRANCH  25  26
ATOM     26  C   UNL d   1       1.750   5.831   1.376  0.00  0.00     0.174 C 
ATOM     27  C   UNL d   1       1.933   5.097   2.693  0.00  0.00     0.034 C 
ENDBRANCH  25  26
ENDBRANCH  23  25
ENDBRANCH   1  23
TORSDOF 6
