REMARK  5 active torsions:
REMARK  status: ('A' for Active; 'I' for Inactive)
REMARK    1  A    between atoms: C_9  and  C_3 
REMARK    2  A    between atoms: C_13  and  C_4 
REMARK    3  A    between atoms: O_11  and  C_8 
REMARK    4  A    between atoms: C_16  and  O_11 
REMARK    5  A    between atoms: O_17  and  C_12 
ROOT
ATOM      1  C   UNL d   1       1.708   4.312  -1.056  0.00  0.00     0.103 A 
ATOM      2  C   UNL d   1       0.481   2.526   0.087  0.00  0.00     0.013 A 
ATOM      3  C   UNL d   1       1.252   2.991  -0.989  0.00  0.00     0.055 A 
ATOM      4  C   UNL d   1       1.320   5.209  -0.052  0.00  0.00     0.101 A 
ATOM      5  C   UNL d   1       0.133   3.416   1.103  0.00  0.00     0.018 A 
ATOM      6  C   UNL d   1       0.552   4.748   1.030  0.00  0.00     0.040 A 
ENDROOT
BRANCH   2   7
ATOM      7  C   UNL d   1       0.099   1.121   0.113  0.00  0.00     0.138 A 
ATOM      8  N   UNL d   1       0.588   0.244  -0.834  0.00  0.00    -0.319 N 
ATOM      9  C   UNL d   1       0.049  -0.897  -0.481  0.00  0.00     0.182 A 
ATOM     10  HN  UNL d   1       1.215   0.436  -1.616  1.00  0.00     0.169 HD
ATOM     11  O   UNL d   1      -0.747  -0.793   0.623  0.00  0.00    -0.217 OA
ATOM     12  N   UNL d   1      -0.709   0.549   1.019  0.00  0.00    -0.242 N 
ATOM     13  HN  UNL d   1      -1.183   0.988   1.808  1.00  0.00     0.196 HD
BRANCH   9  14
ATOM     14  C   UNL d   1       0.212  -2.209  -1.093  0.00  0.00     0.017 A 
ATOM     15  C   UNL d   1       1.117  -2.357  -2.158  0.00  0.00     0.016 A 
ATOM     16  C   UNL d   1       1.312  -3.598  -2.766  0.00  0.00     0.001 A 
ATOM     17  C   UNL d   1       0.601  -4.708  -2.319  0.00  0.00     0.000 A 
ATOM     18  C   UNL d   1      -0.306  -4.575  -1.269  0.00  0.00     0.001 A 
ATOM     19  C   UNL d   1      -0.500  -3.333  -0.658  0.00  0.00     0.016 A 
ENDBRANCH   9  14
ENDBRANCH   2   7
BRANCH   1  20
ATOM     20  O   UNL d   1       2.517   4.742  -2.074  0.00  0.00    -0.343 OA
BRANCH  20  21
ATOM     21  C   UNL d   1       3.423   3.796  -2.653  0.00  0.00     0.129 C 
ATOM     22  C   UNL d   1       4.484   3.308  -1.665  0.00  0.00     0.032 C 
ATOM     23  C   UNL d   1       5.757   3.084  -2.471  0.00  0.00     0.002 C 
ATOM     24  C   UNL d   1       5.525   3.701  -3.844  0.00  0.00     0.002 C 
ATOM     25  C   UNL d   1       4.237   4.500  -3.735  0.00  0.00     0.032 C 
ENDBRANCH  20  21
ENDBRANCH   1  20
BRANCH   4  26
ATOM     26  O   UNL d   1       1.664   6.532   0.056  0.00  0.00    -0.353 OA
ATOM     27  C   UNL d   1       1.819   7.245  -1.165  0.00  0.00     0.210 C 
ENDBRANCH   4  26
TORSDOF 5
