REMARK  5 active torsions:
REMARK  status: ('A' for Active; 'I' for Inactive)
REMARK    1  A    between atoms: C_6  and  C_1 
REMARK    2  A    between atoms: O_5  and  C_2 
REMARK    3  A    between atoms: C_3  and  O_5 
REMARK    4  A    between atoms: C_8  and  C_3 
REMARK    5  A    between atoms: O_14  and  C_6 
ROOT
ATOM      1  C   UNL d   1       2.374  -0.559   0.572  0.00  0.00     0.072 A 
ATOM      2  C   UNL d   1       2.429   0.769   0.135  0.00  0.00     0.097 A 
ATOM      3  C   UNL d   1       1.159  -1.254   0.550  0.00  0.00     0.033 A 
ATOM      4  C   UNL d   1       1.252   1.452  -0.169  0.00  0.00     0.050 A 
ATOM      5  C   UNL d   1      -0.029  -0.591   0.210  0.00  0.00    -0.025 A 
ATOM      6  C   UNL d   1       0.014   0.788  -0.111  0.00  0.00    -0.023 A 
ATOM      7  C   UNL d   1      -1.263  -1.260   0.215  0.00  0.00     0.012 A 
ATOM      8  C   UNL d   1      -1.189   1.467  -0.357  0.00  0.00     0.012 A 
ATOM      9  C   UNL d   1      -2.412   0.796  -0.306  0.00  0.00     0.001 A 
ATOM     10  C   UNL d   1      -2.448  -0.569  -0.037  0.00  0.00     0.001 A 
ENDROOT
BRANCH   2  11
ATOM     11  O   UNL d   1       3.698   1.389   0.077  0.00  0.00    -0.274 OA
BRANCH  11  12
ATOM     12  C   UNL d   1       4.041   2.148  -1.035  0.00  0.00     0.298 C 
ATOM     13  O   UNL d   1       3.292   2.538  -1.917  0.00  0.00    -0.259 OA
BRANCH  12  14
ATOM     14  C   UNL d   1       5.498   2.454  -1.018  0.00  0.00     0.041 A 
ATOM     15  C   UNL d   1       5.969   3.472  -1.858  0.00  0.00     0.041 A 
ATOM     16  C   UNL d   1       7.333   3.761  -1.905  0.00  0.00     0.035 A 
ATOM     17 CL   UNL d   1       7.906   5.010  -2.939  0.00  0.00    -0.084 Cl
ATOM     18  C   UNL d   1       8.236   3.041  -1.128  0.00  0.00     0.024 A 
ATOM     19  C   UNL d   1       7.776   2.021  -0.295  0.00  0.00     0.003 A 
ATOM     20  C   UNL d   1       6.410   1.725  -0.239  0.00  0.00     0.018 A 
ENDBRANCH  12  14
ENDBRANCH  11  12
ENDBRANCH   2  11
BRANCH   1  21
ATOM     21  C   UNL d   1       3.555  -1.256   1.118  0.00  0.00     0.179 C 
ATOM     22  O   UNL d   1       3.816  -2.424   0.884  0.00  0.00    -0.646 OA
BRANCH  21  23
ATOM     23  O   UNL d   1       4.257  -0.496   1.990  0.00  0.00    -0.773 OA
ATOM     24  H   UNL d   1       3.864   0.384   2.154  0.00  0.00     0.167 HD
ENDBRANCH  21  23
ENDBRANCH   1  21
TORSDOF 5
