REMARK  8 active torsions:
REMARK  status: ('A' for Active; 'I' for Inactive)
REMARK    1  A    between atoms: C_6  and  C_1 
REMARK    2  A    between atoms: C_7  and  C_2 
REMARK    3  A    between atoms: C_3  and  S_5 
REMARK    4  A    between atoms: S_5  and  C_4 
REMARK    5  A    between atoms: O_17  and  C_6 
REMARK    6  A    between atoms: O_16  and  C_7 
REMARK    7  A    between atoms: O_21  and  C_14 
REMARK    8  A    between atoms: O_20  and  C_15 
ROOT
ATOM      1  S   UNL d   1       1.057  -2.905  -0.175  0.00  0.00    -0.088 SA
ENDROOT
BRANCH   1   2
ATOM      2  C   UNL d   1       2.800  -3.064   0.191  0.00  0.00     0.022 A 
ATOM      3  C   UNL d   1       3.836  -3.105  -0.761  0.00  0.00     0.057 A 
ATOM      4  C   UNL d   1       5.129  -3.505  -0.369  0.00  0.00     0.056 A 
ATOM      5  C   UNL d   1       5.406  -3.875   0.948  0.00  0.00     0.069 A 
ATOM      6  C   UNL d   1       4.400  -3.772   1.902  0.00  0.00     0.038 A 
ATOM      7  C   UNL d   1       3.111  -3.377   1.525  0.00  0.00     0.023 A 
BRANCH   3   8
ATOM      8  C   UNL d   1       3.696  -2.759  -2.200  0.00  0.00     0.177 C 
ATOM      9  O   UNL d   1       4.562  -2.171  -2.820  0.00  0.00    -0.646 OA
BRANCH   8  10
ATOM     10  O   UNL d   1       2.568  -3.212  -2.784  0.00  0.00    -0.773 OA
ATOM     11  H   UNL d   1       1.960  -3.678  -2.179  0.00  0.00     0.167 HD
ENDBRANCH   8  10
ENDBRANCH   3   8
BRANCH   5  12
ATOM     12  O   UNL d   1       6.674  -4.333   1.167  0.00  0.00    -0.356 OA
ATOM     13  C   UNL d   1       6.962  -4.845   2.464  0.00  0.00     0.210 C 
ENDBRANCH   5  12
ENDBRANCH   1   2
BRANCH   1  14
ATOM     14  C   UNL d   1       0.745  -1.148  -0.265  0.00  0.00     0.022 A 
ATOM     15  C   UNL d   1       0.311  -0.338   0.801  0.00  0.00     0.057 A 
ATOM     16  C   UNL d   1      -0.119   0.980   0.538  0.00  0.00     0.056 A 
ATOM     17  C   UNL d   1      -0.126   1.502  -0.757  0.00  0.00     0.069 A 
ATOM     18  C   UNL d   1       0.338   0.714  -1.802  0.00  0.00     0.038 A 
ATOM     19  C   UNL d   1       0.758  -0.597  -1.558  0.00  0.00     0.023 A 
BRANCH  15  20
ATOM     20  C   UNL d   1       0.262  -0.739   2.236  0.00  0.00     0.177 C 
ATOM     21  O   UNL d   1       0.416   0.062   3.143  0.00  0.00    -0.646 OA
BRANCH  20  22
ATOM     22  O   UNL d   1      -0.028  -2.035   2.469  0.00  0.00    -0.773 OA
ATOM     23  H   UNL d   1      -0.172  -2.567   1.664  0.00  0.00     0.167 HD
ENDBRANCH  20  22
ENDBRANCH  15  20
BRANCH  17  24
ATOM     24  O   UNL d   1      -0.624   2.769  -0.871  0.00  0.00    -0.356 OA
ATOM     25  C   UNL d   1      -0.624   3.346  -2.172  0.00  0.00     0.210 C 
ENDBRANCH  17  24
ENDBRANCH   1  14
TORSDOF 8
