REMARK  3 active torsions:
REMARK  status: ('A' for Active; 'I' for Inactive)
REMARK    1  A    between atoms: C_10  and  C_1 
REMARK    2  A    between atoms: S_16  and  C_8 
REMARK    3  A    between atoms: N_17  and  C_9 
ROOT
ATOM      1  C   UNL d   1       1.116   1.090  -0.009  0.00  0.00     0.117 A 
ATOM      2  N   UNL d   1       1.903   0.121   0.447  0.00  0.00    -0.324 N 
ATOM      3  HN  UNL d   1       2.896   0.266   0.631  1.00  0.00     0.169 HD
ATOM      4  N   UNL d   1      -0.193   0.937  -0.243  0.00  0.00    -0.320 N 
ATOM      5  HN  UNL d   1      -0.776   1.702  -0.582  1.00  0.00     0.169 HD
ATOM      6  N   UNL d   1       0.014  -1.294   0.450  0.00  0.00    -0.313 N 
ATOM      7  HN  UNL d   1      -0.407  -2.204   0.637  1.00  0.00     0.170 HD
ATOM      8  C   UNL d   1       1.307  -1.050   0.647  0.00  0.00     0.147 A 
ATOM      9  C   UNL d   1      -0.682  -0.271  -0.005  0.00  0.00     0.158 A 
ENDROOT
BRANCH   1  10
ATOM     10  C   UNL d   1       1.740   2.405  -0.450  0.00  0.00     0.221 C 
ATOM     11  O   UNL d   1       2.593   3.003   0.540  0.00  0.00    -0.333 OA
ATOM     12  C   UNL d   1       3.933   2.837   0.307  0.00  0.00     0.103 A 
ATOM     13  C   UNL d   1       4.802   3.442   1.213  0.00  0.00     0.040 A 
ATOM     14  C   UNL d   1       4.449   2.111  -0.769  0.00  0.00     0.102 A 
ATOM     15  C   UNL d   1       6.183   3.308   1.053  0.00  0.00     0.003 A 
ATOM     16  C   UNL d   1       6.695   2.547   0.002  0.00  0.00     0.003 A 
ATOM     17  C   UNL d   1       5.825   1.940  -0.906  0.00  0.00     0.039 A 
ATOM     18  O   UNL d   1       3.658   1.548  -1.735  0.00  0.00    -0.345 OA
ATOM     19  C   UNL d   1       2.410   2.247  -1.814  0.00  0.00     0.216 C 
ENDBRANCH   1  10
BRANCH   8  20
ATOM     20  S   UNL d   1       2.306  -2.423   1.170  0.00  0.00    -0.098 SA
ATOM     21  C   UNL d   1       3.869  -1.957   0.384  0.00  0.00     0.099 C 
ENDBRANCH   8  20
BRANCH   9  22
ATOM     22  N   UNL d   1      -2.022  -0.470  -0.257  0.00  0.00    -0.274 NA
ATOM     23  H   UNL d   1      -2.368  -1.264   0.265  0.00  0.00     0.127 HD
ATOM     24  H   UNL d   1      -2.538   0.394  -0.187  0.00  0.00     0.127 HD
ENDBRANCH   9  22
TORSDOF 3
