REMARK  2 active torsions:
REMARK  status: ('A' for Active; 'I' for Inactive)
REMARK    1  A    between atoms: C_4  and  N_1 
REMARK    2  A    between atoms: C_7  and  C_8 
ROOT
ATOM      1  C   UNL d   1       2.104  -1.416  -0.035  0.00  0.00     0.047 A 
ATOM      2  C   UNL d   1       3.485  -3.105  -1.146  0.00  0.00     0.050 A 
ATOM      3  C   UNL d   1       2.272  -2.406  -1.014  0.00  0.00     0.046 A 
ATOM      4  C   UNL d   1       3.178  -1.140   0.822  0.00  0.00     0.030 A 
ATOM      5  C   UNL d   1       4.528  -2.831  -0.251  0.00  0.00     0.016 A 
ATOM      6  C   UNL d   1       4.374  -1.856   0.730  0.00  0.00     0.003 A 
ENDROOT
BRANCH   1   7
ATOM      7  N   UNL d   1       0.904  -0.670   0.062  0.00  0.00    -0.238 N 
ATOM      8  C   UNL d   1      -0.402  -1.096  -0.151  0.00  0.00     0.202 C 
ATOM      9  N   UNL d   1      -1.230   0.030  -0.110  0.00  0.00    -0.272 N 
ATOM     10  S   UNL d   1      -1.054  -2.621  -0.284  0.00  0.00    -0.038 SA
ATOM     11  N   UNL d   1      -0.467   1.095   0.349  0.00  0.00    -0.249 N 
ATOM     12  H   UNL d   1      -2.210  -0.067   0.141  0.00  0.00     0.189 HD
ATOM     13  C   UNL d   1       0.875   0.697   0.332  0.00  0.00     0.348 C 
ATOM     14  H   UNL d   1      -0.671   2.049   0.071  0.00  0.00     0.192 HD
ATOM     15  O   UNL d   1       1.804   1.486   0.448  0.00  0.00    -0.245 OA
ENDBRANCH   1   7
BRANCH   2  16
ATOM     16  C   UNL d   1       3.686  -4.114  -2.250  0.00  0.00     0.417 C 
ATOM     17  F   UNL d   1       2.632  -4.202  -3.108  0.00  0.00    -0.166 F 
ATOM     18  F   UNL d   1       4.769  -3.825  -3.024  0.00  0.00    -0.166 F 
ATOM     19  F   UNL d   1       3.891  -5.373  -1.776  0.00  0.00    -0.166 F 
ENDBRANCH   2  16
TORSDOF 2
