REMARK  6 active torsions:
REMARK  status: ('A' for Active; 'I' for Inactive)
REMARK    1  A    between atoms: C_3  and  C_1 
REMARK    2  A    between atoms: C_5  and  C_1 
REMARK    3  A    between atoms: C_2  and  C_4 
REMARK    4  A    between atoms: C_8  and  C_2 
REMARK    5  A    between atoms: C_4  and  C_3 
REMARK    6  A    between atoms: O_14  and  C_11 
ROOT
ATOM      1  C   UNL d   1       0.348   0.241  -1.242  0.00  0.00     0.064 C 
ATOM      2  C   UNL d   1       1.352   0.214  -2.405  0.00  0.00     0.018 C 
ENDROOT
BRANCH   1   3
ATOM      3  C   UNL d   1       1.132   0.115   0.062  0.00  0.00     0.163 C 
ATOM      4  O   UNL d   1       2.247   0.619   0.202  0.00  0.00    -0.292 OA
BRANCH   3   5
ATOM      5  C   UNL d   1       0.557  -0.636   1.216  0.00  0.00     0.010 A 
ATOM      6  C   UNL d   1       1.445  -1.286   2.087  0.00  0.00     0.018 A 
ATOM      7  C   UNL d   1       0.976  -1.918   3.245  0.00  0.00     0.037 A 
ATOM      8  C   UNL d   1      -0.382  -1.888   3.552  0.00  0.00     0.068 A 
ATOM      9  C   UNL d   1      -1.266  -1.246   2.680  0.00  0.00     0.037 A 
ATOM     10  C   UNL d   1      -0.808  -0.642   1.505  0.00  0.00     0.018 A 
BRANCH   8  11
ATOM     11  O   UNL d   1      -0.959  -2.399   4.681  0.00  0.00    -0.356 OA
ATOM     12  C   UNL d   1      -0.241  -3.434   5.343  0.00  0.00     0.210 C 
ENDBRANCH   8  11
ENDBRANCH   3   5
ENDBRANCH   1   3
BRANCH   1  13
ATOM     13  C   UNL d   1      -0.483   1.537  -1.253  0.00  0.00     0.096 C 
BRANCH  13  14
ATOM     14  C   UNL d   1      -1.440   1.593  -2.428  0.00  0.00     0.160 C 
ATOM     15  O   UNL d   1      -1.600   0.659  -3.212  0.00  0.00    -0.292 OA
BRANCH  14  16
ATOM     16  C   UNL d   1      -2.234   2.827  -2.652  0.00  0.00     0.010 A 
ATOM     17  C   UNL d   1      -2.449   3.252  -3.969  0.00  0.00     0.015 A 
ATOM     18  C   UNL d   1      -3.265   4.355  -4.224  0.00  0.00     0.001 A 
ATOM     19  C   UNL d   1      -3.879   5.024  -3.168  0.00  0.00     0.000 A 
ATOM     20  C   UNL d   1      -3.660   4.606  -1.853  0.00  0.00     0.001 A 
ATOM     21  C   UNL d   1      -2.832   3.513  -1.590  0.00  0.00     0.015 A 
ENDBRANCH  14  16
ENDBRANCH  13  14
ENDBRANCH   1  13
TORSDOF 6
