REMARK  6 active torsions:
REMARK  status: ('A' for Active; 'I' for Inactive)
REMARK    1  A    between atoms: N_2  and  S_1 
REMARK    2  A    between atoms: C_13  and  S_1 
REMARK    3  A    between atoms: C_3  and  N_2 
REMARK    4  A    between atoms: C_4  and  C_5 
REMARK       I    between atoms: C_6  and  N_16 
REMARK       I    between atoms: N_12  and  C_6 
REMARK    5  A    between atoms: C_11  and  N_12 
REMARK    6  A    between atoms: N_16  and  C_26 
ROOT
ATOM      1  C   UNL d   1       0.030   0.778   1.177  0.00  0.00     0.075 C 
ATOM      2  C   UNL d   1      -0.875   0.020   1.928  0.00  0.00     0.027 C 
ATOM      3  C   UNL d   1       0.472   2.008   1.659  0.00  0.00     0.027 C 
ATOM      4  C   UNL d   1      -0.733   1.638   3.743  0.00  0.00     0.036 C 
ATOM      5  C   UNL d   1       0.065   2.443   2.922  0.00  0.00     0.031 C 
ATOM      6  C   UNL d   1      -1.264   0.458   3.204  0.00  0.00     0.031 C 
ENDROOT
BRANCH   4   7
ATOM      7  N   UNL d   1      -0.962   1.910   5.120  0.00  0.00    -0.309 N 
ATOM      8  C   UNL d   1      -0.278   2.859   5.862  0.00  0.00     0.325 C 
ATOM      9  N   UNL d   1      -0.630   2.840   7.210  0.00  0.00    -0.308 N 
ATOM     10  O   UNL d   1       0.531   3.660   5.405  0.00  0.00    -0.247 OA
ATOM     11  H   UNL d   1      -1.583   2.548   7.391  0.00  0.00     0.170 HD
ATOM     12  H   UNL d   1      -1.476   1.216   5.640  0.00  0.00     0.170 HD
BRANCH   9  13
ATOM     13  C   UNL d   1      -0.058   3.787   8.110  0.00  0.00     0.051 A 
ATOM     14  C   UNL d   1      -0.854   4.519   9.007  0.00  0.00     0.074 A 
ATOM     15  C   UNL d   1      -0.260   5.570   9.739  0.00  0.00     0.018 A 
ATOM     16  C   UNL d   1       1.102   5.850   9.632  0.00  0.00     0.001 A 
ATOM     17  C   UNL d   1       1.901   5.064   8.813  0.00  0.00     0.002 A 
ATOM     18  C   UNL d   1       1.324   4.040   8.062  0.00  0.00     0.030 A 
BRANCH  14  19
ATOM     19  C   UNL d   1      -2.331   4.301   9.177  0.00  0.00     0.419 C 
ATOM     20  F   UNL d   1      -2.823   3.238   8.471  0.00  0.00    -0.166 F 
ATOM     21  F   UNL d   1      -2.676   4.064  10.473  0.00  0.00    -0.166 F 
ATOM     22  F   UNL d   1      -3.071   5.375   8.785  0.00  0.00    -0.166 F 
ENDBRANCH  14  19
ENDBRANCH   9  13
ENDBRANCH   4   7
BRANCH   1  23
ATOM     23  S   UNL d   1       0.825   0.074  -0.265  0.00  0.00     0.248 S 
ATOM     24  O   UNL d   1       2.127   0.685  -0.388  0.00  0.00    -0.205 OA
ATOM     25  O   UNL d   1       0.704  -1.370  -0.113  0.00  0.00    -0.205 OA
BRANCH  23  26
ATOM     26  N   UNL d   1      -0.157   0.485  -1.559  0.00  0.00    -0.151 NA
ATOM     27  H   UNL d   1      -1.094   0.124  -1.417  0.00  0.00     0.149 HD
BRANCH  26  28
ATOM     28  C   UNL d   1      -0.213   1.857  -1.795  0.00  0.00     0.171 A 
ATOM     29  N   UNL d   1       0.723   2.397  -2.573  0.00  0.00    -0.336 N 
ATOM     30  C   UNL d   1       0.676   3.738  -2.702  0.00  0.00     0.009 A 
ATOM     31  HN  UNL d   1       1.431   1.832  -3.042  1.00  0.00     0.168 HD
ATOM     32  C   UNL d   1       1.693   4.388  -3.592  0.00  0.00     0.068 C 
ATOM     33  C   UNL d   1      -0.263   4.508  -2.039  0.00  0.00     0.049 A 
ATOM     34  C   UNL d   1      -1.172   3.834  -1.244  0.00  0.00     0.009 A 
ATOM     35  N   UNL d   1      -1.176   2.492  -1.129  0.00  0.00    -0.336 N 
ATOM     36  C   UNL d   1      -2.182   4.592  -0.438  0.00  0.00     0.068 C 
ATOM     37  HN  UNL d   1      -1.869   1.996  -0.569  1.00  0.00     0.168 HD
ENDBRANCH  26  28
ENDBRANCH  23  26
ENDBRANCH   1  23
TORSDOF 6
