REMARK  4 active torsions:
REMARK  status: ('A' for Active; 'I' for Inactive)
REMARK    1  A    between atoms: N_11  and  C_5 
REMARK    2  A    between atoms: C_12  and  C_8 
REMARK    3  A    between atoms: S_10  and  C_12 
REMARK    4  A    between atoms: C_13  and  S_10 
ROOT
ATOM      1  N   UNL d   1       0.685   0.075   1.191  0.00  0.00    -0.322 N 
ATOM      2  HN  UNL d   1       1.190  -0.070   2.065  1.00  0.00     0.169 HD
ATOM      3  N   UNL d   1      -1.199   0.894   0.049  0.00  0.00    -0.323 N 
ATOM      4  HN  UNL d   1      -2.104   1.364   0.065  1.00  0.00     0.169 HD
ATOM      5  C   UNL d   1      -0.504   0.655   1.150  0.00  0.00     0.157 A 
ATOM      6  N   UNL d   1       0.553  -0.132  -1.162  0.00  0.00    -0.335 N 
ATOM      7  HN  UNL d   1       0.952  -0.441  -2.048  1.00  0.00     0.168 HD
ATOM      8  C   UNL d   1       1.178  -0.306   0.008  0.00  0.00     0.094 A 
ATOM      9  C   UNL d   1      -0.632   0.476  -1.084  0.00  0.00     0.080 A 
ATOM     10  C   UNL d   1      -1.391   0.703  -2.354  0.00  0.00     0.089 C 
ENDROOT
BRANCH   8  11
ATOM     11  C   UNL d   1       2.523  -0.997  -0.002  0.00  0.00     0.156 C 
BRANCH  11  12
ATOM     12  S   UNL d   1       3.904   0.197  -0.118  0.00  0.00    -0.122 SA
BRANCH  12  13
ATOM     13  C   UNL d   1       5.332  -0.874  -0.239  0.00  0.00     0.001 A 
ATOM     14  C   UNL d   1       6.427  -0.411  -0.982  0.00  0.00     0.018 A 
ATOM     15  C   UNL d   1       7.597  -1.169  -1.084  0.00  0.00     0.001 A 
ATOM     16  C   UNL d   1       7.687  -2.399  -0.439  0.00  0.00     0.000 A 
ATOM     17  C   UNL d   1       6.609  -2.868   0.308  0.00  0.00     0.001 A 
ATOM     18  C   UNL d   1       5.439  -2.107   0.411  0.00  0.00     0.018 A 
ENDBRANCH  12  13
ENDBRANCH  11  12
ENDBRANCH   8  11
BRANCH   5  19
ATOM     19  N   UNL d   1      -1.051   1.074   2.347  0.00  0.00    -0.274 NA
ATOM     20  H   UNL d   1      -1.707   1.824   2.181  0.00  0.00     0.127 HD
ATOM     21  H   UNL d   1      -0.317   1.243   3.021  0.00  0.00     0.127 HD
ENDBRANCH   5  19
TORSDOF 4
