REMARK  5 active torsions:
REMARK  status: ('A' for Active; 'I' for Inactive)
REMARK    1  A    between atoms: C_7  and  N_1 
REMARK    2  A    between atoms: C_14  and  C_7 
REMARK    3  A    between atoms: N_10  and  C_15 
REMARK    4  A    between atoms: C_15  and  C_14 
REMARK    5  A    between atoms: O_22  and  C_14 
ROOT
ATOM      1  N   UNL d   1       0.244  -1.600  -0.776  0.00  0.00    -0.342 N 
ATOM      2  C   UNL d   1       0.656  -1.301  -2.070  0.00  0.00     0.064 A 
ATOM      3  C   UNL d   1       1.120   0.025  -2.022  0.00  0.00     0.006 A 
ATOM      4  C   UNL d   1       0.835   0.552  -0.726  0.00  0.00     0.005 A 
ATOM      5  C   UNL d   1       0.200  -0.448  -0.001  0.00  0.00     0.046 A 
ATOM      6  C   UNL d   1       0.718  -2.023  -3.286  0.00  0.00     0.040 A 
ATOM      7  C   UNL d   1       1.306  -1.420  -4.410  0.00  0.00     0.040 A 
ATOM      8  C   UNL d   1      -0.265  -0.229   1.311  0.00  0.00     0.032 A 
ATOM      9  C   UNL d   1       1.726   0.601  -3.161  0.00  0.00     0.033 A 
ATOM     10  C   UNL d   1       1.060   1.807  -0.118  0.00  0.00     0.033 A 
ATOM     11  C   UNL d   1       1.821  -0.136  -4.337  0.00  0.00     0.013 A 
ATOM     12 BR   UNL d   1      -0.013  -3.750  -3.552  0.00  0.00    -0.049 Br
ATOM     13  C   UNL d   1       0.638   2.011   1.197  0.00  0.00     0.011 A 
ATOM     14  C   UNL d   1      -0.024   1.013   1.901  0.00  0.00     0.021 A 
ATOM     15 BR   UNL d   1       2.643   0.635  -5.856  0.00  0.00    -0.051 Br
ATOM     16 BR   UNL d   1       0.984   3.671   2.038  0.00  0.00    -0.051 Br
ENDROOT
BRANCH   1  17
ATOM     17  C   UNL d   1       0.059  -2.923  -0.193  0.00  0.00     0.163 C 
BRANCH  17  18
ATOM     18  C   UNL d   1       1.352  -3.535   0.378  0.00  0.00     0.164 C 
BRANCH  18  19
ATOM     19  C   UNL d   1       1.931  -2.730   1.568  0.00  0.00     0.305 C 
BRANCH  19  20
ATOM     20  N   UNL d   1       3.038  -3.412   2.284  0.00  0.00     0.095 N 
ATOM     21  C   UNL d   1       4.257  -3.498   1.442  0.00  0.00     0.298 C 
ATOM     22  C   UNL d   1       5.466  -4.028   2.232  0.00  0.00     0.198 C 
ATOM     23  O   UNL d   1       5.742  -3.208   3.375  0.00  0.00    -0.388 OA
ATOM     24  C   UNL d   1       4.599  -3.173   4.237  0.00  0.00     0.198 C 
ATOM     25  C   UNL d   1       3.374  -2.618   3.498  0.00  0.00     0.298 C 
ENDBRANCH  19  20
ENDBRANCH  18  19
BRANCH  18  26
ATOM     26  O   UNL d   1       1.062  -4.865   0.836  0.00  0.00    -0.392 OA
ATOM     27  H   UNL d   1       1.754  -5.061   1.502  0.00  0.00     0.210 HD
ENDBRANCH  18  26
ENDBRANCH  17  18
ENDBRANCH   1  17
TORSDOF 5
