REMARK  2 active torsions:
REMARK  status: ('A' for Active; 'I' for Inactive)
REMARK    1  A    between atoms: N_2  and  C_1 
REMARK    2  A    between atoms: C_5  and  N_4 
ROOT
ATOM      1  N   UNL d   1       3.657  -1.454   0.181  0.00  0.00    -0.381 N 
ATOM      2  N   UNL d   1       5.643  -3.313   1.151  0.00  0.00    -0.376 N 
ATOM      3  C   UNL d   1       4.075  -2.590  -0.669  0.00  0.00     0.142 C 
ATOM      4  C   UNL d   1       4.744  -1.006   1.083  0.00  0.00     0.142 C 
ATOM      5  C   UNL d   1       4.628  -3.766   0.178  0.00  0.00     0.143 C 
ATOM      6  C   UNL d   1       5.207  -2.170   1.979  0.00  0.00     0.143 C 
ENDROOT
BRANCH   1   7
ATOM      7  C   UNL d   1       2.458  -0.757   0.020  0.00  0.00     0.008 C 
ATOM      8  C   UNL d   1       1.842  -0.109   1.029  0.00  0.00     0.037 C 
ATOM      9  C   UNL d   1       0.581   0.612   0.842  0.00  0.00    -0.028 A 
ATOM     10  C   UNL d   1      -0.169   1.025   1.950  0.00  0.00     0.012 A 
ATOM     11  C   UNL d   1       0.140   0.922  -0.454  0.00  0.00    -0.048 A 
ATOM     12  C   UNL d   1      -1.347   1.751   1.768  0.00  0.00     0.001 A 
ATOM     13  C   UNL d   1      -1.773   2.075   0.482  0.00  0.00     0.001 A 
ATOM     14  C   UNL d   1      -1.032   1.668  -0.628  0.00  0.00     0.008 A 
ATOM     15  C   UNL d   1       0.985   0.519  -1.633  0.00  0.00     0.045 C 
ATOM     16  C   UNL d   1       1.805  -0.748  -1.355  0.00  0.00     0.061 C 
ENDBRANCH   1   7
BRANCH   2  17
ATOM     17  C   UNL d   1       6.908  -3.868   1.255  0.00  0.00     0.052 A 
ATOM     18  C   UNL d   1       7.218  -5.240   1.092  0.00  0.00     0.060 A 
ATOM     19 CL   UNL d   1       6.015  -6.477   0.884  0.00  0.00    -0.082 Cl
ATOM     20  C   UNL d   1       8.539  -5.713   1.186  0.00  0.00     0.026 A 
ATOM     21  C   UNL d   1       9.586  -4.847   1.476  0.00  0.00     0.002 A 
ATOM     22  C   UNL d   1       9.317  -3.501   1.665  0.00  0.00     0.002 A 
ATOM     23  C   UNL d   1       8.005  -3.027   1.544  0.00  0.00     0.031 A 
ENDBRANCH   2  17
TORSDOF 2
