REMARK  3 active torsions:
REMARK  status: ('A' for Active; 'I' for Inactive)
REMARK    1  A    between atoms: N_9  and  C_1 
REMARK    2  A    between atoms: C_8  and  N_2 
REMARK    3  A    between atoms: C_7  and  C_3 
ROOT
ATOM      1  C   UNL d   1      -0.351  -1.146  -0.066  0.00  0.00     0.116 C 
ATOM      2  N   UNL d   1       0.936  -0.606   0.023  0.00  0.00    -0.244 N 
ATOM      3  C   UNL d   1      -1.242  -0.072  -0.009  0.00  0.00     0.065 C 
ATOM      4  N   UNL d   1       0.894   0.729   0.235  0.00  0.00    -0.296 N 
ATOM      5  HN  UNL d   1       1.679   1.346   0.445  1.00  0.00     0.187 HD
ATOM      6  C   UNL d   1      -0.391   1.069   0.113  0.00  0.00     0.039 C 
ATOM      7  C   UNL d   1      -0.703   2.523   0.102  0.00  0.00     0.071 C 
ENDROOT
BRANCH   2   8
ATOM      8  C   UNL d   1       2.203  -1.254  -0.058  0.00  0.00     0.058 A 
ATOM      9  C   UNL d   1       2.384  -2.422  -0.806  0.00  0.00     0.031 A 
ATOM     10  C   UNL d   1       3.648  -3.017  -0.871  0.00  0.00     0.002 A 
ATOM     11  C   UNL d   1       4.726  -2.459  -0.183  0.00  0.00     0.000 A 
ATOM     12  C   UNL d   1       4.552  -1.290   0.554  0.00  0.00     0.002 A 
ATOM     13  C   UNL d   1       3.299  -0.678   0.606  0.00  0.00     0.031 A 
ENDBRANCH   2   8
BRANCH   1  14
ATOM     14  N   UNL d   1      -0.621  -2.487  -0.097  0.00  0.00    -0.286 NA
ATOM     15  H   UNL d   1       0.092  -3.128   0.261  0.00  0.00     0.125 HD
ATOM     16  H   UNL d   1      -1.541  -2.781   0.237  0.00  0.00     0.125 HD
ENDBRANCH   1  14
BRANCH   3  17
ATOM     17  C   UNL d   1      -2.688  -0.190  -0.064  0.00  0.00     0.110 C 
ATOM     18  S   UNL d   1      -3.679   0.781   0.845  0.00  0.00    -0.060 SA
ATOM     19  N   UNL d   1      -3.211  -1.184  -0.839  0.00  0.00    -0.389 N 
ATOM     20  H   UNL d   1      -2.611  -1.771  -1.407  0.00  0.00     0.157 HD
ATOM     21  H   UNL d   1      -4.215  -1.296  -0.902  0.00  0.00     0.157 HD
ENDBRANCH   3  17
TORSDOF 3
