REMARK  3 active torsions:
REMARK  status: ('A' for Active; 'I' for Inactive)
REMARK    1  A    between atoms: O_4  and  C_1 
REMARK    2  A    between atoms: C_6  and  O_4 
REMARK       I    between atoms: N_9  and  C_6 
REMARK    3  A    between atoms: C_12  and  N_9 
ROOT
ATOM      1  C   UNL d   1      -2.635  -0.956  -0.534  0.00  0.00     0.186 A 
ATOM      2  N   UNL d   1      -2.222   0.314  -0.456  0.00  0.00    -0.237 N 
ATOM      3  HN  UNL d   1      -1.273   0.666  -0.581  1.00  0.00     0.197 HD
ATOM      4  C   UNL d   1      -4.034  -1.087  -0.379  0.00  0.00     0.053 A 
ATOM      5  O   UNL d   1      -3.364   1.047  -0.169  0.00  0.00    -0.235 OA
ATOM      6  C   UNL d   1      -4.440   0.215  -0.134  0.00  0.00     0.113 A 
ATOM      7  C   UNL d   1      -5.013  -2.098  -0.416  0.00  0.00     0.019 A 
ATOM      8  C   UNL d   1      -5.758   0.601   0.101  0.00  0.00     0.040 A 
ATOM      9  C   UNL d   1      -6.352  -1.742  -0.190  0.00  0.00     0.001 A 
ATOM     10  C   UNL d   1      -6.716  -0.417   0.067  0.00  0.00     0.003 A 
ENDROOT
BRANCH   1  11
ATOM     11  O   UNL d   1      -1.675  -1.853  -0.822  0.00  0.00    -0.241 OA
BRANCH  11  12
ATOM     12  C   UNL d   1      -1.610  -2.979  -0.070  0.00  0.00     0.367 C 
ATOM     13  N   UNL d   1      -0.481  -3.720  -0.287  0.00  0.00    -0.333 N 
ATOM     14  H   UNL d   1      -0.449  -4.555   0.284  0.00  0.00     0.165 HD
ATOM     15  O   UNL d   1      -2.425  -3.347   0.768  0.00  0.00    -0.238 OA
BRANCH  13  16
ATOM     16  C   UNL d   1       0.606  -3.502  -1.236  0.00  0.00     0.078 C 
ATOM     17  C   UNL d   1       0.192  -3.884  -2.653  0.00  0.00     0.032 C 
ATOM     18  C   UNL d   1       1.202  -2.096  -1.183  0.00  0.00     0.032 C 
ENDBRANCH  13  16
ENDBRANCH  11  12
ENDBRANCH   1  11
TORSDOF 3
