REMARK  6 active torsions:
REMARK  status: ('A' for Active; 'I' for Inactive)
REMARK    1  A    between atoms: C_4  and  C_1 
REMARK    2  A    between atoms: C_7  and  C_1 
REMARK    3  A    between atoms: C_3  and  C_2 
REMARK    4  A    between atoms: C_6  and  C_3 
REMARK    5  A    between atoms: C_5  and  C_4 
REMARK    6  A    between atoms: C_10  and  C_5 
ROOT
ATOM      1  C   UNL d   1       1.145  -0.101  -0.213  0.00  0.00    -0.037 C 
ATOM      2  C   UNL d   1       0.633  -1.353  -0.124  0.00  0.00     0.064 C 
ENDROOT
BRANCH   1   3
ATOM      3  C   UNL d   1       0.235   1.131  -0.149  0.00  0.00     0.123 C 
BRANCH   3   4
ATOM      4  C   UNL d   1      -1.231   0.999   0.295  0.00  0.00     0.163 C 
ATOM      5  O   UNL d   1      -1.615   0.144   1.091  0.00  0.00    -0.292 OA
BRANCH   4   6
ATOM      6  C   UNL d   1      -2.226   1.994  -0.225  0.00  0.00     0.010 A 
ATOM      7  C   UNL d   1      -1.849   3.176  -0.878  0.00  0.00     0.015 A 
ATOM      8  C   UNL d   1      -2.822   4.066  -1.344  0.00  0.00     0.001 A 
ATOM      9  C   UNL d   1      -4.174   3.791  -1.150  0.00  0.00     0.000 A 
ATOM     10  C   UNL d   1      -4.559   2.626  -0.490  0.00  0.00     0.001 A 
ATOM     11  C   UNL d   1      -3.590   1.731  -0.030  0.00  0.00     0.015 A 
ENDBRANCH   4   6
ENDBRANCH   3   4
ENDBRANCH   1   3
BRANCH   1  12
ATOM     12  C   UNL d   1       2.596   0.256  -0.371  0.00  0.00    -0.029 A 
ATOM     13  C   UNL d   1       2.980   1.396  -1.111  0.00  0.00     0.012 A 
ATOM     14  C   UNL d   1       4.306   1.846  -1.147  0.00  0.00     0.001 A 
ATOM     15  C   UNL d   1       5.292   1.150  -0.462  0.00  0.00     0.000 A 
ATOM     16  C   UNL d   1       4.950  -0.003   0.240  0.00  0.00     0.001 A 
ATOM     17  C   UNL d   1       3.618  -0.436   0.293  0.00  0.00     0.012 A 
ENDBRANCH   1  12
BRANCH   2  18
ATOM     18  C   UNL d   1       1.292  -2.687  -0.195  0.00  0.00     0.182 C 
ATOM     19  O   UNL d   1       2.284  -2.899  -0.888  0.00  0.00    -0.288 OA
BRANCH  18  20
ATOM     20  C   UNL d   1       0.641  -3.812   0.544  0.00  0.00     0.014 A 
ATOM     21  C   UNL d   1       0.821  -5.119   0.061  0.00  0.00     0.018 A 
ATOM     22  C   UNL d   1       0.280  -6.210   0.747  0.00  0.00     0.043 A 
ATOM     23  C   UNL d   1      -0.436  -5.998   1.919  0.00  0.00     0.116 A 
ATOM     24  C   UNL d   1      -0.636  -4.712   2.409  0.00  0.00     0.043 A 
ATOM     25  F   UNL d   1      -0.931  -7.046   2.590  0.00  0.00    -0.206 F 
ATOM     26  C   UNL d   1      -0.100  -3.614   1.722  0.00  0.00     0.018 A 
ENDBRANCH  18  20
ENDBRANCH   2  18
TORSDOF 6
