REMARK  2 active torsions:
REMARK  status: ('A' for Active; 'I' for Inactive)
REMARK       I    between atoms: N_3  and  C_1 
REMARK       I    between atoms: N_6  and  C_1 
REMARK    1  A    between atoms: C_5  and  N_3 
REMARK    2  A    between atoms: C_8  and  N_6 
ROOT
ATOM      1  C   UNL d   1       1.503  -1.684  -2.637  0.00  0.00    -0.086 C 
ATOM      2  C   UNL d   1       1.816  -1.224  -3.712  0.00  0.00     0.015 C 
ATOM      3  C   UNL d   1       0.989  -2.210  -1.345  0.00  0.00     0.097 C 
ATOM      4  C   UNL d   1       0.095  -3.429  -1.723  0.00  0.00     0.044 C 
ATOM      5  C   UNL d   1       2.093  -2.723  -0.387  0.00  0.00     0.044 C 
ATOM      6  C   UNL d   1      -0.417  -4.277  -0.562  0.00  0.00     0.004 C 
ATOM      7  C   UNL d   1       1.490  -3.434   0.836  0.00  0.00     0.004 C 
ATOM      8  C   UNL d   1       0.689  -4.657   0.414  0.00  0.00     0.000 C 
ENDROOT
BRANCH   3   9
ATOM      9  N   UNL d   1       0.219  -1.125  -0.698  0.00  0.00    -0.323 N 
ATOM     10  C   UNL d   1       0.846   0.071  -0.373  0.00  0.00     0.322 C 
ATOM     11  N   UNL d   1      -0.020   0.982   0.198  0.00  0.00    -0.309 N 
ATOM     12  O   UNL d   1       2.041   0.268  -0.555  0.00  0.00    -0.247 OA
ATOM     13  H   UNL d   1      -0.837   0.588   0.639  0.00  0.00     0.170 HD
ATOM     14  H   UNL d   1      -0.753  -1.040  -0.959  0.00  0.00     0.166 HD
BRANCH  11  15
ATOM     15  C   UNL d   1       0.329   2.308   0.561  0.00  0.00     0.036 A 
ATOM     16  C   UNL d   1       1.413   2.996   0.007  0.00  0.00     0.029 A 
ATOM     17  C   UNL d   1       1.743   4.287   0.436  0.00  0.00     0.002 A 
ATOM     18  C   UNL d   1       0.979   4.907   1.420  0.00  0.00     0.000 A 
ATOM     19  C   UNL d   1      -0.124   4.245   1.955  0.00  0.00     0.002 A 
ATOM     20  C   UNL d   1      -0.455   2.960   1.520  0.00  0.00     0.029 A 
ENDBRANCH  11  15
ENDBRANCH   3   9
TORSDOF 2
