REMARK  5 active torsions:
REMARK  status: ('A' for Active; 'I' for Inactive)
REMARK    1  A    between atoms: S_2  and  C_1 
REMARK    2  A    between atoms: C_8  and  S_2 
REMARK    3  A    between atoms: C_5  and  C_4 
REMARK    4  A    between atoms: O_12  and  C_5 
REMARK    5  A    between atoms: C_21  and  O_12 
ROOT
ATOM      1  N   UNL d   1       1.382  -2.204   3.072  0.00  0.00    -0.191 NA
ATOM      2  C   UNL d   1       1.982  -2.906   2.372  0.00  0.00     0.101 C 
ATOM      3  C   UNL d   1       2.729  -3.875   0.181  0.00  0.00     0.026 A 
ATOM      4  C   UNL d   1       2.784  -3.800   1.585  0.00  0.00     0.061 A 
ATOM      5  C   UNL d   1       3.658  -4.650   2.294  0.00  0.00     0.024 A 
ATOM      6  C   UNL d   1       3.565  -4.806  -0.470  0.00  0.00     0.020 A 
ATOM      7  C   UNL d   1       4.471  -5.567   1.628  0.00  0.00     0.002 A 
ATOM      8  C   UNL d   1       4.429  -5.639   0.242  0.00  0.00     0.001 A 
ENDROOT
BRANCH   3   9
ATOM      9  S   UNL d   1       1.604  -3.028  -0.924  0.00  0.00    -0.088 SA
BRANCH   9  10
ATOM     10  C   UNL d   1       1.362  -1.373  -0.284  0.00  0.00     0.017 A 
ATOM     11  C   UNL d   1       0.047  -0.811  -0.071  0.00  0.00     0.007 A 
ATOM     12  C   UNL d   1      -1.227  -1.480  -0.043  0.00  0.00     0.051 A 
ATOM     13  C   UNL d   1      -0.003   0.607   0.099  0.00  0.00    -0.024 A 
ATOM     14  C   UNL d   1      -2.438  -0.760   0.034  0.00  0.00     0.018 A 
ATOM     15  C   UNL d   1      -2.438   0.621   0.129  0.00  0.00     0.002 A 
ATOM     16  C   UNL d   1      -1.226   1.292   0.184  0.00  0.00     0.012 A 
ATOM     17  C   UNL d   1       1.167   1.376   0.163  0.00  0.00     0.012 A 
ATOM     18  C   UNL d   1       2.419   0.794   0.033  0.00  0.00     0.002 A 
ATOM     19  C   UNL d   1       2.514  -0.567  -0.212  0.00  0.00     0.020 A 
BRANCH  12  20
ATOM     20  C   UNL d   1      -1.455  -2.949  -0.033  0.00  0.00     0.294 C 
ATOM     21  O   UNL d   1      -2.339  -3.476  -0.689  0.00  0.00    -0.259 OA
BRANCH  20  22
ATOM     22  O   UNL d   1      -0.727  -3.532   0.948  0.00  0.00    -0.318 OA
BRANCH  22  23
ATOM     23  C   UNL d   1      -1.103  -4.853   1.381  0.00  0.00     0.174 C 
ATOM     24  C   UNL d   1      -1.081  -5.925   0.303  0.00  0.00     0.034 C 
ENDBRANCH  22  23
ENDBRANCH  20  22
ENDBRANCH  12  20
ENDBRANCH   9  10
ENDBRANCH   3   9
TORSDOF 5
