REMARK  8 active torsions:
REMARK  status: ('A' for Active; 'I' for Inactive)
REMARK    1  A    between atoms: O_7  and  C_1 
REMARK       I    between atoms: C_2  and  N_6 
REMARK    2  A    between atoms: C_3  and  C_2 
REMARK    3  A    between atoms: C_4  and  C_5 
REMARK    4  A    between atoms: O_18  and  C_4 
REMARK    5  A    between atoms: N_6  and  C_14 
REMARK    6  A    between atoms: C_15  and  O_7 
REMARK    7  A    between atoms: O_10  and  C_16 
REMARK    8  A    between atoms: C_17  and  O_10 
ROOT
ATOM      1  C   UNL d   1       5.733  -7.399   1.893  0.00  0.00     0.035 A 
ATOM      2  C   UNL d   1       3.040  -6.604   2.019  0.00  0.00     0.076 A 
ATOM      3  C   UNL d   1       5.253  -6.694   3.000  0.00  0.00     0.032 A 
ATOM      4  C   UNL d   1       4.844  -7.738   0.868  0.00  0.00     0.032 A 
ATOM      5  C   UNL d   1       3.514  -7.315   0.913  0.00  0.00     0.039 A 
ATOM      6  C   UNL d   1       3.912  -6.294   3.060  0.00  0.00     0.039 A 
ENDROOT
BRANCH   2   7
ATOM      7  O   UNL d   1       1.744  -6.141   2.135  0.00  0.00    -0.311 OA
BRANCH   7   8
ATOM      8  C   UNL d   1       0.738  -6.925   1.619  0.00  0.00     0.076 A 
ATOM      9  C   UNL d   1       0.715  -8.309   1.780  0.00  0.00     0.040 A 
ATOM     10  C   UNL d   1      -0.265  -9.063   1.140  0.00  0.00     0.040 A 
ATOM     11  C   UNL d   1      -1.259  -8.441   0.380  0.00  0.00     0.078 A 
ATOM     12  C   UNL d   1      -1.311  -7.046   0.336  0.00  0.00     0.040 A 
ATOM     13  C   UNL d   1      -0.302  -6.289   0.944  0.00  0.00     0.040 A 
BRANCH  11  14
ATOM     14  O   UNL d   1      -2.132  -9.303  -0.205  0.00  0.00    -0.255 OA
BRANCH  14  15
ATOM     15  C   UNL d   1      -2.769  -8.952  -1.424  0.00  0.00     0.530 C 
ATOM     16  F   UNL d   1      -2.342  -7.794  -1.968  0.00  0.00    -0.144 F 
ATOM     17  F   UNL d   1      -4.100  -8.870  -1.216  0.00  0.00    -0.144 F 
ATOM     18  F   UNL d   1      -2.545  -9.936  -2.325  0.00  0.00    -0.144 F 
ENDBRANCH  14  15
ENDBRANCH  11  14
ENDBRANCH   7   8
ENDBRANCH   2   7
BRANCH   1  19
ATOM     19  N   UNL d   1       7.087  -7.754   1.704  0.00  0.00    -0.324 N 
ATOM     20  C   UNL d   1       8.158  -7.361   2.474  0.00  0.00     0.245 C 
ATOM     21  O   UNL d   1       8.135  -6.723   3.514  0.00  0.00    -0.268 OA
ATOM     22  H   UNL d   1       7.286  -8.262   0.851  0.00  0.00     0.169 HD
BRANCH  20  23
ATOM     23  C   UNL d   1       9.455  -7.782   1.880  0.00  0.00     0.081 C 
ATOM     24  C   UNL d   1      10.595  -7.425   2.488  0.00  0.00     0.086 C 
BRANCH  24  25
ATOM     25  C   UNL d   1      11.870  -7.858   1.899  0.00  0.00     0.165 C 
ATOM     26  O   UNL d   1      11.965  -8.506   0.873  0.00  0.00    -0.647 OA
BRANCH  25  27
ATOM     27  O   UNL d   1      12.931  -7.463   2.630  0.00  0.00    -0.773 OA
ATOM     28  H   UNL d   1      12.723  -6.954   3.435  0.00  0.00     0.167 HD
ENDBRANCH  25  27
ENDBRANCH  24  25
ENDBRANCH  20  23
ENDBRANCH   1  19
TORSDOF 8
