REMARK  2 active torsions:
REMARK  status: ('A' for Active; 'I' for Inactive)
REMARK    1  A    between atoms: C_6  and  C_1 
REMARK    2  A    between atoms: C_11  and  C_6 
ROOT
ATOM      1  C   UNL d   1      -2.783  -0.644   0.092  0.00  0.00     0.088 C 
ATOM      2  C   UNL d   1      -2.389   0.648   0.156  0.00  0.00     0.063 C 
ATOM      3  C   UNL d   1      -1.731  -1.704   0.138  0.00  0.00     0.199 C 
ATOM      4  C   UNL d   1      -0.946   1.039   0.106  0.00  0.00    -0.001 A 
ATOM      5  C   UNL d   1      -0.313  -1.322   0.057  0.00  0.00     0.027 A 
ATOM      6  C   UNL d   1       0.036   0.029   0.058  0.00  0.00     0.000 A 
ATOM      7  O   UNL d   1      -2.006  -2.896   0.279  0.00  0.00    -0.286 OA
ATOM      8 CL   UNL d   1      -3.535   1.957   0.279  0.00  0.00    -0.082 Cl
ATOM      9  C   UNL d   1       1.418   0.362   0.001  0.00  0.00    -0.024 A 
ATOM     10  C   UNL d   1      -0.516   2.377   0.068  0.00  0.00     0.014 A 
ATOM     11  C   UNL d   1       0.659  -2.332  -0.003  0.00  0.00     0.016 A 
ATOM     12  C   UNL d   1       0.841   2.707   0.006  0.00  0.00     0.002 A 
ATOM     13  C   UNL d   1       2.006  -1.999  -0.042  0.00  0.00     0.002 A 
ATOM     14  C   UNL d   1       2.383  -0.659  -0.036  0.00  0.00     0.012 A 
ATOM     15  C   UNL d   1       1.800   1.701  -0.017  0.00  0.00     0.012 A 
ENDROOT
BRANCH   1  16
ATOM     16  C   UNL d   1      -4.240  -1.045   0.058  0.00  0.00     0.198 C 
ATOM     17  O   UNL d   1      -5.108  -0.429   0.672  0.00  0.00    -0.286 OA
BRANCH  16  18
ATOM     18  C   UNL d   1      -4.639  -2.279  -0.685  0.00  0.00     0.015 A 
ATOM     19  C   UNL d   1      -5.701  -3.037  -0.174  0.00  0.00     0.015 A 
ATOM     20  C   UNL d   1      -5.985  -4.297  -0.704  0.00  0.00     0.001 A 
ATOM     21  C   UNL d   1      -5.214  -4.800  -1.751  0.00  0.00     0.000 A 
ATOM     22  C   UNL d   1      -4.211  -4.016  -2.319  0.00  0.00     0.001 A 
ATOM     23  C   UNL d   1      -3.947  -2.740  -1.813  0.00  0.00     0.015 A 
ENDBRANCH  16  18
ENDBRANCH   1  16
TORSDOF 2
