REMARK  7 active torsions:
REMARK  status: ('A' for Active; 'I' for Inactive)
REMARK    1  A    between atoms: C_7  and  C_3 
REMARK    2  A    between atoms: S_9  and  C_5 
REMARK    3  A    between atoms: C_16  and  S_9 
REMARK    4  A    between atoms: C_17  and  N_10 
REMARK    5  A    between atoms: C_14  and  C_16 
REMARK    6  A    between atoms: O_19  and  C_14 
REMARK    7  A    between atoms: C_25  and  O_19 
ROOT
ATOM      1  N   UNL d   1       1.561  -1.289   0.095  0.00  0.00    -0.329 N 
ATOM      2  HN  UNL d   1       1.679  -2.302   0.095  1.00  0.00     0.168 HD
ATOM      3  C   UNL d   1       1.998   0.972   0.079  0.00  0.00     0.090 A 
ATOM      4  C   UNL d   1       0.456  -0.597   0.094  0.00  0.00     0.156 A 
ATOM      5  C   UNL d   1       2.533  -0.310   0.097  0.00  0.00     0.101 A 
ATOM      6  N   UNL d   1       0.644   0.753   0.089  0.00  0.00    -0.298 N 
ATOM      7  S   UNL d   1      -1.235  -0.998   0.065  0.00  0.00    -0.064 SA
ATOM      8  C   UNL d   1      -0.511   1.506   0.060  0.00  0.00     0.107 A 
ATOM      9  C   UNL d   1      -1.611   0.733   0.045  0.00  0.00     0.071 A 
ENDROOT
BRANCH   3  10
ATOM     10  C   UNL d   1       2.665   2.233   0.034  0.00  0.00     0.121 C 
ATOM     11  N   UNL d   1       2.076   3.301   0.462  0.00  0.00    -0.364 N 
ATOM     12  HN  UNL d   1       1.123   3.244   0.820  1.00  0.00     0.165 HD
BRANCH  11  13
ATOM     13  C   UNL d   1       2.739   4.540   0.438  0.00  0.00     0.032 A 
ATOM     14  C   UNL d   1       1.932   5.684   0.446  0.00  0.00     0.031 A 
ATOM     15  C   UNL d   1       2.493   6.965   0.441  0.00  0.00     0.026 A 
ATOM     16  C   UNL d   1       3.876   7.110   0.427  0.00  0.00     0.034 A 
ATOM     17  C   UNL d   1       4.698   5.987   0.437  0.00  0.00     0.026 A 
ATOM     18 CL   UNL d   1       4.574   8.681   0.407  0.00  0.00    -0.084 Cl
ATOM     19  C   UNL d   1       4.130   4.708   0.456  0.00  0.00     0.031 A 
ENDBRANCH  11  13
ENDBRANCH   3  10
BRANCH   5  20
ATOM     20  S   UNL d   1       4.243  -0.699   0.150  0.00  0.00    -0.100 SA
BRANCH  20  21
ATOM     21  C   UNL d   1       4.258  -2.251  -0.792  0.00  0.00     0.191 C 
BRANCH  21  22
ATOM     22  C   UNL d   1       3.679  -2.065  -2.178  0.00  0.00     0.268 C 
ATOM     23  O   UNL d   1       3.670  -1.023  -2.822  0.00  0.00    -0.264 OA
BRANCH  22  24
ATOM     24  O   UNL d   1       3.162  -3.253  -2.610  0.00  0.00    -0.321 OA
BRANCH  24  25
ATOM     25  C   UNL d   1       2.268  -3.160  -3.727  0.00  0.00     0.174 C 
ATOM     26  C   UNL d   1       0.873  -2.872  -3.200  0.00  0.00     0.034 C 
ENDBRANCH  24  25
ENDBRANCH  22  24
ENDBRANCH  21  22
ENDBRANCH  20  21
ENDBRANCH   5  20
TORSDOF 7
