REMARK  8 active torsions:
REMARK  status: ('A' for Active; 'I' for Inactive)
REMARK    1  A    between atoms: C_15  and  C_6 
REMARK    2  A    between atoms: N_7  and  C_9 
REMARK    3  A    between atoms: N_8  and  C_14 
REMARK    4  A    between atoms: O_27  and  C_15 
REMARK    5  A    between atoms: C_29  and  O_27 
REMARK    6  A    between atoms: O_28  and  C_30 
REMARK    7  A    between atoms: C_31  and  O_28 
REMARK    8  A    between atoms: C_30  and  C_29 
ROOT
ATOM      1  C   UNL d   1      -1.722   0.516  -0.046  0.00  0.00     0.003 A 
ATOM      2  C   UNL d   1       0.594   0.030   0.073  0.00  0.00     0.018 A 
ATOM      3  C   UNL d   1      -0.438   1.129   0.099  0.00  0.00    -0.008 A 
ATOM      4  C   UNL d   1      -0.156  -1.271   0.057  0.00  0.00    -0.009 A 
ATOM      5  C   UNL d   1      -1.538  -0.945  -0.040  0.00  0.00    -0.013 A 
ATOM      6  C   UNL d   1      -2.867   1.327  -0.131  0.00  0.00     0.053 A 
ATOM      7  C   UNL d   1      -1.456   3.300   0.214  0.00  0.00     0.104 A 
ATOM      8  C   UNL d   1       1.942   0.184  -0.010  0.00  0.00     0.136 C 
ATOM      9  C   UNL d   1      -0.306   2.508   0.251  0.00  0.00     0.049 A 
ATOM     10  C   UNL d   1      -2.715   2.724   0.010  0.00  0.00     0.054 A 
ATOM     11  C   UNL d   1       0.264  -2.595   0.154  0.00  0.00     0.049 A 
ATOM     12  C   UNL d   1      -0.701  -3.613   0.129  0.00  0.00     0.103 A 
ATOM     13  C   UNL d   1       2.582   1.454  -0.083  0.00  0.00     0.111 C 
ATOM     14  C   UNL d   1       2.854  -0.907  -0.076  0.00  0.00     0.111 C 
ATOM     15  N   UNL d   1       3.113   2.484  -0.147  0.00  0.00    -0.191 NA
ATOM     16  N   UNL d   1       3.616  -1.785  -0.128  0.00  0.00    -0.191 NA
ATOM     17  C   UNL d   1      -2.482  -1.970  -0.038  0.00  0.00     0.015 A 
ATOM     18  C   UNL d   1      -2.065  -3.305   0.029  0.00  0.00     0.037 A 
ENDROOT
BRANCH   6  19
ATOM     19  C   UNL d   1      -4.218   0.847  -0.549  0.00  0.00     0.294 C 
ATOM     20  O   UNL d   1      -4.412  -0.048  -1.351  0.00  0.00    -0.259 OA
BRANCH  19  21
ATOM     21  O   UNL d   1      -5.174   1.685  -0.067  0.00  0.00    -0.315 OA
BRANCH  21  22
ATOM     22  C   UNL d   1      -6.102   2.146  -1.063  0.00  0.00     0.205 C 
BRANCH  22  23
ATOM     23  C   UNL d   1      -7.523   1.642  -0.856  0.00  0.00     0.194 C 
BRANCH  23  24
ATOM     24  O   UNL d   1      -8.341   2.237  -1.868  0.00  0.00    -0.389 OA
BRANCH  24  25
ATOM     25  C   UNL d   1      -9.702   1.829  -1.780  0.00  0.00     0.163 C 
ATOM     26  C   UNL d   1     -10.482   2.499  -2.897  0.00  0.00     0.033 C 
ENDBRANCH  24  25
ENDBRANCH  23  24
ENDBRANCH  22  23
ENDBRANCH  21  22
ENDBRANCH  19  21
ENDBRANCH   6  19
BRANCH   7  27
ATOM     27  N   UNL d   1      -1.345   4.760   0.361  0.00  0.00    -0.116 N 
ATOM     28  O   UNL d   1      -0.217   5.236   0.538  0.00  0.00    -0.532 OA
ATOM     29  O   UNL d   1      -2.390   5.422   0.303  0.00  0.00    -0.532 OA
ENDBRANCH   7  27
BRANCH  12  30
ATOM     30  N   UNL d   1      -0.278  -5.020   0.232  0.00  0.00    -0.116 N 
ATOM     31  O   UNL d   1       0.931  -5.248   0.366  0.00  0.00    -0.532 OA
ATOM     32  O   UNL d   1      -1.159  -5.887   0.185  0.00  0.00    -0.532 OA
ENDBRANCH  12  30
TORSDOF 8
