REMARK  7 active torsions:
REMARK  status: ('A' for Active; 'I' for Inactive)
REMARK    1  A    between atoms: N_6  and  S_1 
REMARK    2  A    between atoms: C_2  and  O_10 
REMARK       I    between atoms: N_7  and  C_2 
REMARK    3  A    between atoms: O_10  and  N_3 
REMARK    4  A    between atoms: C_5  and  C_11 
REMARK    5  A    between atoms: N_16  and  C_5 
REMARK    6  A    between atoms: C_17  and  N_6 
REMARK    7  A    between atoms: C_13  and  N_7 
ROOT
ATOM      1  N   UNL d   1       1.142   1.787  -7.606  0.00  0.00    -0.244 N 
ATOM      2  HN  UNL d   1       1.459   2.062  -8.536  1.00  0.00     0.196 HD
ATOM      3  C   UNL d   1       1.891   1.758  -6.536  0.00  0.00     0.109 C 
ENDROOT
BRANCH   3   4
ATOM      4  C   UNL d   1       3.344   2.143  -6.652  0.00  0.00     0.004 A 
ATOM      5  C   UNL d   1       3.857   2.517  -7.901  0.00  0.00     0.016 A 
ATOM      6  C   UNL d   1       5.206   2.852  -8.047  0.00  0.00     0.025 A 
ATOM      7  C   UNL d   1       6.054   2.814  -6.942  0.00  0.00     0.022 A 
ATOM      8  C   UNL d   1       5.562   2.453  -5.691  0.00  0.00     0.025 A 
ATOM      9  C   UNL d   1       4.206   2.133  -5.542  0.00  0.00     0.016 A 
BRANCH   7  10
ATOM     10  N   UNL d   1       7.441   3.102  -7.091  0.00  0.00    -0.186 NA
ATOM     11  H   UNL d   1       7.644   3.941  -7.639  0.00  0.00     0.145 HD
BRANCH  10  12
ATOM     12  S   UNL d   1       8.432   1.850  -7.667  0.00  0.00     0.210 S 
ATOM     13  O   UNL d   1       9.465   2.512  -8.433  0.00  0.00    -0.211 OA
ATOM     14  O   UNL d   1       7.631   0.792  -8.239  0.00  0.00    -0.211 OA
ATOM     15  C   UNL d   1       9.170   1.269  -6.155  0.00  0.00     0.180 C 
ENDBRANCH  10  12
ENDBRANCH   7  10
ENDBRANCH   3   4
BRANCH   3  16
ATOM     16  N   UNL d   1       1.401   1.376  -5.301  0.00  0.00    -0.286 NA
ATOM     17  H   UNL d   1       0.476   0.959  -5.370  0.00  0.00     0.125 HD
ATOM     18  H   UNL d   1       2.014   0.823  -4.716  0.00  0.00     0.125 HD
ENDBRANCH   3  16
BRANCH   1  19
ATOM     19  O   UNL d   1      -0.179   1.381  -7.282  0.00  0.00    -0.180 OA
BRANCH  19  20
ATOM     20  C   UNL d   1      -1.029   1.288  -8.370  0.00  0.00     0.383 C 
ATOM     21  N   UNL d   1      -0.456   1.559  -9.587  0.00  0.00    -0.327 N 
ATOM     22  H   UNL d   1       0.501   1.887  -9.496  0.00  0.00     0.165 HD
ATOM     23  O   UNL d   1      -2.204   0.983  -8.212  0.00  0.00    -0.236 OA
BRANCH  21  24
ATOM     24  C   UNL d   1      -1.171   1.642 -10.870  0.00  0.00     0.024 C 
ATOM     25  C   UNL d   1      -2.204   2.780 -10.848  0.00  0.00     0.037 C 
ATOM     26  C   UNL d   1      -0.149   1.917 -11.988  0.00  0.00     0.037 C 
ATOM     27  C   UNL d   1      -1.887   0.322 -11.209  0.00  0.00     0.037 C 
ENDBRANCH  21  24
ENDBRANCH  19  20
ENDBRANCH   1  19
TORSDOF 7
