REMARK  9 active torsions:
REMARK  status: ('A' for Active; 'I' for Inactive)
REMARK    1  A    between atoms: O_12  and  C_1 
REMARK       I    between atoms: C_2  and  N_6 
REMARK       I    between atoms: N_5  and  C_2 
REMARK    2  A    between atoms: C_3  and  C_27 
REMARK       I    between atoms: N_8  and  C_3 
REMARK    3  A    between atoms: C_4  and  N_5 
REMARK    4  A    between atoms: N_6  and  N_8 
REMARK       I    between atoms: C_7  and  N_9 
REMARK    5  A    between atoms: C_32  and  C_7 
REMARK    6  A    between atoms: N_9  and  C_23 
REMARK    7  A    between atoms: C_24  and  O_12 
REMARK    8  A    between atoms: S_22  and  C_32 
REMARK    9  A    between atoms: C_27  and  S_22 
ROOT
ATOM      1  C   UNL d   1       7.619  -6.051  -8.043  0.00  0.00     0.245 C 
ATOM      2  N   UNL d   1       8.261  -4.940  -7.519  0.00  0.00    -0.265 N 
ATOM      3  O   UNL d   1       8.237  -6.969  -8.584  0.00  0.00    -0.271 OA
ATOM      4  H   UNL d   1       7.776  -4.463  -6.759  0.00  0.00     0.190 HD
ENDROOT
BRANCH   1   5
ATOM      5  C   UNL d   1       6.104  -6.103  -7.908  0.00  0.00     0.178 C 
BRANCH   5   6
ATOM      6  S   UNL d   1       5.388  -4.652  -7.072  0.00  0.00    -0.150 SA
BRANCH   6   7
ATOM      7  C   UNL d   1       3.629  -5.145  -7.152  0.00  0.00     0.177 C 
BRANCH   7   8
ATOM      8  C   UNL d   1       2.764  -4.147  -6.392  0.00  0.00     0.231 C 
ATOM      9  N   UNL d   1       2.876  -2.856  -6.882  0.00  0.00    -0.327 N 
ATOM     10  H   UNL d   1       3.502  -2.732  -7.669  0.00  0.00     0.169 HD
ATOM     11  O   UNL d   1       2.028  -4.521  -5.484  0.00  0.00    -0.272 OA
BRANCH   9  12
ATOM     12  C   UNL d   1       2.263  -1.689  -6.389  0.00  0.00     0.034 A 
ATOM     13  C   UNL d   1       1.467  -1.645  -5.243  0.00  0.00     0.032 A 
ATOM     14  C   UNL d   1       0.882  -0.440  -4.822  0.00  0.00     0.039 A 
ATOM     15  C   UNL d   1       1.062   0.723  -5.565  0.00  0.00     0.078 A 
ATOM     16  C   UNL d   1       1.896   0.690  -6.684  0.00  0.00     0.039 A 
ATOM     17  C   UNL d   1       2.490  -0.505  -7.096  0.00  0.00     0.032 A 
BRANCH  15  18
ATOM     18  O   UNL d   1       0.507   1.941  -5.314  0.00  0.00    -0.255 OA
BRANCH  18  19
ATOM     19  C   UNL d   1      -0.683   2.002  -4.544  0.00  0.00     0.530 C 
ATOM     20  F   UNL d   1      -1.451   0.899  -4.662  0.00  0.00    -0.144 F 
ATOM     21  F   UNL d   1      -1.412   3.056  -4.976  0.00  0.00    -0.144 F 
ATOM     22  F   UNL d   1      -0.382   2.201  -3.243  0.00  0.00    -0.144 F 
ENDBRANCH  18  19
ENDBRANCH  15  18
ENDBRANCH   9  12
ENDBRANCH   7   8
ENDBRANCH   6   7
ENDBRANCH   5   6
ENDBRANCH   1   5
BRANCH   2  23
ATOM     23  N   UNL d   1       9.655  -5.041  -7.408  0.00  0.00    -0.249 N 
ATOM     24  C   UNL d   1      10.524  -3.982  -7.562  0.00  0.00     0.339 C 
ATOM     25  N   UNL d   1       9.920  -2.752  -7.578  0.00  0.00    -0.308 N 
ATOM     26  O   UNL d   1      11.729  -4.210  -7.639  0.00  0.00    -0.245 OA
ATOM     27  H   UNL d   1       8.913  -2.783  -7.632  0.00  0.00     0.170 HD
ATOM     28  H   UNL d   1      10.064  -5.966  -7.571  0.00  0.00     0.192 HD
BRANCH  25  29
ATOM     29  C   UNL d   1      10.546  -1.485  -7.581  0.00  0.00     0.039 A 
ATOM     30  C   UNL d   1      11.932  -1.304  -7.557  0.00  0.00     0.053 A 
ATOM     31  C   UNL d   1      12.476  -0.017  -7.517  0.00  0.00     0.037 A 
ATOM     32 CL   UNL d   1      14.185   0.187  -7.479  0.00  0.00    -0.084 Cl
ATOM     33  C   UNL d   1      11.653   1.104  -7.499  0.00  0.00     0.048 A 
ATOM     34  C   UNL d   1      10.275   0.926  -7.533  0.00  0.00     0.037 A 
ATOM     35  C   UNL d   1       9.719  -0.356  -7.578  0.00  0.00     0.053 A 
ATOM     36 CL   UNL d   1       9.239   2.301  -7.506  0.00  0.00    -0.084 Cl
ENDBRANCH  25  29
ENDBRANCH   2  23
TORSDOF 9
