REMARK  7 active torsions:
REMARK  status: ('A' for Active; 'I' for Inactive)
REMARK    1  A    between atoms: C_4  and  C_1 
REMARK    2  A    between atoms: C_2  and  N_6 
REMARK    3  A    between atoms: N_7  and  C_2 
REMARK    4  A    between atoms: N_6  and  C_3 
REMARK    5  A    between atoms: O_17  and  C_4 
REMARK    6  A    between atoms: C_5  and  N_7 
REMARK    7  A    between atoms: C_22  and  O_17 
ROOT
ATOM      1  N   UNL d   1       1.008   2.986   0.707  0.00  0.00    -0.332 N 
ATOM      2  H   UNL d   1       1.971   2.725   0.880  0.00  0.00     0.168 HD
ENDROOT
BRANCH   1   3
ATOM      3  C   UNL d   1       0.669   4.233   1.116  0.00  0.00     0.176 C 
ATOM      4  S   UNL d   1      -0.203   5.333   0.182  0.00  0.00    -0.041 SA
BRANCH   3   5
ATOM      5  N   UNL d   1       1.142   4.695   2.301  0.00  0.00    -0.332 N 
ATOM      6  H   UNL d   1       0.950   5.691   2.404  0.00  0.00     0.168 HD
BRANCH   5   7
ATOM      7  C   UNL d   1       1.787   4.131   3.431  0.00  0.00     0.057 A 
ATOM      8  C   UNL d   1       1.999   2.768   3.637  0.00  0.00     0.055 A 
ATOM      9  C   UNL d   1       2.700   2.330   4.777  0.00  0.00     0.036 A 
ATOM     10 CL   UNL d   1       2.978   0.649   5.014  0.00  0.00    -0.084 Cl
ATOM     11  C   UNL d   1       3.174   3.236   5.725  0.00  0.00     0.026 A 
ATOM     12  C   UNL d   1       2.915   4.593   5.562  0.00  0.00     0.028 A 
ATOM     13  C   UNL d   1       2.218   5.031   4.435  0.00  0.00     0.060 A 
ATOM     14 CL   UNL d   1       1.896   6.731   4.307  0.00  0.00    -0.082 Cl
ENDBRANCH   5   7
ENDBRANCH   3   5
ENDBRANCH   1   3
BRANCH   1  15
ATOM     15  C   UNL d   1       0.218   2.042  -0.007  0.00  0.00     0.050 C 
ATOM     16  C   UNL d   1       0.845   0.968  -0.656  0.00  0.00     0.066 C 
ATOM     17  C   UNL d   1       0.170  -0.255  -0.775  0.00  0.00     0.026 C 
ATOM     18  C   UNL d   1      -1.163  -0.361  -0.358  0.00  0.00    -0.061 C 
ATOM     19  C   UNL d   1      -1.855   0.801  -0.010  0.00  0.00     0.009 C 
ATOM     20  C   UNL d   1      -1.844  -1.693  -0.242  0.00  0.00     0.048 C 
ATOM     21  C   UNL d   1      -1.166   1.998   0.181  0.00  0.00     0.031 C 
BRANCH  16  22
ATOM     22  C   UNL d   1       2.209   1.094  -1.218  0.00  0.00     0.295 C 
ATOM     23  O   UNL d   1       3.057   0.225  -1.133  0.00  0.00    -0.259 OA
BRANCH  22  24
ATOM     24  O   UNL d   1       2.343   2.277  -1.863  0.00  0.00    -0.318 OA
BRANCH  24  25
ATOM     25  C   UNL d   1       3.641   2.634  -2.354  0.00  0.00     0.174 C 
ATOM     26  C   UNL d   1       3.819   2.251  -3.814  0.00  0.00     0.034 C 
ENDBRANCH  24  25
ENDBRANCH  22  24
ENDBRANCH  16  22
ENDBRANCH   1  15
TORSDOF 7
