REMARK  10 active torsions:
REMARK  status: ('A' for Active; 'I' for Inactive)
REMARK    1  A    between atoms: N_2  and  S_1 
REMARK    2  A    between atoms: C_5  and  S_1 
REMARK    3  A    between atoms: C_6  and  N_2 
REMARK    4  A    between atoms: C_17  and  N_2 
REMARK    5  A    between atoms: C_3  and  C_7 
REMARK       I    between atoms: C_4  and  N_8 
REMARK    6  A    between atoms: C_13  and  C_4 
REMARK    7  A    between atoms: C_10  and  C_6 
REMARK    8  A    between atoms: N_8  and  N_16 
REMARK    9  A    between atoms: C_9  and  C_15 
REMARK       I    between atoms: N_16  and  C_9 
REMARK   10  A    between atoms: C_15  and  C_17 
ROOT
ATOM      1  C   UNL d   1       0.321  -2.156  -3.530  0.00  0.00     0.120 C 
ENDROOT
BRANCH   1   2
ATOM      2  C   UNL d   1      -1.160  -2.104  -3.809  0.00  0.00     0.237 C 
ATOM      3  N   UNL d   1      -1.904  -3.059  -3.159  0.00  0.00    -0.267 N 
ATOM      4  H   UNL d   1      -1.496  -3.769  -2.541  0.00  0.00     0.190 HD
ATOM      5  O   UNL d   1      -1.661  -1.259  -4.551  0.00  0.00    -0.272 OA
BRANCH   3   6
ATOM      6  N   UNL d   1      -3.286  -3.088  -3.373  0.00  0.00    -0.263 N 
ATOM      7  C   UNL d   1      -3.951  -4.287  -3.207  0.00  0.00     0.270 C 
ATOM      8  O   UNL d   1      -3.408  -5.323  -2.840  0.00  0.00    -0.266 OA
ATOM      9  H   UNL d   1      -3.657  -2.340  -3.959  0.00  0.00     0.190 HD
BRANCH   7  10
ATOM     10  C   UNL d   1      -5.412  -4.267  -3.486  0.00  0.00     0.034 A 
ATOM     11  C   UNL d   1      -6.196  -3.147  -3.179  0.00  0.00     0.033 A 
ATOM     12  C   UNL d   1      -7.592  -3.188  -3.344  0.00  0.00     0.048 A 
ATOM     13  C   UNL d   1      -8.184  -4.360  -3.845  0.00  0.00     0.016 A 
ATOM     14  C   UNL d   1      -7.402  -5.472  -4.160  0.00  0.00     0.002 A 
ATOM     15  C   UNL d   1      -6.020  -5.431  -3.971  0.00  0.00     0.017 A 
BRANCH  12  16
ATOM     16  C   UNL d   1      -8.461  -2.018  -2.951  0.00  0.00     0.417 C 
ATOM     17  F   UNL d   1      -7.753  -0.952  -2.483  0.00  0.00    -0.166 F 
ATOM     18  F   UNL d   1      -9.205  -1.546  -3.988  0.00  0.00    -0.166 F 
ATOM     19  F   UNL d   1      -9.346  -2.337  -1.967  0.00  0.00    -0.166 F 
ENDBRANCH  12  16
ENDBRANCH   7  10
ENDBRANCH   3   6
ENDBRANCH   1   2
BRANCH   1  20
ATOM     20  C   UNL d   1       0.727  -1.127  -2.483  0.00  0.00     0.117 C 
BRANCH  20  21
ATOM     21  N   UNL d   1       0.292  -1.402  -1.049  0.00  0.00    -0.200 NA
BRANCH  21  22
ATOM     22  S   UNL d   1       0.796  -2.953  -0.488  0.00  0.00     0.244 S 
ATOM     23  O   UNL d   1       2.237  -2.990  -0.615  0.00  0.00    -0.206 OA
ATOM     24  O   UNL d   1      -0.038  -3.941  -1.142  0.00  0.00    -0.206 OA
BRANCH  22  25
ATOM     25  C   UNL d   1       0.400  -3.016   1.242  0.00  0.00     0.074 A 
ATOM     26  C   UNL d   1      -0.933  -2.936   1.653  0.00  0.00     0.026 A 
ATOM     27  C   UNL d   1      -1.234  -3.014   3.015  0.00  0.00     0.025 A 
ATOM     28  C   UNL d   1      -0.211  -3.184   3.949  0.00  0.00     0.034 A 
ATOM     29  C   UNL d   1       1.120  -3.279   3.535  0.00  0.00     0.025 A 
ATOM     30 CL   UNL d   1      -0.587  -3.288   5.625  0.00  0.00    -0.084 Cl
ATOM     31  C   UNL d   1       1.428  -3.194   2.177  0.00  0.00     0.026 A 
ENDBRANCH  22  25
ENDBRANCH  21  22
BRANCH  21  32
ATOM     32  C   UNL d   1       0.765  -0.287  -0.154  0.00  0.00     0.172 C 
BRANCH  32  33
ATOM     33  C   UNL d   1       0.192   1.028  -0.568  0.00  0.00     0.066 A 
ATOM     34  O   UNL d   1       1.095   2.001  -0.892  0.00  0.00    -0.326 OA
ATOM     35  C   UNL d   1       0.385   3.102  -1.246  0.00  0.00     0.142 A 
ATOM     36  C   UNL d   1      -0.964   2.854  -1.156  0.00  0.00     0.027 A 
ATOM     37  C   UNL d   1      -1.092   1.514  -0.715  0.00  0.00     0.036 A 
ENDBRANCH  32  33
ENDBRANCH  21  32
ENDBRANCH  20  21
ENDBRANCH   1  20
TORSDOF 10
