REMARK  4 active torsions:
REMARK  status: ('A' for Active; 'I' for Inactive)
REMARK    1  A    between atoms: C_4  and  C_1 
REMARK    2  A    between atoms: O_8  and  C_2 
REMARK    3  A    between atoms: O_15  and  C_4 
REMARK    4  A    between atoms: C_7  and  O_8 
ROOT
ATOM      1  C   UNL d   1      -0.156   1.138  -0.083  0.00  0.00     0.153 A 
ATOM      2  C   UNL d   1      -0.115  -1.063  -0.062  0.00  0.00     0.191 A 
ATOM      3  O   UNL d   1      -0.944   0.014  -0.063  0.00  0.00    -0.281 OA
ATOM      4  C   UNL d   1       1.174   0.762  -0.128  0.00  0.00     0.048 A 
ATOM      5  C   UNL d   1       1.199  -0.650  -0.151  0.00  0.00     0.067 A 
ENDROOT
BRANCH   2   6
ATOM      6  O   UNL d   1      -0.744  -2.232   0.044  0.00  0.00    -0.288 OA
BRANCH   6   7
ATOM      7  C   UNL d   1      -0.088  -3.317   0.581  0.00  0.00     0.081 A 
ATOM      8  C   UNL d   1       0.765  -3.200   1.681  0.00  0.00     0.061 A 
ATOM      9  C   UNL d   1       1.438  -4.324   2.153  0.00  0.00     0.038 A 
ATOM     10 CL   UNL d   1       2.556  -4.155   3.451  0.00  0.00    -0.084 Cl
ATOM     11  C   UNL d   1       1.229  -5.569   1.574  0.00  0.00     0.048 A 
ATOM     12  C   UNL d   1       0.326  -5.688   0.519  0.00  0.00     0.038 A 
ATOM     13  C   UNL d   1      -0.335  -4.567   0.016  0.00  0.00     0.061 A 
ATOM     14 CL   UNL d   1       0.036  -7.234  -0.179  0.00  0.00    -0.084 Cl
ENDBRANCH   6   7
ENDBRANCH   2   6
BRANCH   1  15
ATOM     15  C   UNL d   1      -0.756   2.451  -0.044  0.00  0.00     0.317 C 
ATOM     16  O   UNL d   1      -0.136   3.507  -0.027  0.00  0.00    -0.257 OA
BRANCH  15  17
ATOM     17  O   UNL d   1      -2.118   2.352  -0.032  0.00  0.00    -0.321 OA
ATOM     18  C   UNL d   1      -2.792   3.607  -0.004  0.00  0.00     0.213 C 
ENDBRANCH  15  17
ENDBRANCH   1  15
TORSDOF 4
