REMARK  3 active torsions:
REMARK  status: ('A' for Active; 'I' for Inactive)
REMARK    1  A    between atoms: N_3  and  C_9 
REMARK    2  A    between atoms: C_8  and  C_5 
REMARK    3  A    between atoms: C_10  and  C_8 
ROOT
ATOM      1  C   UNL d   1      -1.066  -1.375  -0.280  0.00  0.00     0.048 C 
ATOM      2  C   UNL d   1      -2.274  -0.555   0.086  0.00  0.00     0.257 C 
ATOM      3  N   UNL d   1      -1.786   0.733   0.242  0.00  0.00    -0.322 N 
ATOM      4  C   UNL d   1      -1.113  -2.700  -0.087  0.00  0.00     0.073 C 
ATOM      5  C   UNL d   1       0.027  -0.441  -0.536  0.00  0.00     0.008 C 
ATOM      6  C   UNL d   1      -0.435   0.806  -0.100  0.00  0.00     0.046 C 
ATOM      7  C   UNL d   1       1.276  -0.560  -1.113  0.00  0.00     0.033 C 
ATOM      8  O   UNL d   1      -3.405  -0.953   0.264  0.00  0.00    -0.267 OA
ATOM      9  C   UNL d   1       0.375   1.921  -0.063  0.00  0.00     0.032 C 
ATOM     10  C   UNL d   1       2.106   0.561  -1.105  0.00  0.00     0.011 C 
ATOM     11  C   UNL d   1       1.679   1.781  -0.549  0.00  0.00     0.021 C 
ATOM     12 BR   UNL d   1       3.838   0.436  -1.856  0.00  0.00    -0.051 Br
ATOM     13  H   UNL d   1      -2.366   1.509   0.521  0.00  0.00     0.169 HD
ENDROOT
BRANCH   4  14
ATOM     14  C   UNL d   1       0.077  -3.591  -0.010  0.00  0.00     0.183 C 
ATOM     15  O   UNL d   1       1.223  -3.180   0.114  0.00  0.00    -0.288 OA
BRANCH  14  16
ATOM     16  C   UNL d   1      -0.171  -5.050   0.059  0.00  0.00     0.016 A 
ATOM     17  C   UNL d   1      -1.231  -5.643  -0.635  0.00  0.00     0.051 A 
ATOM     18  C   UNL d   1      -1.458  -7.015  -0.484  0.00  0.00     0.103 A 
ATOM     19  C   UNL d   1      -0.620  -7.802   0.320  0.00  0.00     0.036 A 
ATOM     20  C   UNL d   1       0.455  -7.207   0.983  0.00  0.00     0.003 A 
ATOM     21  C   UNL d   1       0.680  -5.834   0.854  0.00  0.00     0.015 A 
BRANCH  18  22
ATOM     22  N   UNL d   1      -2.611  -7.628  -1.152  0.00  0.00    -0.116 N 
ATOM     23  O   UNL d   1      -3.373  -6.879  -1.779  0.00  0.00    -0.532 OA
ATOM     24  O   UNL d   1      -2.761  -8.852  -1.039  0.00  0.00    -0.532 OA
ENDBRANCH  18  22
ENDBRANCH  14  16
ENDBRANCH   4  14
TORSDOF 3
