REMARK  7 active torsions:
REMARK  status: ('A' for Active; 'I' for Inactive)
REMARK    1  A    between atoms: C_12  and  C_1 
REMARK    2  A    between atoms: C_11  and  C_2 
REMARK    3  A    between atoms: C_3  and  C_18 
REMARK    4  A    between atoms: C_17  and  C_4 
REMARK    5  A    between atoms: O_21  and  C_11 
REMARK    6  A    between atoms: O_22  and  C_12 
REMARK    7  A    between atoms: N_15  and  N_13 
ROOT
ATOM      1  N   UNL d   1       1.232  -3.194  -1.260  0.00  0.00    -0.311 N 
ATOM      2  HN  UNL d   1       0.283  -3.456  -1.528  1.00  0.00     0.186 HD
ATOM      3  C   UNL d   1       1.696  -1.983  -1.282  0.00  0.00     0.121 C 
ENDROOT
BRANCH   1   4
ATOM      4  N   UNL d   1       2.200  -4.087  -0.820  0.00  0.00    -0.311 N 
ATOM      5  C   UNL d   1       1.789  -5.314  -0.842  0.00  0.00     0.121 C 
ATOM      6  HN  UNL d   1       3.132  -3.807  -0.515  1.00  0.00     0.186 HD
BRANCH   5   7
ATOM      7  C   UNL d   1       2.676  -6.326  -0.293  0.00  0.00     0.021 C 
ATOM      8  C   UNL d   1       2.793  -7.713  -0.669  0.00  0.00     0.075 C 
ATOM      9  C   UNL d   1       3.927  -8.194  -0.017  0.00  0.00     0.022 C 
ATOM     10  C   UNL d   1       4.725  -9.444  -0.147  0.00  0.00     0.069 C 
ATOM     11  N   UNL d   1       4.326  -7.239   0.885  0.00  0.00    -0.362 N 
ATOM     12  C   UNL d   1       3.535  -6.128   0.780  0.00  0.00     0.018 C 
ATOM     13  H   UNL d   1       5.092  -7.340   1.540  0.00  0.00     0.165 HD
ATOM     14  C   UNL d   1       3.683  -4.996   1.735  0.00  0.00     0.069 C 
BRANCH   8  15
ATOM     15  C   UNL d   1       1.911  -8.440  -1.585  0.00  0.00     0.295 C 
ATOM     16  O   UNL d   1       1.097  -7.888  -2.314  0.00  0.00    -0.259 OA
BRANCH  15  17
ATOM     17  O   UNL d   1       2.010  -9.793  -1.444  0.00  0.00    -0.322 OA
ATOM     18  C   UNL d   1       1.014 -10.547  -2.131  0.00  0.00     0.213 C 
ENDBRANCH  15  17
ENDBRANCH   8  15
ENDBRANCH   5   7
ENDBRANCH   1   4
BRANCH   3  19
ATOM     19  C   UNL d   1       0.791  -0.868  -1.531  0.00  0.00     0.021 A 
ATOM     20  C   UNL d   1       1.124   0.540  -1.603  0.00  0.00     0.075 A 
ATOM     21  C   UNL d   1      -0.088   1.226  -1.693  0.00  0.00     0.022 A 
ATOM     22  N   UNL d   1      -1.094   0.296  -1.768  0.00  0.00    -0.362 N 
ATOM     23  C   UNL d   1      -0.444   2.672  -1.695  0.00  0.00     0.069 C 
ATOM     24  C   UNL d   1      -0.588  -0.969  -1.676  0.00  0.00     0.018 A 
ATOM     25  H   UNL d   1      -2.079   0.516  -1.848  0.00  0.00     0.165 HD
ATOM     26  C   UNL d   1      -1.490  -2.154  -1.690  0.00  0.00     0.069 C 
BRANCH  20  27
ATOM     27  C   UNL d   1       2.479   1.115  -1.568  0.00  0.00     0.295 C 
ATOM     28  O   UNL d   1       3.495   0.434  -1.564  0.00  0.00    -0.259 OA
BRANCH  27  29
ATOM     29  O   UNL d   1       2.490   2.479  -1.572  0.00  0.00    -0.322 OA
ATOM     30  C   UNL d   1       3.786   3.070  -1.661  0.00  0.00     0.213 C 
ENDBRANCH  27  29
ENDBRANCH  20  27
ENDBRANCH   3  19
TORSDOF 7
