REMARK  4 active torsions:
REMARK  status: ('A' for Active; 'I' for Inactive)
REMARK    1  A    between atoms: C_2  and  S_1 
REMARK    2  A    between atoms: N_3  and  S_1 
REMARK    3  A    between atoms: O_20  and  C_16 
REMARK    4  A    between atoms: O_21  and  C_18 
ROOT
ATOM      1  N   UNL d   1       0.643   0.429   1.564  0.00  0.00    -0.296 N 
ATOM      2  C   UNL d   1       0.483  -0.110   4.003  0.00  0.00    -0.026 A 
ATOM      3  C   UNL d   1       0.831  -0.615   2.603  0.00  0.00     0.125 C 
ATOM      4  C   UNL d   1       0.385   1.259   4.293  0.00  0.00    -0.045 A 
ATOM      5  C   UNL d   1       0.300  -1.038   5.040  0.00  0.00     0.049 A 
ATOM      6  C   UNL d   1       1.158   1.765   1.952  0.00  0.00     0.141 C 
ATOM      7  C   UNL d   1       0.065  -0.622   6.355  0.00  0.00     0.102 A 
ATOM      8  C   UNL d   1       0.167   1.679   5.614  0.00  0.00     0.047 A 
ATOM      9  C   UNL d   1       0.032   0.751   6.654  0.00  0.00     0.102 A 
ATOM     10  C   UNL d   1       0.434   2.281   3.188  0.00  0.00     0.060 C 
ATOM     11  C   UNL d   1       2.247  -1.203   2.617  0.00  0.00     0.038 C 
ENDROOT
BRANCH   1  12
ATOM     12  S   UNL d   1       0.887  -0.011  -0.058  0.00  0.00     0.278 S 
ATOM     13  O   UNL d   1       0.655  -1.427  -0.220  0.00  0.00    -0.199 OA
ATOM     14  O   UNL d   1       0.213   0.966  -0.891  0.00  0.00    -0.199 OA
BRANCH  12  15
ATOM     15  C   UNL d   1       2.573   0.223  -0.479  0.00  0.00     0.165 A 
ATOM     16  N   UNL d   1       3.503   0.769   0.396  0.00  0.00    -0.340 N 
ATOM     17  C   UNL d   1       4.609   0.886  -0.301  0.00  0.00     0.183 A 
ATOM     18  HN  UNL d   1       3.358   1.025   1.372  1.00  0.00     0.167 HD
ATOM     19  N   UNL d   1       4.443   0.429  -1.576  0.00  0.00    -0.354 N 
ATOM     20  C   UNL d   1       3.155  -0.007  -1.710  0.00  0.00     0.135 A 
ATOM     21  C   UNL d   1       5.460   0.450  -2.594  0.00  0.00     0.156 C 
ENDBRANCH  12  15
ENDBRANCH   1  12
BRANCH   7  22
ATOM     22  O   UNL d   1      -0.085  -1.502   7.401  0.00  0.00    -0.353 OA
ATOM     23  C   UNL d   1      -0.604  -2.785   7.064  0.00  0.00     0.210 C 
ENDBRANCH   7  22
BRANCH   9  24
ATOM     24  O   UNL d   1      -0.157   1.090   7.971  0.00  0.00    -0.353 OA
ATOM     25  C   UNL d   1      -0.140   2.474   8.297  0.00  0.00     0.210 C 
ENDBRANCH   9  24
TORSDOF 4
