REMARK  8 active torsions:
REMARK  status: ('A' for Active; 'I' for Inactive)
REMARK    1  A    between atoms: N_3  and  S_1 
REMARK    2  A    between atoms: C_6  and  S_1 
REMARK    3  A    between atoms: C_2  and  N_5 
REMARK    4  A    between atoms: N_4  and  C_2 
REMARK    5  A    between atoms: C_15  and  N_4 
REMARK    6  A    between atoms: C_19  and  N_4 
REMARK    7  A    between atoms: N_5  and  C_14 
REMARK    8  A    between atoms: C_16  and  C_19 
ROOT
ATOM      1  N   UNL d   1       3.393  -9.978   2.317  0.00  0.00    -0.197 NA
ATOM      2  C   UNL d   1       2.842  -9.148   1.718  0.00  0.00     0.060 C 
ATOM      3  C   UNL d   1       2.132  -8.112   0.961  0.00  0.00     0.143 C 
ENDROOT
BRANCH   3   4
ATOM      4  C   UNL d   1       1.031  -8.745   0.100  0.00  0.00     0.139 C 
BRANCH   4   5
ATOM      5  N   UNL d   1      -0.018  -7.816  -0.386  0.00  0.00    -0.353 N 
BRANCH   5   6
ATOM      6  C   UNL d   1       0.326  -6.573  -0.949  0.00  0.00     0.174 C 
ATOM      7  S   UNL d   1       1.647  -6.377  -1.979  0.00  0.00    -0.041 SA
BRANCH   6   8
ATOM      8  N   UNL d   1      -0.536  -5.549  -0.574  0.00  0.00    -0.333 N 
ATOM      9  H   UNL d   1      -1.516  -5.787  -0.529  0.00  0.00     0.168 HD
BRANCH   8  10
ATOM     10  C   UNL d   1      -0.226  -4.175  -0.428  0.00  0.00     0.034 A 
ATOM     11  C   UNL d   1      -1.232  -3.222  -0.629  0.00  0.00     0.031 A 
ATOM     12  C   UNL d   1      -0.961  -1.854  -0.463  0.00  0.00     0.027 A 
ATOM     13  C   UNL d   1       0.315  -1.445  -0.064  0.00  0.00     0.074 A 
ATOM     14  C   UNL d   1       1.308  -2.391   0.189  0.00  0.00     0.027 A 
ATOM     15  C   UNL d   1       1.036  -3.749   0.004  0.00  0.00     0.031 A 
BRANCH  13  16
ATOM     16  S   UNL d   1       0.634   0.268   0.284  0.00  0.00     0.243 S 
ATOM     17  O   UNL d   1      -0.516   0.777   1.002  0.00  0.00    -0.206 OA
ATOM     18  O   UNL d   1       1.963   0.372   0.856  0.00  0.00    -0.206 OA
BRANCH  16  19
ATOM     19  N   UNL d   1       0.685   1.044  -1.252  0.00  0.00    -0.206 NA
ATOM     20  C   UNL d   1       1.736   0.528  -2.179  0.00  0.00     0.107 C 
ATOM     21  C   UNL d   1       1.598   1.200  -3.546  0.00  0.00     0.015 C 
ATOM     22  C   UNL d   1       1.688   2.718  -3.433  0.00  0.00     0.002 C 
ATOM     23  C   UNL d   1       0.666   3.235  -2.428  0.00  0.00     0.015 C 
ATOM     24  C   UNL d   1       0.811   2.530  -1.084  0.00  0.00     0.107 C 
ENDBRANCH  16  19
ENDBRANCH  13  16
ENDBRANCH   8  10
ENDBRANCH   6   8
ENDBRANCH   5   6
BRANCH   5  25
ATOM     25  C   UNL d   1      -1.319  -8.469  -0.683  0.00  0.00     0.078 C 
ATOM     26  C   UNL d   1      -2.333  -8.271   0.441  0.00  0.00     0.032 C 
ATOM     27  C   UNL d   1      -1.906  -8.124  -2.054  0.00  0.00     0.032 C 
ENDBRANCH   5  25
ENDBRANCH   4   5
ENDBRANCH   3   4
TORSDOF 8
