REMARK  7 active torsions:
REMARK  status: ('A' for Active; 'I' for Inactive)
REMARK    1  A    between atoms: S_6  and  C_1 
REMARK    2  A    between atoms: C_8  and  C_3 
REMARK    3  A    between atoms: C_12  and  S_6 
REMARK    4  A    between atoms: C_7  and  C_12 
REMARK       I    between atoms: N_10  and  C_7 
REMARK    5  A    between atoms: C_14  and  C_9 
REMARK    6  A    between atoms: C_11  and  N_10 
REMARK    7  A    between atoms: C_26  and  C_12 
ROOT
ATOM      1  C   UNL d   1      -0.099  -0.845   0.523  0.00  0.00     0.093 A 
ATOM      2  C   UNL d   1      -1.261  -0.291   1.071  0.00  0.00     0.093 A 
ATOM      3  C   UNL d   1      -1.502   1.074   0.858  0.00  0.00     0.073 A 
ATOM      4  N   UNL d   1       0.835  -0.117  -0.131  0.00  0.00    -0.348 N 
ATOM      5  HN  UNL d   1       1.675  -0.560  -0.503  1.00  0.00     0.166 HD
ATOM      6  C   UNL d   1       0.629   1.208  -0.280  0.00  0.00     0.051 A 
ATOM      7  C   UNL d   1      -0.532   1.825   0.166  0.00  0.00     0.048 A 
ATOM      8  C   UNL d   1      -2.160  -1.107   1.832  0.00  0.00     0.103 C 
ATOM      9  N   UNL d   1      -2.887  -1.753   2.472  0.00  0.00    -0.191 NA
ENDROOT
BRANCH   1  10
ATOM     10  S   UNL d   1       0.143  -2.601   0.461  0.00  0.00    -0.091 SA
BRANCH  10  11
ATOM     11  C   UNL d   1       2.017  -2.762   0.427  0.00  0.00     0.179 C 
BRANCH  11  12
ATOM     12  C   UNL d   1       2.619  -2.293   1.759  0.00  0.00     0.240 C 
ATOM     13  N   UNL d   1       3.897  -1.837   1.913  0.00  0.00    -0.324 N 
ATOM     14  H   UNL d   1       4.064  -1.688   2.910  0.00  0.00     0.169 HD
ATOM     15  O   UNL d   1       1.964  -2.338   2.811  0.00  0.00    -0.272 OA
BRANCH  13  16
ATOM     16  C   UNL d   1       5.004  -1.491   1.109  0.00  0.00     0.058 A 
ATOM     17  C   UNL d   1       5.017  -1.477  -0.283  0.00  0.00     0.057 A 
ATOM     18  C   UNL d   1       6.152  -1.044  -0.991  0.00  0.00     0.058 A 
ATOM     19 CL   UNL d   1       6.056  -1.042  -2.719  0.00  0.00    -0.082 Cl
ATOM     20  C   UNL d   1       7.297  -0.622  -0.312  0.00  0.00     0.057 A 
ATOM     21  C   UNL d   1       7.318  -0.647   1.079  0.00  0.00     0.051 A 
ATOM     22 CL   UNL d   1       8.706  -0.047  -1.128  0.00  0.00    -0.082 Cl
ATOM     23  C   UNL d   1       6.183  -1.077   1.776  0.00  0.00     0.062 A 
ATOM     24 CL   UNL d   1       6.273  -1.075   3.508  0.00  0.00    -0.082 Cl
ENDBRANCH  13  16
ENDBRANCH  11  12
BRANCH  11  25
ATOM     25  C   UNL d   1       2.299  -4.234   0.130  0.00  0.00    -0.035 A 
ATOM     26  C   UNL d   1       1.754  -5.243   0.950  0.00  0.00     0.009 A 
ATOM     27  C   UNL d   1       1.761  -6.576   0.545  0.00  0.00     0.001 A 
ATOM     28  C   UNL d   1       2.372  -6.933  -0.653  0.00  0.00     0.000 A 
ATOM     29  C   UNL d   1       2.999  -5.961  -1.431  0.00  0.00     0.001 A 
ATOM     30  C   UNL d   1       2.959  -4.617  -1.047  0.00  0.00     0.009 A 
ENDBRANCH  11  25
ENDBRANCH  10  11
ENDBRANCH   1  10
BRANCH   3  31
ATOM     31  C   UNL d   1      -2.751   1.788   1.307  0.00  0.00     0.419 C 
ATOM     32  F   UNL d   1      -3.683   1.013   1.911  0.00  0.00    -0.166 F 
ATOM     33  F   UNL d   1      -2.469   2.791   2.181  0.00  0.00    -0.166 F 
ATOM     34  F   UNL d   1      -3.388   2.379   0.257  0.00  0.00    -0.166 F 
ENDBRANCH   3  31
BRANCH   6  35
ATOM     35  C   UNL d   1       1.739   1.904  -0.938  0.00  0.00     0.031 A 
ATOM     36  S   UNL d   1       2.081   3.552  -0.601  0.00  0.00    -0.100 SA
ATOM     37  C   UNL d   1       3.466   3.548  -1.599  0.00  0.00     0.050 A 
ATOM     38  C   UNL d   1       3.668   2.326  -2.198  0.00  0.00     0.008 A 
ATOM     39  C   UNL d   1       2.671   1.382  -1.821  0.00  0.00     0.021 A 
ENDBRANCH   6  35
TORSDOF 7
