REMARK  3 active torsions:
REMARK  status: ('A' for Active; 'I' for Inactive)
REMARK    1  A    between atoms: C_6  and  C_1 
REMARK    2  A    between atoms: N_10  and  C_2 
REMARK    3  A    between atoms: O_11  and  C_6 
ROOT
ATOM      1  C   UNL d   1       1.295  -1.181  -0.016  0.00  0.00     0.107 A 
ATOM      2  C   UNL d   1      -0.090  -1.088  -0.002  0.00  0.00     0.070 A 
ATOM      3  S   UNL d   1       2.010   0.387  -0.002  0.00  0.00    -0.092 SA
ATOM      4  C   UNL d   1      -0.550   0.266   0.009  0.00  0.00     0.078 A 
ATOM      5  C   UNL d   1       0.491   1.166   0.015  0.00  0.00     0.075 A 
ATOM      6  C   UNL d   1      -1.920   0.683   0.014  0.00  0.00     0.102 C 
ATOM      7  N   UNL d   1      -3.034   1.008   0.017  0.00  0.00    -0.191 NA
ENDROOT
BRANCH   2   8
ATOM      8  N   UNL d   1      -0.921  -2.155  -0.002  0.00  0.00    -0.397 N 
ATOM      9  H   UNL d   1      -0.563  -3.111   0.020  0.00  0.00     0.156 HD
ATOM     10  H   UNL d   1      -1.934  -2.094   0.059  0.00  0.00     0.156 HD
ENDBRANCH   2   8
BRANCH   1  11
ATOM     11  C   UNL d   1       2.183  -2.333  -0.037  0.00  0.00     0.302 C 
ATOM     12  O   UNL d   1       3.409  -2.307  -0.049  0.00  0.00    -0.259 OA
BRANCH  11  13
ATOM     13  O   UNL d   1       1.457  -3.495  -0.042  0.00  0.00    -0.322 OA
ATOM     14  C   UNL d   1       2.247  -4.684  -0.067  0.00  0.00     0.213 C 
ENDBRANCH  11  13
ENDBRANCH   1  11
TORSDOF 3
