REMARK  3 active torsions:
REMARK  status: ('A' for Active; 'I' for Inactive)
REMARK    1  A    between atoms: C_3  and  C_1 
REMARK    2  A    between atoms: N_2  and  C_9 
REMARK    3  A    between atoms: C_11  and  C_3 
ROOT
ATOM      1  C   UNL d   1       2.398   0.729  -0.035  0.00  0.00     0.035 A 
ATOM      2  C   UNL d   1       2.407  -0.676  -0.002  0.00  0.00     0.028 A 
ATOM      3  C   UNL d   1       1.167   1.403  -0.097  0.00  0.00     0.056 A 
ATOM      4  C   UNL d   1       1.197  -1.385  -0.004  0.00  0.00     0.059 A 
ATOM      5  C   UNL d   1      -0.030   0.692  -0.078  0.00  0.00     0.103 A 
ATOM      6  C   UNL d   1      -0.016  -0.701  -0.019  0.00  0.00     0.103 A 
ATOM      7  O   UNL d   1      -1.180   1.435  -0.106  0.00  0.00    -0.346 OA
ATOM      8  O   UNL d   1      -1.156  -1.460   0.022  0.00  0.00    -0.346 OA
ATOM      9 BR   UNL d   1       3.993  -1.717   0.118  0.00  0.00    -0.050 Br
ATOM     10  C   UNL d   1      -2.321   0.629  -0.418  0.00  0.00     0.202 C 
ATOM     11  C   UNL d   1      -2.300  -0.671   0.370  0.00  0.00     0.202 C 
ENDROOT
BRANCH   1  12
ATOM     12  C   UNL d   1       3.644   1.542  -0.075  0.00  0.00     0.193 C 
ATOM     13  O   UNL d   1       4.572   1.199  -0.800  0.00  0.00    -0.287 OA
BRANCH  12  14
ATOM     14  C   UNL d   1       3.762   2.827   0.675  0.00  0.00     0.015 A 
ATOM     15  C   UNL d   1       4.621   3.812   0.161  0.00  0.00     0.018 A 
ATOM     16  C   UNL d   1       4.745   5.052   0.798  0.00  0.00     0.037 A 
ATOM     17  C   UNL d   1       4.007   5.306   1.959  0.00  0.00     0.102 A 
ATOM     18  C   UNL d   1       3.162   4.323   2.493  0.00  0.00     0.037 A 
ATOM     19  C   UNL d   1       3.050   3.081   1.856  0.00  0.00     0.018 A 
BRANCH  17  20
ATOM     20  N   UNL d   1       4.122   6.612   2.624  0.00  0.00    -0.116 N 
ATOM     21  O   UNL d   1       4.912   7.435   2.144  0.00  0.00    -0.532 OA
ATOM     22  O   UNL d   1       3.416   6.811   3.623  0.00  0.00    -0.532 OA
ENDBRANCH  17  20
ENDBRANCH  12  14
ENDBRANCH   1  12
TORSDOF 3
