REMARK  4 active torsions:
REMARK  status: ('A' for Active; 'I' for Inactive)
REMARK    1  A    between atoms: N_2  and  C_1 
REMARK    2  A    between atoms: N_3  and  C_5 
REMARK    3  A    between atoms: O_9  and  C_6 
REMARK    4  A    between atoms: N_7  and  O_9 
ROOT
ATOM      1  C   UNL d   1       1.384  -0.175   0.096  0.00  0.00     0.141 A 
ATOM      2  C   UNL d   1       0.521  -1.285   0.137  0.00  0.00     0.075 A 
ATOM      3  C   UNL d   1      -0.859  -1.062   0.065  0.00  0.00     0.105 A 
ATOM      4  C   UNL d   1       0.898   1.126  -0.044  0.00  0.00     0.132 A 
ATOM      5  C   UNL d   1      -1.369   0.241  -0.021  0.00  0.00     0.039 A 
ATOM      6  C   UNL d   1      -0.491   1.326  -0.069  0.00  0.00     0.044 A 
ENDROOT
BRANCH   4   7
ATOM      7  O   UNL d   1       1.768   2.188  -0.157  0.00  0.00    -0.236 OA
BRANCH   7   8
ATOM      8  N   UNL d   1       1.240   3.087  -1.095  0.00  0.00    -0.270 N 
ATOM      9  C   UNL d   1       1.875   4.220  -1.136  0.00  0.00     0.003 C 
ATOM     10  C   UNL d   1       3.079   4.591  -0.310  0.00  0.00     0.065 C 
ATOM     11  C   UNL d   1       1.354   5.262  -2.094  0.00  0.00     0.065 C 
ATOM     12  HN  UNL d   1       0.438   2.872  -1.687  1.00  0.00     0.194 HD
ENDBRANCH   7   8
ENDBRANCH   4   7
BRANCH   1  13
ATOM     13  N   UNL d   1       2.811  -0.413   0.203  0.00  0.00    -0.113 N 
ATOM     14  O   UNL d   1       3.294  -1.277  -0.542  0.00  0.00    -0.532 OA
ATOM     15  O   UNL d   1       3.432   0.218   1.068  0.00  0.00    -0.532 OA
ENDBRANCH   1  13
BRANCH   3  16
ATOM     16  N   UNL d   1      -1.789  -2.199   0.079  0.00  0.00    -0.116 N 
ATOM     17  O   UNL d   1      -1.300  -3.334   0.158  0.00  0.00    -0.532 OA
ATOM     18  O   UNL d   1      -3.001  -1.954   0.014  0.00  0.00    -0.532 OA
ENDBRANCH   3  16
TORSDOF 4
