REMARK  6 active torsions:
REMARK  status: ('A' for Active; 'I' for Inactive)
REMARK    1  A    between atoms: C_3  and  C_1 
REMARK    2  A    between atoms: C_8  and  N_4 
REMARK    3  A    between atoms: C_5  and  C_7 
REMARK    4  A    between atoms: S_12  and  C_5 
REMARK    5  A    between atoms: C_7  and  C_8 
REMARK    6  A    between atoms: C_17  and  S_12 
ROOT
ATOM      1  C   UNL d   1       2.534   1.071  -0.202  0.00  0.00     0.140 C 
ENDROOT
BRANCH   1   2
ATOM      2  C   UNL d   1       3.897   0.381  -0.266  0.00  0.00     0.111 C 
BRANCH   2   3
ATOM      3  C   UNL d   1       4.957   1.421  -0.576  0.00  0.00     0.192 C 
ATOM      4  O   UNL d   1       4.834   2.610  -0.295  0.00  0.00    -0.285 OA
BRANCH   3   5
ATOM      5  S   UNL d   1       6.420   0.782  -1.330  0.00  0.00    -0.053 SA
BRANCH   5   6
ATOM      6  C   UNL d   1       7.162   2.206  -2.115  0.00  0.00     0.008 A 
ATOM      7  C   UNL d   1       6.418   3.138  -2.843  0.00  0.00     0.019 A 
ATOM      8  C   UNL d   1       7.046   4.216  -3.478  0.00  0.00     0.008 A 
ATOM      9  C   UNL d   1       8.438   4.365  -3.422  0.00  0.00    -0.062 A 
ATOM     10  C   UNL d   1       9.185   3.433  -2.699  0.00  0.00     0.008 A 
ATOM     11  C   UNL d   1       9.096   5.535  -4.093  0.00  0.00     0.048 C 
ATOM     12  C   UNL d   1       8.555   2.357  -2.060  0.00  0.00     0.019 A 
ENDBRANCH   5   6
ENDBRANCH   3   5
ENDBRANCH   2   3
ENDBRANCH   1   2
BRANCH   1  13
ATOM     13  N   UNL d   1       1.354   0.291   0.232  0.00  0.00    -0.324 N 
ATOM     14  C   UNL d   1       1.172  -1.051  -0.126  0.00  0.00     0.262 A 
ATOM     15  C   UNL d   1      -0.127  -1.671   0.268  0.00  0.00     0.115 A 
ATOM     16  O   UNL d   1       2.013  -1.708  -0.734  0.00  0.00    -0.267 OA
ATOM     17  C   UNL d   1      -1.082  -0.914   0.831  0.00  0.00     0.023 A 
ATOM     18  C   UNL d   1      -0.870   0.480   1.071  0.00  0.00     0.018 A 
ATOM     19  C   UNL d   1       0.310   1.036   0.783  0.00  0.00     0.094 A 
BRANCH  15  20
ATOM     20  C   UNL d   1      -0.306  -3.121  -0.005  0.00  0.00     0.422 C 
ATOM     21  F   UNL d   1       0.826  -3.868   0.030  0.00  0.00    -0.166 F 
ATOM     22  F   UNL d   1      -1.141  -3.688   0.916  0.00  0.00    -0.166 F 
ATOM     23  F   UNL d   1      -0.895  -3.335  -1.212  0.00  0.00    -0.166 F 
ENDBRANCH  15  20
ENDBRANCH   1  13
TORSDOF 6
