REMARK  2 active torsions:
REMARK  status: ('A' for Active; 'I' for Inactive)
REMARK    1  A    between atoms: C_5  and  C_1 
REMARK    2  A    between atoms: C_8  and  C_7 
ROOT
ATOM      1  C   UNL d   1      -0.034  -1.053   0.400  0.00  0.00     0.134 A 
ATOM      2  C   UNL d   1      -0.930  -0.035   0.639  0.00  0.00     0.067 A 
ATOM      3  N   UNL d   1       0.798   0.815  -0.561  0.00  0.00    -0.300 N 
ATOM      4  HN  UNL d   1       1.409   1.439  -1.089  1.00  0.00     0.187 HD
ATOM      5  N   UNL d   1       0.981  -0.489  -0.308  0.00  0.00    -0.296 N 
ATOM      6  C   UNL d   1      -0.367   1.121   0.034  0.00  0.00     0.060 A 
ATOM      7  H   UNL d   1       1.830  -0.928  -0.655  0.00  0.00     0.187 HD
ENDROOT
BRANCH   6   8
ATOM      8  C   UNL d   1      -0.906   2.482   0.020  0.00  0.00    -0.005 A 
ATOM      9  C   UNL d   1      -1.736   2.928   1.061  0.00  0.00     0.053 A 
ATOM     10  C   UNL d   1      -2.195   4.228   1.014  0.00  0.00     0.105 A 
ATOM     11  O   UNL d   1      -2.985   4.822   1.949  0.00  0.00    -0.323 OA
ATOM     12  C   UNL d   1      -1.872   5.079  -0.017  0.00  0.00     0.105 A 
ATOM     13  C   UNL d   1      -3.086   6.157   1.409  0.00  0.00     0.352 A 
ATOM     14  O   UNL d   1      -2.421   6.313   0.138  0.00  0.00    -0.323 OA
ATOM     15  C   UNL d   1      -1.071   4.677  -1.061  0.00  0.00     0.040 A 
ATOM     16  C   UNL d   1      -0.580   3.367  -1.035  0.00  0.00     0.017 A 
ENDBRANCH   6   8
BRANCH   1  17
ATOM     17  C   UNL d   1      -0.004  -2.477   0.751  0.00  0.00     0.434 C 
ATOM     18  F   UNL d   1      -1.106  -2.864   1.436  0.00  0.00    -0.165 F 
ATOM     19  F   UNL d   1       0.079  -3.258  -0.354  0.00  0.00    -0.165 F 
ATOM     20  F   UNL d   1       1.072  -2.774   1.521  0.00  0.00    -0.165 F 
ENDBRANCH   1  17
TORSDOF 2
