REMARK  2 active torsions:
REMARK  status: ('A' for Active; 'I' for Inactive)
REMARK    1  A    between atoms: C_9  and  N_1 
REMARK    2  A    between atoms: C_7  and  C_5 
ROOT
ATOM      1  N   UNL d   1       0.959  -0.624  -0.022  0.00  0.00    -0.255 N 
ATOM      2  C   UNL d   1      -0.343  -1.084   0.148  0.00  0.00     0.076 C 
ATOM      3  N   UNL d   1       1.004   0.738   0.003  0.00  0.00    -0.289 N 
ATOM      4  HN  UNL d   1       1.836   1.327   0.046  1.00  0.00     0.187 HD
ATOM      5  C   UNL d   1      -0.278   1.140  -0.041  0.00  0.00     0.135 C 
ATOM      6  C   UNL d   1      -1.153   0.029   0.018  0.00  0.00     0.069 C 
ATOM      7  C   UNL d   1      -0.743  -2.416   0.513  0.00  0.00     0.033 A 
ATOM      8  S   UNL d   1      -2.126  -3.163  -0.172  0.00  0.00    -0.100 SA
ATOM      9  C   UNL d   1      -0.151  -3.234   1.459  0.00  0.00     0.021 A 
ATOM     10  C   UNL d   1      -1.917  -4.573   0.772  0.00  0.00     0.050 A 
ATOM     11  C   UNL d   1      -0.821  -4.484   1.598  0.00  0.00     0.008 A 
ENDROOT
BRANCH   1  12
ATOM     12  C   UNL d   1       2.170  -1.357  -0.206  0.00  0.00     0.057 A 
ATOM     13  C   UNL d   1       2.169  -2.647  -0.752  0.00  0.00     0.033 A 
ATOM     14  C   UNL d   1       3.369  -3.352  -0.890  0.00  0.00     0.026 A 
ATOM     15  C   UNL d   1       4.569  -2.768  -0.490  0.00  0.00     0.034 A 
ATOM     16  C   UNL d   1       4.586  -1.473   0.022  0.00  0.00     0.026 A 
ATOM     17 CL   UNL d   1       6.038  -3.651  -0.634  0.00  0.00    -0.084 Cl
ATOM     18  C   UNL d   1       3.390  -0.759   0.149  0.00  0.00     0.033 A 
ENDBRANCH   1  12
BRANCH   5  19
ATOM     19  C   UNL d   1      -0.694   2.586  -0.082  0.00  0.00     0.434 C 
ATOM     20  F   UNL d   1       0.344   3.457   0.019  0.00  0.00    -0.165 F 
ATOM     21  F   UNL d   1      -1.349   2.885  -1.235  0.00  0.00    -0.165 F 
ATOM     22  F   UNL d   1      -1.551   2.883   0.934  0.00  0.00    -0.165 F 
ENDBRANCH   5  19
TORSDOF 2
