REMARK  5 active torsions:
REMARK  status: ('A' for Active; 'I' for Inactive)
REMARK    1  A    between atoms: C_7  and  N_1 
REMARK    2  A    between atoms: C_9  and  C_3 
REMARK    3  A    between atoms: C_10  and  C_4 
REMARK    4  A    between atoms: C_14  and  C_5 
REMARK    5  A    between atoms: O_13  and  C_6 
ROOT
ATOM      1  N   UNL d   1      -0.661   1.225   0.024  0.00  0.00    -0.262 N 
ATOM      2  C   UNL d   1      -1.456   0.078   0.080  0.00  0.00     0.268 A 
ATOM      3  C   UNL d   1      -0.734  -1.232  -0.010  0.00  0.00     0.076 A 
ATOM      4  C   UNL d   1       0.736   1.177  -0.018  0.00  0.00     0.063 A 
ATOM      5  C   UNL d   1       1.409  -0.008  -0.074  0.00  0.00     0.004 A 
ATOM      6  C   UNL d   1       0.610  -1.230  -0.124  0.00  0.00     0.090 A 
ATOM      7  O   UNL d   1      -2.684   0.080   0.147  0.00  0.00    -0.267 OA
ENDROOT
BRANCH   1   8
ATOM      8  C   UNL d   1      -1.379   2.453   0.016  0.00  0.00     0.114 A 
ATOM      9  N   UNL d   1      -1.632   3.075   1.191  0.00  0.00    -0.352 N 
ATOM     10  C   UNL d   1      -2.345   4.222   1.131  0.00  0.00     0.089 A 
ATOM     11  HN  UNL d   1      -1.299   2.698   2.078  1.00  0.00     0.166 HD
ATOM     12  C   UNL d   1      -2.794   4.800  -0.048  0.00  0.00     0.017 A 
ATOM     13  C   UNL d   1      -2.506   4.157  -1.243  0.00  0.00     0.005 A 
ATOM     14  C   UNL d   1      -1.797   2.962  -1.216  0.00  0.00     0.049 A 
ENDBRANCH   1   8
BRANCH   4  15
ATOM     15  C   UNL d   1       1.489   2.457   0.002  0.00  0.00    -0.008 A 
ATOM     16  C   UNL d   1       1.864   3.082  -1.196  0.00  0.00     0.014 A 
ATOM     17  C   UNL d   1       2.638   4.245  -1.172  0.00  0.00     0.001 A 
ATOM     18  C   UNL d   1       3.042   4.789   0.047  0.00  0.00     0.000 A 
ATOM     19  C   UNL d   1       2.665   4.180   1.243  0.00  0.00     0.001 A 
ATOM     20  C   UNL d   1       1.888   3.020   1.221  0.00  0.00     0.014 A 
ENDBRANCH   4  15
BRANCH   3  21
ATOM     21  C   UNL d   1      -1.491  -2.495  -0.007  0.00  0.00    -0.018 A 
ATOM     22  C   UNL d   1      -1.741  -3.165   1.199  0.00  0.00     0.012 A 
ATOM     23  C   UNL d   1      -2.445  -4.374   1.201  0.00  0.00     0.001 A 
ATOM     24  C   UNL d   1      -2.903  -4.917  -0.000  0.00  0.00     0.000 A 
ATOM     25  C   UNL d   1      -2.661  -4.254  -1.202  0.00  0.00     0.001 A 
ATOM     26  C   UNL d   1      -1.953  -3.049  -1.206  0.00  0.00     0.012 A 
ENDBRANCH   3  21
BRANCH   5  27
ATOM     27  C   UNL d   1       2.943  -0.016  -0.065  0.00  0.00     0.039 C 
ATOM     28  C   UNL d   1       3.767  -1.300  -0.080  0.00  0.00     0.010 C 
ENDBRANCH   5  27
BRANCH   6  29
ATOM     29  O   UNL d   1       1.289  -2.404  -0.368  0.00  0.00    -0.359 OA
ATOM     30  H   UNL d   1       1.645  -2.704   0.483  0.00  0.00     0.217 HD
ENDBRANCH   6  29
TORSDOF 5
