REMARK  3 active torsions:
REMARK  status: ('A' for Active; 'I' for Inactive)
REMARK    1  A    between atoms: C_6  and  C_5 
REMARK    2  A    between atoms: C_9  and  C_6 
REMARK    3  A    between atoms: O_13  and  C_9 
ROOT
ATOM      1  N   UNL d   1       1.173   0.263   0.104  0.00  0.00    -0.302 N 
ATOM      2  C   UNL d   1       0.776  -1.044   0.123  0.00  0.00     0.145 C 
ATOM      3  C   UNL d   1       0.210   1.213  -0.165  0.00  0.00     0.240 C 
ATOM      4  S   UNL d   1      -0.927  -1.177  -0.206  0.00  0.00    -0.079 SA
ATOM      5  C   UNL d   1      -1.183   0.625  -0.168  0.00  0.00     0.157 C 
ATOM      6  N   UNL d   1       1.591  -2.003   0.364  0.00  0.00    -0.375 N 
ATOM      7  HN  UNL d   1       2.575  -1.809   0.548  1.00  0.00     0.161 HD
ATOM      8  O   UNL d   1       0.427   2.413  -0.304  0.00  0.00    -0.272 OA
ATOM      9  C   UNL d   1       2.551   0.669   0.287  0.00  0.00     0.161 C 
ATOM     10  C   UNL d   1       1.099  -3.374   0.372  0.00  0.00     0.148 C 
ENDROOT
BRANCH   5  11
ATOM     11  C   UNL d   1      -1.882   1.062   1.115  0.00  0.00     0.135 C 
BRANCH  11  12
ATOM     12  C   UNL d   1      -3.339   0.692   1.118  0.00  0.00     0.141 C 
ATOM     13  O   UNL d   1      -4.027   0.580   0.118  0.00  0.00    -0.650 OA
BRANCH  12  14
ATOM     14  O   UNL d   1      -3.844   0.547   2.364  0.00  0.00    -0.776 OA
ATOM     15  H   UNL d   1      -3.204   0.685   3.089  0.00  0.00     0.167 HD
ENDBRANCH  12  14
ENDBRANCH  11  12
ENDBRANCH   5  11
TORSDOF 3
