REMARK  2 active torsions:
REMARK  status: ('A' for Active; 'I' for Inactive)
REMARK       I    between atoms: N_3  and  C_1 
REMARK       I    between atoms: N_6  and  C_1 
REMARK    1  A    between atoms: C_2  and  N_4 
REMARK    2  A    between atoms: C_13  and  N_6 
ROOT
ATOM      1  C   UNL d   1      -2.097   4.480   1.880  0.00  0.00     0.124 A 
ATOM      2  C   UNL d   1      -1.476   5.741   1.912  0.00  0.00     0.088 A 
ATOM      3  C   UNL d   1      -0.315   6.050   1.137  0.00  0.00     0.103 C 
ATOM      4  N   UNL d   1       0.623   6.338   0.514  0.00  0.00    -0.191 NA
ATOM      5  N   UNL d   1      -3.150   4.222   2.691  0.00  0.00    -0.351 N 
ATOM      6  HN  UNL d   1      -3.605   3.309   2.671  1.00  0.00     0.166 HD
ATOM      7  C   UNL d   1      -1.955   6.725   2.792  0.00  0.00     0.028 A 
ATOM      8  C   UNL d   1      -3.592   5.188   3.530  0.00  0.00     0.090 A 
ATOM      9  C   UNL d   1      -3.030   6.443   3.617  0.00  0.00     0.019 A 
ENDROOT
BRANCH   1  10
ATOM     10  N   UNL d   1      -1.618   3.440   1.090  0.00  0.00    -0.364 N 
ATOM     11  C   UNL d   1      -1.870   2.061   1.546  0.00  0.00     0.144 C 
ATOM     12  C   UNL d   1      -0.552   1.266   1.618  0.00  0.00     0.147 C 
ATOM     13  N   UNL d   1       0.279   1.297   0.400  0.00  0.00    -0.332 N 
ATOM     14  C   UNL d   1       0.846   0.094  -0.017  0.00  0.00     0.322 C 
ATOM     15  C   UNL d   1       0.741   2.619  -0.037  0.00  0.00     0.129 C 
ATOM     16  N   UNL d   1       1.574   0.176  -1.186  0.00  0.00    -0.309 N 
ATOM     17  O   UNL d   1       0.663  -0.949   0.606  0.00  0.00    -0.247 OA
ATOM     18  H   UNL d   1       1.320   0.935  -1.797  0.00  0.00     0.170 HD
ATOM     19  C   UNL d   1      -0.247   3.317  -0.968  0.00  0.00     0.040 C 
ATOM     20  C   UNL d   1      -1.626   3.605  -0.366  0.00  0.00     0.126 C 
BRANCH  16  21
ATOM     21  C   UNL d   1       2.301  -0.882  -1.773  0.00  0.00     0.038 A 
ATOM     22  C   UNL d   1       2.734  -1.999  -1.057  0.00  0.00     0.054 A 
ATOM     23  C   UNL d   1       3.349  -3.068  -1.713  0.00  0.00     0.042 A 
ATOM     24 CL   UNL d   1       3.825  -4.433  -0.765  0.00  0.00    -0.084 Cl
ATOM     25  C   UNL d   1       3.553  -3.034  -3.100  0.00  0.00    -0.040 A 
ATOM     26  C   UNL d   1       3.193  -1.873  -3.800  0.00  0.00     0.011 A 
ATOM     27  C   UNL d   1       4.118  -4.210  -3.844  0.00  0.00     0.050 C 
ATOM     28  C   UNL d   1       2.583  -0.802  -3.139  0.00  0.00     0.030 A 
ENDBRANCH  16  21
ENDBRANCH   1  10
TORSDOF 2
