REMARK  5 active torsions:
REMARK  status: ('A' for Active; 'I' for Inactive)
REMARK    1  A    between atoms: C_9  and  C_1 
REMARK    2  A    between atoms: C_3  and  C_16 
REMARK    3  A    between atoms: S_4  and  N_12 
REMARK       I    between atoms: N_13  and  C_9 
REMARK    4  A    between atoms: C_16  and  C_10 
REMARK    5  A    between atoms: N_12  and  N_13 
ROOT
ATOM      1  C   UNL d   1       1.239   0.859  -0.077  0.00  0.00     0.109 A 
ATOM      2  N   UNL d   1       1.387  -0.529  -0.206  0.00  0.00    -0.349 N 
ATOM      3  HN  UNL d   1       2.274  -1.007  -0.363  1.00  0.00     0.166 HD
ATOM      4  C   UNL d   1       0.216  -1.130  -0.095  0.00  0.00     0.055 A 
ATOM      5  C   UNL d   1      -0.072   1.268   0.089  0.00  0.00     0.086 A 
ATOM      6  S   UNL d   1      -1.134  -0.077   0.076  0.00  0.00    -0.086 SA
ENDROOT
BRANCH   4   7
ATOM      7  C   UNL d   1       0.019  -2.622  -0.034  0.00  0.00     0.106 C 
BRANCH   7   8
ATOM      8  C   UNL d   1      -0.197  -3.235  -1.390  0.00  0.00    -0.012 A 
ATOM      9  C   UNL d   1       0.807  -3.700  -2.208  0.00  0.00     0.082 A 
ATOM     10  S   UNL d   1       0.278  -4.275  -3.700  0.00  0.00    -0.077 SA
ATOM     11 CL   UNL d   1       2.496  -3.742  -1.871  0.00  0.00    -0.076 Cl
ATOM     12  C   UNL d   1      -1.367  -3.968  -3.305  0.00  0.00     0.017 A 
ATOM     13  C   UNL d   1      -1.494  -3.430  -2.018  0.00  0.00    -0.009 A 
ATOM     14  C   UNL d   1      -2.486  -4.209  -4.127  0.00  0.00     0.021 A 
ATOM     15  C   UNL d   1      -2.807  -3.159  -1.549  0.00  0.00     0.037 A 
ATOM     16  C   UNL d   1      -3.918  -3.413  -2.359  0.00  0.00     0.035 A 
ATOM     17  C   UNL d   1      -3.762  -3.926  -3.636  0.00  0.00     0.025 A 
ATOM     18 CL   UNL d   1      -5.498  -3.084  -1.759  0.00  0.00    -0.084 Cl
ENDBRANCH   7   8
ENDBRANCH   4   7
BRANCH   1  19
ATOM     19  C   UNL d   1       2.402   1.760  -0.075  0.00  0.00     0.287 C 
ATOM     20  N   UNL d   1       3.621   1.113  -0.187  0.00  0.00    -0.255 N 
ATOM     21  H   UNL d   1       3.655   0.103  -0.348  0.00  0.00     0.191 HD
ATOM     22  O   UNL d   1       2.308   2.987   0.027  0.00  0.00    -0.264 OA
BRANCH  20  23
ATOM     23  N   UNL d   1       4.883   1.883  -0.246  0.00  0.00    -0.224 N 
ATOM     24  H   UNL d   1       4.753   2.895  -0.374  0.00  0.00     0.200 HD
BRANCH  23  25
ATOM     25  S   UNL d   1       6.158   1.162  -1.107  0.00  0.00     0.240 S 
ATOM     26  O   UNL d   1       6.411  -0.130  -0.512  0.00  0.00    -0.205 OA
ATOM     27  O   UNL d   1       5.838   1.296  -2.514  0.00  0.00    -0.205 OA
ATOM     28  C   UNL d   1       7.526   2.247  -0.742  0.00  0.00     0.187 C 
ENDBRANCH  23  25
ENDBRANCH  20  23
ENDBRANCH   1  19
TORSDOF 5
