REMARK  5 active torsions:
REMARK  status: ('A' for Active; 'I' for Inactive)
REMARK    1  A    between atoms: C_7  and  N_1 
REMARK    2  A    between atoms: C_13  and  N_2 
REMARK    3  A    between atoms: C_23  and  C_13 
REMARK    4  A    between atoms: C_15  and  C_14 
REMARK    5  A    between atoms: O_22  and  C_15 
ROOT
ATOM      1  N   UNL d   1       0.873  -1.420   0.137  0.00  0.00    -0.246 N 
ATOM      2  N   UNL d   1       2.102   0.644   0.099  0.00  0.00    -0.260 N 
ATOM      3  C   UNL d   1       2.115  -0.771   0.233  0.00  0.00     0.338 A 
ATOM      4  C   UNL d   1      -0.284  -0.682   0.025  0.00  0.00     0.150 A 
ATOM      5  C   UNL d   1      -0.243   0.680  -0.019  0.00  0.00     0.147 A 
ATOM      6  C   UNL d   1       0.955   1.436  -0.009  0.00  0.00     0.282 A 
ATOM      7  N   UNL d   1      -1.575  -1.133   0.016  0.00  0.00    -0.336 N 
ATOM      8  HN  UNL d   1      -1.895  -2.102   0.032  1.00  0.00     0.168 HD
ATOM      9  N   UNL d   1      -1.544   1.087  -0.052  0.00  0.00    -0.345 N 
ATOM     10  C   UNL d   1      -2.314  -0.043  -0.018  0.00  0.00     0.182 A 
ATOM     11  O   UNL d   1       3.174  -1.383   0.415  0.00  0.00    -0.246 OA
ATOM     12  O   UNL d   1       0.950   2.662  -0.071  0.00  0.00    -0.265 OA
ATOM     13  H   UNL d   1      -1.870   2.046  -0.071  0.00  0.00     0.167 HD
ENDROOT
BRANCH   1  14
ATOM     14  C   UNL d   1       0.730  -2.834   0.143  0.00  0.00     0.052 A 
ATOM     15  C   UNL d   1       0.215  -3.455  -1.014  0.00  0.00     0.048 A 
ATOM     16  C   UNL d   1       0.049  -4.845  -1.073  0.00  0.00     0.041 A 
ATOM     17  C   UNL d   1       0.398  -5.621   0.034  0.00  0.00     0.018 A 
ATOM     18  C   UNL d   1       0.899  -5.016   1.188  0.00  0.00     0.010 A 
ATOM     19  C   UNL d   1       1.063  -3.620   1.263  0.00  0.00    -0.035 A 
ATOM     20  C   UNL d   1       1.521  -3.053   2.579  0.00  0.00     0.050 C 
BRANCH  16  21
ATOM     21  C   UNL d   1      -0.495  -5.544  -2.269  0.00  0.00     0.293 C 
ATOM     22  O   UNL d   1      -0.654  -6.755  -2.323  0.00  0.00    -0.259 OA
BRANCH  21  23
ATOM     23  O   UNL d   1      -0.780  -4.667  -3.265  0.00  0.00    -0.323 OA
ATOM     24  C   UNL d   1      -1.324  -5.284  -4.434  0.00  0.00     0.213 C 
ENDBRANCH  21  23
ENDBRANCH  16  21
ENDBRANCH   1  14
BRANCH   2  25
ATOM     25  C   UNL d   1       3.386   1.337   0.067  0.00  0.00     0.175 C 
BRANCH  25  26
ATOM     26  C   UNL d   1       3.950   1.425  -1.338  0.00  0.00    -0.040 A 
ATOM     27  C   UNL d   1       3.632   2.504  -2.177  0.00  0.00     0.009 A 
ATOM     28  C   UNL d   1       4.112   2.548  -3.489  0.00  0.00     0.001 A 
ATOM     29  C   UNL d   1       4.912   1.516  -3.976  0.00  0.00     0.000 A 
ATOM     30  C   UNL d   1       5.247   0.448  -3.148  0.00  0.00     0.001 A 
ATOM     31  C   UNL d   1       4.769   0.402  -1.837  0.00  0.00     0.009 A 
ENDBRANCH  25  26
ENDBRANCH   2  25
TORSDOF 5
