REMARK  5 active torsions:
REMARK  status: ('A' for Active; 'I' for Inactive)
REMARK    1  A    between atoms: C_9  and  C_1 
REMARK       I    between atoms: C_2  and  N_6 
REMARK    2  A    between atoms: O_12  and  C_2 
REMARK    3  A    between atoms: N_6  and  N_3 
REMARK    4  A    between atoms: O_15  and  C_5 
REMARK    5  A    between atoms: C_16  and  O_12 
ROOT
ATOM      1  N   UNL d   1      -4.169  -2.435  -0.121  0.00  0.00    -0.307 N 
ATOM      2  HN  UNL d   1      -4.664  -1.543  -0.149  1.00  0.00     0.186 HD
ATOM      3  C   UNL d   1      -2.878  -2.487  -0.078  0.00  0.00     0.121 C 
ENDROOT
BRANCH   3   4
ATOM      4  C   UNL d   1      -2.106  -1.227  -0.043  0.00  0.00     0.015 A 
ATOM      5  C   UNL d   1      -2.738   0.025  -0.045  0.00  0.00     0.077 A 
ATOM      6  C   UNL d   1      -1.985   1.195  -0.011  0.00  0.00     0.039 A 
ATOM      7  C   UNL d   1      -0.594   1.122   0.026  0.00  0.00     0.022 A 
ATOM      8  C   UNL d   1       0.035  -0.124   0.032  0.00  0.00     0.011 A 
ATOM      9  C   UNL d   1      -0.711  -1.304  -0.000  0.00  0.00     0.034 A 
ATOM     10 BR   UNL d   1       1.924  -0.215   0.084  0.00  0.00    -0.051 Br
BRANCH   5  11
ATOM     11  O   UNL d   1      -4.096   0.185  -0.077  0.00  0.00    -0.360 OA
ATOM     12  H   UNL d   1      -4.519  -0.703  -0.094  0.00  0.00     0.217 HD
ENDBRANCH   5  11
ENDBRANCH   3   4
BRANCH   1  13
ATOM     13  N   UNL d   1      -4.838  -3.615  -0.126  0.00  0.00    -0.246 N 
ATOM     14  C   UNL d   1      -6.201  -3.609   0.055  0.00  0.00     0.379 C 
ATOM     15  O   UNL d   1      -6.906  -2.613   0.138  0.00  0.00    -0.237 OA
ATOM     16  H   UNL d   1      -4.354  -4.502  -0.084  0.00  0.00     0.192 HD
BRANCH  14  17
ATOM     17  O   UNL d   1      -6.641  -4.888   0.199  0.00  0.00    -0.303 OA
BRANCH  17  18
ATOM     18  C   UNL d   1      -7.996  -5.007   0.659  0.00  0.00     0.176 C 
ATOM     19  C   UNL d   1      -7.996  -5.019   2.177  0.00  0.00     0.034 C 
ENDBRANCH  17  18
ENDBRANCH  14  17
ENDBRANCH   1  13
TORSDOF 5
