REMARK  7 active torsions:
REMARK  status: ('A' for Active; 'I' for Inactive)
REMARK    1  A    between atoms: C_2  and  C_1 
REMARK    2  A    between atoms: S_9  and  C_3 
REMARK    3  A    between atoms: C_13  and  C_6 
REMARK    4  A    between atoms: C_8  and  O_19 
REMARK    5  A    between atoms: C_15  and  C_8 
REMARK    6  A    between atoms: C_20  and  S_9 
REMARK    7  A    between atoms: O_19  and  N_10 
ROOT
ATOM      1  C   UNL d   1       0.405   1.536   0.216  0.00  0.00     0.064 A 
ATOM      2  C   UNL d   1      -1.321   3.091   0.991  0.00  0.00     0.034 A 
ATOM      3  N   UNL d   1       0.805   3.898   0.155  0.00  0.00    -0.363 N 
ATOM      4  HN  UNL d   1       1.428   4.678  -0.056  1.00  0.00     0.165 HD
ATOM      5  C   UNL d   1      -0.437   4.121   0.674  0.00  0.00     0.066 A 
ATOM      6  C   UNL d   1      -0.870   1.779   0.751  0.00  0.00     0.038 A 
ATOM      7  C   UNL d   1       1.193   2.632  -0.075  0.00  0.00     0.104 A 
ENDROOT
BRANCH   5   8
ATOM      8  C   UNL d   1      -0.747   5.566   0.857  0.00  0.00     0.145 C 
ATOM      9  N   UNL d   1       0.130   6.451   0.501  0.00  0.00    -0.266 N 
ATOM     10  HN  UNL d   1       1.027   6.209   0.079  1.00  0.00     0.194 HD
BRANCH   9  11
ATOM     11  O   UNL d   1      -0.270   7.775   0.752  0.00  0.00    -0.195 OA
BRANCH  11  12
ATOM     12  C   UNL d   1       0.765   8.593   0.372  0.00  0.00     0.315 C 
ATOM     13  O   UNL d   1       1.837   8.261  -0.123  0.00  0.00    -0.257 OA
BRANCH  12  14
ATOM     14  C   UNL d   1       0.492  10.012   0.696  0.00  0.00     0.041 A 
ATOM     15  C   UNL d   1      -0.797  10.554   0.709  0.00  0.00     0.017 A 
ATOM     16  C   UNL d   1      -0.970  11.915   0.981  0.00  0.00     0.001 A 
ATOM     17  C   UNL d   1       0.135  12.729   1.240  0.00  0.00     0.000 A 
ATOM     18  C   UNL d   1       1.421  12.195   1.220  0.00  0.00     0.001 A 
ATOM     19  C   UNL d   1       1.599  10.840   0.942  0.00  0.00     0.017 A 
ENDBRANCH  12  14
ENDBRANCH  11  12
ENDBRANCH   9  11
ENDBRANCH   5   8
BRANCH   2  20
ATOM     20  S   UNL d   1      -3.008   3.309   1.498  0.00  0.00    -0.088 SA
BRANCH  20  21
ATOM     21  C   UNL d   1      -3.012   3.365   3.281  0.00  0.00     0.005 A 
ATOM     22  C   UNL d   1      -1.908   3.126   4.105  0.00  0.00     0.020 A 
ATOM     23  C   UNL d   1      -2.033   3.202   5.500  0.00  0.00     0.025 A 
ATOM     24  C   UNL d   1      -3.262   3.517   6.078  0.00  0.00     0.034 A 
ATOM     25  C   UNL d   1      -4.371   3.750   5.274  0.00  0.00     0.025 A 
ATOM     26 CL   UNL d   1      -3.410   3.618   7.788  0.00  0.00    -0.084 Cl
ATOM     27  C   UNL d   1      -4.244   3.671   3.884  0.00  0.00     0.020 A 
ENDBRANCH  20  21
ENDBRANCH   2  20
BRANCH   1  28
ATOM     28  C   UNL d   1       0.936   0.163  -0.062  0.00  0.00     0.418 C 
ATOM     29  F   UNL d   1       0.058  -0.827   0.253  0.00  0.00    -0.166 F 
ATOM     30  F   UNL d   1       2.069  -0.104   0.643  0.00  0.00    -0.166 F 
ATOM     31  F   UNL d   1       1.256  -0.021  -1.371  0.00  0.00    -0.166 F 
ENDBRANCH   1  28
TORSDOF 7
