REMARK  2 active torsions:
REMARK  status: ('A' for Active; 'I' for Inactive)
REMARK    1  A    between atoms: C_6  and  C_1 
REMARK    2  A    between atoms: C_3  and  C_2 
REMARK       I    between atoms: N_12  and  C_6 
ROOT
ATOM      1  C   UNL d   1      -0.133  -1.289  -0.003  0.00  0.00     0.072 A 
ATOM      2  C   UNL d   1       0.702  -0.174   0.005  0.00  0.00     0.174 A 
ATOM      3  O   UNL d   1      -0.059   0.973   0.011  0.00  0.00    -0.310 OA
ATOM      4  C   UNL d   1      -1.465  -0.759   0.002  0.00  0.00     0.052 A 
ATOM      5  C   UNL d   1      -1.366   0.609   0.011  0.00  0.00     0.051 A 
ATOM      6  C   UNL d   1      -2.363   1.697   0.021  0.00  0.00     0.076 C 
ENDROOT
BRANCH   1   7
ATOM      7  C   UNL d   1       0.158  -2.715  -0.010  0.00  0.00     0.252 C 
ATOM      8  O   UNL d   1      -0.734  -3.559  -0.016  0.00  0.00    -0.268 OA
ATOM      9  N   UNL d   1       1.452  -3.128  -0.012  0.00  0.00    -0.366 N 
ATOM     10  H   UNL d   1       2.265  -2.527  -0.002  0.00  0.00     0.159 HD
ATOM     11  H   UNL d   1       1.609  -4.127  -0.015  0.00  0.00     0.159 HD
ENDBRANCH   1   7
BRANCH   2  12
ATOM     12  C   UNL d   1       2.167   0.062   0.000  0.00  0.00     0.440 C 
ATOM     13  F   UNL d   1       2.890  -1.091  -0.012  0.00  0.00    -0.164 F 
ATOM     14  F   UNL d   1       2.571   0.767  -1.089  0.00  0.00    -0.164 F 
ATOM     15  F   UNL d   1       2.584   0.751   1.094  0.00  0.00    -0.164 F 
ENDBRANCH   2  12
TORSDOF 2
