REMARK  7 active torsions:
REMARK  status: ('A' for Active; 'I' for Inactive)
REMARK    1  A    between atoms: N_4  and  S_1 
REMARK    2  A    between atoms: C_10  and  S_1 
REMARK    3  A    between atoms: C_5  and  C_2 
REMARK    4  A    between atoms: N_6  and  C_3 
REMARK    5  A    between atoms: C_12  and  N_4 
REMARK    6  A    between atoms: O_15  and  C_5 
REMARK    7  A    between atoms: C_20  and  O_15 
ROOT
ATOM      1  C   UNL d   1       2.403   0.568  -4.337  0.00  0.00     0.068 A 
ATOM      2  C   UNL d   1       1.448   0.433  -5.383  0.00  0.00     0.046 A 
ATOM      3  C   UNL d   1       2.112   0.168  -3.013  0.00  0.00     0.050 A 
ATOM      4  C   UNL d   1       0.171  -0.016  -4.977  0.00  0.00     0.033 A 
ATOM      5  C   UNL d   1       0.855  -0.317  -2.689  0.00  0.00     0.043 A 
ATOM      6  C   UNL d   1      -0.127  -0.381  -3.660  0.00  0.00     0.032 A 
ENDROOT
BRANCH   5   7
ATOM      7  N   UNL d   1       0.598  -0.836  -1.393  0.00  0.00    -0.281 N 
ATOM      8  H   UNL d   1       0.978  -0.342  -0.587  0.00  0.00     0.179 HD
BRANCH   7   9
ATOM      9  S   UNL d   1       0.641  -2.521  -1.194  0.00  0.00     0.263 S 
ATOM     10  O   UNL d   1      -0.314  -3.131  -2.087  0.00  0.00    -0.200 OA
ATOM     11  O   UNL d   1       0.591  -2.753   0.236  0.00  0.00    -0.200 OA
BRANCH   9  12
ATOM     12  C   UNL d   1       2.278  -2.955  -1.752  0.00  0.00     0.079 A 
ATOM     13  C   UNL d   1       3.345  -2.921  -0.849  0.00  0.00     0.025 A 
ATOM     14  C   UNL d   1       4.625  -3.265  -1.286  0.00  0.00     0.002 A 
ATOM     15  C   UNL d   1       4.834  -3.647  -2.613  0.00  0.00     0.000 A 
ATOM     16  C   UNL d   1       3.763  -3.696  -3.506  0.00  0.00     0.002 A 
ATOM     17  C   UNL d   1       2.478  -3.358  -3.077  0.00  0.00     0.025 A 
ENDBRANCH   9  12
ENDBRANCH   7   9
ENDBRANCH   5   7
BRANCH   1  18
ATOM     18  C   UNL d   1       3.702   1.276  -4.519  0.00  0.00     0.295 C 
ATOM     19  O   UNL d   1       3.856   2.278  -5.191  0.00  0.00    -0.259 OA
BRANCH  18  20
ATOM     20  O   UNL d   1       4.681   0.648  -3.809  0.00  0.00    -0.318 OA
BRANCH  20  21
ATOM     21  C   UNL d   1       5.994   1.216  -3.950  0.00  0.00     0.174 C 
ATOM     22  C   UNL d   1       6.130   2.528  -3.192  0.00  0.00     0.034 C 
ENDBRANCH  20  21
ENDBRANCH  18  20
ENDBRANCH   1  18
BRANCH   2  23
ATOM     23  N   UNL d   1       1.688   0.720  -6.725  0.00  0.00    -0.380 N 
ATOM     24  C   UNL d   1       2.968   0.375  -7.367  0.00  0.00     0.123 C 
ATOM     25  C   UNL d   1       3.397   1.537  -8.267  0.00  0.00     0.020 C 
ATOM     26  C   UNL d   1       2.317   1.865  -9.297  0.00  0.00     0.003 C 
ATOM     27  C   UNL d   1       0.956   2.057  -8.634  0.00  0.00     0.020 C 
ATOM     28  C   UNL d   1       0.601   0.898  -7.702  0.00  0.00     0.123 C 
ENDBRANCH   2  23
TORSDOF 7
