REMARK  5 active torsions:
REMARK  status: ('A' for Active; 'I' for Inactive)
REMARK    1  A    between atoms: N_5  and  C_1 
REMARK       I    between atoms: C_4  and  N_5 
REMARK    2  A    between atoms: C_11  and  C_4 
REMARK    3  A    between atoms: S_8  and  C_11 
REMARK    4  A    between atoms: C_12  and  S_8 
REMARK    5  A    between atoms: O_14  and  C_13 
ROOT
ATOM      1  C   UNL d   1       4.726   1.066  -0.092  0.00  0.00     0.227 C 
ATOM      2  N   UNL d   1       3.832   0.082   0.261  0.00  0.00    -0.355 N 
ATOM      3  O   UNL d   1       4.430   2.002  -0.832  0.00  0.00    -0.273 OA
ATOM      4  H   UNL d   1       4.192  -0.704   0.793  0.00  0.00     0.162 HD
ENDROOT
BRANCH   1   5
ATOM      5  C   UNL d   1       6.103   0.979   0.558  0.00  0.00     0.182 C 
BRANCH   5   6
ATOM      6  S   UNL d   1       6.595  -0.752   0.891  0.00  0.00    -0.121 SA
BRANCH   6   7
ATOM      7  C   UNL d   1       8.180  -0.599   1.709  0.00  0.00     0.003 A 
ATOM      8  C   UNL d   1       8.871   0.604   1.907  0.00  0.00     0.055 A 
ATOM      9  C   UNL d   1      10.101   0.617   2.576  0.00  0.00     0.069 A 
ATOM     10  C   UNL d   1      10.656  -0.583   3.023  0.00  0.00     0.037 A 
ATOM     11  C   UNL d   1       9.987  -1.786   2.825  0.00  0.00     0.004 A 
ATOM     12  C   UNL d   1       8.752  -1.791   2.176  0.00  0.00     0.018 A 
BRANCH   9  13
ATOM     13  O   UNL d   1      10.850   1.728   2.854  0.00  0.00    -0.356 OA
ATOM     14  C   UNL d   1      10.305   2.988   2.483  0.00  0.00     0.210 C 
ENDBRANCH   9  13
ENDBRANCH   6   7
ENDBRANCH   5   6
ENDBRANCH   1   5
BRANCH   2  15
ATOM     15  C   UNL d   1       2.494   0.009  -0.304  0.00  0.00     0.092 C 
ATOM     16  C   UNL d   1       1.676  -1.179   0.253  0.00  0.00     0.064 C 
ATOM     17  C   UNL d   1       0.710  -1.425  -0.864  0.00  0.00    -0.050 A 
ATOM     18  C   UNL d   1      -0.471  -2.146  -0.832  0.00  0.00     0.007 A 
ATOM     19  C   UNL d   1       1.166  -0.844  -2.052  0.00  0.00    -0.050 A 
ATOM     20  C   UNL d   1      -1.206  -2.266  -2.013  0.00  0.00     0.001 A 
ATOM     21  C   UNL d   1      -0.749  -1.681  -3.205  0.00  0.00     0.001 A 
ATOM     22  C   UNL d   1       0.451  -0.969  -3.232  0.00  0.00     0.007 A 
ATOM     23  C   UNL d   1       2.474  -0.151  -1.842  0.00  0.00     0.064 C 
ENDBRANCH   2  15
TORSDOF 5
