REMARK  3 active torsions:
REMARK  status: ('A' for Active; 'I' for Inactive)
REMARK    1  A    between atoms: N_2  and  C_1 
REMARK    2  A    between atoms: N_3  and  C_1 
REMARK    3  A    between atoms: C_4  and  N_2 
ROOT
ATOM      1  C   UNL d   1       1.023   2.512  -0.077  0.00  0.00     0.045 A 
ATOM      2  C   UNL d   1       0.340   3.692   0.353  0.00  0.00     0.001 A 
ATOM      3  C   UNL d   1       1.033   4.930   0.279  0.00  0.00    -0.024 A 
ATOM      4  C   UNL d   1       2.298   2.618  -0.655  0.00  0.00     0.030 A 
ATOM      5  C   UNL d   1       2.955   3.840  -0.724  0.00  0.00     0.003 A 
ATOM      6  C   UNL d   1      -0.982   3.728   0.869  0.00  0.00     0.014 A 
ATOM      7  C   UNL d   1       2.334   4.983  -0.241  0.00  0.00     0.012 A 
ATOM      8  C   UNL d   1       0.428   6.114   0.730  0.00  0.00     0.012 A 
ATOM      9  C   UNL d   1      -1.576   4.921   1.300  0.00  0.00     0.001 A 
ATOM     10  C   UNL d   1      -0.868   6.111   1.237  0.00  0.00     0.001 A 
ENDROOT
BRANCH   1  11
ATOM     11  N   UNL d   1       0.406   1.234   0.013  0.00  0.00    -0.332 N 
ATOM     12  H   UNL d   1      -0.564   1.225   0.291  0.00  0.00     0.168 HD
BRANCH  11  13
ATOM     13  C   UNL d   1       1.022  -0.003   0.156  0.00  0.00     0.174 C 
ATOM     14  S   UNL d   1       2.430  -0.225   1.058  0.00  0.00    -0.041 SA
BRANCH  13  15
ATOM     15  N   UNL d   1       0.311  -1.049  -0.452  0.00  0.00    -0.354 N 
ATOM     16  C   UNL d   1       0.733  -2.467  -0.397  0.00  0.00     0.151 C 
ATOM     17  C   UNL d   1       0.891  -3.045  -1.808  0.00  0.00     0.187 C 
ATOM     18  O   UNL d   1      -0.317  -2.886  -2.569  0.00  0.00    -0.388 OA
ATOM     19  C   UNL d   1      -0.652  -1.497  -2.690  0.00  0.00     0.187 C 
ATOM     20  C   UNL d   1      -0.871  -0.859  -1.313  0.00  0.00     0.151 C 
ENDBRANCH  13  15
ENDBRANCH  11  13
ENDBRANCH   1  11
TORSDOF 3
