REMARK  6 active torsions:
REMARK  status: ('A' for Active; 'I' for Inactive)
REMARK    1  A    between atoms: N_7  and  C_1 
REMARK    2  A    between atoms: N_8  and  C_1 
REMARK    3  A    between atoms: N_2  and  N_7 
REMARK    4  A    between atoms: N_4  and  N_8 
REMARK    5  A    between atoms: C_11  and  C_9 
REMARK    6  A    between atoms: C_12  and  C_10 
ROOT
ATOM      1  C   UNL d   1       0.916  -0.163   0.016  0.00  0.00     0.205 C 
ATOM      2  S   UNL d   1      -0.080  -1.499  -0.098  0.00  0.00    -0.038 SA
ENDROOT
BRANCH   1   3
ATOM      3  N   UNL d   1       0.371   1.065   0.343  0.00  0.00    -0.275 N 
ATOM      4  H   UNL d   1      -0.638   1.101   0.455  0.00  0.00     0.189 HD
BRANCH   3   5
ATOM      5  N   UNL d   1       1.076   2.209   0.089  0.00  0.00    -0.309 N 
ATOM      6  C   UNL d   1       0.399   3.308   0.201  0.00  0.00     0.118 C 
ATOM      7  HN  UNL d   1       2.062   2.198  -0.168  1.00  0.00     0.186 HD
BRANCH   6   8
ATOM      8  C   UNL d   1       0.999   4.607  -0.167  0.00  0.00    -0.019 A 
ATOM      9  C   UNL d   1       2.238   4.652  -0.813  0.00  0.00     0.014 A 
ATOM     10  C   UNL d   1       2.780   5.879  -1.201  0.00  0.00     0.024 A 
ATOM     11  C   UNL d   1       2.080   7.055  -0.938  0.00  0.00     0.034 A 
ATOM     12  C   UNL d   1       0.842   7.014  -0.294  0.00  0.00     0.024 A 
ATOM     13 CL   UNL d   1       2.745   8.566  -1.419  0.00  0.00    -0.084 Cl
ATOM     14  C   UNL d   1       0.293   5.787   0.093  0.00  0.00     0.014 A 
ENDBRANCH   6   8
ENDBRANCH   3   5
ENDBRANCH   1   3
BRANCH   1  15
ATOM     15  N   UNL d   1       2.279  -0.120  -0.196  0.00  0.00    -0.275 N 
ATOM     16  H   UNL d   1       2.691   0.805  -0.097  0.00  0.00     0.189 HD
BRANCH  15  17
ATOM     17  N   UNL d   1       2.932  -1.095  -0.883  0.00  0.00    -0.309 N 
ATOM     18  C   UNL d   1       4.202  -0.912  -1.045  0.00  0.00     0.118 C 
ATOM     19  HN  UNL d   1       2.450  -1.917  -1.246  1.00  0.00     0.186 HD
BRANCH  18  20
ATOM     20  C   UNL d   1       4.995  -1.831  -1.888  0.00  0.00    -0.019 A 
ATOM     21  C   UNL d   1       4.352  -2.806  -2.659  0.00  0.00     0.014 A 
ATOM     22  C   UNL d   1       5.096  -3.631  -3.504  0.00  0.00     0.024 A 
ATOM     23  C   UNL d   1       6.480  -3.483  -3.568  0.00  0.00     0.034 A 
ATOM     24  C   UNL d   1       7.127  -2.518  -2.793  0.00  0.00     0.024 A 
ATOM     25 CL   UNL d   1       7.397  -4.490  -4.619  0.00  0.00    -0.084 Cl
ATOM     26  C   UNL d   1       6.384  -1.685  -1.950  0.00  0.00     0.014 A 
ENDBRANCH  18  20
ENDBRANCH  15  17
ENDBRANCH   1  15
TORSDOF 6
