REMARK  7 active torsions:
REMARK  status: ('A' for Active; 'I' for Inactive)
REMARK       I    between atoms: N_2  and  C_1 
REMARK    1  A    between atoms: O_5  and  C_1 
REMARK    2  A    between atoms: C_4  and  N_2 
REMARK    3  A    between atoms: C_3  and  C_4 
REMARK       I    between atoms: N_9  and  C_3 
REMARK    4  A    between atoms: C_10  and  C_4 
REMARK    5  A    between atoms: C_8  and  O_5 
REMARK    6  A    between atoms: C_14  and  N_9 
REMARK    7  A    between atoms: C_15  and  C_10 
ROOT
ATOM      1  C   UNL d   1       1.072   1.671  -1.828  0.00  0.00     0.182 C 
ENDROOT
BRANCH   1   2
ATOM      2  C   UNL d   1       1.977   0.757  -2.691  0.00  0.00     0.240 C 
ATOM      3  O   UNL d   1       1.984  -0.468  -2.560  0.00  0.00    -0.271 OA
ATOM      4  N   UNL d   1       2.750   1.409  -3.627  0.00  0.00    -0.360 N 
ATOM      5  H   UNL d   1       2.812   2.419  -3.614  0.00  0.00     0.162 HD
BRANCH   4   6
ATOM      6  C   UNL d   1       3.543   0.692  -4.610  0.00  0.00     0.118 C 
ATOM      7  C   UNL d   1       4.953   0.429  -4.120  0.00  0.00     0.026 C 
ENDBRANCH   4   6
ENDBRANCH   1   2
BRANCH   1   8
ATOM      8  N   UNL d   1       0.379   0.842  -0.847  0.00  0.00    -0.323 N 
ATOM      9  C   UNL d   1       0.190   1.224   0.448  0.00  0.00     0.362 C 
ATOM     10  O   UNL d   1       0.451   2.332   0.884  0.00  0.00    -0.238 OA
ATOM     11  H   UNL d   1       0.281  -0.148  -1.044  0.00  0.00     0.165 HD
BRANCH   9  12
ATOM     12  O   UNL d   1      -0.325   0.192   1.159  0.00  0.00    -0.294 OA
BRANCH  12  13
ATOM     13  C   UNL d   1      -0.657   0.362   2.565  0.00  0.00     0.061 C 
ATOM     14  C   UNL d   1      -1.777   1.393   2.749  0.00  0.00     0.046 C 
ATOM     15  C   UNL d   1      -1.177  -1.009   3.028  0.00  0.00     0.046 C 
ATOM     16  C   UNL d   1       0.578   0.712   3.404  0.00  0.00     0.046 C 
ENDBRANCH  12  13
ENDBRANCH   9  12
ENDBRANCH   1   8
BRANCH   1  17
ATOM     17  C   UNL d   1       0.110   2.558  -2.671  0.00  0.00     0.013 C 
ATOM     18  C   UNL d   1      -0.595   3.598  -1.783  0.00  0.00     0.012 C 
BRANCH  17  19
ATOM     19  C   UNL d   1      -0.971   1.814  -3.487  0.00  0.00     0.002 C 
ATOM     20  C   UNL d   1      -0.454   0.891  -4.580  0.00  0.00     0.005 C 
ENDBRANCH  17  19
ENDBRANCH   1  17
TORSDOF 7
