REMARK  2 active torsions:
REMARK  status: ('A' for Active; 'I' for Inactive)
REMARK    1  A    between atoms: C_2  and  S_1 
REMARK    2  A    between atoms: N_3  and  S_1 
ROOT
ATOM      1  C   UNL d   1       0.554  -0.290   1.748  0.00  0.00     0.079 A 
ATOM      2  C   UNL d   1       0.091   0.787   2.512  0.00  0.00     0.026 A 
ATOM      3  C   UNL d   1       0.502  -1.589   2.258  0.00  0.00     0.026 A 
ATOM      4  C   UNL d   1      -0.386   0.564   3.807  0.00  0.00     0.008 A 
ATOM      5  C   UNL d   1       0.020  -1.806   3.555  0.00  0.00     0.008 A 
ATOM      6  C   UNL d   1      -0.420  -0.732   4.338  0.00  0.00    -0.062 A 
ATOM      7  C   UNL d   1      -0.941  -0.955   5.730  0.00  0.00     0.048 C 
ENDROOT
BRANCH   1   8
ATOM      8  S   UNL d   1       1.060  -0.019   0.059  0.00  0.00     0.260 S 
ATOM      9  O   UNL d   1       0.428   1.206  -0.384  0.00  0.00    -0.200 OA
ATOM     10  O   UNL d   1       0.852  -1.262  -0.658  0.00  0.00    -0.200 OA
BRANCH   8  11
ATOM     11  N   UNL d   1       2.732   0.263   0.154  0.00  0.00    -0.315 N 
ATOM     12  C   UNL d   1       3.170   1.511   0.796  0.00  0.00     0.162 C 
ATOM     13  C   UNL d   1       3.610  -0.887   0.402  0.00  0.00     0.162 C 
ENDBRANCH   8  11
ENDBRANCH   1   8
TORSDOF 2
