REMARK  7 active torsions:
REMARK  status: ('A' for Active; 'I' for Inactive)
REMARK    1  A    between atoms: N_3  and  S_1 
REMARK    2  A    between atoms: C_6  and  S_1 
REMARK    3  A    between atoms: S_2  and  N_4 
REMARK    4  A    between atoms: C_12  and  N_3 
REMARK    5  A    between atoms: N_4  and  C_5 
REMARK    6  A    between atoms: C_23  and  C_21 
REMARK    7  A    between atoms: C_24  and  C_23 
ROOT
ATOM      1  N   UNL d   1       0.264  -1.497  -0.569  0.00  0.00    -0.281 N 
ATOM      2  H   UNL d   1      -0.676  -1.662  -0.216  0.00  0.00     0.179 HD
ENDROOT
BRANCH   1   3
ATOM      3  S   UNL d   1       0.880   0.015  -0.139  0.00  0.00     0.263 S 
ATOM      4  O   UNL d   1       2.304   0.056  -0.385  0.00  0.00    -0.200 OA
ATOM      5  O   UNL d   1       0.338   0.307   1.178  0.00  0.00    -0.200 OA
BRANCH   3   6
ATOM      6  C   UNL d   1       0.079   1.113  -1.288  0.00  0.00     0.079 A 
ATOM      7  C   UNL d   1      -1.160   1.663  -0.944  0.00  0.00     0.026 A 
ATOM      8  C   UNL d   1      -1.792   2.552  -1.815  0.00  0.00     0.009 A 
ATOM      9  C   UNL d   1      -1.192   2.911  -3.030  0.00  0.00    -0.058 A 
ATOM     10  C   UNL d   1       0.067   2.372  -3.349  0.00  0.00     0.009 A 
ATOM     11  C   UNL d   1       0.706   1.476  -2.482  0.00  0.00     0.026 A 
BRANCH   9  12
ATOM     12  C   UNL d   1      -1.883   3.902  -3.943  0.00  0.00     0.038 C 
BRANCH  12  13
ATOM     13  C   UNL d   1      -2.414   3.320  -5.256  0.00  0.00     0.000 C 
ATOM     14  C   UNL d   1      -3.564   2.338  -5.067  0.00  0.00     0.005 C 
ENDBRANCH  12  13
ENDBRANCH   9  12
ENDBRANCH   3   6
ENDBRANCH   1   3
BRANCH   1  15
ATOM     15  C   UNL d   1       0.649  -2.079  -1.806  0.00  0.00     0.044 A 
ATOM     16  C   UNL d   1      -0.201  -2.039  -2.911  0.00  0.00     0.060 A 
ATOM     17  C   UNL d   1       0.228  -2.581  -4.129  0.00  0.00     0.050 A 
ATOM     18  C   UNL d   1       1.507  -3.147  -4.255  0.00  0.00    -0.035 A 
ATOM     19  C   UNL d   1       2.334  -3.197  -3.127  0.00  0.00     0.011 A 
ATOM     20  C   UNL d   1       2.009  -3.687  -5.566  0.00  0.00     0.050 C 
ATOM     21  C   UNL d   1       1.907  -2.666  -1.910  0.00  0.00     0.031 A 
BRANCH  17  22
ATOM     22  N   UNL d   1      -0.640  -2.561  -5.257  0.00  0.00    -0.284 N 
ATOM     23  H   UNL d   1      -1.587  -2.913  -5.129  0.00  0.00     0.178 HD
BRANCH  22  24
ATOM     24  S   UNL d   1      -0.533  -1.288  -6.353  0.00  0.00     0.227 S 
ATOM     25  O   UNL d   1       0.822  -0.803  -6.463  0.00  0.00    -0.206 OA
ATOM     26  O   UNL d   1      -1.303  -1.677  -7.511  0.00  0.00    -0.206 OA
ATOM     27  C   UNL d   1      -1.476  -0.062  -5.515  0.00  0.00     0.186 C 
ENDBRANCH  22  24
ENDBRANCH  17  22
ENDBRANCH   1  15
TORSDOF 7
