REMARK  3 active torsions:
REMARK  status: ('A' for Active; 'I' for Inactive)
REMARK    1  A    between atoms: C_4  and  C_1 
REMARK    2  A    between atoms: C_8  and  C_2 
REMARK    3  A    between atoms: C_16  and  N_3 
REMARK       I    between atoms: N_15  and  C_8 
ROOT
ATOM      1  C   UNL d   1      -0.326  -1.373  -0.076  0.00  0.00     0.095 C 
ATOM      2  C   UNL d   1       0.934  -0.783   0.070  0.00  0.00     0.086 C 
ATOM      3  N   UNL d   1      -1.245  -0.319  -0.116  0.00  0.00    -0.254 N 
ATOM      4  N   UNL d   1      -0.625   0.878   0.038  0.00  0.00    -0.297 N 
ATOM      5  HN  UNL d   1      -1.066   1.791   0.151  1.00  0.00     0.187 HD
ATOM      6  C   UNL d   1       0.680   0.611   0.011  0.00  0.00     0.040 C 
ATOM      7  C   UNL d   1       1.647   1.739  -0.033  0.00  0.00     0.071 C 
ENDROOT
BRANCH   1   8
ATOM      8  C   UNL d   1      -0.646  -2.775  -0.146  0.00  0.00     0.076 A 
ATOM      9  C   UNL d   1      -0.115  -3.780  -0.949  0.00  0.00     0.043 A 
ATOM     10  N   UNL d   1      -0.643  -5.047  -0.716  0.00  0.00    -0.298 N 
ATOM     11  C   UNL d   1       0.946  -3.679  -1.985  0.00  0.00     0.071 C 
ATOM     12  N   UNL d   1      -1.537  -5.048   0.254  0.00  0.00    -0.269 N 
ATOM     13  HN  UNL d   1      -0.370  -5.881  -1.237  1.00  0.00     0.187 HD
ATOM     14  S   UNL d   1      -1.760  -3.543   0.935  0.00  0.00     0.006 SA
ATOM     15  HN  UNL d   1      -2.040  -5.882   0.555  1.00  0.00     0.195 HD
ENDBRANCH   1   8
BRANCH   2  16
ATOM     16  C   UNL d   1       2.259  -1.395   0.128  0.00  0.00     0.258 C 
ATOM     17  N   UNL d   1       2.501  -2.480   0.967  0.00  0.00    -0.344 N 
ATOM     18  C   UNL d   1       3.844  -3.069   0.965  0.00  0.00     0.152 C 
ATOM     19  C   UNL d   1       1.730  -2.841   2.164  0.00  0.00     0.152 C 
ATOM     20  C   UNL d   1       3.788  -4.577   1.229  0.00  0.00     0.187 C 
ATOM     21  O   UNL d   1       3.056  -4.872   2.429  0.00  0.00    -0.388 OA
ATOM     22  C   UNL d   1       1.714  -4.367   2.337  0.00  0.00     0.187 C 
ATOM     23  O   UNL d   1       3.154  -0.951  -0.595  0.00  0.00    -0.267 OA
ENDBRANCH   2  16
BRANCH   3  24
ATOM     24  C   UNL d   1      -2.667  -0.308  -0.282  0.00  0.00     0.057 A 
ATOM     25  C   UNL d   1      -3.394   0.779   0.237  0.00  0.00     0.031 A 
ATOM     26  C   UNL d   1      -4.789   0.794   0.178  0.00  0.00     0.002 A 
ATOM     27  C   UNL d   1      -5.471  -0.262  -0.418  0.00  0.00     0.000 A 
ATOM     28  C   UNL d   1      -4.758  -1.315  -0.988  0.00  0.00     0.002 A 
ATOM     29  C   UNL d   1      -3.360  -1.331  -0.938  0.00  0.00     0.031 A 
ENDBRANCH   3  24
TORSDOF 3
