REMARK  9 active torsions:
REMARK  status: ('A' for Active; 'I' for Inactive)
REMARK    1  A    between atoms: C_3  and  C_1 
REMARK    2  A    between atoms: S_4  and  C_2 
REMARK    3  A    between atoms: N_6  and  C_3 
REMARK    4  A    between atoms: C_14  and  S_4 
REMARK       I    between atoms: C_5  and  N_6 
REMARK    5  A    between atoms: C_12  and  C_5 
REMARK    6  A    between atoms: C_7  and  C_13 
REMARK    7  A    between atoms: O_17  and  C_7 
REMARK    8  A    between atoms: C_9  and  C_12 
REMARK    9  A    between atoms: C_13  and  C_9 
ROOT
ATOM      1  C   UNL d   1       0.208   1.096  -0.175  0.00  0.00    -0.002 A 
ATOM      2  C   UNL d   1       0.809   0.631  -1.369  0.00  0.00     0.015 A 
ATOM      3  C   UNL d   1       0.475   0.388   1.018  0.00  0.00     0.043 A 
ATOM      4 CL   UNL d   1      -0.200   0.859   2.541  0.00  0.00    -0.084 Cl
ATOM      5  C   UNL d   1       1.644  -0.500  -1.342  0.00  0.00     0.019 A 
ATOM      6  C   UNL d   1       1.901  -1.175  -0.151  0.00  0.00     0.003 A 
ATOM      7  C   UNL d   1       1.315  -0.731   1.028  0.00  0.00     0.024 A 
ENDROOT
BRANCH   1   8
ATOM      8  C   UNL d   1      -0.652   2.335  -0.141  0.00  0.00     0.164 C 
BRANCH   8   9
ATOM      9  N   UNL d   1      -2.076   2.083  -0.170  0.00  0.00    -0.357 N 
ATOM     10  C   UNL d   1      -2.930   3.083   0.235  0.00  0.00     0.218 C 
ATOM     11  O   UNL d   1      -2.536   4.129   0.753  0.00  0.00    -0.274 OA
ATOM     12  H   UNL d   1      -2.440   1.333  -0.759  0.00  0.00     0.162 HD
BRANCH  10  13
ATOM     13  C   UNL d   1      -4.402   2.853  -0.044  0.00  0.00     0.112 C 
BRANCH  13  14
ATOM     14  C   UNL d   1      -4.922   3.575  -1.319  0.00  0.00    -0.030 C 
ATOM     15  C   UNL d   1      -6.438   3.309  -1.444  0.00  0.00     0.016 C 
ATOM     16  C   UNL d   1      -4.742   5.104  -1.179  0.00  0.00     0.016 C 
BRANCH  14  17
ATOM     17  C   UNL d   1      -4.198   3.135  -2.613  0.00  0.00     0.119 C 
BRANCH  17  18
ATOM     18  C   UNL d   1      -4.301   1.656  -2.921  0.00  0.00     0.140 C 
ATOM     19  O   UNL d   1      -3.820   0.788  -2.208  0.00  0.00    -0.650 OA
BRANCH  18  20
ATOM     20  O   UNL d   1      -4.971   1.375  -4.056  0.00  0.00    -0.776 OA
ATOM     21  H   UNL d   1      -5.285   2.152  -4.554  0.00  0.00     0.167 HD
ENDBRANCH  18  20
ENDBRANCH  17  18
ENDBRANCH  14  17
ENDBRANCH  13  14
ENDBRANCH  10  13
ENDBRANCH   8   9
ENDBRANCH   1   8
BRANCH   2  22
ATOM     22  S   UNL d   1       0.481   1.341  -2.982  0.00  0.00    -0.090 SA
BRANCH  22  23
ATOM     23  C   UNL d   1       1.848   2.454  -3.279  0.00  0.00     0.005 A 
ATOM     24  C   UNL d   1       2.320   2.576  -4.595  0.00  0.00     0.020 A 
ATOM     25  C   UNL d   1       3.276   3.542  -4.929  0.00  0.00     0.025 A 
ATOM     26  C   UNL d   1       3.766   4.396  -3.945  0.00  0.00     0.034 A 
ATOM     27  C   UNL d   1       3.331   4.269  -2.628  0.00  0.00     0.025 A 
ATOM     28 CL   UNL d   1       4.888   5.631  -4.363  0.00  0.00    -0.084 Cl
ATOM     29  C   UNL d   1       2.376   3.299  -2.297  0.00  0.00     0.020 A 
ENDBRANCH  22  23
ENDBRANCH   2  22
TORSDOF 9
