REMARK  3 active torsions:
REMARK  status: ('A' for Active; 'I' for Inactive)
REMARK    1  A    between atoms: C_6  and  N_1 
REMARK    2  A    between atoms: C_10  and  C_7 
REMARK    3  A    between atoms: N_17  and  C_10 
ROOT
ATOM      1  C   UNL d   1      -0.763   2.461  -0.029  0.00  0.00     0.128 A 
ATOM      2  C   UNL d   1      -1.570   5.108  -0.013  0.00  0.00     0.017 A 
ATOM      3  N   UNL d   1      -0.258   3.297  -0.974  0.00  0.00    -0.350 N 
ATOM      4  HN  UNL d   1       0.403   2.967  -1.677  1.00  0.00     0.166 HD
ATOM      5  C   UNL d   1      -0.671   4.592  -0.943  0.00  0.00     0.104 A 
ATOM      6  C   UNL d   1      -2.055   4.228   0.960  0.00  0.00     0.020 A 
ATOM      7  C   UNL d   1      -1.653   2.889   0.953  0.00  0.00     0.051 A 
ENDROOT
BRANCH   1   8
ATOM      8  N   UNL d   1      -0.375   1.095  -0.066  0.00  0.00    -0.235 N 
ATOM      9  N   UNL d   1      -0.864   0.151   0.782  0.00  0.00    -0.287 N 
ATOM     10  C   UNL d   1      -0.262  -0.954   0.334  0.00  0.00     0.199 A 
ATOM     11  HN  UNL d   1      -1.519   0.258   1.556  1.00  0.00     0.188 HD
ATOM     12  N   UNL d   1       0.587  -0.779  -0.718  0.00  0.00    -0.346 N 
ATOM     13  C   UNL d   1       0.500   0.512  -0.947  0.00  0.00     0.209 A 
ATOM     14  HN  UNL d   1       1.149  -1.477  -1.206  1.00  0.00     0.167 HD
ENDBRANCH   1   8
BRANCH   2  15
ATOM     15  C   UNL d   1      -1.997   6.532  -0.046  0.00  0.00     0.105 C 
ATOM     16  S   UNL d   1      -1.077   7.808  -0.614  0.00  0.00    -0.060 SA
BRANCH  15  17
ATOM     17  N   UNL d   1      -3.255   6.816   0.423  0.00  0.00    -0.389 N 
ATOM     18  H   UNL d   1      -3.936   6.116   0.690  0.00  0.00     0.157 HD
ATOM     19  H   UNL d   1      -3.582   7.775   0.372  0.00  0.00     0.157 HD
ENDBRANCH  15  17
ENDBRANCH   2  15
TORSDOF 3
