REMARK  5 active torsions:
REMARK  status: ('A' for Active; 'I' for Inactive)
REMARK    1  A    between atoms: C_2  and  S_1 
REMARK    2  A    between atoms: N_3  and  S_1 
REMARK    3  A    between atoms: C_11  and  N_3 
REMARK    4  A    between atoms: C_12  and  N_3 
REMARK    5  A    between atoms: C_13  and  C_11 
ROOT
ATOM      1  S   UNL d   1       1.204   0.075   0.401  0.00  0.00     0.248 S 
ATOM      2  O   UNL d   1       2.459   0.574   0.923  0.00  0.00    -0.205 OA
ATOM      3  O   UNL d   1       0.096  -0.207   1.282  0.00  0.00    -0.205 OA
ENDROOT
BRANCH   1   4
ATOM      4  C   UNL d   1       1.687  -1.436  -0.252  0.00  0.00     0.130 A 
ATOM      5  C   UNL d   1       2.643  -1.643  -1.221  0.00  0.00     0.097 A 
ATOM      6  O   UNL d   1       2.812  -2.978  -1.395  0.00  0.00    -0.241 OA
ATOM      7  C   UNL d   1       3.532  -0.789  -2.027  0.00  0.00     0.081 C 
ATOM      8  N   UNL d   1       1.997  -3.667  -0.522  0.00  0.00    -0.264 N 
ATOM      9  C   UNL d   1       1.343  -2.736   0.186  0.00  0.00     0.054 A 
ATOM     10  HN  UNL d   1       1.909  -4.680  -0.434  1.00  0.00     0.194 HD
ATOM     11  C   UNL d   1       0.442  -3.172   1.276  0.00  0.00     0.072 C 
ENDBRANCH   1   4
BRANCH   1  12
ATOM     12  N   UNL d   1       0.652   1.112  -0.854  0.00  0.00    -0.198 NA
BRANCH  12  13
ATOM     13  C   UNL d   1      -0.822   1.012  -1.126  0.00  0.00     0.146 C 
BRANCH  13  14
ATOM     14  C   UNL d   1      -1.428  -0.300  -1.563  0.00  0.00    -0.044 A 
ATOM     15  C   UNL d   1      -2.483  -0.847  -0.811  0.00  0.00     0.008 A 
ATOM     16  C   UNL d   1      -3.228  -1.922  -1.299  0.00  0.00     0.001 A 
ATOM     17  C   UNL d   1      -2.918  -2.469  -2.539  0.00  0.00     0.000 A 
ATOM     18  C   UNL d   1      -1.849  -1.962  -3.277  0.00  0.00     0.001 A 
ATOM     19  C   UNL d   1      -1.102  -0.884  -2.792  0.00  0.00     0.008 A 
ENDBRANCH  13  14
ENDBRANCH  12  13
BRANCH  12  20
ATOM     20  C   UNL d   1       1.039   2.580  -0.756  0.00  0.00     0.066 C 
ATOM     21  C   UNL d   1       0.602   3.236   0.553  0.00  0.00     0.027 C 
ATOM     22  C   UNL d   1       2.513   2.833  -1.058  0.00  0.00     0.027 C 
ENDBRANCH  12  20
ENDBRANCH   1  12
TORSDOF 5
