REMARK  7 active torsions:
REMARK  status: ('A' for Active; 'I' for Inactive)
REMARK    1  A    between atoms: C_8  and  C_1 
REMARK    2  A    between atoms: C_7  and  C_2 
REMARK    3  A    between atoms: C_9  and  C_3 
REMARK    4  A    between atoms: O_14  and  C_7 
REMARK    5  A    between atoms: O_15  and  C_8 
REMARK    6  A    between atoms: C_23  and  O_14 
REMARK    7  A    between atoms: C_22  and  O_15 
ROOT
ATOM      1  C   UNL d   1       1.298  -0.970   0.064  0.00  0.00     0.052 C 
ATOM      2  C   UNL d   1      -1.265  -0.956   0.107  0.00  0.00     0.052 C 
ATOM      3  C   UNL d   1       0.010  -1.782  -0.088  0.00  0.00     0.100 C 
ATOM      4  C   UNL d   1       1.255   0.384   0.085  0.00  0.00     0.018 C 
ATOM      5  C   UNL d   1      -1.206   0.397   0.110  0.00  0.00     0.018 C 
ATOM      6  N   UNL d   1       0.027   1.026   0.018  0.00  0.00    -0.362 N 
ATOM      7  C   UNL d   1      -2.398   1.314   0.218  0.00  0.00     0.069 C 
ATOM      8  C   UNL d   1       2.441   1.310   0.184  0.00  0.00     0.069 C 
ATOM      9  H   UNL d   1       0.038   2.043   0.061  0.00  0.00     0.165 HD
ENDROOT
BRANCH   3  10
ATOM     10  C   UNL d   1      -0.018  -2.474  -1.462  0.00  0.00    -0.044 A 
ATOM     11  C   UNL d   1      -0.004  -1.719  -2.651  0.00  0.00     0.011 A 
ATOM     12  C   UNL d   1      -0.021  -2.351  -3.893  0.00  0.00     0.043 A 
ATOM     13  C   UNL d   1      -0.049  -3.738  -3.954  0.00  0.00     0.116 A 
ATOM     14  C   UNL d   1      -0.067  -4.505  -2.795  0.00  0.00     0.043 A 
ATOM     15  F   UNL d   1      -0.059  -4.345  -5.148  0.00  0.00    -0.206 F 
ATOM     16  C   UNL d   1      -0.056  -3.875  -1.549  0.00  0.00     0.011 A 
ENDBRANCH   3  10
BRANCH   2  17
ATOM     17  C   UNL d   1      -2.485  -1.794   0.271  0.00  0.00     0.292 C 
ATOM     18  O   UNL d   1      -2.447  -2.964   0.615  0.00  0.00    -0.259 OA
BRANCH  17  19
ATOM     19  O   UNL d   1      -3.601  -1.123  -0.096  0.00  0.00    -0.318 OA
BRANCH  19  20
ATOM     20  C   UNL d   1      -4.784  -1.913  -0.270  0.00  0.00     0.174 C 
ATOM     21  C   UNL d   1      -4.855  -2.336  -1.725  0.00  0.00     0.034 C 
ENDBRANCH  19  20
ENDBRANCH  17  19
ENDBRANCH   2  17
BRANCH   1  22
ATOM     22  C   UNL d   1       2.570  -1.741   0.093  0.00  0.00     0.292 C 
ATOM     23  O   UNL d   1       3.634  -1.350  -0.360  0.00  0.00    -0.259 OA
BRANCH  22  24
ATOM     24  O   UNL d   1       2.359  -2.960   0.657  0.00  0.00    -0.318 OA
BRANCH  24  25
ATOM     25  C   UNL d   1       3.471  -3.868   0.611  0.00  0.00     0.174 C 
ATOM     26  C   UNL d   1       3.527  -4.559  -0.740  0.00  0.00     0.034 C 
ENDBRANCH  24  25
ENDBRANCH  22  24
ENDBRANCH   1  22
TORSDOF 7
