REMARK  6 active torsions:
REMARK  status: ('A' for Active; 'I' for Inactive)
REMARK    1  A    between atoms: C_9  and  C_1 
REMARK    2  A    between atoms: C_7  and  C_2 
REMARK    3  A    between atoms: O_12  and  C_5 
REMARK    4  A    between atoms: O_18  and  C_9 
REMARK    5  A    between atoms: C_17  and  O_12 
REMARK    6  A    between atoms: C_24  and  O_18 
ROOT
ATOM      1  C   UNL d   1      -1.586   1.346   0.046  0.00  0.00     0.072 A 
ATOM      2  C   UNL d   1      -2.271   0.140  -0.083  0.00  0.00     0.135 A 
ATOM      3  N   UNL d   1      -1.586  -1.044  -0.138  0.00  0.00    -0.331 N 
ATOM      4  HN  UNL d   1      -2.090  -1.927  -0.218  1.00  0.00     0.168 HD
ATOM      5  C   UNL d   1      -0.230  -1.030  -0.086  0.00  0.00     0.169 A 
ATOM      6  C   UNL d   1       0.514   0.137  -0.074  0.00  0.00     0.097 A 
ATOM      7  C   UNL d   1      -0.181   1.346   0.015  0.00  0.00     0.047 A 
ATOM      8  C   UNL d   1       1.940   0.122  -0.130  0.00  0.00     0.104 C 
ATOM      9  N   UNL d   1       3.100   0.152  -0.191  0.00  0.00    -0.191 NA
ENDROOT
BRANCH   5  10
ATOM     10  O   UNL d   1       0.427  -2.246  -0.060  0.00  0.00    -0.292 OA
BRANCH  10  11
ATOM     11  C   UNL d   1      -0.117  -3.248   0.717  0.00  0.00     0.077 A 
ATOM     12  C   UNL d   1       0.087  -4.553   0.272  0.00  0.00     0.038 A 
ATOM     13  C   UNL d   1      -0.391  -5.633   1.019  0.00  0.00     0.009 A 
ATOM     14  C   UNL d   1      -1.070  -5.418   2.225  0.00  0.00    -0.062 A 
ATOM     15  C   UNL d   1      -1.266  -4.108   2.671  0.00  0.00     0.009 A 
ATOM     16  C   UNL d   1      -1.571  -6.585   3.024  0.00  0.00     0.048 C 
ATOM     17  C   UNL d   1      -0.778  -3.028   1.931  0.00  0.00     0.038 A 
ENDBRANCH  10  11
ENDBRANCH   5  10
BRANCH   1  18
ATOM     18  C   UNL d   1      -2.310   2.609   0.256  0.00  0.00     0.295 C 
ATOM     19  O   UNL d   1      -3.241   2.721   1.025  0.00  0.00    -0.259 OA
BRANCH  18  20
ATOM     20  O   UNL d   1      -1.795   3.534  -0.583  0.00  0.00    -0.318 OA
BRANCH  20  21
ATOM     21  C   UNL d   1      -2.554   4.743  -0.729  0.00  0.00     0.174 C 
ATOM     22  C   UNL d   1      -3.312   4.650  -2.039  0.00  0.00     0.034 C 
ENDBRANCH  20  21
ENDBRANCH  18  20
ENDBRANCH   1  18
BRANCH   2  23
ATOM     23  C   UNL d   1      -3.788   0.061  -0.188  0.00  0.00     0.433 C 
ATOM     24  F   UNL d   1      -4.388   1.190  -0.658  0.00  0.00    -0.165 F 
ATOM     25  F   UNL d   1      -4.189  -0.914  -1.059  0.00  0.00    -0.165 F 
ATOM     26  F   UNL d   1      -4.387  -0.237   0.998  0.00  0.00    -0.165 F 
ENDBRANCH   2  23
TORSDOF 6
