REMARK  5 active torsions:
REMARK  status: ('A' for Active; 'I' for Inactive)
REMARK    1  A    between atoms: C_2  and  CA_1 
REMARK    2  A    between atoms: N_3  and  CA_1 
REMARK    3  A    between atoms: C_6  and  CA_1 
REMARK    4  A    between atoms: OXT_13  and  C_2 
REMARK       I    between atoms: C_4  and  N_3 
REMARK    5  A    between atoms: C_8  and  C_6 
ROOT
ATOM      1  CA  UNL d   1       3.516  -0.865   0.561  0.00  0.00     0.186 C 
ENDROOT
BRANCH   1   2
ATOM      2  C   UNL d   1       4.141  -0.137   1.757  0.00  0.00     0.163 C 
ATOM      3  O   UNL d   1       3.518   0.560   2.547  0.00  0.00    -0.648 OA
BRANCH   2   4
ATOM      4  OXT UNL d   1       5.442  -0.469   1.957  0.00  0.00    -0.775 OA
ATOM      5  HXT UNL d   1       5.730  -1.223   1.391  0.00  0.00     0.167 HD
ENDBRANCH   2   4
ENDBRANCH   1   2
BRANCH   1   6
ATOM      6  N   UNL d   1       2.969  -2.129   1.049  0.00  0.00    -0.347 N 
ATOM      7  C   UNL d   1       3.798  -3.213   1.226  0.00  0.00     0.214 C 
ATOM      8  O   UNL d   1       4.996  -3.163   0.964  0.00  0.00    -0.274 OA
ATOM      9  C   UNL d   1       3.111  -4.441   1.758  0.00  0.00     0.117 C 
ATOM     10  H   UNL d   1       2.129  -2.084   1.617  0.00  0.00     0.163 HD
ENDBRANCH   1   6
BRANCH   1  11
ATOM     11  C   UNL d   1       2.412  -0.030  -0.095  0.00  0.00     0.074 C 
BRANCH  11  12
ATOM     12  C   UNL d   1       2.889   1.235  -0.765  0.00  0.00    -0.055 A 
ATOM     13  C   UNL d   1       2.396   2.475  -0.339  0.00  0.00     0.014 A 
ATOM     14  C   UNL d   1       2.762   3.668  -0.983  0.00  0.00    -0.056 A 
ATOM     15  C   UNL d   1       2.167   4.966  -0.510  0.00  0.00     0.049 C 
ATOM     16  C   UNL d   1       3.660   3.619  -2.065  0.00  0.00    -0.056 A 
ATOM     17  C   UNL d   1       4.167   2.378  -2.478  0.00  0.00     0.008 A 
ATOM     18  C   UNL d   1       4.070   4.866  -2.799  0.00  0.00     0.049 C 
ATOM     19  C   UNL d   1       3.780   1.198  -1.841  0.00  0.00     0.007 A 
ENDBRANCH  11  12
ENDBRANCH   1  11
TORSDOF 5
