REMARK  4 active torsions:
REMARK  status: ('A' for Active; 'I' for Inactive)
REMARK    1  A    between atoms: C_3  and  S_1 
REMARK    2  A    between atoms: N_5  and  S_1 
REMARK    3  A    between atoms: C_2  and  N_5 
REMARK    4  A    between atoms: N_18  and  C_13 
ROOT
ATOM      1  C   UNL d   1       0.954  -0.881  -2.701  0.00  0.00     0.123 A 
ATOM      2  C   UNL d   1      -0.051  -0.997  -3.716  0.00  0.00     0.059 A 
ATOM      3  N   UNL d   1       2.115  -0.424  -3.162  0.00  0.00    -0.286 N 
ATOM      4  HN  UNL d   1       2.945  -0.160  -2.632  1.00  0.00     0.188 HD
ATOM      5  N   UNL d   1       1.936  -0.395  -4.486  0.00  0.00    -0.294 N 
ATOM      6  C   UNL d   1       0.655  -0.676  -4.886  0.00  0.00     0.066 A 
ATOM      7  C   UNL d   1      -1.439  -1.345  -3.807  0.00  0.00     0.045 A 
ATOM      8  C   UNL d   1       3.063  -0.113  -5.343  0.00  0.00     0.178 C 
ATOM      9  C   UNL d   1       0.088  -0.685  -6.165  0.00  0.00     0.032 A 
ATOM     10  C   UNL d   1      -1.986  -1.334  -5.120  0.00  0.00     0.030 A 
ATOM     11  C   UNL d   1      -1.253  -1.016  -6.262  0.00  0.00     0.005 A 
ENDROOT
BRANCH   1  12
ATOM     12  N   UNL d   1       0.877  -1.080  -1.327  0.00  0.00    -0.163 NA
ATOM     13  H   UNL d   1       1.591  -0.503  -0.878  0.00  0.00     0.147 HD
BRANCH  12  14
ATOM     14  S   UNL d   1       1.214  -2.651  -0.782  0.00  0.00     0.264 S 
ATOM     15  O   UNL d   1       1.166  -2.623   0.666  0.00  0.00    -0.204 OA
ATOM     16  O   UNL d   1       0.467  -3.635  -1.541  0.00  0.00    -0.204 OA
BRANCH  14  17
ATOM     17  C   UNL d   1       2.897  -3.009  -1.131  0.00  0.00     0.161 A 
ATOM     18  N   UNL d   1       3.949  -2.191  -0.734  0.00  0.00    -0.341 N 
ATOM     19  C   UNL d   1       5.034  -2.803  -1.156  0.00  0.00     0.183 A 
ATOM     20  HN  UNL d   1       3.891  -1.309  -0.226  1.00  0.00     0.167 HD
ATOM     21  N   UNL d   1       4.734  -3.964  -1.813  0.00  0.00    -0.354 N 
ATOM     22  C   UNL d   1       3.378  -4.105  -1.821  0.00  0.00     0.134 A 
ATOM     23  C   UNL d   1       5.695  -4.880  -2.374  0.00  0.00     0.156 C 
ENDBRANCH  14  17
ENDBRANCH  12  14
ENDBRANCH   1  12
BRANCH   7  24
ATOM     24  N   UNL d   1      -2.241  -1.720  -2.727  0.00  0.00    -0.389 N 
ATOM     25  C   UNL d   1      -2.263  -0.897  -1.525  0.00  0.00     0.149 C 
ATOM     26  C   UNL d   1      -3.406  -2.571  -2.936  0.00  0.00     0.149 C 
ENDBRANCH   7  24
TORSDOF 4
