REMARK  8 active torsions:
REMARK  status: ('A' for Active; 'I' for Inactive)
REMARK    1  A    between atoms: C_3  and  S_1 
REMARK    2  A    between atoms: O_16  and  S_1 
REMARK    3  A    between atoms: S_2  and  C_4 
REMARK    4  A    between atoms: O_15  and  S_2 
REMARK    5  A    between atoms: C_10  and  C_5 
REMARK    6  A    between atoms: C_6  and  C_9 
REMARK    7  A    between atoms: N_21  and  C_19 
REMARK    8  A    between atoms: N_22  and  C_20 
ROOT
ATOM      1  C   UNL d   1      -1.553   0.461  -0.812  0.00  0.00     0.014 C 
ATOM      2  C   UNL d   1      -1.532  -0.777  -1.326  0.00  0.00     0.014 C 
ENDROOT
BRANCH   1   3
ATOM      3  C   UNL d   1      -2.362   1.510  -1.443  0.00  0.00    -0.013 A 
ATOM      4  C   UNL d   1      -3.604   1.945  -0.961  0.00  0.00     0.084 A 
ATOM      5  C   UNL d   1      -4.364   2.890  -1.671  0.00  0.00     0.049 A 
ATOM      6  C   UNL d   1      -3.907   3.402  -2.885  0.00  0.00     0.007 A 
ATOM      7  C   UNL d   1      -2.631   3.044  -3.318  0.00  0.00     0.024 A 
ATOM      8  C   UNL d   1      -1.879   2.090  -2.624  0.00  0.00     0.015 A 
BRANCH   4   9
ATOM      9  S   UNL d   1      -4.226   1.367   0.590  0.00  0.00     0.130 S 
ATOM     10  O   UNL d   1      -4.925   0.126   0.356  0.00  0.00    -0.598 OA
ATOM     11  O   UNL d   1      -3.180   1.497   1.582  0.00  0.00    -0.598 OA
BRANCH   9  12
ATOM     12  O   UNL d   1      -5.320   2.471   1.036  0.00  0.00    -0.292 OA
ATOM     13  H   UNL d   1      -4.926   2.989   1.770  0.00  0.00     0.232 HD
ENDBRANCH   9  12
ENDBRANCH   4   9
BRANCH   6  14
ATOM     14  N   UNL d   1      -4.610   4.428  -3.524  0.00  0.00    -0.303 NA
ATOM     15  H   UNL d   1      -4.382   4.527  -4.509  0.00  0.00     0.124 HD
ATOM     16  H   UNL d   1      -5.614   4.401  -3.371  0.00  0.00     0.124 HD
ENDBRANCH   6  14
ENDBRANCH   1   3
BRANCH   2  17
ATOM     17  C   UNL d   1      -0.715  -1.863  -0.775  0.00  0.00    -0.013 A 
ATOM     18  C   UNL d   1       0.513  -2.272  -1.312  0.00  0.00     0.084 A 
ATOM     19  C   UNL d   1       1.187  -3.393  -0.796  0.00  0.00     0.049 A 
ATOM     20  C   UNL d   1       0.628  -4.147   0.234  0.00  0.00     0.007 A 
ATOM     21  C   UNL d   1      -0.545  -3.687   0.832  0.00  0.00     0.024 A 
ATOM     22  C   UNL d   1      -1.220  -2.572   0.323  0.00  0.00     0.015 A 
BRANCH  18  23
ATOM     23  S   UNL d   1       1.284  -1.418  -2.659  0.00  0.00     0.130 S 
ATOM     24  O   UNL d   1       1.124   0.011  -2.495  0.00  0.00    -0.598 OA
ATOM     25  O   UNL d   1       0.909  -2.099  -3.879  0.00  0.00    -0.598 OA
BRANCH  23  26
ATOM     26  O   UNL d   1       2.869  -1.644  -2.442  0.00  0.00    -0.292 OA
ATOM     27  H   UNL d   1       3.268  -0.756  -2.321  0.00  0.00     0.232 HD
ENDBRANCH  23  26
ENDBRANCH  18  23
BRANCH  20  28
ATOM     28  N   UNL d   1       1.344  -5.207   0.800  0.00  0.00    -0.303 NA
ATOM     29  H   UNL d   1       1.981  -5.666   0.154  0.00  0.00     0.124 HD
ATOM     30  H   UNL d   1       0.762  -5.877   1.294  0.00  0.00     0.124 HD
ENDBRANCH  20  28
ENDBRANCH   2  17
TORSDOF 8
