REMARK  2 active torsions:
REMARK  status: ('A' for Active; 'I' for Inactive)
REMARK    1  A    between atoms: C_7  and  C_4 
REMARK    2  A    between atoms: C_8  and  C_7 
ROOT
ATOM      1  C   UNL d   1      -1.230  -1.394  -0.198  0.00  0.00     0.048 C 
ATOM      2  C   UNL d   1      -0.332  -0.215  -0.476  0.00  0.00     0.257 C 
ATOM      3  N   UNL d   1      -1.149   0.899  -0.301  0.00  0.00    -0.322 N 
ATOM      4  C   UNL d   1      -0.948  -2.693  -0.035  0.00  0.00     0.073 C 
ATOM      5  C   UNL d   1      -2.592  -0.858  -0.060  0.00  0.00     0.008 A 
ATOM      6  C   UNL d   1      -2.474   0.533  -0.096  0.00  0.00     0.046 A 
ATOM      7  C   UNL d   1      -3.837  -1.458   0.024  0.00  0.00     0.033 A 
ATOM      8  O   UNL d   1       0.820  -0.197  -0.858  0.00  0.00    -0.267 OA
ATOM      9  C   UNL d   1      -3.568   1.372  -0.008  0.00  0.00     0.032 A 
ATOM     10  C   UNL d   1      -4.958  -0.625   0.079  0.00  0.00     0.011 A 
ATOM     11  C   UNL d   1      -4.830   0.775   0.076  0.00  0.00     0.021 A 
ATOM     12 BR   UNL d   1      -6.682  -1.404   0.117  0.00  0.00    -0.051 Br
ATOM     13  H   UNL d   1      -0.811   1.838  -0.450  0.00  0.00     0.169 HD
ENDROOT
BRANCH   4  14
ATOM     14  C   UNL d   1       0.387  -3.347  -0.039  0.00  0.00     0.183 C 
ATOM     15  O   UNL d   1       1.429  -2.737   0.170  0.00  0.00    -0.288 OA
BRANCH  14  16
ATOM     16  C   UNL d   1       0.403  -4.838  -0.147  0.00  0.00     0.017 A 
ATOM     17  C   UNL d   1       1.434  -5.537   0.500  0.00  0.00     0.055 A 
ATOM     18  C   UNL d   1       1.399  -6.915   0.469  0.00  0.00     0.105 A 
ATOM     19  O   UNL d   1       2.296  -7.747   1.065  0.00  0.00    -0.323 OA
ATOM     20  C   UNL d   1       0.402  -7.603  -0.181  0.00  0.00     0.105 A 
ATOM     21  C   UNL d   1       1.739  -9.036   0.730  0.00  0.00     0.352 A 
ATOM     22  O   UNL d   1       0.539  -8.951  -0.067  0.00  0.00    -0.323 OA
ATOM     23  C   UNL d   1      -0.606  -6.952  -0.857  0.00  0.00     0.040 A 
ATOM     24  C   UNL d   1      -0.600  -5.552  -0.846  0.00  0.00     0.018 A 
ENDBRANCH  14  16
ENDBRANCH   4  14
TORSDOF 2
