REMARK  3 active torsions:
REMARK  status: ('A' for Active; 'I' for Inactive)
REMARK    1  A    between atoms: N_2  and  C_1 
REMARK    2  A    between atoms: N_3  and  C_1 
REMARK    3  A    between atoms: C_6  and  N_3 
ROOT
ATOM      1  N   UNL d   1       0.139   1.055   0.376  0.00  0.00    -0.333 N 
ATOM      2  H   UNL d   1      -0.471   1.382  -0.363  0.00  0.00     0.168 HD
ENDROOT
BRANCH   1   3
ATOM      3  C   UNL d   1       0.963   0.011  -0.021  0.00  0.00     0.174 C 
ATOM      4  S   UNL d   1       2.608  -0.068   0.323  0.00  0.00    -0.041 SA
BRANCH   3   5
ATOM      5  N   UNL d   1       0.278  -0.906  -0.849  0.00  0.00    -0.358 N 
ATOM      6  C   UNL d   1      -1.118  -1.264  -0.554  0.00  0.00     0.125 C 
ATOM      7  C   UNL d   1      -1.907  -1.547  -1.828  0.00  0.00     0.024 C 
ATOM      8  C   UNL d   1      -1.211  -2.602  -2.698  0.00  0.00    -0.015 C 
ATOM      9  C   UNL d   1       0.246  -2.199  -2.951  0.00  0.00     0.024 C 
ATOM     10  C   UNL d   1      -1.954  -2.790  -4.019  0.00  0.00     0.010 C 
ATOM     11  C   UNL d   1       0.987  -1.916  -1.647  0.00  0.00     0.125 C 
ENDBRANCH   3   5
ENDBRANCH   1   3
BRANCH   1  12
ATOM     12  C   UNL d   1       0.214   1.864   1.526  0.00  0.00     0.034 A 
ATOM     13  C   UNL d   1       0.737   1.404   2.734  0.00  0.00     0.036 A 
ATOM     14  C   UNL d   1       0.717   2.206   3.890  0.00  0.00    -0.054 A 
ATOM     15  C   UNL d   1       1.263   1.644   5.175  0.00  0.00     0.049 C 
ATOM     16  C   UNL d   1       0.166   3.498   3.824  0.00  0.00    -0.056 A 
ATOM     17  C   UNL d   1      -0.360   3.955   2.607  0.00  0.00     0.009 A 
ATOM     18  C   UNL d   1       0.101   4.384   5.038  0.00  0.00     0.049 C 
ATOM     19  C   UNL d   1      -0.351   3.139   1.472  0.00  0.00     0.030 A 
ENDBRANCH   1  12
TORSDOF 3
