REMARK  5 active torsions:
REMARK  status: ('A' for Active; 'I' for Inactive)
REMARK    1  A    between atoms: C_8  and  C_1 
REMARK    2  A    between atoms: C_10  and  C_2 
REMARK    3  A    between atoms: C_13  and  C_6 
REMARK    4  A    between atoms: O_20  and  C_6 
REMARK    5  A    between atoms: N_7  and  C_8 
ROOT
ATOM      1  C   UNL d   1       5.247  -1.389   0.331  0.00  0.00     0.088 C 
ATOM      2  N   UNL d   1       3.440   0.933   0.134  0.00  0.00     0.092 N 
ATOM      3  C   UNL d   1       5.093  -0.569  -0.962  0.00  0.00     0.073 C 
ATOM      4  C   UNL d   1       4.835  -0.541   1.543  0.00  0.00     0.073 C 
ATOM      5  C   UNL d   1       3.449   0.084   1.341  0.00  0.00     0.276 C 
ATOM      6  C   UNL d   1       3.720   0.092  -1.048  0.00  0.00     0.276 C 
ENDROOT
BRANCH   2   7
ATOM      7  C   UNL d   1       2.131   1.585  -0.078  0.00  0.00     0.315 C 
BRANCH   7   8
ATOM      8  C   UNL d   1       1.824   2.711   0.862  0.00  0.00     0.016 A 
ATOM      9  C   UNL d   1       0.604   3.479   0.913  0.00  0.00     0.067 A 
ATOM     10  N   UNL d   1       0.644   4.365   1.923  0.00  0.00    -0.300 N 
ATOM     11  N   UNL d   1       1.857   4.214   2.464  0.00  0.00    -0.311 N 
ATOM     12  HN  UNL d   1      -0.090   5.011   2.213  1.00  0.00     0.187 HD
ATOM     13  C   UNL d   1       2.611   3.266   1.853  0.00  0.00     0.118 A 
ATOM     14  H   UNL d   1       2.104   4.797   3.256  0.00  0.00     0.186 HD
BRANCH   9  15
ATOM     15  C   UNL d   1      -0.593   3.397   0.061  0.00  0.00    -0.007 A 
ATOM     16  C   UNL d   1      -1.863   3.658   0.609  0.00  0.00     0.017 A 
ATOM     17  C   UNL d   1      -3.013   3.594  -0.181  0.00  0.00     0.043 A 
ATOM     18  C   UNL d   1      -2.904   3.265  -1.524  0.00  0.00     0.116 A 
ATOM     19  C   UNL d   1      -1.663   3.018  -2.097  0.00  0.00     0.043 A 
ATOM     20  F   UNL d   1      -4.005   3.197  -2.284  0.00  0.00    -0.206 F 
ATOM     21  C   UNL d   1      -0.511   3.100  -1.309  0.00  0.00     0.017 A 
ENDBRANCH   9  15
ENDBRANCH   7   8
ENDBRANCH   2   7
BRANCH   1  22
ATOM     22  C   UNL d   1       6.674  -1.929   0.477  0.00  0.00    -0.024 A 
ATOM     23  C   UNL d   1       7.775  -1.051   0.461  0.00  0.00     0.012 A 
ATOM     24  C   UNL d   1       9.086  -1.529   0.553  0.00  0.00     0.024 A 
ATOM     25  C   UNL d   1       9.317  -2.895   0.669  0.00  0.00     0.034 A 
ATOM     26  C   UNL d   1       8.249  -3.784   0.712  0.00  0.00     0.024 A 
ATOM     27 CL   UNL d   1      10.930  -3.487   0.766  0.00  0.00    -0.084 Cl
ATOM     28  C   UNL d   1       6.938  -3.304   0.625  0.00  0.00     0.012 A 
ENDBRANCH   1  22
BRANCH   1  29
ATOM     29  O   UNL d   1       4.321  -2.488   0.256  0.00  0.00    -0.385 OA
ATOM     30  H   UNL d   1       4.532  -2.985  -0.554  0.00  0.00     0.211 HD
ENDBRANCH   1  29
TORSDOF 5
