REMARK  4 active torsions:
REMARK  status: ('A' for Active; 'I' for Inactive)
REMARK    1  A    between atoms: C_2  and  S_1 
REMARK    2  A    between atoms: N_7  and  S_1 
REMARK    3  A    between atoms: C_14  and  N_7 
REMARK    4  A    between atoms: N_8  and  C_11 
ROOT
ATOM      1  C   UNL d   1       1.493  -2.068   4.908  0.00  0.00     0.030 A 
ATOM      2  C   UNL d   1       0.781  -0.546   2.622  0.00  0.00     0.023 A 
ATOM      3  C   UNL d   1       2.454  -1.620   3.987  0.00  0.00     0.031 A 
ATOM      4  C   UNL d   1       0.168  -1.672   4.669  0.00  0.00     0.031 A 
ATOM      5  C   UNL d   1      -0.192  -0.916   3.543  0.00  0.00     0.026 A 
ATOM      6  C   UNL d   1       2.110  -0.867   2.860  0.00  0.00     0.026 A 
ENDROOT
BRANCH   2   7
ATOM      7  N   UNL d   1       0.444   0.165   1.432  0.00  0.00    -0.181 NA
ATOM      8  H   UNL d   1      -0.373  -0.205   0.944  0.00  0.00     0.146 HD
BRANCH   7   9
ATOM      9  S   UNL d   1       0.323   1.845   1.538  0.00  0.00     0.248 S 
ATOM     10  O   UNL d   1      -0.019   2.343   0.226  0.00  0.00    -0.205 OA
ATOM     11  O   UNL d   1      -0.472   2.193   2.698  0.00  0.00    -0.205 OA
BRANCH   9  12
ATOM     12  C   UNL d   1       1.886   2.496   1.855  0.00  0.00     0.105 A 
ATOM     13  C   UNL d   1       2.989   2.285   1.065  0.00  0.00     0.099 A 
ATOM     14  S   UNL d   1       4.394   3.009   1.691  0.00  0.00    -0.064 SA
ATOM     15 CL   UNL d   1       3.127   1.379  -0.392  0.00  0.00    -0.075 Cl
ATOM     16  C   UNL d   1       3.533   3.620   3.014  0.00  0.00     0.077 A 
ATOM     17  C   UNL d   1       2.200   3.299   2.995  0.00  0.00     0.058 A 
ATOM     18 CL   UNL d   1       4.351   4.531   4.216  0.00  0.00    -0.076 Cl
ENDBRANCH   9  12
ENDBRANCH   7   9
ENDBRANCH   2   7
BRANCH   1  19
ATOM     19  N   UNL d   1       1.853  -2.847   5.990  0.00  0.00    -0.381 N 
ATOM     20  C   UNL d   1       1.117  -2.840   7.254  0.00  0.00     0.123 C 
ATOM     21  C   UNL d   1       2.107  -2.580   8.393  0.00  0.00     0.020 C 
ATOM     22  C   UNL d   1       3.278  -3.564   8.369  0.00  0.00     0.003 C 
ATOM     23  C   UNL d   1       3.942  -3.611   6.992  0.00  0.00     0.020 C 
ATOM     24  C   UNL d   1       2.911  -3.858   5.892  0.00  0.00     0.123 C 
ENDBRANCH   1  19
TORSDOF 4
