REMARK  4 active torsions:
REMARK  status: ('A' for Active; 'I' for Inactive)
REMARK    1  A    between atoms: C_6  and  C_1 
REMARK    2  A    between atoms: C_7  and  C_2 
REMARK    3  A    between atoms: S_3  and  C_5 
REMARK    4  A    between atoms: C_4  and  S_3 
REMARK       I    between atoms: N_11  and  C_6 
REMARK       I    between atoms: N_10  and  C_7 
ROOT
ATOM      1  S   UNL d   1       0.975  -2.957  -0.274  0.00  0.00    -0.088 SA
ENDROOT
BRANCH   1   2
ATOM      2  C   UNL d   1       0.735  -1.182  -0.289  0.00  0.00     0.021 A 
ATOM      3  C   UNL d   1       0.230  -0.402   0.773  0.00  0.00     0.048 A 
ATOM      4  C   UNL d   1      -0.102   0.951   0.546  0.00  0.00     0.018 A 
ATOM      5  C   UNL d   1       0.039   1.532  -0.713  0.00  0.00     0.001 A 
ATOM      6  C   UNL d   1       0.543   0.773  -1.758  0.00  0.00     0.001 A 
ATOM      7  C   UNL d   1       0.887  -0.563  -1.548  0.00  0.00     0.020 A 
BRANCH   3   8
ATOM      8  C   UNL d   1      -0.043  -0.870   2.163  0.00  0.00     0.250 C 
ATOM      9  O   UNL d   1       0.023  -0.106   3.117  0.00  0.00    -0.268 OA
ATOM     10  N   UNL d   1      -0.450  -2.157   2.350  0.00  0.00    -0.366 N 
ATOM     11  H   UNL d   1      -0.618  -2.794   1.579  0.00  0.00     0.159 HD
ATOM     12  H   UNL d   1      -0.742  -2.421   3.281  0.00  0.00     0.159 HD
ENDBRANCH   3   8
ENDBRANCH   1   2
BRANCH   1  13
ATOM     13  C   UNL d   1       2.682  -3.238   0.198  0.00  0.00     0.021 A 
ATOM     14  C   UNL d   1       3.796  -3.240  -0.665  0.00  0.00     0.048 A 
ATOM     15  C   UNL d   1       5.049  -3.693  -0.201  0.00  0.00     0.018 A 
ATOM     16  C   UNL d   1       5.202  -4.166   1.099  0.00  0.00     0.001 A 
ATOM     17  C   UNL d   1       4.116  -4.155   1.963  0.00  0.00     0.001 A 
ATOM     18  C   UNL d   1       2.873  -3.689   1.518  0.00  0.00     0.020 A 
BRANCH  14  19
ATOM     19  C   UNL d   1       3.788  -2.845  -2.097  0.00  0.00     0.250 C 
ATOM     20  O   UNL d   1       4.721  -2.229  -2.595  0.00  0.00    -0.268 OA
ATOM     21  N   UNL d   1       2.747  -3.269  -2.868  0.00  0.00    -0.366 N 
ATOM     22  H   UNL d   1       1.987  -3.825  -2.503  0.00  0.00     0.159 HD
ATOM     23  H   UNL d   1       2.786  -3.069  -3.857  0.00  0.00     0.159 HD
ENDBRANCH  14  19
ENDBRANCH   1  13
TORSDOF 4
