REMARK  5 active torsions:
REMARK  status: ('A' for Active; 'I' for Inactive)
REMARK    1  A    between atoms: C_10  and  C_1 
REMARK    2  A    between atoms: N_6  and  C_2 
REMARK       I    between atoms: C_7  and  N_6 
REMARK       I    between atoms: N_11  and  C_7 
REMARK    3  A    between atoms: C_9  and  O_13 
REMARK    4  A    between atoms: C_21  and  N_11 
REMARK    5  A    between atoms: O_13  and  C_22 
ROOT
ATOM      1  N   UNL d   1       1.949  -1.232  -0.216  0.00  0.00    -0.293 N 
ATOM      2  C   UNL d   1       3.328  -0.824  -0.190  0.00  0.00     0.326 C 
ATOM      3  N   UNL d   1       3.439   0.530  -0.067  0.00  0.00    -0.309 N 
ATOM      4  O   UNL d   1       4.214  -1.657  -0.252  0.00  0.00    -0.247 OA
ATOM      5  H   UNL d   1       1.227  -0.541  -0.104  0.00  0.00     0.172 HD
ATOM      6  H   UNL d   1       2.609   1.099  -0.032  0.00  0.00     0.170 HD
ENDROOT
BRANCH   1   7
ATOM      7  C   UNL d   1       1.571  -2.561  -0.404  0.00  0.00     0.126 A 
ATOM      8  C   UNL d   1       2.362  -3.662  -0.637  0.00  0.00     0.083 A 
ATOM      9  C   UNL d   1       1.472  -4.735  -0.846  0.00  0.00     0.085 A 
ATOM     10  N   UNL d   1       0.196  -4.358  -0.696  0.00  0.00    -0.296 N 
ATOM     11  N   UNL d   1       0.286  -3.045  -0.417  0.00  0.00    -0.285 N 
ATOM     12  HN  UNL d   1      -0.644  -4.931  -0.775  1.00  0.00     0.187 HD
ATOM     13  H   UNL d   1      -0.580  -2.541  -0.261  0.00  0.00     0.188 HD
BRANCH   9  14
ATOM     14  C   UNL d   1       1.913  -6.107  -1.224  0.00  0.00     0.103 A 
ATOM     15  O   UNL d   1       3.225  -6.461  -1.393  0.00  0.00    -0.320 OA
ATOM     16  C   UNL d   1       3.249  -7.763  -1.773  0.00  0.00     0.142 A 
ATOM     17  C   UNL d   1       1.970  -8.262  -1.849  0.00  0.00     0.027 A 
ATOM     18  C   UNL d   1       1.108  -7.197  -1.489  0.00  0.00     0.041 A 
ENDBRANCH   9  14
ENDBRANCH   1   7
BRANCH   3  19
ATOM     19  C   UNL d   1       4.667   1.233   0.056  0.00  0.00     0.036 A 
ATOM     20  C   UNL d   1       5.924   0.621   0.008  0.00  0.00     0.032 A 
ATOM     21  C   UNL d   1       7.103   1.360   0.193  0.00  0.00     0.039 A 
ATOM     22  C   UNL d   1       7.044   2.733   0.396  0.00  0.00     0.078 A 
ATOM     23  C   UNL d   1       5.790   3.350   0.439  0.00  0.00     0.039 A 
ATOM     24  C   UNL d   1       4.612   2.612   0.265  0.00  0.00     0.032 A 
BRANCH  22  25
ATOM     25  O   UNL d   1       8.099   3.582   0.547  0.00  0.00    -0.255 OA
BRANCH  25  26
ATOM     26  C   UNL d   1       9.417   3.072   0.414  0.00  0.00     0.530 C 
ATOM     27  F   UNL d   1       9.548   2.277  -0.669  0.00  0.00    -0.144 F 
ATOM     28  F   UNL d   1      10.265   4.114   0.265  0.00  0.00    -0.144 F 
ATOM     29  F   UNL d   1       9.772   2.389   1.522  0.00  0.00    -0.144 F 
ENDBRANCH  25  26
ENDBRANCH  22  25
ENDBRANCH   3  19
TORSDOF 5
