REMARK  2 active torsions:
REMARK  status: ('A' for Active; 'I' for Inactive)
REMARK    1  A    between atoms: C_8  and  C_3 
REMARK    2  A    between atoms: C_12  and  C_4 
ROOT
ATOM      1  C   UNL d   1      -2.072   0.442   0.137  0.00  0.00     0.028 C 
ATOM      2  C   UNL d   1      -1.627   1.777   0.636  0.00  0.00     0.194 C 
ATOM      3  C   UNL d   1      -3.339   0.160  -0.231  0.00  0.00     0.027 C 
ATOM      4  C   UNL d   1      -0.961  -0.571  -0.012  0.00  0.00     0.199 C 
ATOM      5  O   UNL d   1      -0.091  -0.584   1.137  0.00  0.00    -0.335 OA
ATOM      6  C   UNL d   1      -0.265   1.831   1.204  0.00  0.00     0.048 A 
ATOM      7  C   UNL d   1       0.428   0.645   1.435  0.00  0.00     0.084 A 
ATOM      8  O   UNL d   1      -2.306   2.792   0.554  0.00  0.00    -0.287 OA
ATOM      9  C   UNL d   1       0.325   3.059   1.517  0.00  0.00     0.018 A 
ATOM     10  C   UNL d   1       1.702   0.676   2.002  0.00  0.00     0.038 A 
ATOM     11  C   UNL d   1       1.613   3.093   2.055  0.00  0.00     0.001 A 
ATOM     12  C   UNL d   1       2.299   1.902   2.300  0.00  0.00     0.003 A 
ENDROOT
BRANCH   3  13
ATOM     13  C   UNL d   1      -4.474   1.090  -0.267  0.00  0.00    -0.014 A 
ATOM     14  C   UNL d   1      -5.317   1.325   0.830  0.00  0.00     0.045 A 
ATOM     15  C   UNL d   1      -6.391   2.212   0.719  0.00  0.00     0.048 A 
ATOM     16 CL   UNL d   1      -5.084   0.516   2.341  0.00  0.00    -0.083 Cl
ATOM     17  C   UNL d   1      -6.623   2.869  -0.488  0.00  0.00     0.035 A 
ATOM     18  C   UNL d   1      -5.795   2.649  -1.585  0.00  0.00     0.024 A 
ATOM     19 CL   UNL d   1      -7.952   3.953  -0.631  0.00  0.00    -0.084 Cl
ATOM     20  C   UNL d   1      -4.723   1.761  -1.476  0.00  0.00     0.015 A 
ENDBRANCH   3  13
BRANCH   4  21
ATOM     21  C   UNL d   1      -0.146  -0.472  -1.307  0.00  0.00    -0.024 A 
ATOM     22  C   UNL d   1      -0.424   0.465  -2.319  0.00  0.00     0.010 A 
ATOM     23  C   UNL d   1       0.354   0.523  -3.475  0.00  0.00     0.001 A 
ATOM     24  C   UNL d   1       1.419  -0.355  -3.647  0.00  0.00     0.000 A 
ATOM     25  C   UNL d   1       1.705  -1.297  -2.662  0.00  0.00     0.001 A 
ATOM     26  C   UNL d   1       0.928  -1.358  -1.504  0.00  0.00     0.010 A 
ENDBRANCH   4  21
TORSDOF 2
