REMARK  4 active torsions:
REMARK  status: ('A' for Active; 'I' for Inactive)
REMARK       I    between atoms: N_2  and  C_1 
REMARK       I    between atoms: N_3  and  C_1 
REMARK    1  A    between atoms: C_5  and  N_2 
REMARK    2  A    between atoms: C_7  and  N_3 
REMARK    3  A    between atoms: C_8  and  C_7 
REMARK    4  A    between atoms: O_15  and  C_9 
ROOT
ATOM      1  C   UNL d   1       0.936  -0.013   0.069  0.00  0.00     0.320 C 
ATOM      2  N   UNL d   1       0.327  -1.074   0.681  0.00  0.00    -0.309 N 
ATOM      3  N   UNL d   1       0.141   0.833  -0.631  0.00  0.00    -0.339 N 
ATOM      4  O   UNL d   1       2.139   0.233   0.073  0.00  0.00    -0.247 OA
ATOM      5  H   UNL d   1      -0.608  -1.288   0.384  0.00  0.00     0.170 HD
ATOM      6  H   UNL d   1       0.678   1.575  -1.062  0.00  0.00     0.164 HD
ENDROOT
BRANCH   2   7
ATOM      7  C   UNL d   1       0.945  -2.046   1.499  0.00  0.00     0.036 A 
ATOM      8  C   UNL d   1       2.235  -1.914   2.023  0.00  0.00     0.036 A 
ATOM      9  C   UNL d   1       2.805  -2.927   2.809  0.00  0.00    -0.060 A 
ATOM     10  C   UNL d   1       4.193  -2.776   3.360  0.00  0.00     0.048 C 
ATOM     11  C   UNL d   1       2.069  -4.086   3.069  0.00  0.00     0.007 A 
ATOM     12  C   UNL d   1       0.774  -4.219   2.573  0.00  0.00     0.003 A 
ATOM     13  C   UNL d   1       0.210  -3.200   1.801  0.00  0.00     0.029 A 
ENDBRANCH   2   7
BRANCH   3  14
ATOM     14  C   UNL d   1      -1.294   0.900  -0.789  0.00  0.00     0.162 C 
BRANCH  14  15
ATOM     15  C   UNL d   1      -1.720   0.813  -2.235  0.00  0.00    -0.040 A 
ATOM     16  C   UNL d   1      -1.014   0.052  -3.179  0.00  0.00     0.011 A 
ATOM     17  C   UNL d   1      -1.448  -0.029  -4.509  0.00  0.00     0.037 A 
ATOM     18  C   UNL d   1      -2.604   0.635  -4.909  0.00  0.00     0.068 A 
ATOM     19  C   UNL d   1      -3.333   1.363  -3.969  0.00  0.00     0.037 A 
ATOM     20  C   UNL d   1      -2.895   1.457  -2.646  0.00  0.00     0.011 A 
BRANCH  18  21
ATOM     21  O   UNL d   1      -3.146   0.595  -6.164  0.00  0.00    -0.356 OA
ATOM     22  C   UNL d   1      -2.220   0.446  -7.234  0.00  0.00     0.210 C 
ENDBRANCH  18  21
ENDBRANCH  14  15
ENDBRANCH   3  14
TORSDOF 4
