REMARK  8 active torsions:
REMARK  status: ('A' for Active; 'I' for Inactive)
REMARK    1  A    between atoms: S_15  and  C_5 
REMARK    2  A    between atoms: C_12  and  C_10 
REMARK    3  A    between atoms: C_14  and  C_11 
REMARK    4  A    between atoms: C_13  and  O_21 
REMARK    5  A    between atoms: C_17  and  C_13 
REMARK    6  A    between atoms: C_25  and  S_15 
REMARK    7  A    between atoms: O_21  and  C_28 
REMARK    8  A    between atoms: C_28  and  C_25 
ROOT
ATOM      1  N   UNL d   1       0.306   0.679  -0.015  0.00  0.00    -0.233 N 
ATOM      2  C   UNL d   1       0.139  -0.711  -0.003  0.00  0.00     0.130 A 
ATOM      3  N   UNL d   1       1.627   1.008  -0.014  0.00  0.00    -0.295 N 
ATOM      4  HN  UNL d   1       2.029   1.946  -0.005  1.00  0.00     0.187 HD
ATOM      5  C   UNL d   1      -0.824   1.520  -0.018  0.00  0.00     0.097 A 
ATOM      6  N   UNL d   1      -1.087  -1.308   0.022  0.00  0.00    -0.337 N 
ATOM      7  HN  UNL d   1      -1.183  -2.324   0.029  1.00  0.00     0.167 HD
ATOM      8  C   UNL d   1       1.401  -1.251  -0.003  0.00  0.00     0.077 A 
ATOM      9  C   UNL d   1      -2.053   0.976   0.010  0.00  0.00     0.073 A 
ATOM     10  C   UNL d   1      -2.135  -0.525   0.036  0.00  0.00     0.120 A 
ATOM     11  C   UNL d   1       2.291  -0.155  -0.028  0.00  0.00     0.037 A 
ENDROOT
BRANCH   5  12
ATOM     12  S   UNL d   1      -0.655   3.252   0.039  0.00  0.00    -0.108 SA
BRANCH  12  13
ATOM     13  C   UNL d   1       0.267   3.592  -1.505  0.00  0.00     0.108 C 
BRANCH  13  14
ATOM     14  C   UNL d   1       0.537   5.092  -1.651  0.00  0.00     0.189 C 
BRANCH  14  15
ATOM     15  O   UNL d   1      -0.682   5.852  -1.741  0.00  0.00    -0.317 OA
BRANCH  15  16
ATOM     16  C   UNL d   1      -1.294   5.851  -2.949  0.00  0.00     0.293 C 
ATOM     17  O   UNL d   1      -0.870   5.318  -3.962  0.00  0.00    -0.259 OA
BRANCH  16  18
ATOM     18  C   UNL d   1      -2.602   6.556  -2.869  0.00  0.00     0.039 A 
ATOM     19  C   UNL d   1      -3.377   6.650  -4.032  0.00  0.00     0.017 A 
ATOM     20  C   UNL d   1      -4.629   7.269  -3.995  0.00  0.00     0.001 A 
ATOM     21  C   UNL d   1      -5.111   7.797  -2.798  0.00  0.00     0.000 A 
ATOM     22  C   UNL d   1      -4.343   7.714  -1.638  0.00  0.00     0.001 A 
ATOM     23  C   UNL d   1      -3.090   7.096  -1.670  0.00  0.00     0.017 A 
ENDBRANCH  16  18
ENDBRANCH  15  16
ENDBRANCH  14  15
ENDBRANCH  13  14
ENDBRANCH  12  13
ENDBRANCH   5  12
BRANCH  10  24
ATOM     24  C   UNL d   1      -3.537  -1.141   0.097  0.00  0.00     0.432 C 
ATOM     25  F   UNL d   1      -4.526  -0.203   0.096  0.00  0.00    -0.165 F 
ATOM     26  F   UNL d   1      -3.789  -1.958  -0.961  0.00  0.00    -0.165 F 
ATOM     27  F   UNL d   1      -3.723  -1.885   1.221  0.00  0.00    -0.165 F 
ENDBRANCH  10  24
BRANCH  11  28
ATOM     28  C   UNL d   1       3.812  -0.181  -0.021  0.00  0.00    -0.007 C 
ATOM     29  C   UNL d   1       4.318  -0.206   1.435  0.00  0.00     0.021 C 
ATOM     30  C   UNL d   1       4.349  -1.429  -0.753  0.00  0.00     0.021 C 
ATOM     31  C   UNL d   1       4.402   1.060  -0.727  0.00  0.00     0.021 C 
ENDBRANCH  11  28
TORSDOF 8
