REMARK  3 active torsions:
REMARK  status: ('A' for Active; 'I' for Inactive)
REMARK    1  A    between atoms: N_2  and  C_1 
REMARK       I    between atoms: C_4  and  N_2 
REMARK    2  A    between atoms: N_5  and  C_3 
REMARK       I    between atoms: N_8  and  C_4 
REMARK    3  A    between atoms: C_9  and  N_8 
ROOT
ATOM      1  N   UNL d   1      -0.527   2.911  -0.191  0.00  0.00    -0.301 N 
ATOM      2  C   UNL d   1       0.055   4.157  -0.305  0.00  0.00     0.321 C 
ATOM      3  N   UNL d   1       1.425   4.013  -0.168  0.00  0.00    -0.338 N 
ATOM      4  O   UNL d   1      -0.514   5.230  -0.440  0.00  0.00    -0.247 OA
ATOM      5  H   UNL d   1      -0.005   2.346   0.465  0.00  0.00     0.171 HD
ATOM      6  H   UNL d   1       1.766   3.089  -0.399  0.00  0.00     0.164 HD
ENDROOT
BRANCH   1   7
ATOM      7  C   UNL d   1      -1.883   2.670  -0.077  0.00  0.00     0.105 A 
ATOM      8  C   UNL d   1      -3.062   2.896  -0.766  0.00  0.00     0.073 A 
ATOM      9  C   UNL d   1      -4.165   2.270  -0.064  0.00  0.00     0.040 A 
ATOM     10  C   UNL d   1      -3.785   1.580   1.061  0.00  0.00     0.054 A 
ATOM     11  S   UNL d   1      -2.108   1.641   1.286  0.00  0.00    -0.082 SA
BRANCH   8  12
ATOM     12  N   UNL d   1      -3.297   3.553  -2.028  0.00  0.00    -0.330 N 
ATOM     13  C   UNL d   1      -4.467   3.432  -2.773  0.00  0.00     0.097 A 
ATOM     14  C   UNL d   1      -4.384   4.200  -3.911  0.00  0.00     0.019 A 
ATOM     15  C   UNL d   1      -3.119   4.814  -3.891  0.00  0.00     0.019 A 
ATOM     16  C   UNL d   1      -2.463   4.364  -2.764  0.00  0.00     0.097 A 
ENDBRANCH   8  12
ENDBRANCH   1   7
BRANCH   3  17
ATOM     17  C   UNL d   1       2.415   5.072  -0.327  0.00  0.00     0.094 C 
ATOM     18  C   UNL d   1       2.214   6.360   0.504  0.00  0.00     0.064 C 
ATOM     19  C   UNL d   1       2.979   7.355  -0.320  0.00  0.00    -0.050 A 
ATOM     20  C   UNL d   1       3.382   8.630   0.042  0.00  0.00     0.007 A 
ATOM     21  C   UNL d   1       3.223   6.865  -1.608  0.00  0.00    -0.050 A 
ATOM     22  C   UNL d   1       4.053   9.409  -0.905  0.00  0.00     0.001 A 
ATOM     23  C   UNL d   1       4.309   8.909  -2.192  0.00  0.00     0.001 A 
ATOM     24  C   UNL d   1       3.889   7.628  -2.553  0.00  0.00     0.007 A 
ATOM     25  C   UNL d   1       2.628   5.506  -1.789  0.00  0.00     0.064 C 
ENDBRANCH   3  17
TORSDOF 3
