REMARK  3 active torsions:
REMARK  status: ('A' for Active; 'I' for Inactive)
REMARK    1  A    between atoms: C_8  and  C_2 
REMARK    2  A    between atoms: S_9  and  C_5 
REMARK    3  A    between atoms: O_15  and  C_12 
ROOT
ATOM      1  N   UNL d   1      -1.887  -0.616   0.409  0.00  0.00    -0.320 N 
ATOM      2  C   UNL d   1      -1.887   0.666  -0.084  0.00  0.00     0.132 A 
ATOM      3  N   UNL d   1      -0.719   0.879  -0.664  0.00  0.00    -0.283 N 
ATOM      4  HN  UNL d   1      -0.435   1.739  -1.134  1.00  0.00     0.188 HD
ATOM      5  C   UNL d   1      -0.671  -1.142   0.108  0.00  0.00     0.157 A 
ATOM      6  N   UNL d   1       0.052  -0.258  -0.529  0.00  0.00    -0.278 N 
ATOM      7  HN  UNL d   1       1.007  -0.385  -0.863  1.00  0.00     0.189 HD
ATOM      8  H   UNL d   1      -2.649  -1.082   0.872  0.00  0.00     0.169 HD
ENDROOT
BRANCH   2   9
ATOM      9  C   UNL d   1      -3.018   1.587  -0.004  0.00  0.00     0.009 A 
ATOM     10  C   UNL d   1      -3.983   1.491   1.009  0.00  0.00     0.018 A 
ATOM     11  C   UNL d   1      -5.069   2.374   1.051  0.00  0.00     0.037 A 
ATOM     12  C   UNL d   1      -5.207   3.362   0.078  0.00  0.00     0.068 A 
ATOM     13  C   UNL d   1      -4.236   3.485  -0.913  0.00  0.00     0.037 A 
ATOM     14  C   UNL d   1      -3.151   2.604  -0.958  0.00  0.00     0.018 A 
BRANCH  12  15
ATOM     15  O   UNL d   1      -6.219   4.280   0.023  0.00  0.00    -0.356 OA
ATOM     16  C   UNL d   1      -7.449   3.886   0.622  0.00  0.00     0.210 C 
ENDBRANCH  12  15
ENDBRANCH   2   9
BRANCH   5  17
ATOM     17  S   UNL d   1      -0.235  -2.750   0.533  0.00  0.00    -0.106 SA
ATOM     18  H   UNL d   1      -1.408  -3.191   1.004  0.00  0.00     0.110 HD
ENDBRANCH   5  17
TORSDOF 3
