REMARK  8 active torsions:
REMARK  status: ('A' for Active; 'I' for Inactive)
REMARK    1  A    between atoms: C_2  and  S_1 
REMARK    2  A    between atoms: N_3  and  S_1 
REMARK    3  A    between atoms: S_5  and  N_3 
REMARK    4  A    between atoms: C_11  and  S_5 
REMARK    5  A    between atoms: C_13  and  C_6 
REMARK    6  A    between atoms: O_26  and  C_7 
REMARK    7  A    between atoms: C_10  and  C_12 
REMARK    8  A    between atoms: O_28  and  C_13 
ROOT
ATOM      1  N   UNL d   1       0.185  -1.300   1.099  0.00  0.00    -0.234 N 
ATOM      2  HN  UNL d   1      -0.813  -1.149   1.241  1.00  0.00     0.189 HD
ENDROOT
BRANCH   1   3
ATOM      3  S   UNL d   1       0.975  -0.274   0.031  0.00  0.00     0.279 S 
ATOM      4  O   UNL d   1       0.214   0.961  -0.015  0.00  0.00    -0.199 OA
ATOM      5  O   UNL d   1       2.395  -0.235   0.320  0.00  0.00    -0.199 OA
BRANCH   3   6
ATOM      6  C   UNL d   1       0.817  -0.901  -1.643  0.00  0.00     0.155 C 
ATOM      7  C   UNL d   1      -0.253  -1.035  -2.519  0.00  0.00     0.115 C 
ATOM      8  C   UNL d   1       0.165  -1.255  -3.885  0.00  0.00     0.081 C 
ATOM      9  C   UNL d   1       1.537  -1.430  -3.940  0.00  0.00     0.071 C 
ATOM     10  S   UNL d   1       2.290  -1.313  -2.420  0.00  0.00    -0.085 SA
BRANCH   7  11
ATOM     11  O   UNL d   1      -1.531  -0.747  -2.171  0.00  0.00    -0.353 OA
ATOM     12  C   UNL d   1      -2.108  -1.692  -1.272  0.00  0.00     0.210 C 
ENDBRANCH   7  11
BRANCH   8  13
ATOM     13  C   UNL d   1      -0.679  -1.267  -5.087  0.00  0.00     0.296 C 
ATOM     14  O   UNL d   1      -1.900  -1.194  -5.074  0.00  0.00    -0.259 OA
BRANCH  13  15
ATOM     15  O   UNL d   1       0.063  -1.373  -6.235  0.00  0.00    -0.322 OA
ATOM     16  C   UNL d   1      -0.683  -1.344  -7.454  0.00  0.00     0.213 C 
ENDBRANCH  13  15
ENDBRANCH   8  13
ENDBRANCH   3   6
ENDBRANCH   1   3
BRANCH   1  17
ATOM     17  S   UNL d   1       0.895  -2.539   1.941  0.00  0.00     0.077 S 
ATOM     18  O   UNL d   1       2.116  -2.182   2.626  0.00  0.00    -0.243 OA
ATOM     19  C   UNL d   1      -0.350  -3.002   3.102  0.00  0.00     0.144 C 
BRANCH  17  20
ATOM     20  C   UNL d   1       1.105  -3.900   0.880  0.00  0.00     0.107 A 
ATOM     21  N   UNL d   1       0.258  -3.899  -0.173  0.00  0.00    -0.357 N 
ATOM     22  C   UNL d   1       0.290  -5.000  -0.960  0.00  0.00     0.105 A 
ATOM     23  HN  UNL d   1      -0.369  -3.117  -0.363  1.00  0.00     0.166 HD
ATOM     24  C   UNL d   1       1.117  -6.093  -0.732  0.00  0.00     0.063 A 
ATOM     25  C   UNL d   1       1.985  -6.036   0.369  0.00  0.00     0.020 A 
ATOM     26  C   UNL d   1       1.988  -4.914   1.193  0.00  0.00     0.041 A 
BRANCH  24  27
ATOM     27  C   UNL d   1       1.059  -7.298  -1.623  0.00  0.00     0.418 C 
ATOM     28  F   UNL d   1       0.198  -7.157  -2.668  0.00  0.00    -0.166 F 
ATOM     29  F   UNL d   1       2.267  -7.601  -2.170  0.00  0.00    -0.166 F 
ATOM     30  F   UNL d   1       0.656  -8.414  -0.956  0.00  0.00    -0.166 F 
ENDBRANCH  24  27
ENDBRANCH  17  20
ENDBRANCH   1  17
TORSDOF 8
