REMARK  23 active torsions:
REMARK  status: ('A' for Active; 'I' for Inactive)
REMARK    1  A    between atoms: C_1  and  O_8 
REMARK    2  A    between atoms: C_2  and  O_8 
REMARK    3  A    between atoms: C_3  and  O_14 
REMARK    4  A    between atoms: C_4  and  O_16 
REMARK    5  A    between atoms: C_5  and  O_15 
REMARK    6  A    between atoms: C_6  and  O_17 
REMARK    7  A    between atoms: C_10  and  O_19 
REMARK    8  A    between atoms: C_11  and  O_18 
REMARK    9  A    between atoms: C_12  and  C_20 
REMARK   10  A    between atoms: C_13  and  C_21 
REMARK   11  A    between atoms: C_24  and  O_19 
REMARK   12  A    between atoms: O_22  and  C_20 
REMARK   13  A    between atoms: O_23  and  C_21 
REMARK   14  A    between atoms: C_25  and  C_24 
REMARK   15  A    between atoms: C_33  and  C_25 
REMARK   16  A    between atoms: C_26  and  C_27 
REMARK   17  A    between atoms: C_27  and  C_32 
REMARK   18  A    between atoms: C_28  and  C_34 
REMARK   19  A    between atoms: C_29  and  C_28 
REMARK   20  A    between atoms: C_30  and  C_29 
REMARK   21  A    between atoms: C_31  and  C_30 
REMARK   22  A    between atoms: C_32  and  C_31 
REMARK   23  A    between atoms: C_34  and  C_33 
ROOT
ATOM      1  C   UNL d   1       2.145   0.964  -2.276  0.00  0.00     0.187 C 
ATOM      2  C   UNL d   1       3.399   1.671  -1.719  0.00  0.00     0.183 C 
ATOM      3  C   UNL d   1       4.713   0.983  -2.141  0.00  0.00     0.204 C 
ATOM      4  O   UNL d   1       3.505  -1.051  -2.592  0.00  0.00    -0.348 OA
ATOM      5  C   UNL d   1       4.605  -0.527  -1.854  0.00  0.00     0.291 C 
ATOM      6  C   UNL d   1       2.261  -0.565  -2.102  0.00  0.00     0.180 C 
ENDROOT
BRANCH   1   7
ATOM      7  O   UNL d   1       0.961   1.333  -1.551  0.00  0.00    -0.348 OA
BRANCH   7   8
ATOM      8  C   UNL d   1       0.438   2.637  -1.801  0.00  0.00     0.292 C 
ATOM      9  C   UNL d   1      -0.839   2.829  -0.949  0.00  0.00     0.204 C 
ATOM     10  C   UNL d   1      -1.860   1.756  -1.356  0.00  0.00     0.183 C 
ATOM     11  C   UNL d   1      -2.138   1.840  -2.869  0.00  0.00     0.180 C 
ATOM     12  C   UNL d   1      -0.838   1.903  -3.689  0.00  0.00     0.179 C 
ATOM     13  O   UNL d   1       0.113   2.851  -3.173  0.00  0.00    -0.348 OA
BRANCH   9  14
ATOM     14  O   UNL d   1      -0.583   2.753   0.461  0.00  0.00    -0.388 OA
ATOM     15  H   UNL d   1       0.139   3.369   0.666  0.00  0.00     0.210 HD
ENDBRANCH   9  14
BRANCH  10  16
ATOM     16  O   UNL d   1      -3.101   1.897  -0.646  0.00  0.00    -0.390 OA
ATOM     17  H   UNL d   1      -3.069   2.729  -0.143  0.00  0.00     0.210 HD
ENDBRANCH  10  16
BRANCH  11  18
ATOM     18  O   UNL d   1      -2.921   0.722  -3.312  0.00  0.00    -0.390 OA
ATOM     19  H   UNL d   1      -2.657  -0.061  -2.800  0.00  0.00     0.210 HD
ENDBRANCH  11  18
BRANCH  12  20
ATOM     20  C   UNL d   1      -1.109   2.297  -5.147  0.00  0.00     0.198 C 
BRANCH  20  21
ATOM     21  O   UNL d   1      -1.578   3.645  -5.222  0.00  0.00    -0.398 OA
ATOM     22  H   UNL d   1      -0.922   4.176  -4.733  0.00  0.00     0.209 HD
ENDBRANCH  20  21
ENDBRANCH  12  20
ENDBRANCH   7   8
ENDBRANCH   1   7
BRANCH   2  23
ATOM     23  O   UNL d   1       3.409   3.053  -2.121  0.00  0.00    -0.390 OA
ATOM     24  H   UNL d   1       3.989   3.144  -2.900  0.00  0.00     0.210 HD
ENDBRANCH   2  23
BRANCH   6  25
ATOM     25  C   UNL d   1       1.176  -1.338  -2.861  0.00  0.00     0.198 C 
BRANCH  25  26
ATOM     26  O   UNL d   1       1.279  -1.104  -4.265  0.00  0.00    -0.398 OA
ATOM     27  H   UNL d   1       2.178  -1.391  -4.516  0.00  0.00     0.209 HD
ENDBRANCH  25  26
ENDBRANCH   6  25
BRANCH   3  28
ATOM     28  O   UNL d   1       5.815   1.606  -1.465  0.00  0.00    -0.388 OA
ATOM     29  H   UNL d   1       5.709   1.479  -0.506  0.00  0.00     0.210 HD
ENDBRANCH   3  28
BRANCH   5  30
ATOM     30  O   UNL d   1       5.789  -1.211  -2.249  0.00  0.00    -0.359 OA
BRANCH  30  31
ATOM     31  C   UNL d   1       5.689  -2.605  -1.955  0.00  0.00     0.171 C 
BRANCH  31  32
ATOM     32  C   UNL d   1       7.023  -3.284  -2.228  0.00  0.00     0.026 C 
BRANCH  32  33
ATOM     33  C   UNL d   1       8.122  -2.704  -1.349  0.00  0.00     0.002 C 
BRANCH  33  34
ATOM     34  C   UNL d   1       9.426  -3.464  -1.546  0.00  0.00     0.000 C 
BRANCH  34  35
ATOM     35  C   UNL d   1      10.524  -2.872  -0.671  0.00  0.00     0.000 C 
BRANCH  35  36
ATOM     36  C   UNL d   1      11.826  -3.635  -0.864  0.00  0.00     0.000 C 
BRANCH  36  37
ATOM     37  C   UNL d   1      12.937  -3.048   0.000  0.00  0.00     0.000 C 
BRANCH  37  38
ATOM     38  C   UNL d   1      14.230  -3.826  -0.210  0.00  0.00     0.000 C 
BRANCH  38  39
ATOM     39  C   UNL d   1      15.367  -3.263   0.640  0.00  0.00     0.000 C 
BRANCH  39  40
ATOM     40  C   UNL d   1      16.646  -4.062   0.405  0.00  0.00    -0.000 C 
BRANCH  40  41
ATOM     41  C   UNL d   1      17.802  -3.522   1.241  0.00  0.00    -0.005 C 
ATOM     42  C   UNL d   1      19.070  -4.325   0.997  0.00  0.00     0.005 C 
ENDBRANCH  40  41
ENDBRANCH  39  40
ENDBRANCH  38  39
ENDBRANCH  37  38
ENDBRANCH  36  37
ENDBRANCH  35  36
ENDBRANCH  34  35
ENDBRANCH  33  34
ENDBRANCH  32  33
ENDBRANCH  31  32
ENDBRANCH  30  31
ENDBRANCH   5  30
TORSDOF 23
