REMARK  4 active torsions:
REMARK  status: ('A' for Active; 'I' for Inactive)
REMARK    1  A    between atoms: C_13  and  C_1 
REMARK    2  A    between atoms: C_5  and  C_14 
REMARK    3  A    between atoms: O_15  and  C_5 
REMARK    4  A    between atoms: C_14  and  C_13 
ROOT
ATOM      1  C   UNL d   1       0.719   0.769   1.120  0.00  0.00    -0.039 C 
ATOM      2  C   UNL d   1       0.509   0.456  -1.400  0.00  0.00    -0.013 C 
ATOM      3  C   UNL d   1      -1.532   0.251   0.058  0.00  0.00    -0.013 C 
ATOM      4  C   UNL d   1       0.254  -1.526   0.128  0.00  0.00    -0.013 C 
ATOM      5  C   UNL d   1      -0.810   1.019   1.177  0.00  0.00     0.014 C 
ATOM      6  C   UNL d   1       0.976  -0.755   1.244  0.00  0.00     0.014 C 
ATOM      7  C   UNL d   1       1.232   1.223  -0.276  0.00  0.00     0.014 C 
ATOM      8  C   UNL d   1      -1.256  -1.253   0.222  0.00  0.00     0.009 C 
ATOM      9  C   UNL d   1      -1.002   0.725  -1.302  0.00  0.00     0.009 C 
ATOM     10  C   UNL d   1       0.771  -1.050  -1.236  0.00  0.00     0.009 C 
ENDROOT
BRANCH   1  11
ATOM     11  C   UNL d   1       1.458   1.554   2.235  0.00  0.00     0.020 C 
BRANCH  11  12
ATOM     12  C   UNL d   1       1.049   1.168   3.660  0.00  0.00     0.110 C 
BRANCH  12  13
ATOM     13  C   UNL d   1       1.801   1.950   4.714  0.00  0.00     0.139 C 
ATOM     14  O   UNL d   1       2.644   2.800   4.499  0.00  0.00    -0.650 OA
BRANCH  13  15
ATOM     15  O   UNL d   1       1.425   1.593   5.967  0.00  0.00    -0.776 OA
ATOM     16  H   UNL d   1       0.740   0.898   5.994  0.00  0.00     0.167 HD
ENDBRANCH  13  15
ENDBRANCH  12  13
ENDBRANCH  11  12
ENDBRANCH   1  11
TORSDOF 4
