REMARK  4 active torsions:
REMARK  status: ('A' for Active; 'I' for Inactive)
REMARK    1  A    between atoms: N_2  and  C_1 
REMARK    2  A    between atoms: O_20  and  C_7 
REMARK    3  A    between atoms: O_19  and  C_8 
REMARK    4  A    between atoms: C_17  and  C_13 
ROOT
ATOM      1  N   UNL d   1       4.073  -0.326   0.417  0.00  0.00    -0.363 N 
ATOM      2  HN  UNL d   1       4.391   0.293   1.162  1.00  0.00     0.165 HD
ATOM      3  C   UNL d   1       3.104   0.116  -0.334  0.00  0.00     0.100 C 
ENDROOT
BRANCH   1   4
ATOM      4  C   UNL d   1       4.721  -1.560   0.308  0.00  0.00     0.068 A 
ATOM      5  C   UNL d   1       4.017  -2.754   0.102  0.00  0.00     0.071 A 
ATOM      6  C   UNL d   1       4.674  -3.976  -0.078  0.00  0.00     0.092 A 
ATOM      7  C   UNL d   1       6.069  -4.016   0.002  0.00  0.00     0.070 A 
ATOM      8  C   UNL d   1       6.784  -2.859   0.323  0.00  0.00     0.065 A 
ATOM      9 CL   UNL d   1       7.006  -5.427  -0.344  0.00  0.00    -0.081 Cl
ATOM     10  C   UNL d   1       6.125  -1.635   0.490  0.00  0.00     0.096 A 
BRANCH   6  11
ATOM     11  O   UNL d   1       3.842  -5.004  -0.427  0.00  0.00    -0.354 OA
ATOM     12  C   UNL d   1       4.053  -6.231   0.265  0.00  0.00     0.210 C 
ENDBRANCH   6  11
BRANCH  10  13
ATOM     13  O   UNL d   1       6.762  -0.467   0.839  0.00  0.00    -0.354 OA
ATOM     14  C   UNL d   1       8.182  -0.487   0.942  0.00  0.00     0.210 C 
ENDBRANCH  10  13
ENDBRANCH   1   4
BRANCH   3  15
ATOM     15  C   UNL d   1       2.382  -0.452  -1.496  0.00  0.00    -0.018 A 
ATOM     16  C   UNL d   1       1.044  -0.051  -1.637  0.00  0.00     0.052 A 
ATOM     17  C   UNL d   1       0.352  -0.487  -2.746  0.00  0.00     0.105 A 
ATOM     18  O   UNL d   1      -0.924  -0.144  -3.074  0.00  0.00    -0.323 OA
ATOM     19  C   UNL d   1       0.926  -1.316  -3.680  0.00  0.00     0.105 A 
ATOM     20  C   UNL d   1      -1.010  -0.702  -4.402  0.00  0.00     0.352 C 
ATOM     21  O   UNL d   1       0.079  -1.597  -4.708  0.00  0.00    -0.323 OA
ATOM     22  C   UNL d   1       2.227  -1.752  -3.556  0.00  0.00     0.040 A 
ATOM     23  C   UNL d   1       2.974  -1.286  -2.466  0.00  0.00     0.016 A 
ENDBRANCH   3  15
TORSDOF 4
