REMARK  2 active torsions:
REMARK  status: ('A' for Active; 'I' for Inactive)
REMARK    1  A    between atoms: N_8  and  N_6 
REMARK    2  A    between atoms: C_19  and  C_17 
ROOT
ATOM      1  C   UNL d   1       2.306   1.102   0.057  0.00  0.00     0.129 A 
ATOM      2  C   UNL d   1       3.473   0.101   0.019  0.00  0.00     0.275 A 
ATOM      3  C   UNL d   1       1.085   0.284   0.027  0.00  0.00     0.026 A 
ATOM      4  N   UNL d   1       2.887  -1.147  -0.002  0.00  0.00    -0.321 N 
ATOM      5  C   UNL d   1       1.501  -1.046   0.003  0.00  0.00     0.048 A 
ATOM      6  N   UNL d   1       2.496   2.383   0.117  0.00  0.00    -0.295 N 
ATOM      7  HN  UNL d   1       3.422   2.812   0.127  1.00  0.00     0.187 HD
ATOM      8  C   UNL d   1      -0.257   0.615   0.019  0.00  0.00     0.035 A 
ATOM      9  O   UNL d   1       4.655   0.370   0.011  0.00  0.00    -0.266 OA
ATOM     10  C   UNL d   1       0.597  -2.091  -0.018  0.00  0.00     0.032 A 
ATOM     11  C   UNL d   1      -1.182  -0.429  -0.001  0.00  0.00     0.011 A 
ATOM     12  C   UNL d   1      -0.765  -1.771  -0.016  0.00  0.00     0.021 A 
ATOM     13 BR   UNL d   1      -3.030  -0.023  -0.005  0.00  0.00    -0.051 Br
ATOM     14  H   UNL d   1       3.424  -2.001  -0.026  0.00  0.00     0.169 HD
ENDROOT
BRANCH   6  15
ATOM     15  N   UNL d   1       1.320   3.114   0.167  0.00  0.00    -0.310 N 
ATOM     16  C   UNL d   1       1.534   4.389   0.216  0.00  0.00     0.118 C 
ATOM     17  HN  UNL d   1       0.391   2.694   0.166  1.00  0.00     0.186 HD
BRANCH  16  18
ATOM     18  C   UNL d   1       0.402   5.336   0.267  0.00  0.00    -0.018 A 
ATOM     19  C   UNL d   1      -0.914   4.861   0.315  0.00  0.00     0.038 A 
ATOM     20  C   UNL d   1      -1.987   5.755   0.339  0.00  0.00     0.056 A 
ATOM     21 CL   UNL d   1      -3.580   5.091   0.387  0.00  0.00    -0.083 Cl
ATOM     22  C   UNL d   1      -1.742   7.131   0.318  0.00  0.00     0.055 A 
ATOM     23  C   UNL d   1      -0.424   7.606   0.279  0.00  0.00     0.026 A 
ATOM     24 CL   UNL d   1      -3.017   8.296   0.337  0.00  0.00    -0.083 Cl
ATOM     25  C   UNL d   1       0.651   6.709   0.253  0.00  0.00     0.014 A 
ENDBRANCH  16  18
ENDBRANCH   6  15
TORSDOF 2
