REMARK  3 active torsions:
REMARK  status: ('A' for Active; 'I' for Inactive)
REMARK    1  A    between atoms: C_2  and  C_1 
REMARK    2  A    between atoms: C_3  and  C_1 
REMARK    3  A    between atoms: O_16  and  C_10 
ROOT
ATOM      1  C   UNL d   1       0.982  -0.134  -0.063  0.00  0.00     0.192 C 
ATOM      2  O   UNL d   1       2.205  -0.032  -0.001  0.00  0.00    -0.287 OA
ENDROOT
BRANCH   1   3
ATOM      3  C   UNL d   1       0.251  -0.817   1.039  0.00  0.00     0.015 A 
ATOM      4  C   UNL d   1       0.740  -0.709   2.344  0.00  0.00     0.018 A 
ATOM      5  C   UNL d   1       0.040  -1.285   3.410  0.00  0.00     0.037 A 
ATOM      6  C   UNL d   1      -1.148  -1.980   3.176  0.00  0.00     0.068 A 
ATOM      7  C   UNL d   1      -1.607  -2.126   1.865  0.00  0.00     0.037 A 
ATOM      8  C   UNL d   1      -0.907  -1.563   0.796  0.00  0.00     0.018 A 
BRANCH   6   9
ATOM      9  O   UNL d   1      -1.944  -2.562   4.122  0.00  0.00    -0.356 OA
ATOM     10  C   UNL d   1      -1.541  -2.422   5.478  0.00  0.00     0.210 C 
ENDBRANCH   6   9
ENDBRANCH   1   3
BRANCH   1  11
ATOM     11  C   UNL d   1       0.258   0.430  -1.232  0.00  0.00     0.015 A 
ATOM     12  C   UNL d   1       0.901   0.450  -2.477  0.00  0.00     0.018 A 
ATOM     13  C   UNL d   1       0.231   0.934  -3.603  0.00  0.00     0.043 A 
ATOM     14  C   UNL d   1      -1.072   1.403  -3.477  0.00  0.00     0.116 A 
ATOM     15  C   UNL d   1      -1.710   1.423  -2.243  0.00  0.00     0.043 A 
ATOM     16  F   UNL d   1      -1.722   1.848  -4.560  0.00  0.00    -0.206 F 
ATOM     17  C   UNL d   1      -1.041   0.951  -1.113  0.00  0.00     0.018 A 
ENDBRANCH   1  11
TORSDOF 3
