REMARK  7 active torsions:
REMARK  status: ('A' for Active; 'I' for Inactive)
REMARK    1  A    between atoms: C_6  and  C_1 
REMARK    2  A    between atoms: N_2  and  C_8 
REMARK       I    between atoms: N_12  and  C_6 
REMARK    3  A    between atoms: C_22  and  N_12 
REMARK    4  A    between atoms: C_17  and  C_21 
REMARK    5  A    between atoms: S_19  and  C_23 
REMARK    6  A    between atoms: C_21  and  S_19 
REMARK    7  A    between atoms: C_23  and  C_22 
ROOT
ATOM      1  C   UNL d   1       3.795   3.505  -0.139  0.00  0.00     0.133 C 
ENDROOT
BRANCH   1   2
ATOM      2  N   UNL d   1       2.990   2.303  -0.047  0.00  0.00    -0.356 N 
ATOM      3  C   UNL d   1       2.667   1.760   1.178  0.00  0.00     0.254 C 
ATOM      4  O   UNL d   1       3.107   2.217   2.230  0.00  0.00    -0.268 OA
ATOM      5  H   UNL d   1       2.446   2.024  -0.856  0.00  0.00     0.162 HD
BRANCH   3   6
ATOM      6  C   UNL d   1       1.710   0.666   1.157  0.00  0.00     0.063 A 
ATOM      7  C   UNL d   1       1.524  -0.326   0.204  0.00  0.00     0.065 A 
ATOM      8  O   UNL d   1       0.527  -1.172   0.595  0.00  0.00    -0.319 OA
ATOM      9  C   UNL d   1       2.171  -0.706  -1.069  0.00  0.00     0.077 C 
ATOM     10  C   UNL d   1       0.083  -0.754   1.809  0.00  0.00     0.050 A 
ATOM     11  C   UNL d   1       0.776   0.367   2.197  0.00  0.00     0.051 A 
ATOM     12  C   UNL d   1      -0.982  -1.564   2.432  0.00  0.00     0.076 C 
ENDBRANCH   3   6
ENDBRANCH   1   2
BRANCH   1  13
ATOM     13  C   UNL d   1       5.297   3.214  -0.077  0.00  0.00     0.093 C 
BRANCH  13  14
ATOM     14  S   UNL d   1       6.304   4.729  -0.239  0.00  0.00    -0.163 SA
BRANCH  14  15
ATOM     15  C   UNL d   1       5.871   5.561   1.326  0.00  0.00     0.112 C 
BRANCH  15  16
ATOM     16  C   UNL d   1       6.558   6.902   1.428  0.00  0.00    -0.049 A 
ATOM     17  C   UNL d   1       5.963   8.046   0.869  0.00  0.00     0.010 A 
ATOM     18  C   UNL d   1       6.604   9.285   0.928  0.00  0.00     0.036 A 
ATOM     19  C   UNL d   1       7.856   9.383   1.546  0.00  0.00     0.102 A 
ATOM     20  C   UNL d   1       8.461   8.253   2.111  0.00  0.00     0.036 A 
ATOM     21  C   UNL d   1       7.811   7.018   2.049  0.00  0.00     0.010 A 
BRANCH  19  22
ATOM     22  N   UNL d   1       8.545  10.678   1.594  0.00  0.00    -0.116 N 
ATOM     23  O   UNL d   1       7.982  11.651   1.071  0.00  0.00    -0.532 OA
ATOM     24  O   UNL d   1       9.649  10.725   2.155  0.00  0.00    -0.532 OA
ENDBRANCH  19  22
ENDBRANCH  15  16
ENDBRANCH  14  15
ENDBRANCH  13  14
ENDBRANCH   1  13
TORSDOF 7
