REMARK  2 active torsions:
REMARK  status: ('A' for Active; 'I' for Inactive)
REMARK       I    between atoms: N_2  and  C_1 
REMARK    1  A    between atoms: C_3  and  C_1 
REMARK    2  A    between atoms: C_5  and  C_4 
ROOT
ATOM      1  C   UNL d   1      -1.845  -1.752  -1.894  0.00  0.00    -0.025 A 
ATOM      2  C   UNL d   1      -2.026  -1.411  -3.263  0.00  0.00    -0.016 A 
ATOM      3  C   UNL d   1      -2.712  -2.321  -4.106  0.00  0.00    -0.025 A 
ATOM      4  C   UNL d   1      -2.999  -3.856  -2.240  0.00  0.00     0.002 A 
ATOM      5  C   UNL d   1      -2.330  -2.970  -1.399  0.00  0.00     0.012 A 
ATOM      6  C   UNL d   1      -1.567  -0.201  -3.837  0.00  0.00     0.013 A 
ATOM      7  C   UNL d   1      -3.189  -3.531  -3.582  0.00  0.00     0.012 A 
ATOM      8  C   UNL d   1      -2.916  -2.004  -5.460  0.00  0.00     0.012 A 
ATOM      9  C   UNL d   1      -1.775   0.098  -5.184  0.00  0.00     0.001 A 
ATOM     10  C   UNL d   1      -2.451  -0.803  -5.996  0.00  0.00     0.001 A 
ENDROOT
BRANCH   1  11
ATOM     11  C   UNL d   1      -1.160  -0.849  -0.957  0.00  0.00     0.018 C 
ATOM     12  C   UNL d   1       0.172  -0.865  -0.811  0.00  0.00     0.075 C 
BRANCH  12  13
ATOM     13  C   UNL d   1       0.821   0.140   0.068  0.00  0.00     0.243 C 
ATOM     14  N   UNL d   1       2.060   0.605  -0.332  0.00  0.00    -0.345 N 
ATOM     15  C   UNL d   1       2.805   1.518   0.541  0.00  0.00     0.152 C 
ATOM     16  C   UNL d   1       2.743   0.314  -1.599  0.00  0.00     0.152 C 
ATOM     17  C   UNL d   1       3.249   2.769  -0.226  0.00  0.00     0.187 C 
ATOM     18  O   UNL d   1       3.988   2.416  -1.407  0.00  0.00    -0.388 OA
ATOM     19  C   UNL d   1       3.183   1.615  -2.284  0.00  0.00     0.187 C 
ATOM     20  O   UNL d   1       0.249   0.531   1.082  0.00  0.00    -0.268 OA
ENDBRANCH  12  13
ENDBRANCH   1  11
TORSDOF 2
