REMARK  2 active torsions:
REMARK  status: ('A' for Active; 'I' for Inactive)
REMARK    1  A    between atoms: CA_6  and  C_10 
REMARK    2  A    between atoms: O_7  and  C_10 
ROOT
ATOM      1  N   UNL d   1       2.395   0.721   0.355  0.00  0.00     0.094 N 
ATOM      2  C   UNL d   1      -0.099  -0.719  -0.147  0.00  0.00    -0.048 A 
ATOM      3  C   UNL d   1      -0.043   0.684  -0.129  0.00  0.00    -0.024 A 
ATOM      4  C   UNL d   1       1.290   1.333  -0.392  0.00  0.00     0.309 C 
ATOM      5  C   UNL d   1       1.199  -1.451  -0.366  0.00  0.00     0.076 C 
ATOM      6  CA  UNL d   1       2.335  -0.762   0.429  0.00  0.00     0.248 C 
ATOM      7  C   UNL d   1      -1.321  -1.378  -0.002  0.00  0.00     0.008 A 
ATOM      8  C   UNL d   1      -1.218   1.420   0.047  0.00  0.00     0.009 A 
ATOM      9  C   UNL d   1      -2.488  -0.638   0.182  0.00  0.00     0.001 A 
ATOM     10  C   UNL d   1      -2.437   0.758   0.210  0.00  0.00     0.001 A 
ATOM     11  H   UNL d   1       2.348   1.074   1.312  0.00  0.00     0.316 HD
ENDROOT
BRANCH   6  12
ATOM     12  C   UNL d   1       3.703  -1.352   0.041  0.00  0.00     0.200 C 
BRANCH  12  13
ATOM     13  O   UNL d   1       3.740  -2.750   0.315  0.00  0.00    -0.399 OA
ATOM     14  H   UNL d   1       4.645  -3.050   0.116  0.00  0.00     0.209 HD
ENDBRANCH  12  13
ENDBRANCH   6  12
TORSDOF 2
