REMARK  6 active torsions:
REMARK  status: ('A' for Active; 'I' for Inactive)
REMARK    1  A    between atoms: C_13  and  C_1 
REMARK    2  A    between atoms: C_2  and  N_12 
REMARK    3  A    between atoms: N_8  and  C_2 
REMARK    4  A    between atoms: O_16  and  C_4 
REMARK    5  A    between atoms: N_12  and  N_6 
REMARK    6  A    between atoms: C_14  and  N_8 
ROOT
ATOM      1  N   UNL d   1      -0.788   6.134  -0.472  0.00  0.00    -0.309 N 
ATOM      2  HN  UNL d   1      -0.816   6.987  -1.030  1.00  0.00     0.186 HD
ATOM      3  C   UNL d   1      -1.866   5.464  -0.228  0.00  0.00     0.121 C 
ENDROOT
BRANCH   1   4
ATOM      4  N   UNL d   1       0.388   5.670   0.037  0.00  0.00    -0.277 N 
ATOM      5  H   UNL d   1       0.456   4.705   0.327  0.00  0.00     0.189 HD
BRANCH   4   6
ATOM      6  C   UNL d   1       1.462   6.511   0.139  0.00  0.00     0.187 C 
ATOM      7  S   UNL d   1       1.378   8.186   0.212  0.00  0.00    -0.040 SA
BRANCH   6   8
ATOM      8  N   UNL d   1       2.713   5.974   0.149  0.00  0.00    -0.358 N 
ATOM      9  H   UNL d   1       3.400   6.716   0.243  0.00  0.00     0.162 HD
BRANCH   8  10
ATOM     10  C   UNL d   1       3.240   4.710  -0.406  0.00  0.00     0.021 C 
ATOM     11  C   UNL d   1       2.611   4.377  -1.768  0.00  0.00     0.037 C 
ATOM     12  C   UNL d   1       4.756   4.913  -0.625  0.00  0.00     0.037 C 
ATOM     13  C   UNL d   1       3.054   3.544   0.572  0.00  0.00     0.037 C 
ENDBRANCH   8  10
ENDBRANCH   6   8
ENDBRANCH   4   6
ENDBRANCH   1   4
BRANCH   3  14
ATOM     14  C   UNL d   1      -3.134   5.886  -0.865  0.00  0.00     0.017 A 
ATOM     15  C   UNL d   1      -4.366   5.394  -0.427  0.00  0.00     0.099 A 
ATOM     16  C   UNL d   1      -5.543   5.805  -1.070  0.00  0.00     0.069 A 
ATOM     17 CL   UNL d   1      -7.076   5.221  -0.538  0.00  0.00    -0.081 Cl
ATOM     18  C   UNL d   1      -5.494   6.689  -2.150  0.00  0.00     0.050 A 
ATOM     19  C   UNL d   1      -4.262   7.170  -2.581  0.00  0.00     0.036 A 
ATOM     20  C   UNL d   1      -3.087   6.782  -1.942  0.00  0.00     0.039 A 
ATOM     21 CL   UNL d   1      -4.189   8.244  -3.924  0.00  0.00    -0.084 Cl
BRANCH  15  22
ATOM     22  O   UNL d   1      -4.417   4.525   0.631  0.00  0.00    -0.358 OA
ATOM     23  H   UNL d   1      -5.359   4.346   0.820  0.00  0.00     0.217 HD
ENDBRANCH  15  22
ENDBRANCH   3  14
TORSDOF 6
