REMARK  4 active torsions:
REMARK  status: ('A' for Active; 'I' for Inactive)
REMARK    1  A    between atoms: C_3  and  N_1 
REMARK    2  A    between atoms: S_7  and  C_2 
REMARK    3  A    between atoms: C_12  and  S_7 
REMARK    4  A    between atoms: C_10  and  C_12 
ROOT
ATOM      1  N   UNL d   1      -0.400  -1.087  -0.004  0.00  0.00    -0.300 N 
ATOM      2  C   UNL d   1       0.918  -0.615   0.001  0.00  0.00     0.151 A 
ATOM      3  N   UNL d   1       0.976   0.700   0.013  0.00  0.00    -0.345 N 
ATOM      4  HN  UNL d   1       1.814   1.280  -0.024  1.00  0.00     0.167 HD
ATOM      5  C   UNL d   1      -1.176   0.056   0.095  0.00  0.00     0.116 A 
ATOM      6  C   UNL d   1      -0.315   1.124   0.083  0.00  0.00     0.108 A 
ENDROOT
BRANCH   2   7
ATOM      7  S   UNL d   1       2.330  -1.613  -0.172  0.00  0.00    -0.089 SA
BRANCH   7   8
ATOM      8  C   UNL d   1       3.705  -0.465   0.101  0.00  0.00     0.122 C 
BRANCH   8   9
ATOM      9  C   UNL d   1       3.788   0.217   1.450  0.00  0.00    -0.027 A 
ATOM     10  C   UNL d   1       3.979  -0.462   2.663  0.00  0.00     0.041 A 
ATOM     11 CL   UNL d   1       4.152  -2.179   2.747  0.00  0.00    -0.084 Cl
ATOM     12  C   UNL d   1       4.079   0.246   3.871  0.00  0.00     0.024 A 
ATOM     13  C   UNL d   1       4.011   1.637   3.883  0.00  0.00     0.002 A 
ATOM     14  C   UNL d   1       3.849   2.329   2.688  0.00  0.00     0.001 A 
ATOM     15  C   UNL d   1       3.736   1.624   1.486  0.00  0.00     0.009 A 
ENDBRANCH   8   9
ENDBRANCH   7   8
ENDBRANCH   2   7
BRANCH   1  16
ATOM     16  C   UNL d   1      -0.900  -2.432  -0.033  0.00  0.00     0.064 A 
ATOM     17  C   UNL d   1      -2.072  -2.799  -0.734  0.00  0.00     0.083 A 
ATOM     18  C   UNL d   1      -2.509  -4.143  -0.699  0.00  0.00     0.058 A 
ATOM     19 CL   UNL d   1      -2.935  -1.690  -1.764  0.00  0.00    -0.080 Cl
ATOM     20 CL   UNL d   1      -3.942  -4.686  -1.510  0.00  0.00    -0.082 Cl
ATOM     21  C   UNL d   1      -1.783  -5.112  -0.005  0.00  0.00     0.026 A 
ATOM     22  C   UNL d   1      -0.631  -4.755   0.682  0.00  0.00     0.004 A 
ATOM     23  C   UNL d   1      -0.206  -3.425   0.687  0.00  0.00     0.032 A 
ENDBRANCH   1  16
TORSDOF 4
