REMARK  1 active torsions:
REMARK  status: ('A' for Active; 'I' for Inactive)
REMARK    1  A    between atoms: O_18  and  C_8 
ROOT
ATOM      1  C   UNL d   1      -0.121  -1.329  -0.000  0.00  0.00     0.085 A 
ATOM      2  C   UNL d   1       0.305   0.018   0.001  0.00  0.00     0.072 A 
ATOM      3  N   UNL d   1      -1.442  -1.637   0.001  0.00  0.00    -0.351 N 
ATOM      4  HN  UNL d   1      -1.750  -2.609   0.001  1.00  0.00     0.166 HD
ATOM      5  N   UNL d   1      -0.615   1.014   0.002  0.00  0.00    -0.352 N 
ATOM      6  HN  UNL d   1      -0.319   1.991   0.003  1.00  0.00     0.166 HD
ATOM      7  C   UNL d   1       0.849  -2.334  -0.002  0.00  0.00     0.097 A 
ATOM      8  C   UNL d   1       2.215  -2.035  -0.003  0.00  0.00     0.101 A 
ATOM      9  C   UNL d   1       1.685   0.324  -0.000  0.00  0.00     0.006 A 
ATOM     10  C   UNL d   1       2.655  -0.707  -0.002  0.00  0.00     0.011 A 
ATOM     11  C   UNL d   1      -2.339  -0.636   0.002  0.00  0.00     0.060 A 
ATOM     12  C   UNL d   1      -1.922   0.699   0.003  0.00  0.00     0.060 A 
ATOM     13  C   UNL d   1      -2.884   1.702   0.003  0.00  0.00     0.039 A 
ATOM     14  C   UNL d   1      -3.700  -0.916   0.004  0.00  0.00     0.039 A 
ATOM     15  C   UNL d   1      -4.267   1.431   0.003  0.00  0.00    -0.054 A 
ATOM     16  C   UNL d   1      -4.684   0.093   0.004  0.00  0.00    -0.054 A 
ATOM     17 CL   UNL d   1       0.378  -4.010  -0.003  0.00  0.00    -0.079 Cl
ATOM     18  C   UNL d   1       2.143   1.660   0.001  0.00  0.00     0.014 A 
ATOM     19  C   UNL d   1       4.026  -0.370  -0.003  0.00  0.00     0.015 A 
ATOM     20  C   UNL d   1      -5.189   2.620   0.002  0.00  0.00     0.049 C 
ATOM     21  C   UNL d   1      -6.118  -0.361   0.005  0.00  0.00     0.049 C 
ATOM     22  C   UNL d   1       4.446   0.958  -0.002  0.00  0.00     0.001 A 
ATOM     23  C   UNL d   1       3.503   1.976   0.000  0.00  0.00     0.001 A 
ENDROOT
BRANCH   8  24
ATOM     24  O   UNL d   1       3.150  -3.044  -0.004  0.00  0.00    -0.358 OA
ATOM     25  H   UNL d   1       2.669  -3.894  -0.004  0.00  0.00     0.217 HD
ENDBRANCH   8  24
TORSDOF 1
