REMARK  6 active torsions:
REMARK  status: ('A' for Active; 'I' for Inactive)
REMARK    1  A    between atoms: C_18  and  C_1 
REMARK    2  A    between atoms: C_8  and  C_21 
REMARK       I    between atoms: N_12  and  C_8 
REMARK    3  A    between atoms: C_19  and  N_12 
REMARK    4  A    between atoms: S_16  and  C_18 
REMARK    5  A    between atoms: C_21  and  S_16 
REMARK    6  A    between atoms: C_17  and  C_19 
ROOT
ATOM      1  C   UNL d   1      -1.905  -6.172   0.173  0.00  0.00     0.227 C 
ATOM      2  N   UNL d   1      -3.052  -5.414   0.033  0.00  0.00    -0.356 N 
ATOM      3  O   UNL d   1      -1.929  -7.402   0.217  0.00  0.00    -0.273 OA
ATOM      4  H   UNL d   1      -2.983  -4.451   0.342  0.00  0.00     0.162 HD
ENDROOT
BRANCH   1   5
ATOM      5  C   UNL d   1      -0.577  -5.433   0.155  0.00  0.00     0.176 C 
BRANCH   5   6
ATOM      6  S   UNL d   1      -0.593  -3.852   1.052  0.00  0.00    -0.155 SA
BRANCH   6   7
ATOM      7  C   UNL d   1       1.200  -3.523   0.976  0.00  0.00     0.114 C 
BRANCH   7   8
ATOM      8  C   UNL d   1       1.557  -2.180   1.541  0.00  0.00    -0.031 A 
ATOM      9  C   UNL d   1       1.504  -1.008   0.809  0.00  0.00     0.059 A 
ATOM     10  S   UNL d   1       2.043   0.350   1.678  0.00  0.00    -0.101 SA
ATOM     11  C   UNL d   1       2.374  -0.588   3.082  0.00  0.00     0.015 A 
ATOM     12  C   UNL d   1       2.055  -1.936   2.885  0.00  0.00    -0.011 A 
ATOM     13  C   UNL d   1       2.904  -0.117   4.300  0.00  0.00     0.019 A 
ATOM     14  C   UNL d   1       2.272  -2.823   3.973  0.00  0.00     0.013 A 
ATOM     15  C   UNL d   1       2.793  -2.359   5.186  0.00  0.00     0.001 A 
ATOM     16  C   UNL d   1       3.108  -1.018   5.345  0.00  0.00     0.001 A 
ENDBRANCH   7   8
ENDBRANCH   6   7
ENDBRANCH   5   6
ENDBRANCH   1   5
BRANCH   2  17
ATOM     17  C   UNL d   1      -4.326  -6.091   0.145  0.00  0.00     0.161 C 
BRANCH  17  18
ATOM     18  C   UNL d   1      -5.556  -5.329  -0.288  0.00  0.00    -0.038 A 
ATOM     19  C   UNL d   1      -5.532  -4.070  -0.910  0.00  0.00     0.048 A 
ATOM     20  C   UNL d   1      -6.739  -3.507  -1.288  0.00  0.00     0.105 A 
ATOM     21  O   UNL d   1      -6.895  -2.304  -1.908  0.00  0.00    -0.323 OA
ATOM     22  C   UNL d   1      -7.942  -4.138  -1.075  0.00  0.00     0.105 A 
ATOM     23  C   UNL d   1      -8.326  -2.281  -2.102  0.00  0.00     0.352 A 
ATOM     24  O   UNL d   1      -8.999  -3.420  -1.531  0.00  0.00    -0.323 OA
ATOM     25  C   UNL d   1      -8.014  -5.372  -0.473  0.00  0.00     0.040 A 
ATOM     26  C   UNL d   1      -6.811  -5.966  -0.082  0.00  0.00     0.012 A 
ENDBRANCH  17  18
ENDBRANCH   2  17
TORSDOF 6
