REMARK  2 active torsions:
REMARK  status: ('A' for Active; 'I' for Inactive)
REMARK    1  A    between atoms: N_2  and  C_1 
REMARK    2  A    between atoms: C_6  and  N_2 
ROOT
ATOM      1  N   UNL d   1      -1.328  -1.947  -0.505  0.00  0.00    -0.335 N 
ATOM      2  HN  UNL d   1      -2.329  -1.755  -0.500  1.00  0.00     0.168 HD
ENDROOT
BRANCH   1   3
ATOM      3  C   UNL d   1      -0.527  -1.000  -0.154  0.00  0.00     0.141 C 
ATOM      4  N   UNL d   1      -0.977   0.199   0.320  0.00  0.00    -0.361 N 
ATOM      5  C   UNL d   1      -0.083   0.910   1.231  0.00  0.00     0.033 C 
ATOM      6  H   UNL d   1      -1.974   0.229   0.484  0.00  0.00     0.162 HD
ATOM      7  C   UNL d   1       0.322   2.252   0.612  0.00  0.00     0.039 C 
ATOM      8  C   UNL d   1      -0.811   1.145   2.558  0.00  0.00     0.039 C 
ATOM      9  C   UNL d   1       1.154   0.007   1.438  0.00  0.00     0.112 C 
ATOM     10  S   UNL d   1       1.228  -1.032  -0.057  0.00  0.00    -0.092 SA
ENDBRANCH   1   3
BRANCH   1  11
ATOM     11  C   UNL d   1      -0.901  -3.229  -0.896  0.00  0.00     0.073 A 
ATOM     12  C   UNL d   1      -1.433  -3.820  -2.050  0.00  0.00     0.143 A 
ATOM     13  F   UNL d   1      -2.315  -3.148  -2.808  0.00  0.00    -0.204 F 
ATOM     14  C   UNL d   1      -1.092  -5.120  -2.432  0.00  0.00     0.044 A 
ATOM     15  C   UNL d   1      -0.196  -5.856  -1.662  0.00  0.00     0.003 A 
ATOM     16  C   UNL d   1       0.328  -5.302  -0.498  0.00  0.00     0.002 A 
ATOM     17  C   UNL d   1      -0.049  -4.013  -0.105  0.00  0.00     0.033 A 
ENDBRANCH   1  11
TORSDOF 2
