REMARK  7 active torsions:
REMARK  status: ('A' for Active; 'I' for Inactive)
REMARK    1  A    between atoms: S_9  and  C_1 
REMARK    2  A    between atoms: N_6  and  C_2 
REMARK    3  A    between atoms: C_15  and  N_3 
REMARK    4  A    between atoms: C_5  and  S_9 
REMARK    5  A    between atoms: O_21  and  C_22 
REMARK    6  A    between atoms: C_23  and  O_21 
REMARK    7  A    between atoms: C_26  and  C_23 
ROOT
ATOM      1  C   UNL d   1      -0.295   0.834  -0.321  0.00  0.00     0.177 A 
ATOM      2  N   UNL d   1       1.007   0.563  -0.035  0.00  0.00    -0.241 N 
ATOM      3  N   UNL d   1      -1.143  -0.086   0.043  0.00  0.00    -0.275 N 
ATOM      4  HN  UNL d   1      -2.156  -0.096  -0.080  1.00  0.00     0.189 HD
ATOM      5  C   UNL d   1       0.978  -0.620   0.664  0.00  0.00     0.347 A 
ATOM      6  N   UNL d   1      -0.352  -1.038   0.629  0.00  0.00    -0.249 N 
ATOM      7  O   UNL d   1       1.879  -1.189   1.259  0.00  0.00    -0.245 OA
ATOM      8  H   UNL d   1      -0.727  -1.843   1.115  0.00  0.00     0.192 HD
ENDROOT
BRANCH   2   9
ATOM      9  C   UNL d   1       2.091   1.443  -0.037  0.00  0.00     0.046 A 
ATOM     10  C   UNL d   1       3.024   1.377  -1.072  0.00  0.00     0.033 A 
ATOM     11  C   UNL d   1       4.077   2.292  -1.111  0.00  0.00     0.039 A 
ATOM     12  C   UNL d   1       4.201   3.273  -0.124  0.00  0.00     0.069 A 
ATOM     13  C   UNL d   1       3.293   3.301   0.937  0.00  0.00     0.039 A 
ATOM     14  C   UNL d   1       2.231   2.396   0.975  0.00  0.00     0.033 A 
BRANCH  12  15
ATOM     15  O   UNL d   1       5.241   4.146  -0.298  0.00  0.00    -0.347 OA
BRANCH  15  16
ATOM     16  C   UNL d   1       5.129   5.387   0.399  0.00  0.00     0.214 C 
BRANCH  16  17
ATOM     17  C   UNL d   1       6.037   6.403  -0.246  0.00  0.00    -0.034 A 
ATOM     18  C   UNL d   1       5.499   7.506  -0.924  0.00  0.00     0.009 A 
ATOM     19  C   UNL d   1       6.336   8.463  -1.499  0.00  0.00     0.001 A 
ATOM     20  C   UNL d   1       7.719   8.323  -1.407  0.00  0.00     0.000 A 
ATOM     21  C   UNL d   1       8.266   7.224  -0.746  0.00  0.00     0.001 A 
ATOM     22  C   UNL d   1       7.430   6.267  -0.169  0.00  0.00     0.009 A 
ENDBRANCH  16  17
ENDBRANCH  15  16
ENDBRANCH  12  15
ENDBRANCH   2   9
BRANCH   1  23
ATOM     23  S   UNL d   1      -0.774   2.308  -1.088  0.00  0.00    -0.027 SA
BRANCH  23  24
ATOM     24  C   UNL d   1      -0.755   1.730  -2.737  0.00  0.00     0.121 A 
ATOM     25  S   UNL d   1      -1.733   2.446  -3.957  0.00  0.00    -0.039 SA
ATOM     26  C   UNL d   1      -1.104   1.337  -5.077  0.00  0.00     0.161 A 
ATOM     27  C   UNL d   1      -0.182   0.507  -4.484  0.00  0.00     0.133 A 
ATOM     28  N   UNL d   1       0.027   0.747  -3.135  0.00  0.00    -0.352 N 
ATOM     29  HN  UNL d   1       0.685   0.241  -2.542  1.00  0.00     0.166 HD
BRANCH  26  30
ATOM     30  N   UNL d   1      -1.524   1.318  -6.441  0.00  0.00    -0.107 N 
ATOM     31  O   UNL d   1      -1.034   0.431  -7.153  0.00  0.00    -0.531 OA
ATOM     32  O   UNL d   1      -2.334   2.175  -6.815  0.00  0.00    -0.531 OA
ENDBRANCH  26  30
ENDBRANCH  23  24
ENDBRANCH   1  23
TORSDOF 7
