REMARK  7 active torsions:
REMARK  status: ('A' for Active; 'I' for Inactive)
REMARK    1  A    between atoms: C_2  and  S_1 
REMARK    2  A    between atoms: C_7  and  S_1 
REMARK    3  A    between atoms: C_3  and  C_2 
REMARK    4  A    between atoms: N_21  and  C_3 
REMARK    5  A    between atoms: C_4  and  O_12 
REMARK       I    between atoms: N_9  and  C_4 
REMARK    6  A    between atoms: O_12  and  N_5 
REMARK    7  A    between atoms: C_8  and  N_9 
ROOT
ATOM      1  C   UNL d   1       0.885   0.413  -2.562  0.00  0.00     0.110 C 
ATOM      2  N   UNL d   1       1.774   1.321  -2.276  0.00  0.00    -0.243 N 
ATOM      3  HN  UNL d   1       2.427   1.742  -2.938  1.00  0.00     0.196 HD
ENDROOT
BRANCH   1   4
ATOM      4  C   UNL d   1       0.774  -0.050  -3.989  0.00  0.00     0.223 C 
BRANCH   4   5
ATOM      5  S   UNL d   1      -0.078   1.129  -4.994  0.00  0.00     0.182 S 
ATOM      6  O   UNL d   1      -1.290   1.546  -4.316  0.00  0.00    -0.222 OA
ATOM      7  O   UNL d   1      -0.161   0.563  -6.331  0.00  0.00    -0.222 OA
BRANCH   5   8
ATOM      8  C   UNL d   1       0.995   2.545  -5.123  0.00  0.00     0.059 A 
ATOM      9  C   UNL d   1       2.019   2.540  -6.079  0.00  0.00     0.026 A 
ATOM     10  C   UNL d   1       2.796   3.686  -6.259  0.00  0.00     0.044 A 
ATOM     11  C   UNL d   1       2.537   4.819  -5.493  0.00  0.00     0.116 A 
ATOM     12  C   UNL d   1       1.520   4.829  -4.543  0.00  0.00     0.044 A 
ATOM     13  F   UNL d   1       3.271   5.922  -5.684  0.00  0.00    -0.206 F 
ATOM     14  C   UNL d   1       0.737   3.688  -4.358  0.00  0.00     0.026 A 
ENDBRANCH   5   8
ENDBRANCH   4   5
ENDBRANCH   1   4
BRANCH   1  15
ATOM     15  N   UNL d   1       0.070  -0.173  -1.625  0.00  0.00    -0.387 N 
ATOM     16  H   UNL d   1      -0.405  -1.050  -1.808  0.00  0.00     0.157 HD
ATOM     17  H   UNL d   1       0.292   0.009  -0.651  0.00  0.00     0.157 HD
ENDBRANCH   1  15
BRANCH   2  18
ATOM     18  O   UNL d   1       1.687   1.629  -0.894  0.00  0.00    -0.179 OA
BRANCH  18  19
ATOM     19  C   UNL d   1       2.549   2.628  -0.488  0.00  0.00     0.387 C 
ATOM     20  N   UNL d   1       3.410   3.056  -1.471  0.00  0.00    -0.301 N 
ATOM     21  H   UNL d   1       3.268   2.559  -2.343  0.00  0.00     0.171 HD
ATOM     22  O   UNL d   1       2.504   3.031   0.668  0.00  0.00    -0.236 OA
BRANCH  20  23
ATOM     23  C   UNL d   1       4.424   4.026  -1.375  0.00  0.00     0.040 A 
ATOM     24  C   UNL d   1       4.664   4.781  -0.223  0.00  0.00     0.053 A 
ATOM     25  C   UNL d   1       5.698   5.721  -0.198  0.00  0.00     0.037 A 
ATOM     26 CL   UNL d   1       5.978   6.641   1.231  0.00  0.00    -0.084 Cl
ATOM     27  C   UNL d   1       6.505   5.921  -1.311  0.00  0.00     0.048 A 
ATOM     28  C   UNL d   1       6.266   5.172  -2.459  0.00  0.00     0.037 A 
ATOM     29  C   UNL d   1       5.232   4.233  -2.498  0.00  0.00     0.053 A 
ATOM     30 CL   UNL d   1       7.263   5.399  -3.843  0.00  0.00    -0.084 Cl
ENDBRANCH  20  23
ENDBRANCH  18  19
ENDBRANCH   2  18
TORSDOF 7
