REMARK  5 active torsions:
REMARK  status: ('A' for Active; 'I' for Inactive)
REMARK    1  A    between atoms: C_10  and  N_1 
REMARK    2  A    between atoms: C_4  and  C_3 
REMARK    3  A    between atoms: C_8  and  N_11 
REMARK    4  A    between atoms: C_9  and  C_10 
REMARK       I    between atoms: N_12  and  C_9 
REMARK    5  A    between atoms: N_11  and  N_12 
ROOT
ATOM      1  C   UNL d   1      -1.412  -2.280  -0.272  0.00  0.00     0.236 C 
ENDROOT
BRANCH   1   2
ATOM      2  C   UNL d   1      -2.940  -2.291  -0.228  0.00  0.00     0.254 C 
ATOM      3  N   UNL d   1      -3.568  -1.065  -0.153  0.00  0.00    -0.266 N 
ATOM      4  H   UNL d   1      -3.092  -0.204   0.106  0.00  0.00     0.190 HD
ATOM      5  O   UNL d   1      -3.583  -3.329  -0.417  0.00  0.00    -0.270 OA
BRANCH   3   6
ATOM      6  N   UNL d   1      -4.970  -1.062  -0.223  0.00  0.00    -0.274 N 
ATOM      7  H   UNL d   1      -5.389  -1.987  -0.238  0.00  0.00     0.189 HD
BRANCH   6   8
ATOM      8  C   UNL d   1      -5.721   0.067  -0.063  0.00  0.00     0.186 C 
ATOM      9  S   UNL d   1      -5.110   1.591   0.254  0.00  0.00    -0.040 SA
ATOM     10  N   UNL d   1      -7.070  -0.083  -0.204  0.00  0.00    -0.370 N 
ATOM     11  C   UNL d   1      -7.808  -1.276  -0.569  0.00  0.00     0.148 C 
ATOM     12  H   UNL d   1      -7.607   0.761  -0.032  0.00  0.00     0.161 HD
ENDBRANCH   6   8
ENDBRANCH   3   6
ENDBRANCH   1   2
BRANCH   1  13
ATOM     13  N   UNL d   1      -0.752  -1.115   0.314  0.00  0.00    -0.316 N 
ATOM     14  C   UNL d   1      -0.580  -1.105   1.696  0.00  0.00     0.248 A 
ATOM     15  C   UNL d   1       0.196   0.032   2.250  0.00  0.00     0.090 A 
ATOM     16  O   UNL d   1      -1.028  -1.958   2.455  0.00  0.00    -0.268 OA
ATOM     17  C   UNL d   1       0.717   0.972   1.442  0.00  0.00     0.054 A 
ATOM     18  C   UNL d   1       0.510   0.868   0.008  0.00  0.00     0.033 A 
ATOM     19  C   UNL d   1      -0.203  -0.144  -0.504  0.00  0.00     0.095 A 
BRANCH  17  20
ATOM     20  C   UNL d   1       1.483   2.144   1.980  0.00  0.00     0.417 C 
ATOM     21  F   UNL d   1       1.379   3.241   1.187  0.00  0.00    -0.166 F 
ATOM     22  F   UNL d   1       1.052   2.514   3.213  0.00  0.00    -0.166 F 
ATOM     23  F   UNL d   1       2.806   1.865   2.093  0.00  0.00    -0.166 F 
ENDBRANCH  17  20
ENDBRANCH   1  13
TORSDOF 5
