REMARK  7 active torsions:
REMARK  status: ('A' for Active; 'I' for Inactive)
REMARK    1  A    between atoms: C_7  and  N_1 
REMARK    2  A    between atoms: O_16  and  C_2 
REMARK    3  A    between atoms: C_12  and  C_3 
REMARK    4  A    between atoms: C_8  and  C_10 
REMARK    5  A    between atoms: C_9  and  C_11 
REMARK    6  A    between atoms: O_24  and  C_12 
REMARK    7  A    between atoms: C_25  and  O_24 
ROOT
ATOM      1  C   UNL d   1      -0.376  -2.703   0.013  0.00  0.00     0.058 A 
ATOM      2  C   UNL d   1      -1.616  -4.589  -0.887  0.00  0.00     0.050 A 
ATOM      3  C   UNL d   1      -0.221  -4.872   1.107  0.00  0.00     0.050 A 
ATOM      4  C   UNL d   1       0.125  -3.515   1.039  0.00  0.00     0.047 A 
ATOM      5  C   UNL d   1      -1.281  -3.226  -0.920  0.00  0.00     0.047 A 
ATOM      6  C   UNL d   1      -1.068  -5.404   0.121  0.00  0.00     0.032 A 
ENDROOT
BRANCH   1   7
ATOM      7  N   UNL d   1       0.039  -1.353  -0.096  0.00  0.00    -0.216 N 
ATOM      8  C   UNL d   1       1.250  -0.787   0.285  0.00  0.00     0.195 A 
ATOM      9  C   UNL d   1       1.079   0.562   0.042  0.00  0.00     0.174 A 
ATOM     10  N   UNL d   1      -0.163   0.765  -0.515  0.00  0.00    -0.274 N 
ATOM     11  N   UNL d   1      -0.754  -0.412  -0.655  0.00  0.00    -0.012 NA
ATOM     12  HN  UNL d   1      -0.560   1.668  -0.776  1.00  0.00     0.184 HD
BRANCH   8  13
ATOM     13  O   UNL d   1       2.311  -1.460   0.733  0.00  0.00    -0.343 OA
ATOM     14  H   UNL d   1       2.303  -2.369   0.382  0.00  0.00     0.219 HD
ENDBRANCH   8  13
BRANCH   9  15
ATOM     15  C   UNL d   1       2.024   1.628   0.320  0.00  0.00     0.315 C 
ATOM     16  O   UNL d   1       3.131   1.457   0.809  0.00  0.00    -0.257 OA
BRANCH  15  17
ATOM     17  O   UNL d   1       1.485   2.856   0.060  0.00  0.00    -0.317 OA
BRANCH  17  18
ATOM     18  C   UNL d   1       2.075   3.937   0.786  0.00  0.00     0.175 C 
ATOM     19  C   UNL d   1       1.426   3.980   2.159  0.00  0.00     0.034 C 
ENDBRANCH  17  18
ENDBRANCH  15  17
ENDBRANCH   9  15
ENDBRANCH   1   7
BRANCH   3  20
ATOM     20  C   UNL d   1       0.290  -5.744   2.232  0.00  0.00     0.417 C 
ATOM     21  F   UNL d   1       1.058  -5.066   3.130  0.00  0.00    -0.166 F 
ATOM     22  F   UNL d   1      -0.718  -6.309   2.949  0.00  0.00    -0.166 F 
ATOM     23  F   UNL d   1       1.060  -6.770   1.781  0.00  0.00    -0.166 F 
ENDBRANCH   3  20
BRANCH   2  24
ATOM     24  C   UNL d   1      -2.545  -5.191  -1.918  0.00  0.00     0.417 C 
ATOM     25  F   UNL d   1      -3.022  -4.288  -2.817  0.00  0.00    -0.166 F 
ATOM     26  F   UNL d   1      -1.937  -6.164  -2.650  0.00  0.00    -0.166 F 
ATOM     27  F   UNL d   1      -3.636  -5.772  -1.350  0.00  0.00    -0.166 F 
ENDBRANCH   2  24
TORSDOF 7
