REMARK  6 active torsions:
REMARK  status: ('A' for Active; 'I' for Inactive)
REMARK    1  A    between atoms: N_2  and  S_1 
REMARK    2  A    between atoms: C_3  and  S_1 
REMARK    3  A    between atoms: C_7  and  N_2 
REMARK    4  A    between atoms: C_10  and  N_2 
REMARK       I    between atoms: C_6  and  N_8 
REMARK    5  A    between atoms: C_14  and  C_7 
REMARK    6  A    between atoms: N_8  and  C_13 
ROOT
ATOM      1  S   UNL d   1       1.216  -0.222  -0.217  0.00  0.00     0.261 S 
ATOM      2  O   UNL d   1       0.216  -0.816  -1.071  0.00  0.00    -0.200 OA
ATOM      3  O   UNL d   1       2.539  -0.799  -0.152  0.00  0.00    -0.200 OA
ENDROOT
BRANCH   1   4
ATOM      4  N   UNL d   1       0.595  -0.006   1.399  0.00  0.00    -0.298 N 
BRANCH   4   5
ATOM      5  C   UNL d   1      -0.913   0.134   1.456  0.00  0.00     0.174 C 
BRANCH   5   6
ATOM      6  C   UNL d   1      -1.729  -1.090   1.071  0.00  0.00    -0.040 A 
ATOM      7  C   UNL d   1      -1.646  -2.303   1.772  0.00  0.00     0.009 A 
ATOM      8  C   UNL d   1      -2.236  -3.466   1.277  0.00  0.00     0.001 A 
ATOM      9  C   UNL d   1      -2.977  -3.423   0.103  0.00  0.00     0.000 A 
ATOM     10  C   UNL d   1      -3.159  -2.209  -0.553  0.00  0.00     0.001 A 
ATOM     11  C   UNL d   1      -2.548  -1.050  -0.069  0.00  0.00     0.009 A 
ENDBRANCH   5   6
ENDBRANCH   4   5
BRANCH   4  12
ATOM     12  C   UNL d   1       1.180  -0.876   2.504  0.00  0.00     0.088 C 
ATOM     13  C   UNL d   1       2.695  -0.734   2.682  0.00  0.00     0.032 C 
ATOM     14  C   UNL d   1       0.581  -0.528   3.884  0.00  0.00     0.032 C 
ENDBRANCH   4  12
ENDBRANCH   1   4
BRANCH   1  15
ATOM     15  C   UNL d   1       1.452   1.437  -0.869  0.00  0.00     0.079 A 
ATOM     16  C   UNL d   1       2.717   1.817  -1.332  0.00  0.00     0.027 A 
ATOM     17  C   UNL d   1       2.880   3.017  -2.034  0.00  0.00     0.031 A 
ATOM     18  C   UNL d   1       1.789   3.862  -2.277  0.00  0.00     0.034 A 
ATOM     19  C   UNL d   1       0.532   3.481  -1.804  0.00  0.00     0.031 A 
ATOM     20  C   UNL d   1       0.358   2.263  -1.126  0.00  0.00     0.027 A 
BRANCH  18  21
ATOM     21  N   UNL d   1       2.022   5.042  -3.019  0.00  0.00    -0.328 N 
ATOM     22  C   UNL d   1       1.093   6.005  -3.369  0.00  0.00     0.218 C 
ATOM     23  O   UNL d   1      -0.097   6.020  -3.070  0.00  0.00    -0.274 OA
ATOM     24  C   UNL d   1       1.668   7.117  -4.213  0.00  0.00     0.117 C 
ATOM     25  H   UNL d   1       2.972   5.179  -3.341  0.00  0.00     0.169 HD
ENDBRANCH  18  21
ENDBRANCH   1  15
TORSDOF 6
