REMARK  4 active torsions:
REMARK  status: ('A' for Active; 'I' for Inactive)
REMARK    1  A    between atoms: C_2  and  C_1 
REMARK       I    between atoms: N_7  and  C_2 
REMARK    2  A    between atoms: N_3  and  N_7 
REMARK    3  A    between atoms: N_12  and  C_5 
REMARK    4  A    between atoms: C_9  and  C_10 
ROOT
ATOM      1  N   UNL d   1      -1.134   3.785   0.131  0.00  0.00    -0.308 N 
ATOM      2  HN  UNL d   1      -1.663   2.942   0.352  1.00  0.00     0.186 HD
ATOM      3  C   UNL d   1      -1.734   4.912  -0.092  0.00  0.00     0.119 C 
ENDROOT
BRANCH   1   4
ATOM      4  N   UNL d   1       0.227   3.764   0.061  0.00  0.00    -0.266 N 
ATOM      5  C   UNL d   1       0.874   2.550   0.256  0.00  0.00     0.271 C 
ATOM      6  O   UNL d   1       0.300   1.489   0.506  0.00  0.00    -0.266 OA
ATOM      7  H   UNL d   1       0.725   4.587  -0.258  0.00  0.00     0.190 HD
BRANCH   5   8
ATOM      8  C   UNL d   1       2.362   2.550   0.134  0.00  0.00     0.054 A 
ATOM      9  C   UNL d   1       3.021   1.385  -0.322  0.00  0.00     0.021 A 
ATOM     10  C   UNL d   1       4.418   1.397  -0.418  0.00  0.00     0.024 A 
ATOM     11  C   UNL d   1       5.158   2.499   0.012  0.00  0.00     0.002 A 
ATOM     12  C   UNL d   1       4.506   3.625   0.509  0.00  0.00     0.001 A 
ATOM     13  C   UNL d   1       3.111   3.656   0.569  0.00  0.00     0.019 A 
BRANCH   9  14
ATOM     14  N   UNL d   1       2.322   0.302  -0.898  0.00  0.00    -0.302 NA
ATOM     15  H   UNL d   1       1.362   0.254  -0.529  0.00  0.00     0.124 HD
ATOM     16  H   UNL d   1       2.796  -0.589  -0.796  0.00  0.00     0.124 HD
ENDBRANCH   9  14
ENDBRANCH   5   8
ENDBRANCH   1   4
BRANCH   3  17
ATOM     17  C   UNL d   1      -3.220   5.000  -0.058  0.00  0.00    -0.008 A 
ATOM     18  C   UNL d   1      -3.917   6.228  -0.249  0.00  0.00    -0.014 A 
ATOM     19  C   UNL d   1      -5.338   6.194  -0.199  0.00  0.00    -0.025 A 
ATOM     20  C   UNL d   1      -3.312   7.488  -0.485  0.00  0.00     0.013 A 
ATOM     21  C   UNL d   1      -6.083   7.372  -0.375  0.00  0.00     0.012 A 
ATOM     22  C   UNL d   1      -6.013   4.984   0.026  0.00  0.00     0.012 A 
ATOM     23  C   UNL d   1      -5.454   8.592  -0.605  0.00  0.00     0.001 A 
ATOM     24  C   UNL d   1      -4.069   8.651  -0.661  0.00  0.00     0.001 A 
ATOM     25  C   UNL d   1      -5.313   3.796   0.206  0.00  0.00     0.002 A 
ATOM     26  C   UNL d   1      -3.925   3.804   0.166  0.00  0.00     0.014 A 
ENDBRANCH   3  17
TORSDOF 4
