REMARK  1 active torsions:
REMARK  status: ('A' for Active; 'I' for Inactive)
REMARK       I    between atoms: N_2  and  C_1 
REMARK    1  A    between atoms: C_3  and  N_2 
ROOT
ATOM      1  C   UNL d   1       1.176   1.585   2.002  0.00  0.00     0.036 A 
ATOM      2  C   UNL d   1       2.261   2.414   1.711  0.00  0.00     0.053 A 
ATOM      3  C   UNL d   1       2.854   3.172   2.723  0.00  0.00     0.036 A 
ATOM      4 CL   UNL d   1       4.189   4.197   2.354  0.00  0.00    -0.084 Cl
ATOM      5  C   UNL d   1       1.287   2.298   4.326  0.00  0.00     0.004 A 
ATOM      6  C   UNL d   1       0.685   1.544   3.315  0.00  0.00     0.029 A 
ATOM      7  C   UNL d   1       2.377   3.113   4.029  0.00  0.00     0.024 A 
ENDROOT
BRANCH   1   8
ATOM      8  N   UNL d   1       0.523   0.780   1.044  0.00  0.00    -0.327 N 
ATOM      9  C   UNL d   1       0.932   0.534  -0.254  0.00  0.00     0.218 C 
ATOM     10  O   UNL d   1       1.972   0.920  -0.779  0.00  0.00    -0.274 OA
ATOM     11  C   UNL d   1      -0.029  -0.337  -1.022  0.00  0.00     0.117 C 
ATOM     12  H   UNL d   1      -0.296   0.281   1.367  0.00  0.00     0.169 HD
ENDBRANCH   1   8
TORSDOF 1
