REMARK  4 active torsions:
REMARK  status: ('A' for Active; 'I' for Inactive)
REMARK    1  A    between atoms: C_3  and  N_1 
REMARK    2  A    between atoms: S_11  and  C_2 
REMARK    3  A    between atoms: C_17  and  S_11 
REMARK    4  A    between atoms: C_18  and  C_17 
ROOT
ATOM      1  N   UNL d   1      -0.293   1.155   0.012  0.00  0.00    -0.286 N 
ATOM      2  C   UNL d   1       1.025   0.725   0.023  0.00  0.00     0.167 A 
ATOM      3  N   UNL d   1       1.073  -0.588   0.028  0.00  0.00    -0.279 N 
ATOM      4  HN  UNL d   1       1.918  -1.159  -0.005  1.00  0.00     0.189 HD
ATOM      5  N   UNL d   1      -0.219  -1.055   0.088  0.00  0.00    -0.294 N 
ATOM      6  HN  UNL d   1      -0.506  -2.034   0.104  1.00  0.00     0.187 HD
ATOM      7  C   UNL d   1      -1.018  -0.011   0.119  0.00  0.00     0.207 A 
ENDROOT
BRANCH   1   8
ATOM      8  C   UNL d   1      -0.832   2.465  -0.085  0.00  0.00     0.045 A 
ATOM      9  C   UNL d   1      -0.156   3.453  -0.814  0.00  0.00     0.069 A 
ATOM     10  C   UNL d   1      -0.653   4.752  -0.864  0.00  0.00     0.104 A 
ATOM     11  O   UNL d   1       0.091   5.659  -1.574  0.00  0.00    -0.346 OA
ATOM     12  C   UNL d   1      -1.852   5.070  -0.225  0.00  0.00     0.102 A 
ATOM     13  C   UNL d   1      -0.298   7.003  -1.270  0.00  0.00     0.202 C 
ATOM     14  C   UNL d   1      -1.812   7.131  -1.279  0.00  0.00     0.202 C 
ATOM     15  O   UNL d   1      -2.401   6.326  -0.249  0.00  0.00    -0.346 OA
ATOM     16  C   UNL d   1      -2.544   4.088   0.482  0.00  0.00     0.042 A 
ATOM     17  C   UNL d   1      -2.047   2.781   0.542  0.00  0.00     0.033 A 
ENDBRANCH   1   8
BRANCH   2  18
ATOM     18  S   UNL d   1       2.381   1.774   0.270  0.00  0.00    -0.087 SA
BRANCH  18  19
ATOM     19  C   UNL d   1       3.792   0.679  -0.026  0.00  0.00     0.121 C 
BRANCH  19  20
ATOM     20  C   UNL d   1       5.076   1.477   0.025  0.00  0.00    -0.049 A 
ATOM     21  C   UNL d   1       5.699   1.743   1.254  0.00  0.00     0.008 A 
ATOM     22  C   UNL d   1       6.856   2.523   1.309  0.00  0.00     0.001 A 
ATOM     23  C   UNL d   1       7.400   3.049   0.139  0.00  0.00     0.000 A 
ATOM     24  C   UNL d   1       6.785   2.801  -1.086  0.00  0.00     0.001 A 
ATOM     25  C   UNL d   1       5.627   2.023  -1.144  0.00  0.00     0.008 A 
ENDBRANCH  19  20
ENDBRANCH  18  19
ENDBRANCH   2  18
TORSDOF 4
