REMARK  7 active torsions:
REMARK  status: ('A' for Active; 'I' for Inactive)
REMARK    1  A    between atoms: S_9  and  C_2 
REMARK    2  A    between atoms: C_11  and  C_3 
REMARK       I    between atoms: C_8  and  N_10 
REMARK    3  A    between atoms: O_12  and  C_8 
REMARK    4  A    between atoms: C_16  and  S_9 
REMARK    5  A    between atoms: N_10  and  C_11 
REMARK    6  A    between atoms: C_14  and  O_12 
REMARK    7  A    between atoms: C_17  and  C_16 
ROOT
ATOM      1  N   UNL d   1       0.884   0.233   0.130  0.00  0.00    -0.318 N 
ATOM      2  C   UNL d   1       0.023   1.293   0.212  0.00  0.00     0.162 A 
ATOM      3  C   UNL d   1       0.082  -0.890   0.072  0.00  0.00     0.117 A 
ATOM      4  N   UNL d   1      -1.215   0.861   0.162  0.00  0.00    -0.278 N 
ATOM      5  HN  UNL d   1      -2.054   1.440   0.181  1.00  0.00     0.189 HD
ATOM      6  N   UNL d   1      -1.181  -0.506   0.080  0.00  0.00    -0.285 N 
ATOM      7  HN  UNL d   1      -1.993  -1.122   0.032  1.00  0.00     0.188 HD
ATOM      8  C   UNL d   1       2.324   0.250   0.121  0.00  0.00     0.160 C 
ENDROOT
BRANCH   3   9
ATOM      9  C   UNL d   1       0.546  -2.297  -0.062  0.00  0.00     0.203 C 
BRANCH   9  10
ATOM     10  N   UNL d   1       1.050  -2.812   1.188  0.00  0.00    -0.330 N 
ATOM     11  C   UNL d   1       2.372  -3.037   1.402  0.00  0.00     0.361 C 
ATOM     12  O   UNL d   1       3.258  -2.671   0.640  0.00  0.00    -0.238 OA
ATOM     13  H   UNL d   1       0.404  -3.128   1.900  0.00  0.00     0.165 HD
BRANCH  11  14
ATOM     14  O   UNL d   1       2.554  -3.692   2.572  0.00  0.00    -0.294 OA
BRANCH  14  15
ATOM     15  C   UNL d   1       3.895  -3.883   3.101  0.00  0.00     0.061 C 
ATOM     16  C   UNL d   1       4.515  -2.521   3.444  0.00  0.00     0.046 C 
ATOM     17  C   UNL d   1       3.710  -4.695   4.392  0.00  0.00     0.046 C 
ATOM     18  C   UNL d   1       4.796  -4.690   2.155  0.00  0.00     0.046 C 
ENDBRANCH  14  15
ENDBRANCH  11  14
ENDBRANCH   9  10
ENDBRANCH   3   9
BRANCH   2  19
ATOM     19  S   UNL d   1       0.495   2.950   0.404  0.00  0.00    -0.088 SA
BRANCH  19  20
ATOM     20  C   UNL d   1      -1.073   3.618   1.033  0.00  0.00     0.121 C 
BRANCH  20  21
ATOM     21  C   UNL d   1      -1.012   5.083   1.389  0.00  0.00    -0.049 A 
ATOM     22  C   UNL d   1      -1.496   6.052   0.497  0.00  0.00     0.008 A 
ATOM     23  C   UNL d   1      -1.538   7.398   0.865  0.00  0.00     0.001 A 
ATOM     24  C   UNL d   1      -1.084   7.793   2.122  0.00  0.00     0.000 A 
ATOM     25  C   UNL d   1      -0.572   6.845   3.005  0.00  0.00     0.001 A 
ATOM     26  C   UNL d   1      -0.531   5.497   2.640  0.00  0.00     0.008 A 
ENDBRANCH  20  21
ENDBRANCH  19  20
ENDBRANCH   2  19
TORSDOF 7
