REMARK  2 active torsions:
REMARK  status: ('A' for Active; 'I' for Inactive)
REMARK    1  A    between atoms: C_2  and  C_1 
REMARK       I    between atoms: N_4  and  C_2 
REMARK    2  A    between atoms: C_6  and  N_4 
ROOT
ATOM      1  C   UNL d   1      -1.557   2.508   0.529  0.00  0.00     0.263 C 
ATOM      2  N   UNL d   1      -1.086   3.605  -0.173  0.00  0.00    -0.321 N 
ATOM      3  O   UNL d   1      -2.620   2.505   1.143  0.00  0.00    -0.267 OA
ATOM      4  H   UNL d   1      -0.347   3.429  -0.847  0.00  0.00     0.169 HD
ENDROOT
BRANCH   2   5
ATOM      5  C   UNL d   1      -1.579   4.929  -0.110  0.00  0.00     0.057 A 
ATOM      6  C   UNL d   1      -1.194   5.857  -1.096  0.00  0.00     0.062 A 
ATOM      7  C   UNL d   1      -1.629   7.184  -1.044  0.00  0.00     0.050 A 
ATOM      8 CL   UNL d   1      -0.188   5.380  -2.421  0.00  0.00    -0.082 Cl
ATOM      9  C   UNL d   1      -2.436   7.600   0.011  0.00  0.00     0.035 A 
ATOM     10  C   UNL d   1      -2.816   6.703   1.004  0.00  0.00     0.026 A 
ATOM     11 CL   UNL d   1      -2.957   9.237   0.098  0.00  0.00    -0.084 Cl
ATOM     12  C   UNL d   1      -2.393   5.371   0.940  0.00  0.00     0.033 A 
ENDBRANCH   2   5
BRANCH   1  13
ATOM     13  C   UNL d   1      -0.718   1.318   0.471  0.00  0.00     0.073 A 
ATOM     14  S   UNL d   1       0.926   1.367   0.001  0.00  0.00    -0.096 SA
ATOM     15  C   UNL d   1       1.148  -0.289   0.365  0.00  0.00     0.057 A 
ATOM     16  C   UNL d   1      -0.013  -0.902   0.796  0.00  0.00    -0.054 A 
ATOM     17  C   UNL d   1      -1.090   0.039   0.841  0.00  0.00     0.031 A 
ATOM     18  C   UNL d   1      -0.126  -2.337   1.187  0.00  0.00     0.048 C 
ENDBRANCH   1  13
TORSDOF 2
