REMARK  2 active torsions:
REMARK  status: ('A' for Active; 'I' for Inactive)
REMARK    1  A    between atoms: C_9  and  N_1 
REMARK    2  A    between atoms: C_4  and  C_3 
ROOT
ATOM      1  N   UNL d   1       1.004   0.120   0.043  0.00  0.00    -0.365 N 
ATOM      2  HN  UNL d   1       0.553  -0.601   0.606  1.00  0.00     0.165 HD
ATOM      3  C   UNL d   1       0.281   0.984  -0.598  0.00  0.00     0.101 C 
ENDROOT
BRANCH   1   4
ATOM      4  C   UNL d   1       2.405   0.172  -0.033  0.00  0.00     0.032 A 
ATOM      5  C   UNL d   1       3.150   1.356   0.003  0.00  0.00     0.036 A 
ATOM      6  C   UNL d   1       4.559   1.338  -0.002  0.00  0.00    -0.054 A 
ATOM      7  C   UNL d   1       5.312   2.639   0.028  0.00  0.00     0.049 C 
ATOM      8  C   UNL d   1       5.234   0.101  -0.014  0.00  0.00    -0.056 A 
ATOM      9  C   UNL d   1       4.486  -1.083  -0.048  0.00  0.00     0.009 A 
ATOM     10  C   UNL d   1       6.735   0.022   0.033  0.00  0.00     0.049 C 
ATOM     11  C   UNL d   1       3.091  -1.043  -0.057  0.00  0.00     0.030 A 
ENDBRANCH   1   4
BRANCH   3  12
ATOM     12  C   UNL d   1      -1.199   0.927  -0.532  0.00  0.00     0.001 A 
ATOM     13  C   UNL d   1      -2.008   1.929  -1.084  0.00  0.00     0.045 A 
ATOM     14 CL   UNL d   1      -1.367   3.333  -1.860  0.00  0.00    -0.083 Cl
ATOM     15  C   UNL d   1      -3.402   1.819  -1.006  0.00  0.00     0.024 A 
ATOM     16  C   UNL d   1      -3.992   0.717  -0.383  0.00  0.00     0.002 A 
ATOM     17  C   UNL d   1      -3.191  -0.279   0.170  0.00  0.00     0.001 A 
ATOM     18  C   UNL d   1      -1.801  -0.174   0.098  0.00  0.00     0.014 A 
ENDBRANCH   3  12
TORSDOF 2
