REMARK  3 active torsions:
REMARK  status: ('A' for Active; 'I' for Inactive)
REMARK    1  A    between atoms: N_2  and  S_1 
REMARK    2  A    between atoms: C_3  and  S_1 
REMARK    3  A    between atoms: C_4  and  N_5 
ROOT
ATOM      1  N   UNL d   1       0.398   1.421   0.337  0.00  0.00    -0.304 N 
ATOM      2  N   UNL d   1       0.669   4.043  -0.866  0.00  0.00    -0.214 N 
ATOM      3  C   UNL d   1      -0.707   2.062  -0.446  0.00  0.00     0.155 C 
ATOM      4  C   UNL d   1       1.352   2.454   0.880  0.00  0.00     0.155 C 
ATOM      5  C   UNL d   1      -0.180   3.038  -1.514  0.00  0.00     0.161 C 
ATOM      6  C   UNL d   1       1.832   3.479  -0.175  0.00  0.00     0.161 C 
ENDROOT
BRANCH   1   7
ATOM      7  S   UNL d   1       1.089   0.023  -0.330  0.00  0.00     0.261 S 
ATOM      8  O   UNL d   1       2.219  -0.363   0.492  0.00  0.00    -0.200 OA
ATOM      9  O   UNL d   1       1.243   0.221  -1.751  0.00  0.00    -0.200 OA
BRANCH   7  10
ATOM     10  C   UNL d   1      -0.177  -1.216  -0.078  0.00  0.00     0.080 A 
ATOM     11  C   UNL d   1      -1.029  -1.587  -1.127  0.00  0.00     0.037 A 
ATOM     12  C   UNL d   1      -1.973  -2.619  -0.947  0.00  0.00    -0.025 A 
ATOM     13  C   UNL d   1      -2.835  -3.026  -1.980  0.00  0.00     0.012 A 
ATOM     14  C   UNL d   1      -2.050  -3.277   0.304  0.00  0.00    -0.026 A 
ATOM     15  C   UNL d   1      -3.760  -4.056  -1.783  0.00  0.00     0.001 A 
ATOM     16  C   UNL d   1      -3.842  -4.691  -0.547  0.00  0.00     0.001 A 
ATOM     17  C   UNL d   1      -2.992  -4.304   0.489  0.00  0.00     0.012 A 
ATOM     18  C   UNL d   1      -1.172  -2.905   1.335  0.00  0.00     0.014 A 
ATOM     19  C   UNL d   1      -0.236  -1.885   1.146  0.00  0.00     0.026 A 
ENDBRANCH   7  10
ENDBRANCH   1   7
BRANCH   2  20
ATOM     20  C   UNL d   1       0.814   5.225  -1.569  0.00  0.00     0.679 A 
ATOM     21  N   UNL d   1       1.982   5.888  -1.549  0.00  0.00    -0.202 N 
ATOM     22  C   UNL d   1       2.040   7.066  -2.207  0.00  0.00     0.107 A 
ATOM     23  HN  UNL d   1       2.794   5.516  -1.056  1.00  0.00     0.183 HD
ATOM     24  C   UNL d   1       0.974   7.629  -2.864  0.00  0.00     0.035 A 
ATOM     25  C   UNL d   1      -0.179   6.894  -2.820  0.00  0.00     0.107 A 
ATOM     26  N   UNL d   1      -0.275   5.708  -2.198  0.00  0.00    -0.202 N 
ATOM     27  HN  UNL d   1      -1.150   5.184  -2.203  1.00  0.00     0.183 HD
ENDBRANCH   2  20
TORSDOF 3
