REMARK  6 active torsions:
REMARK  status: ('A' for Active; 'I' for Inactive)
REMARK    1  A    between atoms: C_5  and  C_1 
REMARK    2  A    between atoms: N_2  and  C_4 
REMARK    3  A    between atoms: S_10  and  C_3 
REMARK       I    between atoms: C_7  and  N_11 
REMARK    4  A    between atoms: C_12  and  C_7 
REMARK    5  A    between atoms: C_16  and  S_10 
REMARK    6  A    between atoms: N_11  and  C_15 
ROOT
ATOM      1  C   UNL d   1      -1.635   0.024   0.262  0.00  0.00     0.084 A 
ATOM      2  C   UNL d   1      -0.756   1.068   0.554  0.00  0.00     0.089 A 
ATOM      3  C   UNL d   1       0.292  -1.342  -0.289  0.00  0.00     0.119 A 
ATOM      4  C   UNL d   1      -1.088  -1.199  -0.179  0.00  0.00     0.056 A 
ATOM      5  N   UNL d   1       0.599   0.920   0.471  0.00  0.00    -0.357 N 
ATOM      6  HN  UNL d   1       1.224   1.688   0.717  1.00  0.00     0.166 HD
ATOM      7  C   UNL d   1       1.095  -0.272   0.052  0.00  0.00     0.124 A 
ENDROOT
BRANCH   2   8
ATOM      8  S   UNL d   1      -1.347   2.616   1.165  0.00  0.00    -0.070 SA
BRANCH   8   9
ATOM      9  C   UNL d   1      -0.495   3.963   0.375  0.00  0.00     0.033 A 
ATOM     10  C   UNL d   1       0.146   4.087  -0.873  0.00  0.00     0.052 A 
ATOM     11  C   UNL d   1       0.872   5.275  -1.139  0.00  0.00     0.031 A 
ATOM     12  C   UNL d   1       0.895   6.353  -0.253  0.00  0.00     0.002 A 
ATOM     13  C   UNL d   1       0.195   6.269   0.934  0.00  0.00     0.002 A 
ATOM     14  C   UNL d   1      -0.479   5.089   1.240  0.00  0.00     0.021 A 
BRANCH  10  15
ATOM     15  N   UNL d   1       0.173   3.183  -1.966  0.00  0.00    -0.326 N 
ATOM     16  C   UNL d   1      -0.800   2.310  -2.388  0.00  0.00     0.226 C 
ATOM     17  O   UNL d   1      -1.887   2.108  -1.869  0.00  0.00    -0.273 OA
ATOM     18  H   UNL d   1       0.856   3.404  -2.675  0.00  0.00     0.169 HD
BRANCH  16  19
ATOM     19  C   UNL d   1      -0.506   1.597  -3.678  0.00  0.00     0.078 A 
ATOM     20  C   UNL d   1       0.820   1.555  -4.402  0.00  0.00     0.015 A 
ATOM     21  C   UNL d   1      -0.290   2.414  -4.935  0.00  0.00     0.015 A 
ENDBRANCH  16  19
ENDBRANCH  10  15
ENDBRANCH   8   9
ENDBRANCH   2   8
BRANCH   1  22
ATOM     22  C   UNL d   1      -3.136   0.104   0.371  0.00  0.00     0.420 C 
ATOM     23  F   UNL d   1      -3.692   1.274   0.775  0.00  0.00    -0.166 F 
ATOM     24  F   UNL d   1      -3.749  -0.211  -0.806  0.00  0.00    -0.166 F 
ATOM     25  F   UNL d   1      -3.597  -0.826   1.264  0.00  0.00    -0.166 F 
ENDBRANCH   1  22
BRANCH   3  26
ATOM     26  N   UNL d   1       0.880  -2.588  -0.758  0.00  0.00    -0.114 N 
ATOM     27  O   UNL d   1       0.114  -3.509  -1.061  0.00  0.00    -0.532 OA
ATOM     28  O   UNL d   1       2.116  -2.647  -0.835  0.00  0.00    -0.532 OA
ENDBRANCH   3  26
TORSDOF 6
