REMARK  4 active torsions:
REMARK  status: ('A' for Active; 'I' for Inactive)
REMARK    1  A    between atoms: C_2  and  S_1 
REMARK    2  A    between atoms: N_8  and  S_1 
REMARK       I    between atoms: C_3  and  N_4 
REMARK    3  A    between atoms: C_6  and  C_3 
REMARK    4  A    between atoms: N_4  and  C_5 
ROOT
ATOM      1  C   UNL d   1       0.611  -1.133   1.042  0.00  0.00     0.081 A 
ATOM      2  C   UNL d   1      -0.474  -2.094   2.995  0.00  0.00     0.042 A 
ATOM      3  C   UNL d   1      -0.067  -0.973   2.257  0.00  0.00     0.055 A 
ATOM      4  C   UNL d   1      -0.251  -3.383   2.458  0.00  0.00    -0.035 A 
ATOM      5  C   UNL d   1       0.896  -2.404   0.547  0.00  0.00     0.026 A 
ATOM      6  C   UNL d   1       0.467  -3.523   1.256  0.00  0.00     0.010 A 
ATOM      7  C   UNL d   1      -0.752  -4.641   3.121  0.00  0.00     0.050 C 
ENDROOT
BRANCH   2   8
ATOM      8  N   UNL d   1      -1.074  -1.994   4.271  0.00  0.00    -0.322 N 
ATOM      9  C   UNL d   1      -1.342  -0.862   5.024  0.00  0.00     0.263 C 
ATOM     10  O   UNL d   1      -1.202   0.288   4.621  0.00  0.00    -0.267 OA
ATOM     11  H   UNL d   1      -1.278  -2.863   4.747  0.00  0.00     0.169 HD
BRANCH   9  12
ATOM     12  C   UNL d   1      -1.800  -1.132   6.390  0.00  0.00     0.072 A 
ATOM     13  S   UNL d   1      -1.868  -2.717   7.048  0.00  0.00    -0.097 SA
ATOM     14  C   UNL d   1      -2.369  -2.141   8.578  0.00  0.00     0.050 A 
ATOM     15  C   UNL d   1      -2.512  -0.772   8.591  0.00  0.00     0.009 A 
ATOM     16  C   UNL d   1      -2.191  -0.193   7.330  0.00  0.00     0.025 A 
ENDBRANCH   9  12
ENDBRANCH   2   8
BRANCH   1  17
ATOM     17  S   UNL d   1       0.977   0.291   0.028  0.00  0.00     0.260 S 
ATOM     18  O   UNL d   1       0.024   1.325   0.369  0.00  0.00    -0.200 OA
ATOM     19  O   UNL d   1       1.092  -0.182  -1.340  0.00  0.00    -0.200 OA
BRANCH  17  20
ATOM     20  N   UNL d   1       2.515   0.789   0.537  0.00  0.00    -0.315 N 
ATOM     21  C   UNL d   1       2.612   1.425   1.859  0.00  0.00     0.162 C 
ATOM     22  C   UNL d   1       3.652  -0.083   0.206  0.00  0.00     0.162 C 
ENDBRANCH  17  20
ENDBRANCH   1  17
TORSDOF 4
