REMARK  3 active torsions:
REMARK  status: ('A' for Active; 'I' for Inactive)
REMARK    1  A    between atoms: N_2  and  C_1 
REMARK    2  A    between atoms: N_4  and  C_1 
REMARK       I    between atoms: C_3  and  N_2 
REMARK    3  A    between atoms: C_7  and  C_3 
ROOT
ATOM      1  N   UNL d   1       0.457   1.111  -0.763  0.00  0.00    -0.300 N 
ATOM      2  C   UNL d   1       1.020   2.269  -1.294  0.00  0.00     0.257 C 
ATOM      3  O   UNL d   1       2.122   2.718  -0.996  0.00  0.00    -0.267 OA
ATOM      4  H   UNL d   1      -0.426   0.828  -1.153  0.00  0.00     0.171 HD
ENDROOT
BRANCH   1   5
ATOM      5  C   UNL d   1       1.062   0.107   0.001  0.00  0.00     0.176 C 
ATOM      6  S   UNL d   1       2.722  -0.171   0.002  0.00  0.00    -0.041 SA
BRANCH   5   7
ATOM      7  N   UNL d   1       0.127  -0.662   0.746  0.00  0.00    -0.358 N 
ATOM      8  C   UNL d   1       0.571  -1.751   1.640  0.00  0.00     0.125 C 
ATOM      9  C   UNL d   1      -0.434  -2.900   1.682  0.00  0.00     0.020 C 
ATOM     10  C   UNL d   1      -1.843  -2.417   1.994  0.00  0.00     0.003 C 
ATOM     11  C   UNL d   1      -2.244  -1.278   1.063  0.00  0.00     0.020 C 
ATOM     12  C   UNL d   1      -1.211  -0.158   1.093  0.00  0.00     0.125 C 
ENDBRANCH   5   7
ENDBRANCH   1   5
BRANCH   2  13
ATOM     13  C   UNL d   1       0.175   3.084  -2.217  0.00  0.00     0.032 A 
ATOM     14  C   UNL d   1      -1.226   3.058  -2.204  0.00  0.00     0.017 A 
ATOM     15  C   UNL d   1      -1.949   3.939  -3.017  0.00  0.00     0.001 A 
ATOM     16  C   UNL d   1      -1.283   4.848  -3.839  0.00  0.00     0.000 A 
ATOM     17  C   UNL d   1       0.109   4.873  -3.865  0.00  0.00     0.001 A 
ATOM     18  C   UNL d   1       0.833   3.995  -3.058  0.00  0.00     0.017 A 
ENDBRANCH   2  13
TORSDOF 3
