REMARK  3 active torsions:
REMARK  status: ('A' for Active; 'I' for Inactive)
REMARK    1  A    between atoms: N_8  and  C_1 
REMARK    2  A    between atoms: C_5  and  C_2 
REMARK       I    between atoms: C_7  and  N_9 
REMARK    3  A    between atoms: C_12  and  C_7 
ROOT
ATOM      1  C   UNL d   1      -1.079  -1.507  -0.092  0.00  0.00     0.045 A 
ATOM      2  C   UNL d   1      -1.298   0.707   0.874  0.00  0.00     0.119 A 
ATOM      3  N   UNL d   1      -1.195   1.300  -0.342  0.00  0.00    -0.352 N 
ATOM      4  HN  UNL d   1      -1.250   2.315  -0.431  1.00  0.00     0.166 HD
ATOM      5  C   UNL d   1      -1.267  -0.677   1.022  0.00  0.00     0.064 A 
ATOM      6  C   UNL d   1      -0.946  -0.883  -1.365  0.00  0.00     0.017 A 
ATOM      7  C   UNL d   1      -1.020   0.527  -1.425  0.00  0.00     0.045 A 
ATOM      8  C   UNL d   1      -0.685  -1.580  -2.573  0.00  0.00     0.016 A 
ATOM      9  C   UNL d   1      -0.874   1.168  -2.647  0.00  0.00     0.030 A 
ATOM     10  C   UNL d   1      -0.560  -0.919  -3.794  0.00  0.00     0.001 A 
ATOM     11  C   UNL d   1      -0.654   0.462  -3.831  0.00  0.00     0.002 A 
ENDROOT
BRANCH   1  12
ATOM     12  N   UNL d   1      -0.929  -2.888   0.068  0.00  0.00    -0.377 N 
ATOM     13  C   UNL d   1      -0.371  -3.416   1.334  0.00  0.00     0.143 C 
ATOM     14  C   UNL d   1       0.276  -4.788   1.073  0.00  0.00     0.146 C 
ATOM     15  N   UNL d   1      -0.666  -5.705   0.415  0.00  0.00    -0.345 N 
ATOM     16  C   UNL d   1      -0.826  -6.975   0.956  0.00  0.00     0.253 C 
ATOM     17  C   UNL d   1      -1.236  -5.155  -0.828  0.00  0.00     0.146 C 
ATOM     18  O   UNL d   1      -0.199  -7.341   1.951  0.00  0.00    -0.267 OA
ATOM     19  C   UNL d   1      -1.926  -3.797  -0.544  0.00  0.00     0.143 C 
BRANCH  16  20
ATOM     20  C   UNL d   1      -1.749  -7.972   0.362  0.00  0.00     0.032 A 
ATOM     21  C   UNL d   1      -1.323  -9.311   0.343  0.00  0.00     0.018 A 
ATOM     22  C   UNL d   1      -2.160 -10.315  -0.150  0.00  0.00     0.025 A 
ATOM     23  C   UNL d   1      -3.425  -9.981  -0.629  0.00  0.00     0.034 A 
ATOM     24  C   UNL d   1      -3.870  -8.660  -0.587  0.00  0.00     0.025 A 
ATOM     25 CL   UNL d   1      -4.453 -11.209  -1.254  0.00  0.00    -0.084 Cl
ATOM     26  C   UNL d   1      -3.043  -7.660  -0.062  0.00  0.00     0.018 A 
ENDBRANCH  16  20
ENDBRANCH   1  12
BRANCH   2  27
ATOM     27  C   UNL d   1      -1.426   1.570   2.121  0.00  0.00     0.432 C 
ATOM     28  F   UNL d   1      -1.314   2.910   1.896  0.00  0.00    -0.165 F 
ATOM     29  F   UNL d   1      -2.621   1.397   2.757  0.00  0.00    -0.165 F 
ATOM     30  F   UNL d   1      -0.474   1.274   3.057  0.00  0.00    -0.165 F 
ENDBRANCH   2  27
TORSDOF 3
