REMARK  7 active torsions:
REMARK  status: ('A' for Active; 'I' for Inactive)
REMARK    1  A    between atoms: C_2  and  C_1 
REMARK    2  A    between atoms: N_3  and  C_1 
REMARK    3  A    between atoms: C_5  and  C_1 
REMARK    4  A    between atoms: N_4  and  C_2 
REMARK    5  A    between atoms: C_6  and  C_2 
REMARK    6  A    between atoms: O_12  and  C_5 
REMARK    7  A    between atoms: O_11  and  C_6 
ROOT
ATOM      1  C   UNL d   1       1.098   0.079   0.054  0.00  0.00     0.364 C 
ENDROOT
BRANCH   1   2
ATOM      2  C   UNL d   1       0.464   1.527   0.120  0.00  0.00     0.364 C 
BRANCH   2   3
ATOM      3  N   UNL d   1      -1.028   1.652  -0.046  0.00  0.00     0.109 N 
ATOM      4  C   UNL d   1      -1.575   1.032  -1.272  0.00  0.00     0.299 C 
ATOM      5  C   UNL d   1      -1.269   1.811  -2.562  0.00  0.00     0.198 C 
ATOM      6  O   UNL d   1      -1.733   3.163  -2.483  0.00  0.00    -0.388 OA
ATOM      7  C   UNL d   1      -1.179   3.835  -1.347  0.00  0.00     0.198 C 
ATOM      8  C   UNL d   1      -1.480   3.075  -0.043  0.00  0.00     0.299 C 
ENDBRANCH   2   3
BRANCH   2   9
ATOM      9  C   UNL d   1       0.903   2.224   1.440  0.00  0.00     0.295 C 
ATOM     10  O   UNL d   1       0.250   2.293   2.471  0.00  0.00    -0.263 OA
BRANCH   9  11
ATOM     11  O   UNL d   1       2.113   2.845   1.268  0.00  0.00    -0.325 OA
ATOM     12  C   UNL d   1       2.608   3.476   2.449  0.00  0.00     0.213 C 
ENDBRANCH   9  11
ENDBRANCH   2   9
ENDBRANCH   1   2
BRANCH   1  13
ATOM     13  N   UNL d   1       2.594   0.063   0.229  0.00  0.00     0.109 N 
ATOM     14  C   UNL d   1       3.318   0.692  -0.905  0.00  0.00     0.299 C 
ATOM     15  C   UNL d   1       3.476  -0.212  -2.140  0.00  0.00     0.198 C 
ATOM     16  O   UNL d   1       4.131  -1.438  -1.801  0.00  0.00    -0.388 OA
ATOM     17  C   UNL d   1       3.400  -2.135  -0.785  0.00  0.00     0.198 C 
ATOM     18  C   UNL d   1       3.215  -1.263   0.468  0.00  0.00     0.299 C 
ENDBRANCH   1  13
BRANCH   1  19
ATOM     19  C   UNL d   1       0.387  -0.894   1.016  0.00  0.00     0.295 C 
ATOM     20  O   UNL d   1       0.123  -2.052   0.704  0.00  0.00    -0.263 OA
BRANCH  19  21
ATOM     21  O   UNL d   1       0.180  -0.361   2.240  0.00  0.00    -0.325 OA
ATOM     22  C   UNL d   1      -0.513  -1.145   3.215  0.00  0.00     0.213 C 
ENDBRANCH  19  21
ENDBRANCH   1  19
TORSDOF 7
