REMARK  4 active torsions:
REMARK  status: ('A' for Active; 'I' for Inactive)
REMARK    1  A    between atoms: C_5  and  C_1 
REMARK    2  A    between atoms: C_4  and  C_5 
REMARK    3  A    between atoms: C_14  and  C_8 
REMARK    4  A    between atoms: O_24  and  C_17 
ROOT
ATOM      1  C   UNL d   1       4.525  -1.274  -0.041  0.00  0.00     0.096 C 
ATOM      2  C   UNL d   1       5.857  -1.166   0.144  0.00  0.00     0.038 C 
ATOM      3  C   UNL d   1       3.944  -2.575  -0.069  0.00  0.00     0.103 C 
ATOM      4  N   UNL d   1       3.498  -3.650  -0.093  0.00  0.00    -0.191 NA
ENDROOT
BRANCH   1   5
ATOM      5  C   UNL d   1       3.642  -0.087  -0.348  0.00  0.00     0.210 C 
ATOM      6  O   UNL d   1       4.112   0.800  -1.064  0.00  0.00    -0.285 OA
BRANCH   5   7
ATOM      7  C   UNL d   1       2.245  -0.021   0.112  0.00  0.00     0.064 C 
ATOM      8  S   UNL d   1       1.716  -0.853   1.508  0.00  0.00    -0.085 SA
ATOM      9  C   UNL d   1       0.085  -0.354   1.314  0.00  0.00     0.016 A 
ATOM     10  C   UNL d   1      -1.016  -0.723   2.116  0.00  0.00     0.021 A 
ATOM     11  C   UNL d   1      -0.054   0.500   0.225  0.00  0.00    -0.010 A 
ATOM     12  C   UNL d   1      -2.282  -0.214   1.808  0.00  0.00     0.025 A 
ATOM     13  C   UNL d   1      -2.447   0.631   0.722  0.00  0.00     0.035 A 
ATOM     14  C   UNL d   1      -1.355   0.994  -0.068  0.00  0.00     0.037 A 
ATOM     15 CL   UNL d   1      -4.009   1.245   0.345  0.00  0.00    -0.084 Cl
ATOM     16  C   UNL d   1       1.217   0.754  -0.427  0.00  0.00    -0.029 C 
ATOM     17  C   UNL d   1       1.365   1.710  -1.576  0.00  0.00     0.050 C 
ENDBRANCH   5   7
ENDBRANCH   1   5
BRANCH   2  18
ATOM     18  C   UNL d   1       6.636   0.076   0.152  0.00  0.00    -0.035 A 
ATOM     19  C   UNL d   1       6.828   0.776   1.344  0.00  0.00     0.014 A 
ATOM     20  C   UNL d   1       7.496   2.004   1.331  0.00  0.00     0.037 A 
ATOM     21  C   UNL d   1       7.991   2.540   0.139  0.00  0.00     0.068 A 
ATOM     22  C   UNL d   1       7.831   1.826  -1.046  0.00  0.00     0.037 A 
ATOM     23  C   UNL d   1       7.158   0.595  -1.039  0.00  0.00     0.014 A 
BRANCH  21  24
ATOM     24  O   UNL d   1       8.561   3.776   0.266  0.00  0.00    -0.356 OA
ATOM     25  C   UNL d   1       9.386   4.222  -0.803  0.00  0.00     0.210 C 
ENDBRANCH  21  24
ENDBRANCH   2  18
TORSDOF 4
