REMARK  4 active torsions:
REMARK  status: ('A' for Active; 'I' for Inactive)
REMARK    1  A    between atoms: N_8  and  C_2 
REMARK    2  A    between atoms: C_18  and  C_3 
REMARK    3  A    between atoms: C_4  and  C_14 
REMARK    4  A    between atoms: C_14  and  N_13 
ROOT
ATOM      1  C   UNL d   1       0.344   0.954  -1.134  0.00  0.00     0.048 A 
ATOM      2  C   UNL d   1       1.348   1.459  -0.258  0.00  0.00     0.097 A 
ATOM      3  C   UNL d   1      -0.528   1.535  -2.146  0.00  0.00    -0.003 A 
ATOM      4  C   UNL d   1       0.117  -0.415  -1.038  0.00  0.00     0.089 A 
ATOM      5  C   UNL d   1      -1.351   0.576  -2.715  0.00  0.00     0.065 A 
ATOM      6  S   UNL d   1      -1.089  -0.984  -2.094  0.00  0.00    -0.082 SA
ATOM      7  N   UNL d   1       1.977   0.577   0.567  0.00  0.00    -0.342 N 
ATOM      8  HN  UNL d   1       2.705   0.904   1.202  1.00  0.00     0.167 HD
ATOM      9  N   UNL d   1       0.728  -1.294  -0.226  0.00  0.00    -0.346 N 
ATOM     10  HN  UNL d   1       0.514  -2.291  -0.204  1.00  0.00     0.167 HD
ATOM     11  C   UNL d   1       1.643  -0.718   0.545  0.00  0.00     0.182 A 
ENDROOT
BRANCH   2  12
ATOM     12  N   UNL d   1       1.709   2.836  -0.177  0.00  0.00    -0.267 NA
ATOM     13  C   UNL d   1       2.187   3.128   1.199  0.00  0.00     0.127 C 
ATOM     14  C   UNL d   1       2.161   4.625   1.542  0.00  0.00     0.287 C 
ATOM     15  N   UNL d   1       2.999   5.543   0.757  0.00  0.00     0.093 N 
ATOM     16  C   UNL d   1       2.486   5.678  -0.605  0.00  0.00     0.274 C 
ATOM     17  C   UNL d   1       2.802   4.585  -1.631  0.00  0.00     0.045 C 
ATOM     18  C   UNL d   1       2.716   3.113  -1.216  0.00  0.00     0.099 C 
BRANCH  15  19
ATOM     19  C   UNL d   1       4.444   5.302   0.800  0.00  0.00     0.315 C 
BRANCH  19  20
ATOM     20  C   UNL d   1       5.062   5.290   2.176  0.00  0.00     0.030 A 
ATOM     21  C   UNL d   1       5.641   4.102   2.649  0.00  0.00     0.126 A 
ATOM     22  F   UNL d   1       5.622   2.999   1.884  0.00  0.00    -0.205 F 
ATOM     23  C   UNL d   1       6.254   4.022   3.894  0.00  0.00     0.043 A 
ATOM     24  C   UNL d   1       6.307   5.148   4.708  0.00  0.00     0.005 A 
ATOM     25  C   UNL d   1       5.744   6.343   4.263  0.00  0.00     0.024 A 
ATOM     26  C   UNL d   1       5.129   6.418   3.005  0.00  0.00     0.045 A 
ATOM     27 CL   UNL d   1       4.496   7.952   2.524  0.00  0.00    -0.084 Cl
ENDBRANCH  19  20
ENDBRANCH  15  19
ENDBRANCH   2  12
BRANCH   3  28
ATOM     28  C   UNL d   1      -0.628   2.920  -2.612  0.00  0.00    -0.024 A 
ATOM     29  C   UNL d   1      -0.629   3.206  -3.987  0.00  0.00     0.012 A 
ATOM     30  C   UNL d   1      -0.700   4.525  -4.443  0.00  0.00     0.001 A 
ATOM     31  C   UNL d   1      -0.770   5.573  -3.530  0.00  0.00     0.000 A 
ATOM     32  C   UNL d   1      -0.802   5.300  -2.165  0.00  0.00     0.001 A 
ATOM     33  C   UNL d   1      -0.739   3.979  -1.707  0.00  0.00     0.012 A 
ENDBRANCH   3  28
TORSDOF 4
