REMARK  7 active torsions:
REMARK  status: ('A' for Active; 'I' for Inactive)
REMARK    1  A    between atoms: C_2  and  C_1 
REMARK    2  A    between atoms: N_6  and  C_1 
REMARK    3  A    between atoms: C_4  and  C_3 
REMARK    4  A    between atoms: C_10  and  C_5 
REMARK    5  A    between atoms: C_11  and  C_5 
REMARK    6  A    between atoms: O_8  and  C_7 
REMARK    7  A    between atoms: C_9  and  O_8 
ROOT
ATOM      1  C   UNL d   1       0.736  -0.234   0.042  0.00  0.00     0.043 C 
ATOM      2  C   UNL d   1       0.092   0.950  -0.028  0.00  0.00     0.031 C 
ENDROOT
BRANCH   1   3
ATOM      3  C   UNL d   1       2.221  -0.055  -0.038  0.00  0.00     0.024 A 
ATOM      4  C   UNL d   1       2.925  -0.158  -1.253  0.00  0.00     0.091 A 
ATOM      5  C   UNL d   1       4.320  -0.055  -1.288  0.00  0.00     0.038 A 
ATOM      6  C   UNL d   1       5.024   0.208  -0.114  0.00  0.00     0.003 A 
ATOM      7  C   UNL d   1       4.341   0.343   1.094  0.00  0.00     0.001 A 
ATOM      8  C   UNL d   1       2.949   0.207   1.134  0.00  0.00     0.016 A 
BRANCH   4   9
ATOM      9  O   UNL d   1       2.201  -0.494  -2.420  0.00  0.00    -0.278 OA
BRANCH   9  10
ATOM     10  C   UNL d   1       2.514   0.117  -3.630  0.00  0.00     0.260 C 
ATOM     11  O   UNL d   1       3.321   1.018  -3.816  0.00  0.00    -0.265 OA
ATOM     12  C   UNL d   1       1.665  -0.481  -4.712  0.00  0.00     0.126 C 
ENDBRANCH   9  10
ENDBRANCH   4   9
ENDBRANCH   1   3
BRANCH   1  13
ATOM     13  N   UNL d   1       0.274  -1.563   0.112  0.00  0.00    -0.380 N 
ATOM     14  C   UNL d   1       1.162  -2.724   0.326  0.00  0.00     0.123 C 
ATOM     15  C   UNL d   1       0.930  -3.281   1.729  0.00  0.00     0.020 C 
ATOM     16  C   UNL d   1      -0.522  -3.724   1.892  0.00  0.00     0.003 C 
ATOM     17  C   UNL d   1      -1.473  -2.599   1.500  0.00  0.00     0.020 C 
ATOM     18  C   UNL d   1      -1.134  -1.979   0.143  0.00  0.00     0.123 C 
ENDBRANCH   1  13
BRANCH   2  19
ATOM     19  C   UNL d   1      -1.313   1.290  -0.114  0.00  0.00     0.015 C 
ATOM     20  C   UNL d   1      -2.321   1.236   0.789  0.00  0.00    -0.016 C 
BRANCH  20  21
ATOM     21  C   UNL d   1      -2.198   0.770   2.204  0.00  0.00    -0.025 A 
ATOM     22  C   UNL d   1      -1.057   0.978   2.990  0.00  0.00     0.012 A 
ATOM     23  C   UNL d   1      -0.968   0.449   4.284  0.00  0.00     0.001 A 
ATOM     24  C   UNL d   1      -2.030  -0.274   4.825  0.00  0.00     0.000 A 
ATOM     25  C   UNL d   1      -3.192  -0.448   4.083  0.00  0.00     0.001 A 
ATOM     26  C   UNL d   1      -3.277   0.077   2.791  0.00  0.00     0.012 A 
ENDBRANCH  20  21
BRANCH  20  27
ATOM     27  C   UNL d   1      -3.648   1.579   0.199  0.00  0.00    -0.025 A 
ATOM     28  C   UNL d   1      -4.307   0.653  -0.629  0.00  0.00     0.012 A 
ATOM     29  C   UNL d   1      -5.581   0.925  -1.124  0.00  0.00     0.001 A 
ATOM     30  C   UNL d   1      -6.204   2.130  -0.803  0.00  0.00     0.000 A 
ATOM     31  C   UNL d   1      -5.553   3.061   0.007  0.00  0.00     0.001 A 
ATOM     32  C   UNL d   1      -4.278   2.788   0.510  0.00  0.00     0.012 A 
ENDBRANCH  20  27
ENDBRANCH   2  19
TORSDOF 7
