REMARK  3 active torsions:
REMARK  status: ('A' for Active; 'I' for Inactive)
REMARK    1  A    between atoms: C_4  and  C_1 
REMARK    2  A    between atoms: O_9  and  C_4 
REMARK    3  A    between atoms: C_6  and  O_9 
ROOT
ATOM      1  C   UNL d   1       3.336  -2.651  -0.334  0.00  0.00     0.093 A 
ATOM      2  C   UNL d   1       2.098  -3.108   0.165  0.00  0.00     0.028 A 
ATOM      3  N   UNL d   1       3.074  -5.292   0.423  0.00  0.00    -0.359 N 
ATOM      4  HN  UNL d   1       2.992  -6.267   0.709  1.00  0.00     0.166 HD
ATOM      5  C   UNL d   1       2.029  -4.458   0.551  0.00  0.00     0.045 A 
ATOM      6  C   UNL d   1       4.422  -3.499  -0.467  0.00  0.00     0.062 A 
ATOM      7  C   UNL d   1       4.240  -4.822  -0.089  0.00  0.00     0.008 A 
ATOM      8  C   UNL d   1       0.958  -2.285   0.308  0.00  0.00     0.058 A 
ATOM      9  C   UNL d   1       0.839  -4.932   1.097  0.00  0.00     0.033 A 
ATOM     10  C   UNL d   1      -0.212  -2.792   0.851  0.00  0.00     0.117 A 
ATOM     11  C   UNL d   1      -0.282  -4.111   1.256  0.00  0.00     0.044 A 
ATOM     12  F   UNL d   1      -1.277  -1.991   0.988  0.00  0.00    -0.206 F 
ATOM     13  C   UNL d   1       5.371  -5.805  -0.179  0.00  0.00     0.068 C 
ENDROOT
BRANCH   1  14
ATOM     14  O   UNL d   1       3.391  -1.258  -0.624  0.00  0.00    -0.274 OA
BRANCH  14  15
ATOM     15  C   UNL d   1       4.473  -0.388  -0.818  0.00  0.00     0.307 C 
ATOM     16  O   UNL d   1       5.624  -0.762  -1.013  0.00  0.00    -0.258 OA
BRANCH  15  17
ATOM     17  C   UNL d   1       4.020   0.988  -0.647  0.00  0.00     0.103 C 
ATOM     18  S   UNL d   1       2.349   1.334  -0.464  0.00  0.00    -0.082 SA
ATOM     19  C   UNL d   1       2.621   2.971  -0.068  0.00  0.00     0.018 A 
ATOM     20  C   UNL d   1       1.645   3.903   0.338  0.00  0.00     0.020 A 
ATOM     21  C   UNL d   1       3.969   3.306  -0.191  0.00  0.00     0.004 A 
ATOM     22  C   UNL d   1       2.040   5.206   0.634  0.00  0.00     0.001 A 
ATOM     23  C   UNL d   1       3.369   5.580   0.507  0.00  0.00     0.001 A 
ATOM     24  C   UNL d   1       4.331   4.650   0.091  0.00  0.00     0.014 A 
ATOM     25  C   UNL d   1       4.759   2.153  -0.568  0.00  0.00     0.068 C 
ATOM     26 CL   UNL d   1       6.461   2.268  -0.790  0.00  0.00    -0.082 Cl
ENDBRANCH  15  17
ENDBRANCH  14  15
ENDBRANCH   1  14
TORSDOF 3
