REMARK  3 active torsions:
REMARK  status: ('A' for Active; 'I' for Inactive)
REMARK    1  A    between atoms: C_2  and  C_1 
REMARK    2  A    between atoms: C_5  and  C_1 
REMARK    3  A    between atoms: O_6  and  N_3 
ROOT
ATOM      1  C   UNL d   1       0.891   0.019  -0.212  0.00  0.00     0.049 C 
ATOM      2  N   UNL d   1       0.333   1.185  -0.385  0.00  0.00    -0.272 N 
ATOM      3  HN  UNL d   1       0.851   2.063  -0.350  1.00  0.00     0.194 HD
ENDROOT
BRANCH   1   4
ATOM      4  C   UNL d   1       2.437  -0.002   0.030  0.00  0.00    -0.006 C 
ATOM      5  C   UNL d   1       2.954   1.439   0.261  0.00  0.00     0.021 C 
ATOM      6  C   UNL d   1       2.777  -0.818   1.286  0.00  0.00     0.021 C 
ATOM      7  C   UNL d   1       3.194  -0.560  -1.185  0.00  0.00     0.021 C 
ENDBRANCH   1   4
BRANCH   1   8
ATOM      8  C   UNL d   1       0.126  -1.273  -0.205  0.00  0.00    -0.011 A 
ATOM      9  C   UNL d   1      -0.955  -1.424   0.674  0.00  0.00     0.013 A 
ATOM     10  C   UNL d   1      -1.715  -2.597   0.667  0.00  0.00     0.001 A 
ATOM     11  C   UNL d   1      -1.387  -3.638  -0.198  0.00  0.00     0.000 A 
ATOM     12  C   UNL d   1      -0.304  -3.497  -1.070  0.00  0.00     0.001 A 
ATOM     13  C   UNL d   1       0.439  -2.315  -1.084  0.00  0.00     0.013 A 
ENDBRANCH   1   8
BRANCH   2  14
ATOM     14  O   UNL d   1      -1.045   1.118  -0.622  0.00  0.00    -0.290 OA
ATOM     15  H   UNL d   1      -1.295   2.059  -0.660  0.00  0.00     0.244 HD
ENDBRANCH   2  14
TORSDOF 3
