REMARK  6 active torsions:
REMARK  status: ('A' for Active; 'I' for Inactive)
REMARK    1  A    between atoms: C_6  and  C_1 
REMARK    2  A    between atoms: C_4  and  C_7 
REMARK       I    between atoms: N_9  and  C_6 
REMARK    3  A    between atoms: C_12  and  N_9 
REMARK    4  A    between atoms: C_16  and  C_12 
REMARK    5  A    between atoms: C_17  and  C_16 
REMARK    6  A    between atoms: O_18  and  C_16 
ROOT
ATOM      1  C   UNL d   1      -3.173   0.199  -0.329  0.00  0.00     0.253 C 
ATOM      2  N   UNL d   1      -4.092   1.191  -0.619  0.00  0.00    -0.354 N 
ATOM      3  O   UNL d   1      -2.014   0.500  -0.052  0.00  0.00    -0.268 OA
ATOM      4  H   UNL d   1      -5.062   0.974  -0.739  0.00  0.00     0.162 HD
ENDROOT
BRANCH   1   5
ATOM      5  C   UNL d   1      -3.569  -1.255  -0.309  0.00  0.00     0.054 A 
ATOM      6  C   UNL d   1      -4.816  -1.842  -0.556  0.00  0.00     0.021 A 
ATOM      7  N   UNL d   1      -5.021  -3.194  -0.465  0.00  0.00    -0.355 N 
ATOM      8  C   UNL d   1      -6.067  -1.118  -0.938  0.00  0.00     0.069 C 
ATOM      9  C   UNL d   1      -3.995  -4.024  -0.134  0.00  0.00     0.117 A 
ATOM     10  HN  UNL d   1      -5.947  -3.580  -0.647  1.00  0.00     0.166 HD
ATOM     11  C   UNL d   1      -2.729  -3.521   0.117  0.00  0.00     0.035 A 
ATOM     12  C   UNL d   1      -2.527  -2.143   0.029  0.00  0.00     0.021 A 
BRANCH   9  13
ATOM     13  C   UNL d   1      -4.239  -5.526  -0.040  0.00  0.00     0.432 C 
ATOM     14  F   UNL d   1      -5.529  -5.902  -0.273  0.00  0.00    -0.165 F 
ATOM     15  F   UNL d   1      -3.481  -6.234  -0.928  0.00  0.00    -0.165 F 
ATOM     16  F   UNL d   1      -3.924  -6.031   1.189  0.00  0.00    -0.165 F 
ENDBRANCH   9  13
ENDBRANCH   1   5
BRANCH   2  17
ATOM     17  C   UNL d   1      -3.794   2.592  -0.350  0.00  0.00     0.159 C 
BRANCH  17  18
ATOM     18  C   UNL d   1      -2.670   3.276  -1.167  0.00  0.00     0.169 C 
BRANCH  18  19
ATOM     19  C   UNL d   1      -2.884   3.293  -2.670  0.00  0.00    -0.028 A 
ATOM     20  C   UNL d   1      -4.009   3.894  -3.259  0.00  0.00     0.010 A 
ATOM     21  C   UNL d   1      -4.151   3.936  -4.649  0.00  0.00     0.001 A 
ATOM     22  C   UNL d   1      -3.176   3.373  -5.470  0.00  0.00     0.000 A 
ATOM     23  C   UNL d   1      -2.055   2.772  -4.903  0.00  0.00     0.001 A 
ATOM     24  C   UNL d   1      -1.908   2.736  -3.514  0.00  0.00     0.010 A 
ENDBRANCH  18  19
BRANCH  18  25
ATOM     25  O   UNL d   1      -2.560   4.630  -0.688  0.00  0.00    -0.389 OA
ATOM     26  H   UNL d   1      -3.049   5.209  -1.294  0.00  0.00     0.210 HD
ENDBRANCH  18  25
ENDBRANCH  17  18
ENDBRANCH   2  17
TORSDOF 6
