REMARK  5 active torsions:
REMARK  status: ('A' for Active; 'I' for Inactive)
REMARK    1  A    between atoms: C_9  and  C_1 
REMARK    2  A    between atoms: C_23  and  N_3 
REMARK    3  A    between atoms: C_12  and  N_5 
REMARK    4  A    between atoms: N_7  and  C_18 
REMARK    5  A    between atoms: C_26  and  C_23 
ROOT
ATOM      1  N   UNL d   1      -1.329   5.363   2.836  0.00  0.00    -0.300 N 
ATOM      2  HN  UNL d   1      -1.541   4.567   3.437  1.00  0.00     0.187 HD
ATOM      3  N   UNL d   1      -0.728   5.279   1.743  0.00  0.00    -0.300 N 
ATOM      4  HN  UNL d   1      -0.446   6.090   1.190  1.00  0.00     0.187 HD
ENDROOT
BRANCH   1   5
ATOM      5  C   UNL d   1      -1.679   6.699   3.131  0.00  0.00     0.048 A 
ATOM      6  C   UNL d   1      -1.619   7.144   4.455  0.00  0.00     0.040 A 
ATOM      7  C   UNL d   1      -2.017   8.452   4.805  0.00  0.00    -0.029 A 
ATOM      8  C   UNL d   1      -1.927   8.870   6.255  0.00  0.00     0.042 C 
ATOM      9  C   UNL d   1      -2.481   9.350   3.820  0.00  0.00     0.036 A 
ATOM     10  C   UNL d   1      -2.668  10.171   6.545  0.00  0.00     0.024 C 
ATOM     11  C   UNL d   1      -2.404  11.172   5.434  0.00  0.00     0.123 C 
ATOM     12  N   UNL d   1      -2.885  10.632   4.167  0.00  0.00    -0.380 N 
ATOM     13  C   UNL d   1      -2.532   8.887   2.499  0.00  0.00     0.032 A 
ATOM     14  C   UNL d   1      -2.148   7.586   2.160  0.00  0.00     0.033 A 
BRANCH  12  15
ATOM     15  C   UNL d   1      -3.795  11.430   3.345  0.00  0.00     0.122 C 
BRANCH  15  16
ATOM     16  C   UNL d   1      -5.189  10.792   3.283  0.00  0.00     0.015 C 
ATOM     17  C   UNL d   1      -6.136  11.593   2.403  0.00  0.00     0.006 C 
ENDBRANCH  15  16
ENDBRANCH  12  15
ENDBRANCH   1   5
BRANCH   3  18
ATOM     18  C   UNL d   1      -0.479   3.949   1.355  0.00  0.00     0.048 A 
ATOM     19  C   UNL d   1      -0.542   3.640  -0.009  0.00  0.00     0.031 A 
ATOM     20  C   UNL d   1      -0.266   2.349  -0.470  0.00  0.00     0.018 A 
ATOM     21  C   UNL d   1       0.088   1.334   0.428  0.00  0.00     0.048 A 
ATOM     22  C   UNL d   1       0.154   1.638   1.795  0.00  0.00     0.018 A 
ATOM     23  C   UNL d   1      -0.122   2.932   2.251  0.00  0.00     0.031 A 
BRANCH  21  24
ATOM     24  C   UNL d   1       0.399  -0.052  -0.084  0.00  0.00     0.417 C 
ATOM     25  F   UNL d   1       0.744  -0.931   0.897  0.00  0.00    -0.166 F 
ATOM     26  F   UNL d   1       1.433  -0.058  -0.971  0.00  0.00    -0.166 F 
ATOM     27  F   UNL d   1      -0.656  -0.616  -0.737  0.00  0.00    -0.166 F 
ENDBRANCH  21  24
ENDBRANCH   3  18
TORSDOF 5
