REMARK  1 active torsions:
REMARK  status: ('A' for Active; 'I' for Inactive)
REMARK    1  A    between atoms: C_3  and  C_1 
ROOT
ATOM      1  C   UNL d   1      -1.611  -1.514  -0.785  0.00  0.00     0.101 C 
ATOM      2  S   UNL d   1      -0.435  -1.826   0.583  0.00  0.00    -0.117 SA
ATOM      3  N   UNL d   1      -0.716   1.342   0.538  0.00  0.00    -0.326 N 
ATOM      4  C   UNL d   1      -1.919   0.888   0.062  0.00  0.00     0.223 C 
ATOM      5  C   UNL d   1      -1.890  -0.053  -1.118  0.00  0.00     0.124 C 
ATOM      6  C   UNL d   1       0.805  -0.591   0.231  0.00  0.00     0.028 A 
ATOM      7  C   UNL d   1       0.560   0.793   0.309  0.00  0.00     0.051 A 
ATOM      8  O   UNL d   1      -2.973   1.355   0.488  0.00  0.00    -0.273 OA
ATOM      9  C   UNL d   1       2.115  -1.050   0.036  0.00  0.00     0.021 A 
ATOM     10  C   UNL d   1       1.634   1.687   0.225  0.00  0.00     0.031 A 
ATOM     11  C   UNL d   1       3.170  -0.149  -0.099  0.00  0.00     0.002 A 
ATOM     12  C   UNL d   1       2.930   1.217  -0.002  0.00  0.00     0.002 A 
ATOM     13  H   UNL d   1      -0.780   2.213   1.050  0.00  0.00     0.169 HD
ENDROOT
BRANCH   1  14
ATOM     14  C   UNL d   1      -1.210  -2.350  -1.999  0.00  0.00     0.003 A 
ATOM     15  C   UNL d   1      -1.611  -3.644  -2.335  0.00  0.00    -0.047 A 
ATOM     16  C   UNL d   1      -1.021  -4.069  -3.573  0.00  0.00     0.015 A 
ATOM     17  C   UNL d   1      -2.529  -4.523  -1.549  0.00  0.00     0.049 C 
ATOM     18  C   UNL d   1      -0.179  -3.132  -4.118  0.00  0.00     0.051 A 
ATOM     19  S   UNL d   1      -0.073  -1.742  -3.149  0.00  0.00    -0.105 SA
ENDBRANCH   1  14
TORSDOF 1
