REMARK  4 active torsions:
REMARK  status: ('A' for Active; 'I' for Inactive)
REMARK    1  A    between atoms: C_9  and  C_5 
REMARK    2  A    between atoms: N_7  and  C_10 
REMARK    3  A    between atoms: N_8  and  C_14 
REMARK       I    between atoms: N_15  and  C_9 
REMARK    4  A    between atoms: C_24  and  N_15 
ROOT
ATOM      1  C   UNL d   1      -0.627   0.484  -0.100  0.00  0.00     0.005 A 
ATOM      2  C   UNL d   1      -1.075  -0.860   0.065  0.00  0.00     0.029 A 
ATOM      3  C   UNL d   1       1.268  -0.906   0.040  0.00  0.00     0.028 A 
ATOM      4  C   UNL d   1       0.844   0.429  -0.170  0.00  0.00    -0.010 A 
ATOM      5  C   UNL d   1      -1.619   1.467  -0.162  0.00  0.00     0.046 A 
ATOM      6  C   UNL d   1       0.084  -1.750   0.177  0.00  0.00     0.194 A 
ATOM      7  C   UNL d   1      -3.357  -0.317   0.013  0.00  0.00     0.104 A 
ATOM      8  C   UNL d   1      -2.387  -1.298   0.108  0.00  0.00     0.052 A 
ATOM      9  C   UNL d   1      -2.984   1.036  -0.100  0.00  0.00     0.054 A 
ATOM     10  C   UNL d   1       2.575  -1.353   0.059  0.00  0.00     0.052 A 
ATOM     11  C   UNL d   1       3.550  -0.391  -0.157  0.00  0.00     0.103 A 
ATOM     12  C   UNL d   1       1.836   1.359  -0.440  0.00  0.00     0.016 A 
ATOM     13  O   UNL d   1       0.066  -2.949   0.345  0.00  0.00    -0.287 OA
ATOM     14  C   UNL d   1       3.192   0.952  -0.417  0.00  0.00     0.037 A 
ENDROOT
BRANCH   5  15
ATOM     15  C   UNL d   1      -1.502   2.954  -0.316  0.00  0.00     0.253 C 
ATOM     16  N   UNL d   1      -0.396   3.624   0.162  0.00  0.00    -0.349 N 
ATOM     17  H   UNL d   1       0.222   3.093   0.758  0.00  0.00     0.163 HD
ATOM     18  O   UNL d   1      -2.464   3.535  -0.811  0.00  0.00    -0.268 OA
BRANCH  16  19
ATOM     19  C   UNL d   1      -0.377   5.094   0.413  0.00  0.00     0.022 C 
ATOM     20  C   UNL d   1      -0.991   5.354   1.798  0.00  0.00     0.037 C 
ATOM     21  C   UNL d   1       1.088   5.569   0.413  0.00  0.00     0.037 C 
ATOM     22  C   UNL d   1      -1.119   5.956  -0.632  0.00  0.00     0.037 C 
ENDBRANCH  16  19
ENDBRANCH   5  15
BRANCH   7  23
ATOM     23  N   UNL d   1      -4.776  -0.694   0.028  0.00  0.00    -0.116 N 
ATOM     24  O   UNL d   1      -5.046  -1.902   0.011  0.00  0.00    -0.532 OA
ATOM     25  O   UNL d   1      -5.613   0.217   0.059  0.00  0.00    -0.532 OA
ENDBRANCH   7  23
BRANCH  11  26
ATOM     26  N   UNL d   1       4.958  -0.787  -0.141  0.00  0.00    -0.116 N 
ATOM     27  O   UNL d   1       5.227  -1.984   0.056  0.00  0.00    -0.532 OA
ATOM     28  O   UNL d   1       5.810   0.093  -0.320  0.00  0.00    -0.532 OA
ENDBRANCH  11  26
TORSDOF 4
