REMARK  7 active torsions:
REMARK  status: ('A' for Active; 'I' for Inactive)
REMARK    1  A    between atoms: C_2  and  N_1 
REMARK       I    between atoms: C_4  and  N_1 
REMARK    2  A    between atoms: N_11  and  C_2 
REMARK    3  A    between atoms: O_12  and  C_4 
REMARK    4  A    between atoms: C_6  and  C_14 
REMARK    5  A    between atoms: C_13  and  N_11 
REMARK    6  A    between atoms: C_17  and  O_12 
REMARK    7  A    between atoms: C_14  and  C_13 
ROOT
ATOM      1  C   UNL d   1      -2.014  -0.837  -2.505  0.00  0.00     0.126 C 
ENDROOT
BRANCH   1   2
ATOM      2  N   UNL d   1      -1.076  -0.466  -1.462  0.00  0.00    -0.367 N 
ATOM      3  H   UNL d   1      -1.423  -0.135  -0.567  0.00  0.00     0.161 HD
BRANCH   2   4
ATOM      4  C   UNL d   1       0.296  -0.506  -1.584  0.00  0.00     0.176 C 
ATOM      5  S   UNL d   1       1.213  -0.029  -0.279  0.00  0.00    -0.041 SA
BRANCH   4   6
ATOM      6  N   UNL d   1       0.751  -0.952  -2.811  0.00  0.00    -0.279 N 
ATOM      7  C   UNL d   1       2.008  -1.130  -3.329  0.00  0.00     0.366 C 
ATOM      8  O   UNL d   1       3.091  -0.967  -2.792  0.00  0.00    -0.238 OA
ATOM      9  H   UNL d   1       0.066  -1.170  -3.514  0.00  0.00     0.173 HD
BRANCH   7  10
ATOM     10  O   UNL d   1       1.840  -1.538  -4.624  0.00  0.00    -0.304 OA
BRANCH  10  11
ATOM     11  C   UNL d   1       3.036  -1.733  -5.387  0.00  0.00     0.176 C 
ATOM     12  C   UNL d   1       3.513  -0.407  -5.949  0.00  0.00     0.034 C 
ENDBRANCH  10  11
ENDBRANCH   7  10
ENDBRANCH   4   6
ENDBRANCH   2   4
ENDBRANCH   1   2
BRANCH   1  13
ATOM     13  C   UNL d   1      -3.498  -0.736  -2.164  0.00  0.00     0.060 C 
BRANCH  13  14
ATOM     14  C   UNL d   1      -4.281  -1.172  -3.366  0.00  0.00    -0.029 A 
ATOM     15  C   UNL d   1      -4.684  -2.462  -3.653  0.00  0.00     0.096 A 
ATOM     16  N   UNL d   1      -5.252  -2.468  -4.898  0.00  0.00    -0.365 N 
ATOM     17  C   UNL d   1      -5.220  -1.206  -5.442  0.00  0.00     0.042 A 
ATOM     18  H   UNL d   1      -5.613  -3.285  -5.371  0.00  0.00     0.165 HD
ATOM     19  C   UNL d   1      -4.628  -0.366  -4.499  0.00  0.00    -0.002 A 
ATOM     20  C   UNL d   1      -5.655  -0.752  -6.694  0.00  0.00     0.030 A 
ATOM     21  C   UNL d   1      -4.456   0.995  -4.826  0.00  0.00     0.014 A 
ATOM     22  C   UNL d   1      -4.889   1.466  -6.071  0.00  0.00     0.001 A 
ATOM     23  C   UNL d   1      -5.480   0.602  -6.989  0.00  0.00     0.002 A 
ENDBRANCH  13  14
ENDBRANCH   1  13
TORSDOF 7
