REMARK  3 active torsions:
REMARK  status: ('A' for Active; 'I' for Inactive)
REMARK    1  A    between atoms: C_2  and  C_1 
REMARK       I    between atoms: N_5  and  C_2 
REMARK    2  A    between atoms: C_7  and  C_3 
REMARK    3  A    between atoms: C_9  and  N_5 
ROOT
ATOM      1  C   UNL d   1       3.910   0.736  -1.403  0.00  0.00     0.114 C 
ATOM      2  C   UNL d   1       4.470   1.437  -2.410  0.00  0.00     0.058 C 
ATOM      3  C   UNL d   1       3.639  -0.657  -1.473  0.00  0.00     0.105 C 
ATOM      4  N   UNL d   1       3.389  -1.791  -1.448  0.00  0.00    -0.191 NA
ENDROOT
BRANCH   1   5
ATOM      5  C   UNL d   1       3.578   1.486  -0.142  0.00  0.00     0.262 C 
ATOM      6  N   UNL d   1       3.033   0.734   0.878  0.00  0.00    -0.352 N 
ATOM      7  H   UNL d   1       2.856  -0.254   0.743  0.00  0.00     0.163 HD
ATOM      8  O   UNL d   1       3.775   2.694  -0.044  0.00  0.00    -0.267 OA
BRANCH   6   9
ATOM      9  C   UNL d   1       2.605   1.297   2.158  0.00  0.00     0.085 C 
ATOM     10  C   UNL d   1       3.759   1.865   3.002  0.00  0.00     0.034 C 
ATOM     11  C   UNL d   1       4.683   0.807   3.653  0.00  0.00    -0.045 C 
ATOM     12  C   UNL d   1       5.591   0.130   2.608  0.00  0.00     0.015 C 
ATOM     13  C   UNL d   1       5.604   1.521   4.665  0.00  0.00     0.015 C 
ATOM     14  C   UNL d   1       3.835  -0.244   4.404  0.00  0.00     0.013 C 
ATOM     15  C   UNL d   1       2.718  -0.853   3.540  0.00  0.00    -0.016 C 
ATOM     16  C   UNL d   1       1.816   0.252   2.965  0.00  0.00     0.029 C 
ATOM     17  C   UNL d   1       1.899  -1.856   4.353  0.00  0.00     0.010 C 
ENDBRANCH   6   9
ENDBRANCH   1   5
BRANCH   2  18
ATOM     18  C   UNL d   1       4.768   0.891  -3.687  0.00  0.00     0.033 A 
ATOM     19  N   UNL d   1       5.911   1.314  -4.328  0.00  0.00    -0.366 N 
ATOM     20  C   UNL d   1       6.014   0.701  -5.550  0.00  0.00     0.088 A 
ATOM     21  H   UNL d   1       6.587   1.968  -3.954  0.00  0.00     0.165 HD
ATOM     22  C   UNL d   1       4.921  -0.117  -5.709  0.00  0.00     0.019 A 
ATOM     23  C   UNL d   1       4.136   0.000  -4.537  0.00  0.00     0.031 A 
ENDBRANCH   2  18
TORSDOF 3
