REMARK  2 active torsions:
REMARK  status: ('A' for Active; 'I' for Inactive)
REMARK    1  A    between atoms: C_6  and  C_1 
REMARK    2  A    between atoms: O_14  and  C_3 
ROOT
ATOM      1  C   UNL d   1      -0.552  -1.324  -0.130  0.00  0.00     0.101 A 
ATOM      2  C   UNL d   1       0.922  -1.063  -0.125  0.00  0.00     0.303 A 
ATOM      3  C   UNL d   1      -1.374  -0.262  -0.003  0.00  0.00     0.086 A 
ATOM      4  C   UNL d   1      -0.891   1.086   0.052  0.00  0.00     0.070 A 
ATOM      5  O   UNL d   1       1.339   0.243  -0.083  0.00  0.00    -0.280 OA
ATOM      6  C   UNL d   1       0.424   1.314   0.002  0.00  0.00     0.056 A 
ATOM      7  O   UNL d   1       1.753  -1.967  -0.151  0.00  0.00    -0.259 OA
ATOM      8  C   UNL d   1       1.056   2.664   0.025  0.00  0.00     0.077 C 
ENDROOT
BRANCH   1   9
ATOM      9  C   UNL d   1      -1.042  -2.677  -0.250  0.00  0.00     0.068 A 
ATOM     10  N   UNL d   1      -2.257  -3.059   0.197  0.00  0.00    -0.300 N 
ATOM     11  N   UNL d   1      -2.322  -4.372  -0.091  0.00  0.00    -0.311 N 
ATOM     12  HN  UNL d   1      -2.966  -2.483   0.651  1.00  0.00     0.187 HD
ATOM     13  C   UNL d   1      -1.249  -4.828  -0.790  0.00  0.00     0.109 A 
ATOM     14  H   UNL d   1      -3.140  -4.894   0.208  0.00  0.00     0.186 HD
ATOM     15  C   UNL d   1      -0.400  -3.756  -0.912  0.00  0.00     0.050 A 
ENDBRANCH   1   9
BRANCH   3  16
ATOM     16  O   UNL d   1      -2.750  -0.348   0.060  0.00  0.00    -0.359 OA
ATOM     17  H   UNL d   1      -2.969  -1.307   0.127  0.00  0.00     0.217 HD
ENDBRANCH   3  16
TORSDOF 2
