REMARK  3 active torsions:
REMARK  status: ('A' for Active; 'I' for Inactive)
REMARK    1  A    between atoms: N_5  and  C_2 
REMARK    2  A    between atoms: N_8  and  C_2 
REMARK    3  A    between atoms: C_9  and  N_5 
ROOT
ATOM      1  C   UNL d   1       1.295  -0.194   1.466  0.00  0.00     0.157 C 
ATOM      2  C   UNL d   1       0.030  -0.055   1.948  0.00  0.00     0.089 C 
ATOM      3  C   UNL d   1       1.646   0.274   0.169  0.00  0.00     0.113 C 
ATOM      4  C   UNL d   1       2.310  -0.835   2.229  0.00  0.00     0.113 C 
ATOM      5  N   UNL d   1       1.921   0.674  -0.886  0.00  0.00    -0.191 NA
ATOM      6  N   UNL d   1       3.122  -1.381   2.854  0.00  0.00    -0.191 NA
ENDROOT
BRANCH   2   7
ATOM      7  N   UNL d   1      -0.988   0.574   1.237  0.00  0.00    -0.248 NA
ATOM      8  H   UNL d   1      -0.673   1.434   0.784  0.00  0.00     0.135 HD
BRANCH   7   9
ATOM      9  C   UNL d   1      -1.830  -0.105   0.310  0.00  0.00     0.013 A 
ATOM     10  C   UNL d   1      -1.885  -1.500   0.194  0.00  0.00     0.024 A 
ATOM     11  C   UNL d   1      -2.743  -2.106  -0.729  0.00  0.00     0.002 A 
ATOM     12  C   UNL d   1      -3.586  -1.328  -1.518  0.00  0.00     0.000 A 
ATOM     13  C   UNL d   1      -3.583   0.056  -1.376  0.00  0.00     0.002 A 
ATOM     14  C   UNL d   1      -2.718   0.661  -0.462  0.00  0.00     0.024 A 
ENDBRANCH   7   9
ENDBRANCH   2   7
BRANCH   2  15
ATOM     15  N   UNL d   1      -0.346  -0.490   3.204  0.00  0.00    -0.291 NA
ATOM     16  H   UNL d   1       0.163  -1.274   3.602  0.00  0.00     0.125 HD
ATOM     17  H   UNL d   1      -1.359  -0.580   3.277  0.00  0.00     0.125 HD
ENDBRANCH   2  15
TORSDOF 3
