REMARK  3 active torsions:
REMARK  status: ('A' for Active; 'I' for Inactive)
REMARK    1  A    between atoms: N_4  and  C_8 
REMARK    2  A    between atoms: S_10  and  C_6 
REMARK    3  A    between atoms: C_9  and  S_10 
ROOT
ATOM      1  S   UNL d   1      -1.521  -1.806  -0.044  0.00  0.00     0.177 S 
ATOM      2  C   UNL d   1      -0.108  -0.789   0.026  0.00  0.00     0.069 A 
ATOM      3  C   UNL d   1      -2.715  -0.484   0.078  0.00  0.00     0.166 A 
ATOM      4  C   UNL d   1      -0.452   0.559   0.093  0.00  0.00    -0.021 A 
ATOM      5  C   UNL d   1      -1.941   0.847   0.102  0.00  0.00     0.101 A 
ATOM      6  C   UNL d   1       1.195  -1.260  -0.005  0.00  0.00     0.060 A 
ATOM      7  C   UNL d   1       2.214  -0.304   0.020  0.00  0.00     0.104 A 
ATOM      8  O   UNL d   1      -1.571  -2.378  -1.371  0.00  0.00    -0.223 OA
ATOM      9  O   UNL d   1      -1.547  -2.599   1.166  0.00  0.00    -0.223 OA
ATOM     10  C   UNL d   1       0.575   1.503   0.098  0.00  0.00     0.012 A 
ATOM     11  C   UNL d   1       1.909   1.073   0.064  0.00  0.00     0.037 A 
ENDROOT
BRANCH   5  12
ATOM     12  S   UNL d   1      -2.408   1.848   1.563  0.00  0.00    -0.112 SA
BRANCH  12  13
ATOM     13  C   UNL d   1      -4.121   2.144   1.292  0.00  0.00     0.041 A 
ATOM     14  S   UNL d   1      -4.743   2.891  -0.115  0.00  0.00    -0.095 SA
ATOM     15  C   UNL d   1      -6.345   2.841   0.485  0.00  0.00     0.051 A 
ATOM     16  C   UNL d   1      -6.409   2.261   1.732  0.00  0.00     0.009 A 
ATOM     17  C   UNL d   1      -5.122   1.861   2.199  0.00  0.00     0.026 A 
ENDBRANCH  12  13
ENDBRANCH   5  12
BRANCH   7  18
ATOM     18  N   UNL d   1       3.616  -0.739  -0.012  0.00  0.00    -0.116 N 
ATOM     19  O   UNL d   1       3.841  -1.957  -0.044  0.00  0.00    -0.532 OA
ATOM     20  O   UNL d   1       4.491   0.140  -0.008  0.00  0.00    -0.532 OA
ENDBRANCH   7  18
TORSDOF 3
