REMARK  5 active torsions:
REMARK  status: ('A' for Active; 'I' for Inactive)
REMARK    1  A    between atoms: N_2  and  C_1 
REMARK    2  A    between atoms: N_6  and  C_1 
REMARK    3  A    between atoms: C_3  and  N_2 
REMARK    4  A    between atoms: C_12  and  N_6 
REMARK    5  A    between atoms: C_11  and  C_12 
ROOT
ATOM      1  C   UNL d   1       1.188   0.067  -0.194  0.00  0.00     0.172 C 
ATOM      2  S   UNL d   1       2.796   0.418  -0.479  0.00  0.00    -0.041 SA
ENDROOT
BRANCH   1   3
ATOM      3  N   UNL d   1       0.396  -0.780  -0.924  0.00  0.00    -0.333 N 
ATOM      4  H   UNL d   1      -0.487  -0.381  -1.214  0.00  0.00     0.168 HD
BRANCH   3   5
ATOM      5  C   UNL d   1       0.771  -2.011  -1.510  0.00  0.00     0.040 A 
ATOM      6  C   UNL d   1       0.138  -2.478  -2.675  0.00  0.00    -0.035 A 
ATOM      7  C   UNL d   1       0.370  -3.804  -3.094  0.00  0.00     0.015 A 
ATOM      8  C   UNL d   1      -0.764  -1.630  -3.531  0.00  0.00     0.050 C 
ATOM      9  C   UNL d   1       1.232  -4.652  -2.389  0.00  0.00    -0.061 A 
ATOM     10  C   UNL d   1       1.908  -4.149  -1.276  0.00  0.00     0.009 A 
ATOM     11  C   UNL d   1       1.377  -6.090  -2.790  0.00  0.00     0.048 C 
ATOM     12  C   UNL d   1       1.679  -2.846  -0.844  0.00  0.00     0.030 A 
ENDBRANCH   3   5
ENDBRANCH   1   3
BRANCH   1  13
ATOM     13  N   UNL d   1       0.560   0.744   0.813  0.00  0.00    -0.363 N 
ATOM     14  H   UNL d   1       1.177   1.389   1.290  0.00  0.00     0.162 HD
BRANCH  13  15
ATOM     15  C   UNL d   1      -0.544   0.233   1.612  0.00  0.00     0.162 C 
BRANCH  15  16
ATOM     16  C   UNL d   1      -1.697   1.188   1.664  0.00  0.00    -0.025 A 
ATOM     17  C   UNL d   1      -2.975   0.775   1.303  0.00  0.00     0.096 A 
ATOM     18  N   UNL d   1      -4.072   1.565   1.344  0.00  0.00    -0.375 N 
ATOM     19  C   UNL d   1      -3.891   2.833   1.773  0.00  0.00     0.087 A 
ATOM     20  HN  UNL d   1      -4.991   1.221   1.066  1.00  0.00     0.164 HD
ATOM     21  C   UNL d   1      -2.666   3.343   2.166  0.00  0.00     0.018 A 
ATOM     22  C   UNL d   1      -1.555   2.506   2.113  0.00  0.00     0.011 A 
ENDBRANCH  15  16
ENDBRANCH  13  15
ENDBRANCH   1  13
TORSDOF 5
