REMARK  6 active torsions:
REMARK  status: ('A' for Active; 'I' for Inactive)
REMARK    1  A    between atoms: N_8  and  C_1 
REMARK    2  A    between atoms: S_18  and  C_5 
REMARK    3  A    between atoms: C_21  and  C_9 
REMARK    4  A    between atoms: C_14  and  C_15 
REMARK    5  A    between atoms: O_22  and  C_21 
REMARK    6  A    between atoms: C_23  and  O_22 
ROOT
ATOM      1  C   UNL d   1       0.097   0.325  -1.135  0.00  0.00     0.136 A 
ATOM      2  C   UNL d   1      -0.624   0.168   0.042  0.00  0.00     0.122 A 
ATOM      3  N   UNL d   1       1.456   0.209  -1.190  0.00  0.00    -0.329 N 
ATOM      4  HN  UNL d   1       1.957   0.254  -2.078  1.00  0.00     0.169 HD
ATOM      5  C   UNL d   1       0.138  -0.069   1.175  0.00  0.00     0.095 A 
ATOM      6  N   UNL d   1       1.488  -0.113   1.150  0.00  0.00    -0.337 N 
ATOM      7  HN  UNL d   1       2.022  -0.254   2.007  1.00  0.00     0.168 HD
ATOM      8  C   UNL d   1       2.106   0.034  -0.028  0.00  0.00     0.108 A 
ATOM      9  C   UNL d   1      -2.062   0.130   0.067  0.00  0.00     0.106 C 
ATOM     10  N   UNL d   1      -3.219   0.116   0.013  0.00  0.00    -0.191 NA
ENDROOT
BRANCH   1  11
ATOM     11  N   UNL d   1      -0.537   0.604  -2.389  0.00  0.00    -0.318 N 
ATOM     12  C   UNL d   1      -1.688   1.330  -2.609  0.00  0.00     0.098 C 
ATOM     13  C   UNL d   1      -2.023   1.256  -3.941  0.00  0.00     0.019 C 
ATOM     14  C   UNL d   1      -0.999   0.535  -4.587  0.00  0.00     0.019 C 
ATOM     15  C   UNL d   1      -0.063   0.207  -3.626  0.00  0.00     0.098 C 
ENDBRANCH   1  11
BRANCH   5  16
ATOM     16  S   UNL d   1      -0.587  -0.378   2.791  0.00  0.00    -0.115 SA
ATOM     17  C   UNL d   1       0.897  -0.643   3.823  0.00  0.00     0.097 C 
ENDBRANCH   5  16
BRANCH   8  18
ATOM     18  C   UNL d   1       3.620   0.043  -0.026  0.00  0.00     0.252 C 
BRANCH  18  19
ATOM     19  O   UNL d   1       4.071   1.392   0.133  0.00  0.00    -0.344 OA
BRANCH  19  20
ATOM     20  C   UNL d   1       5.424   1.578   0.127  0.00  0.00     0.069 A 
ATOM     21  C   UNL d   1       5.851   2.838  -0.284  0.00  0.00     0.037 A 
ATOM     22  C   UNL d   1       7.213   3.162  -0.308  0.00  0.00     0.011 A 
ATOM     23  C   UNL d   1       8.189   2.239   0.107  0.00  0.00    -0.050 A 
ATOM     24  C   UNL d   1       7.733   0.971   0.512  0.00  0.00     0.011 A 
ATOM     25  C   UNL d   1       6.371   0.643   0.527  0.00  0.00     0.037 A 
BRANCH  23  26
ATOM     26  C   UNL d   1       9.680   2.620   0.105  0.00  0.00    -0.024 C 
ATOM     27  C   UNL d   1      10.579   1.480   0.634  0.00  0.00     0.019 C 
ATOM     28  C   UNL d   1      10.131   2.966  -1.330  0.00  0.00     0.019 C 
ATOM     29  C   UNL d   1       9.940   3.854   0.999  0.00  0.00     0.019 C 
ENDBRANCH  23  26
ENDBRANCH  19  20
ENDBRANCH  18  19
ENDBRANCH   8  18
TORSDOF 6
