REMARK  2 active torsions:
REMARK  status: ('A' for Active; 'I' for Inactive)
REMARK    1  A    between atoms: C_5  and  C_2 
REMARK       I    between atoms: C_4  and  N_6 
REMARK       I    between atoms: N_10  and  C_4 
REMARK    2  A    between atoms: N_6  and  C_13 
ROOT
ATOM      1  C   UNL d   1       1.254   2.168   1.424  0.00  0.00    -0.051 A 
ATOM      2  C   UNL d   1       2.470   2.347   0.743  0.00  0.00     0.010 A 
ATOM      3  C   UNL d   1       1.229   2.527   2.776  0.00  0.00     0.010 A 
ATOM      4  C   UNL d   1       3.578   3.156   2.755  0.00  0.00     0.036 A 
ATOM      5  C   UNL d   1       2.367   3.004   3.432  0.00  0.00     0.030 A 
ATOM      6  C   UNL d   1       3.617   2.830   1.397  0.00  0.00     0.030 A 
ENDROOT
BRANCH   4   7
ATOM      7  N   UNL d   1       4.764   3.616   3.377  0.00  0.00    -0.309 N 
ATOM      8  C   UNL d   1       4.900   3.971   4.703  0.00  0.00     0.320 C 
ATOM      9  O   UNL d   1       4.016   3.969   5.552  0.00  0.00    -0.247 OA
ATOM     10  N   UNL d   1       6.185   4.336   5.024  0.00  0.00    -0.347 N 
ATOM     11  C   UNL d   1       6.530   4.737   6.369  0.00  0.00     0.151 C 
ATOM     12  H   UNL d   1       6.879   4.435   4.300  0.00  0.00     0.163 HD
ATOM     13  H   UNL d   1       5.588   3.670   2.805  0.00  0.00     0.170 HD
ENDBRANCH   4   7
BRANCH   1  14
ATOM     14  C   UNL d   1       0.003   1.668   0.741  0.00  0.00     0.060 A 
ATOM     15  C   UNL d   1      -0.710   0.400   1.176  0.00  0.00     0.121 A 
ATOM     16  C   UNL d   1       0.038   0.433  -0.126  0.00  0.00     0.055 A 
ATOM     17 CL   UNL d   1      -2.472   0.395   1.106  0.00  0.00    -0.101 Cl
ATOM     18 CL   UNL d   1      -0.067  -0.645   2.435  0.00  0.00    -0.101 Cl
ENDBRANCH   1  14
TORSDOF 2
