REMARK  3 active torsions:
REMARK  status: ('A' for Active; 'I' for Inactive)
REMARK    1  A    between atoms: C_2  and  S_1 
REMARK    2  A    between atoms: N_3  and  S_1 
REMARK    3  A    between atoms: C_13  and  N_3 
ROOT
ATOM      1  C   UNL d   1       0.484  -1.454  -1.242  0.00  0.00     0.096 A 
ATOM      2  C   UNL d   1       0.841  -2.806  -1.141  0.00  0.00     0.031 A 
ATOM      3  C   UNL d   1      -0.328  -1.026  -2.307  0.00  0.00     0.028 A 
ATOM      4  C   UNL d   1       0.355  -3.717  -2.095  0.00  0.00     0.043 A 
ATOM      5  C   UNL d   1      -0.464  -3.282  -3.135  0.00  0.00     0.035 A 
ATOM      6  I   UNL d   1       2.077  -3.649   0.337  0.00  0.00    -0.043 I 
ATOM      7  C   UNL d   1      -0.803  -1.939  -3.250  0.00  0.00     0.025 A 
ATOM      8 CL   UNL d   1      -1.058  -4.414  -4.285  0.00  0.00    -0.084 Cl
ENDROOT
BRANCH   1   9
ATOM      9  S   UNL d   1       1.019  -0.211  -0.087  0.00  0.00     0.260 S 
ATOM     10  O   UNL d   1       0.333   1.028  -0.387  0.00  0.00    -0.200 OA
ATOM     11  O   UNL d   1       2.462  -0.265  -0.025  0.00  0.00    -0.200 OA
BRANCH   9  12
ATOM     12  N   UNL d   1       0.439  -0.769   1.391  0.00  0.00    -0.311 N 
ATOM     13  H   UNL d   1       1.208  -0.860   2.057  0.00  0.00     0.172 HD
BRANCH  12  14
ATOM     14  C   UNL d   1      -0.851  -0.293   1.922  0.00  0.00     0.085 C 
ATOM     15  C   UNL d   1      -2.021  -0.781   1.079  0.00  0.00     0.032 C 
ATOM     16  C   UNL d   1      -0.991  -0.819   3.351  0.00  0.00     0.032 C 
ENDBRANCH  12  14
ENDBRANCH   9  12
ENDBRANCH   1   9
TORSDOF 3
