REMARK  4 active torsions:
REMARK  status: ('A' for Active; 'I' for Inactive)
REMARK    1  A    between atoms: N_7  and  C_1 
REMARK    2  A    between atoms: S_3  and  N_7 
REMARK    3  A    between atoms: C_8  and  S_3 
REMARK    4  A    between atoms: C_21  and  N_5 
ROOT
ATOM      1  N   UNL d   1      -0.513  -2.465   0.183  0.00  0.00    -0.273 N 
ATOM      2  H   UNL d   1      -1.446  -2.746  -0.105  0.00  0.00     0.179 HD
ENDROOT
BRANCH   1   3
ATOM      3  S   UNL d   1       0.617  -3.700   0.192  0.00  0.00     0.270 S 
ATOM      4  O   UNL d   1      -0.153  -4.922   0.339  0.00  0.00    -0.200 OA
ATOM      5  O   UNL d   1       1.515  -3.541  -0.928  0.00  0.00    -0.200 OA
BRANCH   3   6
ATOM      6  C   UNL d   1       1.591  -3.593   1.676  0.00  0.00     0.121 A 
ATOM      7  S   UNL d   1       0.713  -3.641   3.143  0.00  0.00    -0.074 SA
ATOM      8  C   UNL d   1       2.126  -3.441   4.090  0.00  0.00     0.042 A 
ATOM      9  C   UNL d   1       2.086  -3.405   5.527  0.00  0.00     0.117 A 
ATOM     10  C   UNL d   1       3.247  -3.320   3.294  0.00  0.00     0.024 A 
ATOM     11  O   UNL d   1       3.202  -3.157   6.287  0.00  0.00    -0.237 OA
ATOM     12  C   UNL d   1       1.031  -3.607   6.395  0.00  0.00     0.059 A 
ATOM     13  N   UNL d   1       2.885  -3.200   7.634  0.00  0.00    -0.272 N 
ATOM     14  C   UNL d   1       1.583  -3.478   7.679  0.00  0.00     0.117 A 
ATOM     15  HN  UNL d   1       3.514  -3.051   8.423  1.00  0.00     0.194 HD
ATOM     16  C   UNL d   1       2.943  -3.438   1.906  0.00  0.00     0.034 A 
ENDBRANCH   3   6
ENDBRANCH   1   3
BRANCH   1  17
ATOM     17  C   UNL d   1      -0.101  -1.124   0.141  0.00  0.00     0.136 C 
ATOM     18  C   UNL d   1       1.252  -0.515   0.283  0.00  0.00     0.296 C 
ATOM     19  N   UNL d   1       1.038   0.864   0.432  0.00  0.00    -0.217 N 
ATOM     20  O   UNL d   1       2.314  -1.112   0.279  0.00  0.00    -0.264 OA
ATOM     21  N   UNL d   1      -0.299   1.112   0.024  0.00  0.00    -0.289 N 
ATOM     22  C   UNL d   1      -0.972  -0.108   0.009  0.00  0.00     0.058 C 
ATOM     23  C   UNL d   1      -0.814   2.466   0.061  0.00  0.00     0.178 C 
ATOM     24  C   UNL d   1      -2.457  -0.238  -0.089  0.00  0.00     0.072 C 
BRANCH  19  25
ATOM     25  C   UNL d   1       2.059   1.779   0.106  0.00  0.00     0.060 A 
ATOM     26  C   UNL d   1       2.720   1.734  -1.124  0.00  0.00     0.031 A 
ATOM     27  C   UNL d   1       3.828   2.555  -1.345  0.00  0.00     0.002 A 
ATOM     28  C   UNL d   1       4.280   3.406  -0.336  0.00  0.00     0.000 A 
ATOM     29  C   UNL d   1       3.617   3.454   0.890  0.00  0.00     0.002 A 
ATOM     30  C   UNL d   1       2.502   2.646   1.109  0.00  0.00     0.031 A 
ENDBRANCH  19  25
ENDBRANCH   1  17
TORSDOF 4
