REMARK  3 active torsions:
REMARK  status: ('A' for Active; 'I' for Inactive)
REMARK    1  A    between atoms: C_12  and  C_2 
REMARK    2  A    between atoms: C_13  and  C_9 
REMARK    3  A    between atoms: C_14  and  C_11 
ROOT
ATOM      1  N   UNL d   1       0.296   0.645   0.063  0.00  0.00    -0.235 N 
ATOM      2  C   UNL d   1      -0.830   1.459   0.071  0.00  0.00     0.144 A 
ATOM      3  C   UNL d   1       0.159  -0.749   0.020  0.00  0.00     0.130 A 
ATOM      4  N   UNL d   1       1.602   0.999   0.096  0.00  0.00    -0.289 N 
ATOM      5  HN  UNL d   1       1.985   1.941   0.178  1.00  0.00     0.188 HD
ATOM      6  N   UNL d   1      -1.058  -1.368   0.039  0.00  0.00    -0.340 N 
ATOM      7  HN  UNL d   1      -1.139  -2.384   0.040  1.00  0.00     0.167 HD
ATOM      8  C   UNL d   1       1.432  -1.262  -0.059  0.00  0.00     0.084 A 
ATOM      9  C   UNL d   1       2.281  -0.147  -0.003  0.00  0.00     0.086 A 
ATOM     10  C   UNL d   1      -2.056   0.895   0.065  0.00  0.00     0.067 A 
ATOM     11  C   UNL d   1      -2.112  -0.601   0.056  0.00  0.00     0.046 A 
ENDROOT
BRANCH  11  12
ATOM     12  C   UNL d   1      -3.466  -1.227   0.098  0.00  0.00    -0.009 A 
ATOM     13  C   UNL d   1      -3.618  -2.442   0.779  0.00  0.00     0.026 A 
ATOM     14  C   UNL d   1      -4.870  -3.077   0.854  0.00  0.00    -0.025 A 
ATOM     15  C   UNL d   1      -5.037  -4.291   1.540  0.00  0.00     0.012 A 
ATOM     16  C   UNL d   1      -5.987  -2.482   0.223  0.00  0.00    -0.026 A 
ATOM     17  C   UNL d   1      -6.286  -4.911   1.601  0.00  0.00     0.001 A 
ATOM     18  C   UNL d   1      -7.384  -4.326   0.978  0.00  0.00     0.001 A 
ATOM     19  C   UNL d   1      -7.236  -3.118   0.294  0.00  0.00     0.012 A 
ATOM     20  C   UNL d   1      -5.821  -1.271  -0.467  0.00  0.00     0.013 A 
ATOM     21  C   UNL d   1      -4.571  -0.649  -0.535  0.00  0.00     0.014 A 
ENDBRANCH  11  12
BRANCH   2  22
ATOM     22  C   UNL d   1      -0.660   2.932   0.073  0.00  0.00     0.434 C 
ATOM     23  F   UNL d   1       0.605   3.407   0.037  0.00  0.00    -0.165 F 
ATOM     24  F   UNL d   1      -1.303   3.483  -0.995  0.00  0.00    -0.165 F 
ATOM     25  F   UNL d   1      -1.246   3.481   1.174  0.00  0.00    -0.165 F 
ENDBRANCH   2  22
BRANCH   9  26
ATOM     26  C   UNL d   1       3.771  -0.188  -0.047  0.00  0.00     0.103 A 
ATOM     27  O   UNL d   1       4.516  -1.319  -0.238  0.00  0.00    -0.320 OA
ATOM     28  C   UNL d   1       5.822  -0.946  -0.239  0.00  0.00     0.142 A 
ATOM     29  C   UNL d   1       5.937   0.408  -0.032  0.00  0.00     0.027 A 
ATOM     30  C   UNL d   1       4.615   0.898   0.090  0.00  0.00     0.041 A 
ENDBRANCH   9  26
TORSDOF 3
