REMARK  5 active torsions:
REMARK  status: ('A' for Active; 'I' for Inactive)
REMARK    1  A    between atoms: C_2  and  C_1 
REMARK       I    between atoms: N_7  and  C_1 
REMARK    2  A    between atoms: N_3  and  C_2 
REMARK    3  A    between atoms: C_6  and  C_2 
REMARK       I    between atoms: C_4  and  N_3 
REMARK    4  A    between atoms: C_10  and  C_6 
REMARK    5  A    between atoms: N_9  and  N_7 
ROOT
ATOM      1  C   UNL d   1       0.252  -0.974   0.720  0.00  0.00     0.182 C 
ENDROOT
BRANCH   1   2
ATOM      2  C   UNL d   1       1.352  -0.062   0.131  0.00  0.00     0.254 C 
ATOM      3  O   UNL d   1       2.528  -0.142   0.498  0.00  0.00    -0.270 OA
ATOM      4  N   UNL d   1       0.942   0.940  -0.740  0.00  0.00    -0.292 N 
ATOM      5  H   UNL d   1      -0.021   1.009  -1.063  0.00  0.00     0.183 HD
BRANCH   4   6
ATOM      6  N   UNL d   1       1.911   1.735  -1.395  0.00  0.00    -0.247 NA
ATOM      7  H   UNL d   1       2.797   1.211  -1.377  0.00  0.00     0.143 HD
ATOM      8  H   UNL d   1       2.100   2.545  -0.800  0.00  0.00     0.143 HD
ENDBRANCH   4   6
ENDBRANCH   1   2
BRANCH   1   9
ATOM      9  N   UNL d   1      -0.464  -0.297   1.800  0.00  0.00    -0.348 N 
ATOM     10  C   UNL d   1      -1.024  -1.014   2.835  0.00  0.00     0.214 C 
ATOM     11  O   UNL d   1      -0.932  -2.229   2.940  0.00  0.00    -0.274 OA
ATOM     12  C   UNL d   1      -1.770  -0.179   3.838  0.00  0.00     0.117 C 
ATOM     13  H   UNL d   1      -0.579   0.707   1.758  0.00  0.00     0.163 HD
ENDBRANCH   1   9
BRANCH   1  14
ATOM     14  C   UNL d   1      -0.682  -1.656  -0.309  0.00  0.00     0.073 C 
BRANCH  14  15
ATOM     15  C   UNL d   1      -1.549  -0.758  -1.166  0.00  0.00    -0.056 A 
ATOM     16  C   UNL d   1      -1.384  -0.757  -2.560  0.00  0.00     0.007 A 
ATOM     17  C   UNL d   1      -2.115   0.120  -3.362  0.00  0.00     0.001 A 
ATOM     18  C   UNL d   1      -3.020   1.006  -2.784  0.00  0.00     0.000 A 
ATOM     19  C   UNL d   1      -3.216   0.995  -1.405  0.00  0.00     0.001 A 
ATOM     20  C   UNL d   1      -2.500   0.105  -0.602  0.00  0.00     0.007 A 
ENDBRANCH  14  15
ENDBRANCH   1  14
TORSDOF 5
