REMARK  2 active torsions:
REMARK  status: ('A' for Active; 'I' for Inactive)
REMARK    1  A    between atoms: N_4  and  C_1 
REMARK    2  A    between atoms: O_11  and  C_2 
ROOT
ATOM      1  C   UNL d   1       1.831  -0.838   0.046  0.00  0.00     0.211 A 
ATOM      2  C   UNL d   1       0.619  -1.425   0.029  0.00  0.00     0.118 A 
ATOM      3  C   UNL d   1       2.039   0.614  -0.009  0.00  0.00     0.324 A 
ATOM      4  O   UNL d   1       0.882   1.388   0.075  0.00  0.00    -0.273 OA
ATOM      5  C   UNL d   1      -0.570  -0.568   0.010  0.00  0.00     0.034 A 
ATOM      6  C   UNL d   1      -0.403   0.815   0.055  0.00  0.00     0.092 A 
ATOM      7  O   UNL d   1       3.128   1.155  -0.155  0.00  0.00    -0.257 OA
ATOM      8  C   UNL d   1      -1.876  -1.071  -0.042  0.00  0.00     0.017 A 
ATOM      9  C   UNL d   1      -1.485   1.693   0.062  0.00  0.00     0.038 A 
ATOM     10  C   UNL d   1      -2.973  -0.202  -0.039  0.00  0.00     0.001 A 
ATOM     11  C   UNL d   1      -2.777   1.178   0.017  0.00  0.00     0.003 A 
ENDROOT
BRANCH   1  12
ATOM     12  N   UNL d   1       2.996  -1.682   0.117  0.00  0.00    -0.106 N 
ATOM     13  O   UNL d   1       2.928  -2.795  -0.430  0.00  0.00    -0.531 OA
ATOM     14  O   UNL d   1       3.963  -1.292   0.781  0.00  0.00    -0.531 OA
ENDBRANCH   1  12
BRANCH   2  15
ATOM     15  O   UNL d   1       0.353  -2.784   0.052  0.00  0.00    -0.357 OA
ATOM     16  H   UNL d   1       1.178  -3.296  -0.096  0.00  0.00     0.217 HD
ENDBRANCH   2  15
TORSDOF 2
