REMARK  8 active torsions:
REMARK  status: ('A' for Active; 'I' for Inactive)
REMARK    1  A    between atoms: O_4  and  C_1 
REMARK    2  A    between atoms: C_7  and  C_1 
REMARK    3  A    between atoms: C_2  and  C_3 
REMARK    4  A    between atoms: O_9  and  C_2 
REMARK    5  A    between atoms: C_12  and  O_4 
REMARK    6  A    between atoms: C_16  and  O_9 
REMARK    7  A    between atoms: C_10  and  C_16 
REMARK    8  A    between atoms: C_11  and  C_10 
ROOT
ATOM      1  C   UNL d   1      -5.999  -1.168   1.877  0.00  0.00     0.040 A 
ATOM      2  C   UNL d   1      -5.264  -1.046   0.686  0.00  0.00     0.030 A 
ATOM      3  C   UNL d   1      -3.854  -1.036   0.681  0.00  0.00    -0.025 A 
ATOM      4  C   UNL d   1      -3.151  -1.131   1.902  0.00  0.00    -0.023 A 
ATOM      5  C   UNL d   1      -1.040  -0.976   0.672  0.00  0.00     0.080 A 
ATOM      6  C   UNL d   1      -1.737  -1.091   1.883  0.00  0.00     0.049 A 
ATOM      7  C   UNL d   1      -5.304  -1.278   3.085  0.00  0.00     0.018 A 
ATOM      8  C   UNL d   1      -3.896  -1.254   3.095  0.00  0.00     0.013 A 
ATOM      9  C   UNL d   1      -3.134  -0.925  -0.520  0.00  0.00     0.015 A 
ATOM     10  C   UNL d   1      -1.736  -0.890  -0.528  0.00  0.00     0.038 A 
ENDROOT
BRANCH   1  11
ATOM     11  C   UNL d   1      -7.492  -1.139   1.782  0.00  0.00     0.293 C 
ATOM     12  O   UNL d   1      -8.072  -0.925   0.725  0.00  0.00    -0.259 OA
BRANCH  11  13
ATOM     13  O   UNL d   1      -8.098  -1.326   2.982  0.00  0.00    -0.310 OA
BRANCH  13  14
ATOM     14  C   UNL d   1      -9.531  -1.179   2.997  0.00  0.00     0.263 C 
BRANCH  14  15
ATOM     15  C   UNL d   1     -10.265  -2.386   3.583  0.00  0.00     0.183 C 
ATOM     16  O   UNL d   1      -9.688  -3.405   3.957  0.00  0.00    -0.290 OA
BRANCH  15  17
ATOM     17  C   UNL d   1     -11.762  -2.332   3.675  0.00  0.00     0.012 A 
ATOM     18  C   UNL d   1     -12.481  -3.537   3.635  0.00  0.00     0.017 A 
ATOM     19  C   UNL d   1     -13.879  -3.538   3.733  0.00  0.00     0.025 A 
ATOM     20  C   UNL d   1     -14.561  -2.334   3.886  0.00  0.00     0.034 A 
ATOM     21  C   UNL d   1     -13.860  -1.132   3.936  0.00  0.00     0.025 A 
ATOM     22 CL   UNL d   1     -16.277  -2.332   4.026  0.00  0.00    -0.084 Cl
ATOM     23  C   UNL d   1     -12.461  -1.127   3.826  0.00  0.00     0.017 A 
ENDBRANCH  15  17
ENDBRANCH  14  15
ENDBRANCH  13  14
ENDBRANCH  11  13
ENDBRANCH   1  11
BRANCH   5  24
ATOM     24  O   UNL d   1       0.373  -0.851   0.755  0.00  0.00    -0.275 OA
BRANCH  24  25
ATOM     25  C   UNL d   1       1.225  -1.230  -0.280  0.00  0.00     0.298 C 
ATOM     26  O   UNL d   1       0.915  -1.816  -1.306  0.00  0.00    -0.259 OA
BRANCH  25  27
ATOM     27  C   UNL d   1       2.636  -0.833   0.016  0.00  0.00     0.040 A 
ATOM     28  C   UNL d   1       3.627  -1.156  -0.929  0.00  0.00     0.019 A 
ATOM     29  C   UNL d   1       4.968  -0.829  -0.698  0.00  0.00     0.025 A 
ATOM     30  C   UNL d   1       5.327  -0.174   0.477  0.00  0.00     0.034 A 
ATOM     31  C   UNL d   1       4.353   0.168   1.416  0.00  0.00     0.025 A 
ATOM     32 CL   UNL d   1       6.977   0.209   0.776  0.00  0.00    -0.084 Cl
ATOM     33  C   UNL d   1       3.010  -0.158   1.188  0.00  0.00     0.019 A 
ENDBRANCH  25  27
ENDBRANCH  24  25
ENDBRANCH   5  24
TORSDOF 8
