REMARK  1 active torsions:
REMARK  status: ('A' for Active; 'I' for Inactive)
REMARK    1  A    between atoms: C_2  and  C_1 
REMARK       I    between atoms: N_8  and  C_2 
ROOT
ATOM      1  C   UNL d   1       0.791   1.429  -0.219  0.00  0.00     0.082 C 
ATOM      2  C   UNL d   1       1.303  -0.006   0.063  0.00  0.00    -0.002 C 
ATOM      3  C   UNL d   1      -0.753   1.431  -0.238  0.00  0.00     0.019 C 
ATOM      4  C   UNL d   1       0.786  -0.925  -1.062  0.00  0.00     0.006 C 
ATOM      5  C   UNL d   1       0.731  -0.535   1.393  0.00  0.00     0.006 C 
ATOM      6  C   UNL d   1      -1.298   0.012   0.008  0.00  0.00    -0.014 C 
ATOM      7  C   UNL d   1      -0.801  -0.469   1.379  0.00  0.00     0.005 C 
ATOM      8  C   UNL d   1      -0.749  -0.931  -1.076  0.00  0.00     0.005 C 
ENDROOT
BRANCH   1   9
ATOM      9  C   UNL d   1       1.373   2.460   0.747  0.00  0.00     0.220 C 
ATOM     10  O   UNL d   1       2.193   2.215   1.622  0.00  0.00    -0.273 OA
ATOM     11  N   UNL d   1       0.961   3.745   0.544  0.00  0.00    -0.370 N 
ATOM     12  H   UNL d   1       0.416   4.030  -0.256  0.00  0.00     0.159 HD
ATOM     13  H   UNL d   1       1.375   4.458   1.131  0.00  0.00     0.159 HD
ENDBRANCH   1   9
TORSDOF 1
