REMARK  4 active torsions:
REMARK  status: ('A' for Active; 'I' for Inactive)
REMARK    1  A    between atoms: N_2  and  C_1 
REMARK    2  A    between atoms: N_3  and  C_1 
REMARK    3  A    between atoms: C_4  and  N_3 
REMARK       I    between atoms: C_7  and  N_8 
REMARK    4  A    between atoms: N_8  and  C_16 
ROOT
ATOM      1  C   UNL d   1       0.932  -0.321  -0.065  0.00  0.00     0.174 C 
ATOM      2  S   UNL d   1       0.913  -0.575   1.596  0.00  0.00    -0.041 SA
ENDROOT
BRANCH   1   3
ATOM      3  N   UNL d   1       0.333  -1.203  -0.967  0.00  0.00    -0.358 N 
ATOM      4  C   UNL d   1       0.588  -2.639  -0.895  0.00  0.00     0.127 C 
ATOM      5  C   UNL d   1      -0.638  -3.413  -0.435  0.00  0.00     0.045 C 
ATOM      6  C   UNL d   1      -1.888  -3.053  -1.244  0.00  0.00     0.087 C 
ATOM      7  C   UNL d   1      -2.075  -1.532  -1.370  0.00  0.00     0.045 C 
ATOM      8  C   UNL d   1      -0.798  -0.806  -1.801  0.00  0.00     0.127 C 
BRANCH   6   9
ATOM      9  N   UNL d   1      -1.881  -3.712  -2.552  0.00  0.00    -0.357 N 
ATOM     10  C   UNL d   1      -3.050  -4.126  -3.152  0.00  0.00     0.213 C 
ATOM     11  O   UNL d   1      -4.162  -3.970  -2.662  0.00  0.00    -0.274 OA
ATOM     12  C   UNL d   1      -2.859  -4.804  -4.484  0.00  0.00     0.117 C 
ATOM     13  H   UNL d   1      -1.019  -3.753  -3.079  0.00  0.00     0.162 HD
ENDBRANCH   6   9
ENDBRANCH   1   3
BRANCH   1  14
ATOM     14  N   UNL d   1       1.542   0.743  -0.714  0.00  0.00    -0.333 N 
ATOM     15  H   UNL d   1       1.112   1.021  -1.582  0.00  0.00     0.168 HD
BRANCH  14  16
ATOM     16  C   UNL d   1       2.794   1.347  -0.429  0.00  0.00     0.040 A 
ATOM     17  C   UNL d   1       3.131   2.588  -1.009  0.00  0.00    -0.034 A 
ATOM     18  C   UNL d   1       4.427   3.110  -0.813  0.00  0.00     0.032 A 
ATOM     19  C   UNL d   1       2.181   3.432  -1.815  0.00  0.00     0.050 C 
ATOM     20  C   UNL d   1       5.372   2.421  -0.056  0.00  0.00     0.034 A 
ATOM     21  C   UNL d   1       5.044   1.204   0.519  0.00  0.00     0.026 A 
ATOM     22 CL   UNL d   1       6.950   3.069   0.151  0.00  0.00    -0.084 Cl
ATOM     23  C   UNL d   1       3.766   0.671   0.327  0.00  0.00     0.032 A 
ENDBRANCH  14  16
ENDBRANCH   1  14
TORSDOF 4
