REMARK  4 active torsions:
REMARK  status: ('A' for Active; 'I' for Inactive)
REMARK    1  A    between atoms: C_5  and  C_1 
REMARK    2  A    between atoms: C_9  and  N_3 
REMARK    3  A    between atoms: O_15  and  C_10 
REMARK    4  A    between atoms: C_16  and  O_15 
ROOT
ATOM      1  C   UNL d   1       0.454   4.963   0.108  0.00  0.00     0.032 A 
ATOM      2  C   UNL d   1      -0.144   7.721   0.155  0.00  0.00     0.068 A 
ATOM      3  C   UNL d   1      -0.506   5.476   0.990  0.00  0.00     0.032 A 
ATOM      4  C   UNL d   1       1.129   5.854  -0.728  0.00  0.00     0.032 A 
ATOM      5  C   UNL d   1       0.839   7.221  -0.701  0.00  0.00     0.039 A 
ATOM      6  C   UNL d   1      -0.813   6.842   1.004  0.00  0.00     0.039 A 
ENDROOT
BRANCH   1   7
ATOM      7  N   UNL d   1       0.837   3.611   0.088  0.00  0.00    -0.365 N 
ATOM      8  C   UNL d   1      -0.076   2.698   0.174  0.00  0.00     0.107 C 
ATOM      9  HN  UNL d   1       1.820   3.354   0.007  1.00  0.00     0.165 HD
BRANCH   8  10
ATOM     10  C   UNL d   1       0.286   1.302   0.199  0.00  0.00     0.020 A 
ATOM     11  S   UNL d   1      -0.915   0.131   0.533  0.00  0.00    -0.101 SA
ATOM     12  C   UNL d   1       0.216  -1.149   0.429  0.00  0.00     0.050 A 
ATOM     13  C   UNL d   1       1.481  -0.696   0.127  0.00  0.00     0.008 A 
ATOM     14  C   UNL d   1       1.522   0.723  -0.002  0.00  0.00     0.021 A 
ENDBRANCH   8  10
ENDBRANCH   1   7
BRANCH   2  15
ATOM     15  O   UNL d   1      -0.321   9.076   0.117  0.00  0.00    -0.352 OA
BRANCH  15  16
ATOM     16  C   UNL d   1      -1.595   9.558   0.543  0.00  0.00     0.171 C 
ATOM     17  C   UNL d   1      -1.596  11.070   0.407  0.00  0.00     0.034 C 
ENDBRANCH  15  16
ENDBRANCH   2  15
TORSDOF 4
