REMARK  6 active torsions:
REMARK  status: ('A' for Active; 'I' for Inactive)
REMARK    1  A    between atoms: C_4  and  C_1 
REMARK    2  A    between atoms: C_2  and  S_5 
REMARK    3  A    between atoms: C_3  and  C_2 
REMARK    4  A    between atoms: S_5  and  C_10 
REMARK    5  A    between atoms: C_6  and  C_17 
REMARK    6  A    between atoms: C_22  and  C_7 
ROOT
ATOM      1  C   UNL d   1      -0.958  -2.943  -5.436  0.00  0.00     0.038 A 
ATOM      2  N   UNL d   1       0.352  -4.965  -5.163  0.00  0.00    -0.373 N 
ATOM      3  HN  UNL d   1       0.970  -5.677  -5.553  1.00  0.00     0.164 HD
ATOM      4  C   UNL d   1      -1.371  -3.031  -4.098  0.00  0.00     0.039 A 
ATOM      5  C   UNL d   1      -0.906  -4.074  -3.296  0.00  0.00     0.034 A 
ATOM      6  C   UNL d   1      -0.100  -3.928  -5.912  0.00  0.00     0.103 A 
ATOM      7  C   UNL d   1      -0.056  -5.009  -3.873  0.00  0.00     0.108 A 
ENDROOT
BRANCH   1   8
ATOM      8  C   UNL d   1      -1.395  -1.784  -6.255  0.00  0.00     0.226 C 
ATOM      9  O   UNL d   1      -1.752  -0.755  -5.694  0.00  0.00    -0.279 OA
BRANCH   8  10
ATOM     10  S   UNL d   1      -1.508  -2.009  -7.986  0.00  0.00    -0.029 SA
BRANCH  10  11
ATOM     11  C   UNL d   1      -1.027  -0.479  -8.745  0.00  0.00     0.077 A 
ATOM     12  C   UNL d   1      -1.201   0.788  -8.205  0.00  0.00     0.038 A 
ATOM     13  C   UNL d   1      -0.894   1.914  -8.977  0.00  0.00     0.020 A 
ATOM     14  C   UNL d   1      -0.429   1.761 -10.285  0.00  0.00     0.063 A 
ATOM     15  C   UNL d   1      -0.263   0.466 -10.740  0.00  0.00     0.105 A 
ATOM     16  N   UNL d   1      -0.543  -0.637 -10.004  0.00  0.00    -0.359 N 
ATOM     17  HN  UNL d   1      -0.394  -1.570 -10.389  1.00  0.00     0.166 HD
BRANCH  14  18
ATOM     18  C   UNL d   1      -0.162   2.934 -11.176  0.00  0.00     0.418 C 
ATOM     19  F   UNL d   1       0.354   2.594 -12.389  0.00  0.00    -0.166 F 
ATOM     20  F   UNL d   1       0.720   3.817 -10.631  0.00  0.00    -0.166 F 
ATOM     21  F   UNL d   1      -1.290   3.650 -11.441  0.00  0.00    -0.166 F 
ENDBRANCH  14  18
ENDBRANCH  10  11
ENDBRANCH   8  10
ENDBRANCH   1   8
BRANCH   5  22
ATOM     22  C   UNL d   1      -1.233  -4.156  -1.907  0.00  0.00    -0.060 C 
ATOM     23  C   UNL d   1      -1.426  -4.237  -0.722  0.00  0.00    -0.061 C 
BRANCH  23  24
ATOM     24  C   UNL d   1      -1.582  -4.350   0.695  0.00  0.00     0.018 A 
ATOM     25  C   UNL d   1      -0.475  -4.657   1.492  0.00  0.00     0.020 A 
ATOM     26  C   UNL d   1      -0.616  -4.773   2.876  0.00  0.00     0.001 A 
ATOM     27  C   UNL d   1      -1.864  -4.582   3.466  0.00  0.00     0.000 A 
ATOM     28  C   UNL d   1      -2.972  -4.274   2.677  0.00  0.00     0.001 A 
ATOM     29  C   UNL d   1      -2.830  -4.158   1.290  0.00  0.00     0.020 A 
ENDBRANCH  23  24
ENDBRANCH   5  22
TORSDOF 6
