REMARK  2 active torsions:
REMARK  status: ('A' for Active; 'I' for Inactive)
REMARK    1  A    between atoms: C_2  and  C_1 
REMARK    2  A    between atoms: N_11  and  C_1 
ROOT
ATOM      1  C   UNL d   1       0.273  -1.364  -0.012  0.00  0.00     0.004 A 
ATOM      2  C   UNL d   1      -0.021  -3.669   0.685  0.00  0.00     0.103 A 
ATOM      3  C   UNL d   1       0.663  -2.458   0.777  0.00  0.00     0.054 A 
ATOM      4  C   UNL d   1      -1.117  -3.792  -0.173  0.00  0.00     0.102 A 
ATOM      5  O   UNL d   1       0.429  -4.690   1.482  0.00  0.00    -0.346 OA
ATOM      6  O   UNL d   1      -1.858  -4.939  -0.286  0.00  0.00    -0.346 OA
ATOM      7  C   UNL d   1      -0.813  -1.506  -0.890  0.00  0.00     0.017 A 
ATOM      8  C   UNL d   1      -1.504  -2.719  -0.970  0.00  0.00     0.040 A 
ATOM      9  C   UNL d   1      -0.125  -5.949   1.084  0.00  0.00     0.202 C 
ATOM     10  C   UNL d   1      -1.616  -5.824   0.814  0.00  0.00     0.202 C 
ENDROOT
BRANCH   1  11
ATOM     11  C   UNL d   1       1.008  -0.072   0.095  0.00  0.00     0.104 C 
ATOM     12  S   UNL d   1       0.347   1.447  -0.141  0.00  0.00    -0.060 SA
BRANCH  11  13
ATOM     13  N   UNL d   1       2.341  -0.147   0.411  0.00  0.00    -0.390 N 
ATOM     14  H   UNL d   1       2.854  -1.016   0.487  0.00  0.00     0.157 HD
ATOM     15  H   UNL d   1       2.873   0.712   0.465  0.00  0.00     0.157 HD
ENDBRANCH  11  13
ENDBRANCH   1  11
TORSDOF 2
