REMARK  6 active torsions:
REMARK  status: ('A' for Active; 'I' for Inactive)
REMARK    1  A    between atoms: C_9  and  N_1 
REMARK    2  A    between atoms: S_8  and  C_2 
REMARK    3  A    between atoms: C_14  and  S_8 
REMARK    4  A    between atoms: C_10  and  C_9 
REMARK    5  A    between atoms: C_12  and  C_14 
REMARK    6  A    between atoms: C_19  and  C_12 
ROOT
ATOM      1  N   UNL d   1       2.151  -0.583  -0.273  0.00  0.00    -0.288 N 
ATOM      2  C   UNL d   1       1.923   0.729  -0.647  0.00  0.00     0.150 C 
ATOM      3  C   UNL d   1       1.072  -1.439  -0.053  0.00  0.00     0.262 C 
ATOM      4  N   UNL d   1       0.758   1.292  -0.652  0.00  0.00    -0.336 N 
ATOM      5  HN  UNL d   1       0.656   2.274  -0.911  1.00  0.00     0.168 HD
ATOM      6  C   UNL d   1      -0.269  -0.834  -0.060  0.00  0.00     0.059 A 
ATOM      7  C   UNL d   1      -0.354   0.533  -0.295  0.00  0.00     0.049 A 
ATOM      8  O   UNL d   1       1.178  -2.647   0.165  0.00  0.00    -0.267 OA
ATOM      9  C   UNL d   1      -1.416  -1.591   0.203  0.00  0.00     0.019 A 
ATOM     10  C   UNL d   1      -1.599   1.159  -0.218  0.00  0.00     0.030 A 
ATOM     11  C   UNL d   1      -2.659  -0.961   0.251  0.00  0.00     0.001 A 
ATOM     12  C   UNL d   1      -2.749   0.417   0.056  0.00  0.00     0.002 A 
ENDROOT
BRANCH   2  13
ATOM     13  S   UNL d   1       3.259   1.728  -1.187  0.00  0.00    -0.086 SA
BRANCH  13  14
ATOM     14  C   UNL d   1       2.427   2.594  -2.565  0.00  0.00     0.166 C 
BRANCH  14  15
ATOM     15  C   UNL d   1       2.098   1.668  -3.731  0.00  0.00     0.169 C 
ATOM     16  O   UNL d   1       2.442   0.488  -3.787  0.00  0.00    -0.291 OA
BRANCH  15  17
ATOM     17  C   UNL d   1       1.378   2.254  -4.906  0.00  0.00     0.010 A 
ATOM     18  C   UNL d   1       1.591   1.688  -6.172  0.00  0.00     0.015 A 
ATOM     19  C   UNL d   1       0.950   2.210  -7.299  0.00  0.00     0.001 A 
ATOM     20  C   UNL d   1       0.082   3.292  -7.168  0.00  0.00     0.000 A 
ATOM     21  C   UNL d   1      -0.146   3.852  -5.912  0.00  0.00     0.001 A 
ATOM     22  C   UNL d   1       0.501   3.337  -4.781  0.00  0.00     0.015 A 
ENDBRANCH  15  17
ENDBRANCH  14  15
ENDBRANCH  13  14
ENDBRANCH   2  13
BRANCH   1  23
ATOM     23  C   UNL d   1       3.475  -1.151  -0.025  0.00  0.00     0.199 C 
BRANCH  23  24
ATOM     24  C   UNL d   1       3.727  -1.151   1.451  0.00  0.00     0.070 A 
ATOM     25  O   UNL d   1       4.287  -0.027   1.988  0.00  0.00    -0.325 OA
ATOM     26  C   UNL d   1       4.390  -0.235   3.327  0.00  0.00     0.142 A 
ATOM     27  C   UNL d   1       3.907  -1.478   3.662  0.00  0.00     0.027 A 
ATOM     28  C   UNL d   1       3.482  -2.073   2.451  0.00  0.00     0.036 A 
ENDBRANCH  23  24
ENDBRANCH   1  23
TORSDOF 6
