REMARK  5 active torsions:
REMARK  status: ('A' for Active; 'I' for Inactive)
REMARK    1  A    between atoms: C_6  and  C_1 
REMARK    2  A    between atoms: C_8  and  C_6 
REMARK    3  A    between atoms: O_11  and  C_10 
REMARK    4  A    between atoms: C_12  and  O_11 
REMARK    5  A    between atoms: C_14  and  C_12 
ROOT
ATOM      1  C   UNL d   1      -4.172   1.436   0.042  0.00  0.00    -0.020 A 
ATOM      2  C   UNL d   1      -4.038   2.207  -1.129  0.00  0.00     0.075 A 
ATOM      3  C   UNL d   1      -4.734   2.033   1.189  0.00  0.00     0.010 A 
ATOM      4  C   UNL d   1      -4.361   3.572  -1.089  0.00  0.00     0.037 A 
ATOM      5  C   UNL d   1      -5.120   3.373   1.188  0.00  0.00     0.001 A 
ATOM      6  C   UNL d   1      -4.908   4.150   0.056  0.00  0.00     0.003 A 
ENDROOT
BRANCH   1   7
ATOM      7  C   UNL d   1      -3.690  -0.003   0.136  0.00  0.00     0.086 C 
BRANCH   7   8
ATOM      8  C   UNL d   1      -2.223  -0.149   0.468  0.00  0.00     0.019 A 
ATOM      9  C   UNL d   1      -1.825  -1.129   1.513  0.00  0.00     0.193 A 
ATOM     10  C   UNL d   1      -0.393  -1.173   1.877  0.00  0.00     0.048 A 
ATOM     11  O   UNL d   1      -2.637  -1.865   2.060  0.00  0.00    -0.287 OA
ATOM     12  C   UNL d   1       0.067  -2.000   2.906  0.00  0.00     0.018 A 
ATOM     13  C   UNL d   1       0.502  -0.365   1.180  0.00  0.00     0.089 A 
ATOM     14  C   UNL d   1       1.425  -2.003   3.237  0.00  0.00     0.001 A 
ATOM     15  C   UNL d   1       2.319  -1.191   2.538  0.00  0.00     0.003 A 
ATOM     16  C   UNL d   1       1.859  -0.374   1.505  0.00  0.00     0.038 A 
ATOM     17  O   UNL d   1       0.111   0.467   0.165  0.00  0.00    -0.321 OA
ATOM     18  C   UNL d   1      -1.229   0.548  -0.110  0.00  0.00     0.154 A 
ENDBRANCH   7   8
ENDBRANCH   1   7
BRANCH   2  19
ATOM     19  O   UNL d   1      -3.585   1.560  -2.261  0.00  0.00    -0.346 OA
BRANCH  19  20
ATOM     20  C   UNL d   1      -3.692   2.313  -3.474  0.00  0.00     0.214 C 
BRANCH  20  21
ATOM     21  C   UNL d   1      -3.576   1.498  -4.743  0.00  0.00    -0.034 A 
ATOM     22  C   UNL d   1      -3.680   0.105  -4.772  0.00  0.00     0.009 A 
ATOM     23  C   UNL d   1      -3.679  -0.575  -5.996  0.00  0.00     0.001 A 
ATOM     24  C   UNL d   1      -3.580   0.132  -7.197  0.00  0.00     0.000 A 
ATOM     25  C   UNL d   1      -3.469   1.519  -7.178  0.00  0.00     0.001 A 
ATOM     26  C   UNL d   1      -3.466   2.196  -5.960  0.00  0.00     0.009 A 
ENDBRANCH  20  21
ENDBRANCH  19  20
ENDBRANCH   2  19
TORSDOF 5
