REMARK  3 active torsions:
REMARK  status: ('A' for Active; 'I' for Inactive)
REMARK    1  A    between atoms: C_10  and  N_1 
REMARK    2  A    between atoms: C_9  and  N_2 
REMARK    3  A    between atoms: C_13  and  C_9 
ROOT
ATOM      1  N   UNL d   1       0.853  -1.426   0.170  0.00  0.00    -0.244 N 
ATOM      2  N   UNL d   1       2.097   0.627   0.059  0.00  0.00    -0.259 N 
ATOM      3  C   UNL d   1       2.100  -0.782   0.196  0.00  0.00     0.338 A 
ATOM      4  C   UNL d   1      -0.303  -0.677   0.102  0.00  0.00     0.150 A 
ATOM      5  C   UNL d   1      -0.248   0.682   0.016  0.00  0.00     0.147 A 
ATOM      6  C   UNL d   1       0.956   1.429  -0.013  0.00  0.00     0.282 A 
ATOM      7  N   UNL d   1      -1.600  -1.112   0.048  0.00  0.00    -0.336 N 
ATOM      8  HN  UNL d   1      -1.932  -2.076   0.078  1.00  0.00     0.168 HD
ATOM      9  N   UNL d   1      -1.543   1.104  -0.070  0.00  0.00    -0.345 N 
ATOM     10  C   UNL d   1      -2.325  -0.019  -0.053  0.00  0.00     0.182 A 
ATOM     11  O   UNL d   1       3.158  -1.392   0.385  0.00  0.00    -0.246 OA
ATOM     12  O   UNL d   1       0.955   2.654  -0.085  0.00  0.00    -0.265 OA
ATOM     13  H   UNL d   1      -1.855   2.063  -0.157  0.00  0.00     0.167 HD
ENDROOT
BRANCH   2  14
ATOM     14  C   UNL d   1       3.388   1.308   0.025  0.00  0.00     0.179 C 
BRANCH  14  15
ATOM     15  C   UNL d   1       3.912   1.489  -1.382  0.00  0.00    -0.001 A 
ATOM     16  C   UNL d   1       4.125   2.769  -1.902  0.00  0.00     0.124 A 
ATOM     17  F   UNL d   1       3.886   3.850  -1.146  0.00  0.00    -0.205 F 
ATOM     18  C   UNL d   1       4.596   2.957  -3.200  0.00  0.00     0.043 A 
ATOM     19  C   UNL d   1       4.871   1.853  -4.003  0.00  0.00     0.003 A 
ATOM     20  C   UNL d   1       4.688   0.568  -3.498  0.00  0.00     0.001 A 
ATOM     21  C   UNL d   1       4.218   0.386  -2.194  0.00  0.00     0.012 A 
ENDBRANCH  14  15
ENDBRANCH   2  14
BRANCH   1  22
ATOM     22  C   UNL d   1       0.731  -2.844   0.114  0.00  0.00     0.084 A 
ATOM     23  C   UNL d   1       1.517  -3.596  -0.772  0.00  0.00     0.143 A 
ATOM     24  F   UNL d   1       2.362  -2.989  -1.621  0.00  0.00    -0.204 F 
ATOM     25  C   UNL d   1       1.370  -4.979  -0.876  0.00  0.00     0.044 A 
ATOM     26  C   UNL d   1       0.440  -5.641  -0.077  0.00  0.00     0.003 A 
ATOM     27  C   UNL d   1      -0.340  -4.916   0.822  0.00  0.00     0.002 A 
ATOM     28  C   UNL d   1      -0.201  -3.527   0.912  0.00  0.00     0.033 A 
ENDBRANCH   1  22
TORSDOF 3
