REMARK  2 active torsions:
REMARK  status: ('A' for Active; 'I' for Inactive)
REMARK    1  A    between atoms: O_8  and  C_1 
REMARK    2  A    between atoms: C_11  and  O_8 
ROOT
ATOM      1  C   UNL d   1      -0.037   1.407  -0.002  0.00  0.00     0.164 A 
ATOM      2  C   UNL d   1       0.824   0.311  -0.032  0.00  0.00     0.101 A 
ATOM      3  N   UNL d   1      -1.386   1.303  -0.026  0.00  0.00    -0.340 N 
ATOM      4  HN  UNL d   1      -1.979   2.133  -0.034  1.00  0.00     0.167 HD
ATOM      5  C   UNL d   1       0.263  -0.975  -0.036  0.00  0.00    -0.035 A 
ATOM      6  C   UNL d   1       2.241   0.523  -0.017  0.00  0.00     0.104 C 
ATOM      7  N   UNL d   1       3.392   0.656   0.007  0.00  0.00    -0.191 NA
ATOM      8  C   UNL d   1      -1.919   0.061  -0.038  0.00  0.00     0.008 A 
ATOM      9  C   UNL d   1      -1.135  -1.089  -0.034  0.00  0.00     0.033 A 
ATOM     10  C   UNL d   1       1.080  -2.238  -0.016  0.00  0.00     0.050 C 
ATOM     11  C   UNL d   1      -3.415  -0.048  -0.020  0.00  0.00     0.068 C 
ENDROOT
BRANCH   1  12
ATOM     12  O   UNL d   1       0.529   2.666   0.025  0.00  0.00    -0.330 OA
BRANCH  12  13
ATOM     13  C   UNL d   1      -0.279   3.702   0.597  0.00  0.00     0.122 C 
ATOM     14  C   UNL d   1      -0.053   3.761   2.107  0.00  0.00     0.040 C 
ATOM     15  C   UNL d   1       0.182   5.013  -0.034  0.00  0.00     0.040 C 
ENDBRANCH  12  13
ENDBRANCH   1  12
TORSDOF 2
