REMARK  9 active torsions:
REMARK  status: ('A' for Active; 'I' for Inactive)
REMARK    1  A    between atoms: N_3  and  C_1 
REMARK       I    between atoms: C_2  and  N_3 
REMARK    2  A    between atoms: C_5  and  C_2 
REMARK    3  A    between atoms: N_7  and  C_4 
REMARK    4  A    between atoms: O_19  and  C_6 
REMARK    5  A    between atoms: O_20  and  C_8 
REMARK    6  A    between atoms: O_21  and  C_9 
REMARK    7  A    between atoms: C_10  and  C_11 
REMARK    8  A    between atoms: O_22  and  C_10 
REMARK    9  A    between atoms: C_25  and  O_22 
ROOT
ATOM      1  C   UNL d   1       1.758  -0.218   0.079  0.00  0.00     0.062 A 
ATOM      2  C   UNL d   1       0.900  -1.348   0.014  0.00  0.00     0.057 A 
ATOM      3  C   UNL d   1      -0.221   1.270   0.196  0.00  0.00     0.041 A 
ATOM      4  C   UNL d   1       1.179   1.070   0.201  0.00  0.00     0.049 A 
ATOM      5  C   UNL d   1      -0.502  -1.102  -0.032  0.00  0.00     0.033 A 
ATOM      6  C   UNL d   1      -1.061   0.171   0.063  0.00  0.00     0.020 A 
ENDROOT
BRANCH   1   7
ATOM      7  N   UNL d   1       3.178  -0.302   0.259  0.00  0.00    -0.321 N 
ATOM      8  C   UNL d   1       4.069  -0.717  -0.732  0.00  0.00     0.256 C 
ATOM      9  O   UNL d   1       3.791  -0.903  -1.912  0.00  0.00    -0.267 OA
ATOM     10  H   UNL d   1       3.562   0.383   0.895  0.00  0.00     0.169 HD
BRANCH   8  11
ATOM     11  C   UNL d   1       5.473  -1.012  -0.288  0.00  0.00     0.037 A 
ATOM     12  C   UNL d   1       6.118  -2.165  -0.781  0.00  0.00     0.057 A 
ATOM     13  C   UNL d   1       7.398  -2.535  -0.320  0.00  0.00     0.105 A 
ATOM     14  C   UNL d   1       8.072  -1.730   0.630  0.00  0.00     0.135 A 
ATOM     15  C   UNL d   1       7.442  -0.543   1.067  0.00  0.00     0.105 A 
ATOM     16  C   UNL d   1       6.149  -0.204   0.623  0.00  0.00     0.057 A 
BRANCH  13  17
ATOM     17  O   UNL d   1       7.970  -3.733  -0.666  0.00  0.00    -0.353 OA
ATOM     18  C   UNL d   1       7.787  -4.193  -2.000  0.00  0.00     0.210 C 
ENDBRANCH  13  17
BRANCH  14  19
ATOM     19  O   UNL d   1       9.273  -2.024   1.217  0.00  0.00    -0.351 OA
ATOM     20  C   UNL d   1      10.136  -3.015   0.680  0.00  0.00     0.210 C 
ENDBRANCH  14  19
BRANCH  15  21
ATOM     21  O   UNL d   1       7.928   0.389   1.954  0.00  0.00    -0.353 OA
ATOM     22  C   UNL d   1       9.323   0.412   2.225  0.00  0.00     0.210 C 
ENDBRANCH  15  21
ENDBRANCH   8  11
ENDBRANCH   1   7
BRANCH   2  23
ATOM     23  N   UNL d   1       1.235  -2.705   0.118  0.00  0.00    -0.379 N 
ATOM     24  C   UNL d   1       2.464  -3.234  -0.455  0.00  0.00     0.123 C 
ATOM     25  C   UNL d   1       2.336  -4.739  -0.682  0.00  0.00     0.020 C 
ATOM     26  C   UNL d   1       1.872  -5.475   0.571  0.00  0.00     0.003 C 
ATOM     27  C   UNL d   1       0.637  -4.815   1.177  0.00  0.00     0.020 C 
ATOM     28  C   UNL d   1       0.863  -3.321   1.402  0.00  0.00     0.123 C 
ENDBRANCH   2  23
BRANCH   3  29
ATOM     29  C   UNL d   1      -0.766   2.648   0.360  0.00  0.00     0.293 C 
ATOM     30  O   UNL d   1      -0.052   3.643   0.394  0.00  0.00    -0.259 OA
BRANCH  29  31
ATOM     31  O   UNL d   1      -2.117   2.644   0.498  0.00  0.00    -0.318 OA
BRANCH  31  32
ATOM     32  C   UNL d   1      -2.746   3.929   0.680  0.00  0.00     0.174 C 
ATOM     33  C   UNL d   1      -2.732   4.330   2.145  0.00  0.00     0.034 C 
ENDBRANCH  31  32
ENDBRANCH  29  31
ENDBRANCH   3  29
TORSDOF 9
