REMARK  4 active torsions:
REMARK  status: ('A' for Active; 'I' for Inactive)
REMARK    1  A    between atoms: C_7  and  C_1 
REMARK    2  A    between atoms: C_10  and  C_4 
REMARK    3  A    between atoms: N_9  and  C_7 
REMARK       I    between atoms: C_8  and  N_9 
REMARK    4  A    between atoms: C_12  and  C_8 
ROOT
ATOM      1  C   UNL d   1       0.008  -1.288   0.021  0.00  0.00     0.020 A 
ATOM      2  N   UNL d   1      -1.359   0.533   0.058  0.00  0.00    -0.260 N 
ATOM      3  HN  UNL d   1      -2.185   1.133   0.070  1.00  0.00     0.195 HD
ATOM      4  C   UNL d   1      -1.346  -0.811   0.048  0.00  0.00     0.075 A 
ATOM      5  O   UNL d   1      -0.049   0.945   0.048  0.00  0.00    -0.242 OA
ATOM      6  C   UNL d   1       0.767  -0.135   0.026  0.00  0.00     0.082 A 
ATOM      7  C   UNL d   1       2.217   0.141  -0.001  0.00  0.00     0.079 C 
ENDROOT
BRANCH   1   8
ATOM      8  C   UNL d   1       0.514  -2.678  -0.049  0.00  0.00     0.166 C 
BRANCH   8   9
ATOM      9  N   UNL d   1       0.670  -3.200   1.289  0.00  0.00    -0.356 N 
ATOM     10  C   UNL d   1       0.941  -4.539   1.489  0.00  0.00     0.222 C 
ATOM     11  O   UNL d   1       1.110  -5.303   0.538  0.00  0.00    -0.273 OA
ATOM     12  H   UNL d   1       0.576  -2.581   2.084  0.00  0.00     0.162 HD
BRANCH  10  13
ATOM     13  C   UNL d   1       0.990  -4.966   2.979  0.00  0.00     0.078 C 
ATOM     14  C   UNL d   1       0.629  -6.446   3.298  0.00  0.00     0.014 C 
ATOM     15  C   UNL d   1      -0.037  -5.948   4.591  0.00  0.00     0.002 C 
ATOM     16  C   UNL d   1      -0.202  -4.582   3.901  0.00  0.00     0.014 C 
ENDBRANCH  10  13
ENDBRANCH   8   9
ENDBRANCH   1   8
BRANCH   4  17
ATOM     17  C   UNL d   1      -2.609  -1.559   0.055  0.00  0.00    -0.007 A 
ATOM     18  C   UNL d   1      -3.742  -1.032  -0.585  0.00  0.00     0.014 A 
ATOM     19  C   UNL d   1      -4.955  -1.728  -0.586  0.00  0.00     0.001 A 
ATOM     20  C   UNL d   1      -5.051  -2.961   0.054  0.00  0.00     0.000 A 
ATOM     21  C   UNL d   1      -3.941  -3.493   0.702  0.00  0.00     0.001 A 
ATOM     22  C   UNL d   1      -2.732  -2.792   0.708  0.00  0.00     0.014 A 
ENDBRANCH   4  17
TORSDOF 4
