REMARK  14 active torsions:
REMARK  status: ('A' for Active; 'I' for Inactive)
REMARK    1  A    between atoms: C_1  and  O_8 
REMARK    2  A    between atoms: C_1  and  C_3 
REMARK    3  A    between atoms: C_1  and  C_2 
REMARK    4  A    between atoms: C_4  and  C_2 
REMARK    5  A    between atoms: C_2  and  O_7 
REMARK    6  A    between atoms: C_3  and  O_9 
REMARK    7  A    between atoms: C_4  and  O_10 
REMARK    8  A    between atoms: C_16  and  C_4 
REMARK    9  A    between atoms: C_12  and  O_7 
REMARK   10  A    between atoms: C_11  and  O_8 
REMARK   11  A    between atoms: C_13  and  O_9 
REMARK   12  A    between atoms: C_14  and  O_10 
REMARK   13  A    between atoms: C_15  and  O_17 
REMARK   14  A    between atoms: O_17  and  C_16 
ROOT
ATOM      1  C   UNL d   1       1.101   1.365  -0.320  0.00  0.00     0.270 C 
ATOM      2  C   UNL d   1       1.867   1.518  -1.581  0.00  0.00     0.094 C 
ATOM      3  N   UNL d   1       2.463   1.622  -2.570  0.00  0.00    -0.194 NA
ENDROOT
BRANCH   1   4
ATOM      4  O   UNL d   1       1.743   2.119   0.733  0.00  0.00    -0.299 OA
BRANCH   4   5
ATOM      5  C   UNL d   1       1.336   3.404   0.890  0.00  0.00     0.256 C 
ATOM      6  O   UNL d   1       0.527   3.971   0.173  0.00  0.00    -0.266 OA
ATOM      7  C   UNL d   1       1.971   3.995   2.113  0.00  0.00     0.126 C 
ENDBRANCH   4   5
ENDBRANCH   1   4
BRANCH   1   8
ATOM      8  C   UNL d   1       1.099  -0.116   0.139  0.00  0.00     0.207 C 
BRANCH   8   9
ATOM      9  O   UNL d   1       0.455  -0.942  -0.859  0.00  0.00    -0.310 OA
BRANCH   9  10
ATOM     10  C   UNL d   1       1.260  -1.842  -1.491  0.00  0.00     0.255 C 
ATOM     11  O   UNL d   1       2.442  -2.022  -1.233  0.00  0.00    -0.266 OA
ATOM     12  C   UNL d   1       0.527  -2.588  -2.561  0.00  0.00     0.126 C 
ENDBRANCH   9  10
ENDBRANCH   8   9
BRANCH   8  13
ATOM     13  C   UNL d   1       0.399  -0.279   1.519  0.00  0.00     0.196 C 
BRANCH  13  14
ATOM     14  C   UNL d   1       0.394  -1.706   2.134  0.00  0.00     0.188 C 
BRANCH  14  15
ATOM     15  O   UNL d   1      -0.468  -2.603   1.388  0.00  0.00    -0.311 OA
BRANCH  15  16
ATOM     16  C   UNL d   1      -1.734  -2.741   1.874  0.00  0.00     0.255 C 
ATOM     17  O   UNL d   1      -2.212  -2.114   2.811  0.00  0.00    -0.266 OA
ATOM     18  C   UNL d   1      -2.504  -3.762   1.094  0.00  0.00     0.126 C 
ENDBRANCH  15  16
ENDBRANCH  14  15
BRANCH  14  19
ATOM     19  C   UNL d   1       1.799  -2.323   2.196  0.00  0.00     0.213 C 
BRANCH  19  20
ATOM     20  O   UNL d   1       1.796  -3.608   2.850  0.00  0.00    -0.319 OA
BRANCH  20  21
ATOM     21  C   UNL d   1       1.964  -3.588   4.197  0.00  0.00     0.254 C 
ATOM     22  O   UNL d   1       1.964  -2.579   4.888  0.00  0.00    -0.266 OA
ATOM     23  C   UNL d   1       2.171  -4.976   4.727  0.00  0.00     0.126 C 
ENDBRANCH  20  21
ENDBRANCH  19  20
ENDBRANCH  14  19
ENDBRANCH  13  14
BRANCH  13  24
ATOM     24  O   UNL d   1      -0.977   0.171   1.411  0.00  0.00    -0.311 OA
BRANCH  24  25
ATOM     25  C   UNL d   1      -1.376   1.145   2.275  0.00  0.00     0.255 C 
ATOM     26  O   UNL d   1      -0.626   1.787   2.996  0.00  0.00    -0.266 OA
ATOM     27  C   UNL d   1      -2.865   1.307   2.246  0.00  0.00     0.126 C 
ENDBRANCH  24  25
ENDBRANCH  13  24
ENDBRANCH   8  13
ENDBRANCH   1   8
TORSDOF 14
