REMARK  2 active torsions:
REMARK  status: ('A' for Active; 'I' for Inactive)
REMARK    1  A    between atoms: O_8  and  N_1 
REMARK    2  A    between atoms: C_11  and  O_8 
ROOT
ATOM      1  N   UNL d   1       1.867   0.080   0.065  0.00  0.00    -0.146 N 
ATOM      2  C   UNL d   1       1.166  -1.087   0.016  0.00  0.00     0.286 A 
ATOM      3  C   UNL d   1       1.091   1.192  -0.035  0.00  0.00     0.286 A 
ATOM      4  C   UNL d   1      -0.244  -0.682   0.019  0.00  0.00     0.050 A 
ATOM      5  C   UNL d   1      -0.286   0.704  -0.006  0.00  0.00     0.050 A 
ATOM      6  O   UNL d   1       1.389   2.366  -0.145  0.00  0.00    -0.265 OA
ATOM      7  O   UNL d   1       1.539  -2.243  -0.050  0.00  0.00    -0.265 OA
ATOM      8  C   UNL d   1      -1.475   1.406  -0.015  0.00  0.00     0.018 A 
ATOM      9  C   UNL d   1      -1.398  -1.442   0.027  0.00  0.00     0.018 A 
ATOM     10  C   UNL d   1      -2.655   0.657   0.004  0.00  0.00     0.001 A 
ATOM     11  C   UNL d   1      -2.617  -0.753   0.022  0.00  0.00     0.001 A 
ENDROOT
BRANCH   1  12
ATOM     12  O   UNL d   1       3.250   0.113  -0.110  0.00  0.00    -0.268 OA
BRANCH  12  13
ATOM     13  C   UNL d   1       3.855   0.667   1.060  0.00  0.00     0.198 C 
ATOM     14  C   UNL d   1       5.361   0.559   0.932  0.00  0.00     0.036 C 
ENDBRANCH  12  13
ENDBRANCH   1  12
TORSDOF 2
