REMARK  4 active torsions:
REMARK  status: ('A' for Active; 'I' for Inactive)
REMARK    1  A    between atoms: C_10  and  N_1 
REMARK    2  A    between atoms: C_8  and  N_3 
REMARK    3  A    between atoms: C_7  and  C_12 
REMARK    4  A    between atoms: C_19  and  C_10 
ROOT
ATOM      1  N   UNL d   1      -0.667   1.149  -0.021  0.00  0.00    -0.260 N 
ATOM      2  C   UNL d   1      -1.372  -0.050  -0.161  0.00  0.00     0.336 A 
ATOM      3  N   UNL d   1      -0.596  -1.225  -0.076  0.00  0.00    -0.273 N 
ATOM      4  C   UNL d   1       0.711   1.248   0.089  0.00  0.00     0.274 A 
ATOM      5  C   UNL d   1       1.464  -0.021   0.082  0.00  0.00     0.128 A 
ATOM      6  C   UNL d   1       0.782  -1.168   0.011  0.00  0.00     0.130 A 
ATOM      7  C   UNL d   1       2.885  -0.013   0.177  0.00  0.00     0.106 C 
ATOM      8  N   UNL d   1       4.039  -0.074   0.244  0.00  0.00    -0.191 NA
ATOM      9  O   UNL d   1      -2.584  -0.063  -0.390  0.00  0.00    -0.246 OA
ATOM     10  O   UNL d   1       1.312   2.317   0.180  0.00  0.00    -0.266 OA
ENDROOT
BRANCH   1  11
ATOM     11  C   UNL d   1      -1.445   2.388  -0.015  0.00  0.00     0.175 C 
BRANCH  11  12
ATOM     12  C   UNL d   1      -1.999   2.692   1.362  0.00  0.00    -0.040 A 
ATOM     13  C   UNL d   1      -1.246   3.430   2.288  0.00  0.00     0.010 A 
ATOM     14  C   UNL d   1      -1.712   3.612   3.594  0.00  0.00     0.024 A 
ATOM     15  C   UNL d   1      -2.930   3.056   3.981  0.00  0.00     0.034 A 
ATOM     16  C   UNL d   1      -3.705   2.352   3.064  0.00  0.00     0.024 A 
ATOM     17 CL   UNL d   1      -3.466   3.215   5.607  0.00  0.00    -0.084 Cl
ATOM     18  C   UNL d   1      -3.244   2.176   1.758  0.00  0.00     0.010 A 
ENDBRANCH  11  12
ENDBRANCH   1  11
BRANCH   3  19
ATOM     19  C   UNL d   1      -1.271  -2.490  -0.113  0.00  0.00     0.044 A 
ATOM     20  C   UNL d   1      -2.389  -2.721   0.703  0.00  0.00     0.046 A 
ATOM     21  C   UNL d   1      -3.058  -3.955   0.687  0.00  0.00     0.050 A 
ATOM     22  C   UNL d   1      -2.601  -4.961  -0.177  0.00  0.00     0.016 A 
ATOM     23  C   UNL d   1      -1.490  -4.742  -0.992  0.00  0.00     0.003 A 
ATOM     24  C   UNL d   1      -0.817  -3.519  -0.948  0.00  0.00     0.030 A 
BRANCH  21  25
ATOM     25  C   UNL d   1      -4.253  -4.206   1.573  0.00  0.00     0.417 C 
ATOM     26  F   UNL d   1      -4.563  -3.158   2.385  0.00  0.00    -0.166 F 
ATOM     27  F   UNL d   1      -5.382  -4.475   0.861  0.00  0.00    -0.166 F 
ATOM     28  F   UNL d   1      -4.070  -5.273   2.400  0.00  0.00    -0.166 F 
ENDBRANCH  21  25
ENDBRANCH   3  19
TORSDOF 4
