REMARK  4 active torsions:
REMARK  status: ('A' for Active; 'I' for Inactive)
REMARK       I    between atoms: N_6  and  C_1 
REMARK       I    between atoms: N_7  and  C_1 
REMARK    1  A    between atoms: N_14  and  C_4 
REMARK    2  A    between atoms: C_5  and  C_10 
REMARK    3  A    between atoms: C_15  and  N_6 
REMARK    4  A    between atoms: C_18  and  N_7 
ROOT
ATOM      1  C   UNL d   1       2.299  -5.029  -0.909  0.00  0.00    -0.009 A 
ATOM      2  C   UNL d   1       1.175  -4.681  -1.672  0.00  0.00     0.016 A 
ATOM      3  C   UNL d   1       2.724  -4.099   0.056  0.00  0.00     0.016 A 
ATOM      4  C   UNL d   1       0.949  -2.544  -0.539  0.00  0.00     0.036 A 
ATOM      5  C   UNL d   1       0.525  -3.458  -1.502  0.00  0.00     0.030 A 
ATOM      6  C   UNL d   1       2.067  -2.868   0.233  0.00  0.00     0.030 A 
ENDROOT
BRANCH   4   7
ATOM      7  N   UNL d   1       0.288  -1.314  -0.302  0.00  0.00    -0.309 N 
ATOM      8  C   UNL d   1      -0.985  -0.995  -0.758  0.00  0.00     0.325 C 
ATOM      9  N   UNL d   1      -1.377   0.270  -0.356  0.00  0.00    -0.309 N 
ATOM     10  O   UNL d   1      -1.689  -1.754  -1.416  0.00  0.00    -0.247 OA
ATOM     11  H   UNL d   1      -0.670   0.866   0.046  0.00  0.00     0.170 HD
ATOM     12  H   UNL d   1       0.687  -0.716   0.405  0.00  0.00     0.170 HD
BRANCH   9  13
ATOM     13  C   UNL d   1      -2.659   0.844  -0.538  0.00  0.00     0.036 A 
ATOM     14  C   UNL d   1      -3.741   0.168  -1.115  0.00  0.00     0.029 A 
ATOM     15  C   UNL d   1      -4.987   0.784  -1.248  0.00  0.00     0.002 A 
ATOM     16  C   UNL d   1      -5.170   2.087  -0.798  0.00  0.00     0.000 A 
ATOM     17  C   UNL d   1      -4.105   2.773  -0.220  0.00  0.00     0.002 A 
ATOM     18  C   UNL d   1      -2.854   2.156  -0.092  0.00  0.00     0.029 A 
ENDBRANCH   9  13
ENDBRANCH   4   7
BRANCH   1  19
ATOM     19  C   UNL d   1       3.001  -6.309  -1.134  0.00  0.00     0.046 A 
ATOM     20  N   UNL d   1       3.597  -6.866  -0.057  0.00  0.00    -0.332 N 
ATOM     21  C   UNL d   1       4.204  -8.043  -0.238  0.00  0.00     0.155 A 
ATOM     22  HN  UNL d   1       3.585  -6.409   0.855  1.00  0.00     0.168 HD
ATOM     23  N   UNL d   1       4.316  -8.680  -1.405  0.00  0.00    -0.343 N 
ATOM     24  C   UNL d   1       3.728  -8.097  -2.460  0.00  0.00     0.093 A 
ATOM     25  HN  UNL d   1       4.821  -9.562  -1.490  1.00  0.00     0.167 HD
ATOM     26  C   UNL d   1       3.051  -6.908  -2.381  0.00  0.00     0.047 A 
BRANCH  21  27
ATOM     27  N   UNL d   1       4.812  -8.627   0.852  0.00  0.00    -0.274 NA
ATOM     28  H   UNL d   1       5.039  -7.922   1.537  0.00  0.00     0.127 HD
ATOM     29  H   UNL d   1       5.555  -9.234   0.537  0.00  0.00     0.127 HD
ENDBRANCH  21  27
ENDBRANCH   1  19
TORSDOF 4
