REMARK  5 active torsions:
REMARK  status: ('A' for Active; 'I' for Inactive)
REMARK       I    between atoms: N_2  and  C_1 
REMARK    1  A    between atoms: C_4  and  C_1 
REMARK    2  A    between atoms: N_3  and  N_2 
REMARK    3  A    between atoms: C_5  and  N_3 
REMARK    4  A    between atoms: C_13  and  C_7 
REMARK    5  A    between atoms: C_16  and  C_12 
ROOT
ATOM      1  C   UNL d   1       1.003  -0.189   0.171  0.00  0.00     0.266 C 
ATOM      2  N   UNL d   1       0.345  -1.373  -0.124  0.00  0.00    -0.283 N 
ATOM      3  O   UNL d   1       2.085   0.129  -0.313  0.00  0.00    -0.266 OA
ATOM      4  H   UNL d   1      -0.664  -1.389  -0.062  0.00  0.00     0.184 HD
ENDROOT
BRANCH   2   5
ATOM      5  N   UNL d   1       0.944  -2.236  -1.069  0.00  0.00    -0.203 NA
ATOM      6  H   UNL d   1       1.576  -1.711  -1.675  0.00  0.00     0.153 HD
BRANCH   5   7
ATOM      7  C   UNL d   1       0.044  -3.090  -1.762  0.00  0.00     0.034 A 
ATOM      8  C   UNL d   1       0.325  -3.574  -3.062  0.00  0.00    -0.036 A 
ATOM      9  C   UNL d   1      -0.606  -4.433  -3.689  0.00  0.00     0.009 A 
ATOM     10  C   UNL d   1      -1.772  -4.842  -3.046  0.00  0.00     0.001 A 
ATOM     11  C   UNL d   1      -2.006  -4.444  -1.740  0.00  0.00     0.002 A 
ATOM     12  C   UNL d   1      -1.096  -3.603  -1.103  0.00  0.00     0.026 A 
BRANCH   8  13
ATOM     13  C   UNL d   1       1.619  -3.290  -3.803  0.00  0.00     0.036 C 
ATOM     14  C   UNL d   1       1.421  -2.673  -5.183  0.00  0.00     0.010 C 
ENDBRANCH   8  13
ENDBRANCH   5   7
ENDBRANCH   2   5
BRANCH   1  15
ATOM     15  C   UNL d   1       0.266   0.733   1.086  0.00  0.00     0.033 A 
ATOM     16  C   UNL d   1      -0.682   0.260   2.003  0.00  0.00     0.017 A 
ATOM     17  C   UNL d   1      -1.367   1.151   2.838  0.00  0.00     0.008 A 
ATOM     18  C   UNL d   1      -1.121   2.528   2.772  0.00  0.00    -0.059 A 
ATOM     19  C   UNL d   1      -0.140   2.988   1.877  0.00  0.00     0.008 A 
ATOM     20  C   UNL d   1       0.547   2.101   1.042  0.00  0.00     0.017 A 
BRANCH  18  21
ATOM     21  C   UNL d   1      -1.809   3.523   3.679  0.00  0.00     0.034 C 
ATOM     22  C   UNL d   1      -3.242   3.181   4.073  0.00  0.00     0.010 C 
ENDBRANCH  18  21
ENDBRANCH   1  15
TORSDOF 5
