REMARK  5 active torsions:
REMARK  status: ('A' for Active; 'I' for Inactive)
REMARK    1  A    between atoms: C_8  and  C_1 
REMARK    2  A    between atoms: C_7  and  C_2 
REMARK    3  A    between atoms: C_9  and  C_3 
REMARK    4  A    between atoms: O_13  and  C_7 
REMARK    5  A    between atoms: O_14  and  C_8 
ROOT
ATOM      1  C   UNL d   1      -1.235  -1.055   0.085  0.00  0.00     0.052 C 
ATOM      2  C   UNL d   1       1.333  -1.002   0.078  0.00  0.00     0.052 C 
ATOM      3  C   UNL d   1       0.069  -1.848  -0.145  0.00  0.00     0.102 C 
ATOM      4  C   UNL d   1      -1.213   0.300   0.091  0.00  0.00     0.018 C 
ATOM      5  C   UNL d   1       1.246   0.350   0.091  0.00  0.00     0.018 C 
ATOM      6  N   UNL d   1       0.006   0.960  -0.019  0.00  0.00    -0.362 N 
ATOM      7  C   UNL d   1      -2.398   1.227   0.211  0.00  0.00     0.069 C 
ATOM      8  C   UNL d   1       2.426   1.284   0.207  0.00  0.00     0.069 C 
ATOM      9  H   UNL d   1      -0.017   1.974   0.064  0.00  0.00     0.165 HD
ENDROOT
BRANCH   3  10
ATOM     10  C   UNL d   1       0.064  -2.443  -1.567  0.00  0.00    -0.023 A 
ATOM     11  C   UNL d   1       0.008  -3.822  -1.836  0.00  0.00     0.041 A 
ATOM     12 CL   UNL d   1      -0.025  -5.025  -0.597  0.00  0.00    -0.084 Cl
ATOM     13  C   UNL d   1      -0.021  -4.288  -3.158  0.00  0.00     0.024 A 
ATOM     14  C   UNL d   1       0.014  -3.397  -4.229  0.00  0.00     0.002 A 
ATOM     15  C   UNL d   1       0.075  -2.032  -3.986  0.00  0.00     0.001 A 
ATOM     16  C   UNL d   1       0.096  -1.561  -2.673  0.00  0.00     0.010 A 
ENDBRANCH   3  10
BRANCH   2  17
ATOM     17  C   UNL d   1       2.632  -1.699   0.302  0.00  0.00     0.291 C 
ATOM     18  O   UNL d   1       3.710  -1.143   0.462  0.00  0.00    -0.260 OA
BRANCH  17  19
ATOM     19  O   UNL d   1       2.460  -3.042   0.343  0.00  0.00    -0.323 OA
ATOM     20  C   UNL d   1       3.658  -3.782   0.584  0.00  0.00     0.213 C 
ENDBRANCH  17  19
ENDBRANCH   2  17
BRANCH   1  21
ATOM     21  C   UNL d   1      -2.486  -1.851   0.241  0.00  0.00     0.291 C 
ATOM     22  O   UNL d   1      -3.607  -1.479  -0.070  0.00  0.00    -0.260 OA
BRANCH  21  23
ATOM     23  O   UNL d   1      -2.196  -3.060   0.783  0.00  0.00    -0.323 OA
ATOM     24  C   UNL d   1      -3.302  -3.962   0.872  0.00  0.00     0.213 C 
ENDBRANCH  21  23
ENDBRANCH   1  21
TORSDOF 5
