REMARK  3 active torsions:
REMARK  status: ('A' for Active; 'I' for Inactive)
REMARK    1  A    between atoms: N_2  and  C_1 
REMARK    2  A    between atoms: C_8  and  N_4 
REMARK    3  A    between atoms: O_14  and  C_7 
ROOT
ATOM      1  C   UNL d   1       1.112  -1.154  -0.093  0.00  0.00     0.092 A 
ATOM      2  C   UNL d   1      -0.234  -0.704  -0.047  0.00  0.00     0.005 A 
ATOM      3  C   UNL d   1       2.152  -0.206  -0.067  0.00  0.00     0.094 A 
ATOM      4  C   UNL d   1      -0.494   0.690   0.021  0.00  0.00    -0.024 A 
ATOM      5  C   UNL d   1       1.893   1.156   0.005  0.00  0.00     0.040 A 
ATOM      6  C   UNL d   1       0.574   1.600   0.047  0.00  0.00     0.015 A 
ATOM      7  C   UNL d   1      -1.339  -1.583  -0.069  0.00  0.00     0.014 A 
ATOM      8  C   UNL d   1      -1.820   1.152   0.054  0.00  0.00     0.012 A 
ATOM      9  C   UNL d   1      -2.652  -1.107  -0.029  0.00  0.00     0.001 A 
ATOM     10  C   UNL d   1      -2.892   0.260   0.029  0.00  0.00     0.001 A 
ENDROOT
BRANCH   1  11
ATOM     11  N   UNL d   1       1.401  -2.530  -0.261  0.00  0.00    -0.296 N 
ATOM     12  N   UNL d   1       2.083  -2.971   0.692  0.00  0.00    -0.285 N 
ATOM     13  HN  UNL d   1       2.362  -2.425   1.507  1.00  0.00     0.188 HD
ATOM     14  HN  UNL d   1       1.094  -3.089  -1.056  1.00  0.00     0.187 HD
BRANCH  12  15
ATOM     15  C   UNL d   1       2.412  -4.323   0.484  0.00  0.00     0.119 A 
ATOM     16  N   UNL d   1       3.737  -4.597   0.467  0.00  0.00    -0.351 N 
ATOM     17  C   UNL d   1       4.095  -5.890   0.300  0.00  0.00     0.089 A 
ATOM     18  HN  UNL d   1       4.435  -3.861   0.575  1.00  0.00     0.166 HD
ATOM     19  C   UNL d   1       3.192  -6.931   0.151  0.00  0.00     0.017 A 
ATOM     20  C   UNL d   1       1.836  -6.631   0.176  0.00  0.00     0.005 A 
ATOM     21  C   UNL d   1       1.438  -5.309   0.351  0.00  0.00     0.050 A 
ENDBRANCH  12  15
ENDBRANCH   1  11
BRANCH   3  22
ATOM     22  O   UNL d   1       3.468  -0.587  -0.121  0.00  0.00    -0.358 OA
ATOM     23  H   UNL d   1       3.478  -1.564  -0.057  0.00  0.00     0.217 HD
ENDBRANCH   3  22
TORSDOF 3
