REMARK  6 active torsions:
REMARK  status: ('A' for Active; 'I' for Inactive)
REMARK    1  A    between atoms: N_2  and  C_1 
REMARK    2  A    between atoms: N_9  and  C_3 
REMARK    3  A    between atoms: C_8  and  C_4 
REMARK    4  A    between atoms: O_19  and  C_8 
REMARK    5  A    between atoms: C_16  and  N_9 
REMARK    6  A    between atoms: C_13  and  C_14 
ROOT
ATOM      1  C   UNL d   1      -1.579  -0.013  -0.697  0.00  0.00     0.147 A 
ATOM      2  C   UNL d   1      -1.767   1.363  -0.876  0.00  0.00     0.139 A 
ATOM      3  C   UNL d   1      -2.438  -0.418  -2.923  0.00  0.00     0.057 A 
ATOM      4  C   UNL d   1      -1.900  -0.910  -1.735  0.00  0.00     0.059 A 
ATOM      5  N   UNL d   1      -2.272   1.828  -2.050  0.00  0.00    -0.349 N 
ATOM      6  HN  UNL d   1      -2.394   2.830  -2.194  1.00  0.00     0.167 HD
ATOM      7  C   UNL d   1      -2.612   0.950  -3.028  0.00  0.00     0.107 A 
ENDROOT
BRANCH   2   8
ATOM      8  N   UNL d   1      -1.410   2.314   0.087  0.00  0.00    -0.340 N 
ATOM      9  H   UNL d   1      -1.531   2.020   1.053  0.00  0.00     0.167 HD
BRANCH   8  10
ATOM     10  C   UNL d   1      -0.909   3.616  -0.071  0.00  0.00     0.033 A 
ATOM     11  C   UNL d   1      -1.144   4.576   0.917  0.00  0.00     0.030 A 
ATOM     12  C   UNL d   1      -0.583   5.858   0.826  0.00  0.00     0.010 A 
ATOM     13  C   UNL d   1       0.241   6.222  -0.253  0.00  0.00    -0.051 A 
ATOM     14  C   UNL d   1       0.385   5.283  -1.285  0.00  0.00     0.010 A 
ATOM     15  C   UNL d   1      -0.196   4.010  -1.202  0.00  0.00     0.030 A 
BRANCH  13  16
ATOM     16  C   UNL d   1       0.976   7.575  -0.256  0.00  0.00    -0.024 C 
ATOM     17  C   UNL d   1       1.910   7.761  -1.474  0.00  0.00     0.019 C 
ATOM     18  C   UNL d   1      -0.035   8.739  -0.261  0.00  0.00     0.019 C 
ATOM     19  C   UNL d   1       1.859   7.687   1.008  0.00  0.00     0.019 C 
ENDBRANCH  13  16
ENDBRANCH   8  10
ENDBRANCH   2   8
BRANCH   1  20
ATOM     20  N   UNL d   1      -1.066  -0.567   0.555  0.00  0.00    -0.112 N 
ATOM     21  O   UNL d   1      -0.996   0.177   1.544  0.00  0.00    -0.532 OA
ATOM     22  O   UNL d   1      -0.767  -1.768   0.569  0.00  0.00    -0.532 OA
ENDBRANCH   1  20
BRANCH   3  23
ATOM     23  C   UNL d   1      -2.843  -1.275  -4.056  0.00  0.00     0.294 C 
ATOM     24  O   UNL d   1      -3.343  -0.849  -5.081  0.00  0.00    -0.259 OA
BRANCH  23  25
ATOM     25  O   UNL d   1      -2.582  -2.574  -3.767  0.00  0.00    -0.322 OA
ATOM     26  C   UNL d   1      -2.961  -3.495  -4.794  0.00  0.00     0.213 C 
ENDBRANCH  23  25
ENDBRANCH   3  23
TORSDOF 6
