REMARK  1 active torsions:
REMARK  status: ('A' for Active; 'I' for Inactive)
REMARK    1  A    between atoms: C_8  and  N_4 
ROOT
ATOM      1  C   UNL d   1      -0.627  -1.006  -0.238  0.00  0.00     0.125 C 
ATOM      2  S   UNL d   1       0.969  -1.208   0.466  0.00  0.00    -0.063 SA
ATOM      3  N   UNL d   1      -1.030   0.296  -0.097  0.00  0.00    -0.260 NA
ATOM      4  N   UNL d   1      -1.333  -1.857  -0.909  0.00  0.00    -0.340 N 
ATOM      5  HN  UNL d   1      -2.246  -1.568  -1.260  1.00  0.00     0.167 HD
ATOM      6  C   UNL d   1       1.299   0.504   0.279  0.00  0.00    -0.001 C 
ATOM      7  C   UNL d   1       0.053   1.281  -0.145  0.00  0.00     0.043 C 
ATOM      8  C   UNL d   1       2.531   0.994   0.456  0.00  0.00     0.029 C 
ATOM      9  C   UNL d   1      -0.270   2.432   0.810  0.00  0.00     0.038 C 
ATOM     10  C   UNL d   1       0.168   1.797  -1.587  0.00  0.00     0.038 C 
ATOM     11  H   UNL d   1      -1.848   0.503  -0.657  0.00  0.00     0.130 HD
ENDROOT
BRANCH   4  12
ATOM     12  C   UNL d   1      -0.891  -3.168  -1.174  0.00  0.00     0.045 A 
ATOM     13  C   UNL d   1      -1.624  -4.251  -0.642  0.00  0.00    -0.035 A 
ATOM     14  C   UNL d   1      -1.269  -5.569  -0.974  0.00  0.00     0.009 A 
ATOM     15  C   UNL d   1      -2.849  -4.045   0.207  0.00  0.00     0.050 C 
ATOM     16  C   UNL d   1      -0.191  -5.827  -1.815  0.00  0.00     0.001 A 
ATOM     17  C   UNL d   1       0.526  -4.766  -2.356  0.00  0.00     0.009 A 
ATOM     18  C   UNL d   1       0.167  -3.435  -2.074  0.00  0.00    -0.035 A 
ATOM     19  C   UNL d   1       0.963  -2.353  -2.755  0.00  0.00     0.050 C 
ENDBRANCH   4  12
TORSDOF 1
