REMARK  5 active torsions:
REMARK  status: ('A' for Active; 'I' for Inactive)
REMARK    1  A    between atoms: C_3  and  S_1 
REMARK    2  A    between atoms: C_5  and  S_1 
REMARK    3  A    between atoms: N_2  and  C_6 
REMARK    4  A    between atoms: C_13  and  C_3 
REMARK    5  A    between atoms: N_4  and  C_13 
ROOT
ATOM      1  C   UNL d   1       0.944  -2.163   1.407  0.00  0.00     0.287 C 
ENDROOT
BRANCH   1   2
ATOM      2  N   UNL d   1       0.573  -2.857   2.669  0.00  0.00     0.089 N 
ATOM      3  C   UNL d   1       0.791  -4.304   2.477  0.00  0.00     0.274 C 
ATOM      4  C   UNL d   1       0.310  -5.167   3.639  0.00  0.00     0.056 C 
ATOM      5  C   UNL d   1      -1.128  -4.855   4.053  0.00  0.00     0.092 C 
ATOM      6  C   UNL d   1      -1.295  -3.352   4.271  0.00  0.00     0.056 C 
ATOM      7  C   UNL d   1      -0.794  -2.521   3.094  0.00  0.00     0.274 C 
BRANCH   5   8
ATOM      8  N   UNL d   1      -2.150  -5.444   3.186  0.00  0.00    -0.362 N 
ATOM      9  C   UNL d   1      -2.413  -5.151   1.872  0.00  0.00     0.091 A 
ATOM     10  C   UNL d   1      -3.500  -5.890   1.463  0.00  0.00     0.019 A 
ATOM     11  C   UNL d   1      -3.900  -6.684   2.557  0.00  0.00     0.019 A 
ATOM     12  C   UNL d   1      -3.051  -6.397   3.603  0.00  0.00     0.091 A 
ENDBRANCH   5   8
ENDBRANCH   1   2
BRANCH   1  13
ATOM     13  C   UNL d   1       0.768  -0.650   1.436  0.00  0.00     0.176 C 
BRANCH  13  14
ATOM     14  S   UNL d   1       1.274   0.059  -0.117  0.00  0.00     0.177 S 
ATOM     15  O   UNL d   1       0.362  -0.395  -1.151  0.00  0.00    -0.223 OA
ATOM     16  O   UNL d   1       2.707  -0.107  -0.263  0.00  0.00    -0.223 OA
BRANCH  14  17
ATOM     17  C   UNL d   1       0.961   1.793   0.133  0.00  0.00     0.059 A 
ATOM     18  C   UNL d   1       1.982   2.609   0.634  0.00  0.00     0.026 A 
ATOM     19  C   UNL d   1       1.731   3.966   0.838  0.00  0.00     0.044 A 
ATOM     20  C   UNL d   1       0.478   4.488   0.533  0.00  0.00     0.116 A 
ATOM     21  C   UNL d   1      -0.535   3.681   0.020  0.00  0.00     0.044 A 
ATOM     22  F   UNL d   1       0.240   5.791   0.735  0.00  0.00    -0.206 F 
ATOM     23  C   UNL d   1      -0.294   2.322  -0.189  0.00  0.00     0.026 A 
ENDBRANCH  14  17
ENDBRANCH  13  14
ENDBRANCH   1  13
TORSDOF 5
