REMARK  2 active torsions:
REMARK  status: ('A' for Active; 'I' for Inactive)
REMARK    1  A    between atoms: C_2  and  C_1 
REMARK    2  A    between atoms: O_14  and  C_5 
ROOT
ATOM      1  C   UNL d   1      -1.964  -2.608   0.021  0.00  0.00     0.097 A 
ATOM      2  N   UNL d   1      -2.710  -3.052  -1.024  0.00  0.00    -0.350 N 
ATOM      3  HN  UNL d   1      -2.913  -2.453  -1.824  1.00  0.00     0.166 HD
ATOM      4  C   UNL d   1      -1.703  -3.443   1.114  0.00  0.00     0.169 A 
ATOM      5  N   UNL d   1      -2.142  -4.717   1.177  0.00  0.00    -0.333 N 
ATOM      6  HN  UNL d   1      -1.923  -5.320   1.970  1.00  0.00     0.168 HD
ATOM      7  C   UNL d   1      -3.171  -4.315  -0.961  0.00  0.00     0.059 A 
ATOM      8  C   UNL d   1      -2.881  -5.153   0.144  0.00  0.00     0.061 A 
ATOM      9  C   UNL d   1      -3.958  -4.815  -1.993  0.00  0.00     0.032 A 
ATOM     10  C   UNL d   1      -3.388  -6.446   0.164  0.00  0.00     0.032 A 
ATOM     11  C   UNL d   1      -4.467  -6.115  -1.958  0.00  0.00     0.002 A 
ATOM     12  C   UNL d   1      -4.181  -6.934  -0.875  0.00  0.00     0.002 A 
ENDROOT
BRANCH   1  13
ATOM     13  C   UNL d   1      -1.492  -1.226  -0.101  0.00  0.00     0.023 A 
ATOM     14  C   UNL d   1      -0.291  -0.758   0.408  0.00  0.00     0.103 A 
ATOM     15  N   UNL d   1      -0.175   0.572   0.097  0.00  0.00    -0.364 N 
ATOM     16  C   UNL d   1      -1.242   0.977  -0.667  0.00  0.00     0.043 A 
ATOM     17  H   UNL d   1       0.601   1.167   0.353  0.00  0.00     0.165 HD
ATOM     18  C   UNL d   1      -2.086  -0.126  -0.813  0.00  0.00     0.004 A 
ATOM     19  C   UNL d   1      -1.510   2.224  -1.245  0.00  0.00     0.030 A 
ATOM     20  C   UNL d   1      -3.262   0.039  -1.577  0.00  0.00     0.014 A 
ATOM     21  C   UNL d   1      -3.541   1.276  -2.172  0.00  0.00     0.001 A 
ATOM     22  C   UNL d   1      -2.674   2.351  -2.007  0.00  0.00     0.002 A 
ENDBRANCH   1  13
BRANCH   4  23
ATOM     23  O   UNL d   1      -1.038  -3.056   2.241  0.00  0.00    -0.344 OA
ATOM     24  H   UNL d   1      -1.104  -2.092   2.296  0.00  0.00     0.219 HD
ENDBRANCH   4  23
TORSDOF 2
