REMARK  7 active torsions:
REMARK  status: ('A' for Active; 'I' for Inactive)
REMARK       I    between atoms: N_5  and  C_1 
REMARK    1  A    between atoms: C_7  and  C_1 
REMARK    2  A    between atoms: C_3  and  C_7 
REMARK    3  A    between atoms: C_9  and  C_3 
REMARK    4  A    between atoms: C_11  and  N_5 
REMARK    5  A    between atoms: C_6  and  C_9 
REMARK    6  A    between atoms: O_12  and  C_6 
REMARK    7  A    between atoms: C_18  and  C_13 
ROOT
ATOM      1  N   UNL d   1       8.299   0.880   3.763  0.00  0.00    -0.197 NA
ATOM      2  C   UNL d   1       7.654  -0.050   3.499  0.00  0.00     0.063 C 
ATOM      3  C   UNL d   1       6.860  -1.245   3.164  0.00  0.00     0.162 C 
ENDROOT
BRANCH   3   4
ATOM      4  C   UNL d   1       5.671  -0.938   2.283  0.00  0.00    -0.045 A 
ATOM      5  C   UNL d   1       5.841  -0.418   0.993  0.00  0.00     0.010 A 
ATOM      6  C   UNL d   1       4.731  -0.093   0.204  0.00  0.00     0.030 A 
ATOM      7  C   UNL d   1       3.429  -0.288   0.680  0.00  0.00     0.034 A 
ATOM      8  C   UNL d   1       3.260  -0.848   1.946  0.00  0.00     0.030 A 
ATOM      9  C   UNL d   1       4.368  -1.167   2.742  0.00  0.00     0.010 A 
BRANCH   7  10
ATOM     10  N   UNL d   1       2.362   0.125  -0.148  0.00  0.00    -0.327 N 
ATOM     11  C   UNL d   1       1.004   0.043   0.120  0.00  0.00     0.222 C 
ATOM     12  O   UNL d   1       0.494  -0.476   1.107  0.00  0.00    -0.273 OA
ATOM     13  H   UNL d   1       2.626   0.569  -1.020  0.00  0.00     0.169 HD
BRANCH  11  14
ATOM     14  C   UNL d   1       0.169   0.688  -0.983  0.00  0.00     0.113 C 
BRANCH  14  15
ATOM     15  C   UNL d   1      -1.371   0.581  -0.831  0.00  0.00    -0.023 C 
ATOM     16  C   UNL d   1      -1.834  -0.892  -0.927  0.00  0.00     0.010 C 
ATOM     17  C   UNL d   1      -3.279  -0.842  -1.420  0.00  0.00     0.001 C 
ATOM     18  C   UNL d   1      -3.443   0.503  -2.124  0.00  0.00     0.001 C 
ATOM     19  C   UNL d   1      -2.068   1.164  -2.081  0.00  0.00     0.010 C 
BRANCH  15  20
ATOM     20  C   UNL d   1      -1.927   1.215   0.477  0.00  0.00     0.119 C 
BRANCH  20  21
ATOM     21  C   UNL d   1      -1.611   2.679   0.699  0.00  0.00     0.140 C 
ATOM     22  O   UNL d   1      -0.971   3.396  -0.052  0.00  0.00    -0.650 OA
BRANCH  21  23
ATOM     23  O   UNL d   1      -2.146   3.143   1.854  0.00  0.00    -0.776 OA
ATOM     24  H   UNL d   1      -2.619   2.459   2.366  0.00  0.00     0.167 HD
ENDBRANCH  21  23
ENDBRANCH  20  21
ENDBRANCH  15  20
ENDBRANCH  14  15
ENDBRANCH  11  14
ENDBRANCH   7  10
ENDBRANCH   3   4
TORSDOF 7
