REMARK  7 active torsions:
REMARK  status: ('A' for Active; 'I' for Inactive)
REMARK    1  A    between atoms: C_7  and  C_3 
REMARK    2  A    between atoms: S_9  and  C_5 
REMARK    3  A    between atoms: C_22  and  S_9 
REMARK    4  A    between atoms: C_14  and  N_10 
REMARK    5  A    between atoms: C_15  and  C_22 
REMARK    6  A    between atoms: O_25  and  C_15 
REMARK    7  A    between atoms: C_26  and  O_25 
ROOT
ATOM      1  N   UNL d   1       1.548  -1.273   0.082  0.00  0.00    -0.329 N 
ATOM      2  HN  UNL d   1       1.668  -2.286   0.097  1.00  0.00     0.168 HD
ATOM      3  C   UNL d   1       1.973   0.991   0.057  0.00  0.00     0.090 A 
ATOM      4  C   UNL d   1       0.440  -0.587   0.042  0.00  0.00     0.156 A 
ATOM      5  C   UNL d   1       2.515  -0.290   0.100  0.00  0.00     0.101 A 
ATOM      6  N   UNL d   1       0.622   0.763   0.019  0.00  0.00    -0.298 N 
ATOM      7  S   UNL d   1      -1.249  -0.998   0.011  0.00  0.00    -0.064 SA
ATOM      8  C   UNL d   1      -0.539   1.509  -0.019  0.00  0.00     0.107 A 
ATOM      9  C   UNL d   1      -1.634   0.730  -0.026  0.00  0.00     0.071 A 
ENDROOT
BRANCH   3  10
ATOM     10  C   UNL d   1       2.633   2.264   0.046  0.00  0.00     0.121 C 
ATOM     11  N   UNL d   1       1.947   3.349  -0.098  0.00  0.00    -0.364 N 
ATOM     12  HN  UNL d   1       0.934   3.300  -0.209  1.00  0.00     0.165 HD
BRANCH  11  13
ATOM     13  C   UNL d   1       2.593   4.596  -0.101  0.00  0.00     0.035 A 
ATOM     14  C   UNL d   1       3.836   4.829  -0.701  0.00  0.00     0.053 A 
ATOM     15  C   UNL d   1       4.390   6.113  -0.693  0.00  0.00     0.037 A 
ATOM     16 CL   UNL d   1       5.931   6.374  -1.412  0.00  0.00    -0.084 Cl
ATOM     17  C   UNL d   1       3.709   7.177  -0.117  0.00  0.00     0.048 A 
ATOM     18  C   UNL d   1       2.461   6.952   0.457  0.00  0.00     0.037 A 
ATOM     19  C   UNL d   1       1.909   5.671   0.468  0.00  0.00     0.053 A 
ATOM     20 CL   UNL d   1       1.588   8.264   1.145  0.00  0.00    -0.084 Cl
ENDBRANCH  11  13
ENDBRANCH   3  10
BRANCH   5  21
ATOM     21  S   UNL d   1       4.224  -0.682   0.173  0.00  0.00    -0.100 SA
BRANCH  21  22
ATOM     22  C   UNL d   1       4.258  -2.234  -0.773  0.00  0.00     0.191 C 
BRANCH  22  23
ATOM     23  C   UNL d   1       3.711  -2.051  -2.172  0.00  0.00     0.268 C 
ATOM     24  O   UNL d   1       3.710  -1.010  -2.817  0.00  0.00    -0.264 OA
BRANCH  23  25
ATOM     25  O   UNL d   1       3.208  -3.242  -2.615  0.00  0.00    -0.321 OA
BRANCH  25  26
ATOM     26  C   UNL d   1       2.311  -3.149  -3.729  0.00  0.00     0.174 C 
ATOM     27  C   UNL d   1       0.916  -2.882  -3.194  0.00  0.00     0.034 C 
ENDBRANCH  25  26
ENDBRANCH  23  25
ENDBRANCH  22  23
ENDBRANCH  21  22
ENDBRANCH   5  21
TORSDOF 7
