REMARK  5 active torsions:
REMARK  status: ('A' for Active; 'I' for Inactive)
REMARK    1  A    between atoms: N_2  and  S_1 
REMARK    2  A    between atoms: C_5  and  S_1 
REMARK    3  A    between atoms: N_3  and  N_2 
REMARK    4  A    between atoms: C_4  and  N_3 
REMARK    5  A    between atoms: N_9  and  C_4 
ROOT
ATOM      1  S   UNL d   1       1.004  -0.216   0.026  0.00  0.00     0.276 S 
ATOM      2  O   UNL d   1       0.433  -1.519  -0.238  0.00  0.00    -0.199 OA
ATOM      3  O   UNL d   1       2.437  -0.034   0.100  0.00  0.00    -0.199 OA
ENDROOT
BRANCH   1   4
ATOM      4  N   UNL d   1       0.340   0.356   1.462  0.00  0.00    -0.221 N 
ATOM      5  H   UNL d   1      -0.299   1.157   1.463  0.00  0.00     0.200 HD
BRANCH   4   6
ATOM      6  N   UNL d   1       0.663  -0.297   2.708  0.00  0.00    -0.267 N 
ATOM      7  H   UNL d   1       1.314  -1.075   2.655  0.00  0.00     0.190 HD
BRANCH   6   8
ATOM      8  C   UNL d   1       0.135   0.135   3.916  0.00  0.00     0.186 C 
ATOM      9  S   UNL d   1      -0.899   1.446   4.045  0.00  0.00    -0.040 SA
BRANCH   8  10
ATOM     10  N   UNL d   1       0.576  -0.648   4.963  0.00  0.00    -0.370 N 
ATOM     11  C   UNL d   1       0.245  -0.514   6.370  0.00  0.00     0.148 C 
ATOM     12  H   UNL d   1       1.142  -1.452   4.731  0.00  0.00     0.161 HD
ENDBRANCH   8  10
ENDBRANCH   6   8
ENDBRANCH   4   6
ENDBRANCH   1   4
BRANCH   1  13
ATOM     13  C   UNL d   1       0.349   0.932  -1.157  0.00  0.00     0.081 A 
ATOM     14  C   UNL d   1       1.098   2.056  -1.520  0.00  0.00     0.027 A 
ATOM     15  C   UNL d   1       0.576   2.958  -2.450  0.00  0.00     0.025 A 
ATOM     16  C   UNL d   1      -0.680   2.726  -3.013  0.00  0.00     0.034 A 
ATOM     17  C   UNL d   1      -1.415   1.591  -2.667  0.00  0.00     0.025 A 
ATOM     18 CL   UNL d   1      -1.328   3.850  -4.142  0.00  0.00    -0.084 Cl
ATOM     19  C   UNL d   1      -0.899   0.684  -1.739  0.00  0.00     0.027 A 
ENDBRANCH   1  13
TORSDOF 5
