REMARK  5 active torsions:
REMARK  status: ('A' for Active; 'I' for Inactive)
REMARK    1  A    between atoms: C_4  and  C_1 
REMARK    2  A    between atoms: O_9  and  C_2 
REMARK       I    between atoms: C_3  and  N_6 
REMARK    3  A    between atoms: C_5  and  C_3 
REMARK    4  A    between atoms: N_6  and  C_4 
REMARK    5  A    between atoms: C_16  and  O_9 
ROOT
ATOM      1  C   UNL d   1       0.135   1.014  -0.098  0.00  0.00     0.015 A 
ATOM      2  C   UNL d   1      -0.077  -0.001   0.861  0.00  0.00     0.085 A 
ATOM      3  C   UNL d   1       1.228   0.863  -0.972  0.00  0.00     0.044 A 
ATOM      4 CL   UNL d   1       1.622   2.032  -2.188  0.00  0.00    -0.084 Cl
ATOM      5  C   UNL d   1       0.809  -1.082   0.968  0.00  0.00     0.038 A 
ATOM      6  C   UNL d   1       1.873  -1.220   0.086  0.00  0.00     0.004 A 
ATOM      7  C   UNL d   1       2.075  -0.251  -0.893  0.00  0.00     0.024 A 
ENDROOT
BRANCH   1   8
ATOM      8  C   UNL d   1      -0.748   2.236  -0.139  0.00  0.00     0.166 C 
BRANCH   8   9
ATOM      9  N   UNL d   1      -2.172   1.999  -0.281  0.00  0.00    -0.352 N 
ATOM     10  C   UNL d   1      -2.704   1.303  -1.345  0.00  0.00     0.252 C 
ATOM     11  O   UNL d   1      -2.025   0.650  -2.130  0.00  0.00    -0.268 OA
ATOM     12  H   UNL d   1      -2.774   2.537   0.319  0.00  0.00     0.163 HD
BRANCH  10  13
ATOM     13  C   UNL d   1      -4.186   1.362  -1.532  0.00  0.00     0.034 A 
ATOM     14  C   UNL d   1      -4.988   2.360  -0.962  0.00  0.00     0.054 A 
ATOM     15  C   UNL d   1      -6.337   2.352  -1.260  0.00  0.00     0.076 A 
ATOM     16  O   UNL d   1      -7.235   3.269  -0.776  0.00  0.00    -0.350 OA
ATOM     17  C   UNL d   1      -6.910   1.396  -2.083  0.00  0.00    -0.023 A 
ATOM     18  C   UNL d   1      -8.420   3.041  -1.577  0.00  0.00     0.180 C 
ATOM     19  C   UNL d   1      -8.369   1.629  -2.162  0.00  0.00     0.068 C 
ATOM     20  C   UNL d   1      -6.145   0.394  -2.644  0.00  0.00     0.011 A 
ATOM     21  C   UNL d   1      -4.773   0.386  -2.372  0.00  0.00     0.018 A 
ENDBRANCH  10  13
ENDBRANCH   8   9
ENDBRANCH   1   8
BRANCH   2  22
ATOM     22  O   UNL d   1      -1.150   0.130   1.726  0.00  0.00    -0.310 OA
BRANCH  22  23
ATOM     23  C   UNL d   1      -1.844  -1.019   2.046  0.00  0.00     0.076 A 
ATOM     24  C   UNL d   1      -2.160  -1.214   3.390  0.00  0.00     0.037 A 
ATOM     25  C   UNL d   1      -2.808  -2.384   3.790  0.00  0.00     0.003 A 
ATOM     26  C   UNL d   1      -3.151  -3.350   2.842  0.00  0.00     0.000 A 
ATOM     27  C   UNL d   1      -2.874  -3.134   1.492  0.00  0.00     0.003 A 
ATOM     28  C   UNL d   1      -2.237  -1.960   1.088  0.00  0.00     0.037 A 
ENDBRANCH  22  23
ENDBRANCH   2  22
TORSDOF 5
