REMARK  4 active torsions:
REMARK  status: ('A' for Active; 'I' for Inactive)
REMARK    1  A    between atoms: C_10  and  C_3 
REMARK    2  A    between atoms: C_9  and  C_4 
REMARK    3  A    between atoms: O_14  and  C_9 
REMARK    4  A    between atoms: O_13  and  C_10 
ROOT
ATOM      1  C   UNL d   1      -0.004   0.763  -1.300  0.00  0.00     0.067 C 
ATOM      2  C   UNL d   1       0.026  -1.507   0.046  0.00  0.00     0.067 C 
ATOM      3  C   UNL d   1       0.013  -1.805  -1.486  0.00  0.00     0.113 C 
ATOM      4  C   UNL d   1       0.045  -0.443  -2.293  0.00  0.00     0.113 C 
ATOM      5  C   UNL d   1      -1.232   0.561  -0.414  0.00  0.00    -0.042 A 
ATOM      6  C   UNL d   1      -1.223  -0.663   0.300  0.00  0.00    -0.042 A 
ATOM      7  C   UNL d   1       1.246  -0.621   0.306  0.00  0.00    -0.042 A 
ATOM      8  C   UNL d   1       1.231   0.599  -0.416  0.00  0.00    -0.042 A 
ATOM      9  C   UNL d   1      -2.285  -1.003   1.125  0.00  0.00     0.008 A 
ATOM     10  C   UNL d   1       2.319  -0.943   1.126  0.00  0.00     0.008 A 
ATOM     11  C   UNL d   1      -2.293   1.447  -0.294  0.00  0.00     0.008 A 
ATOM     12  C   UNL d   1       2.275   1.503  -0.300  0.00  0.00     0.008 A 
ATOM     13  C   UNL d   1      -3.357   1.104   0.541  0.00  0.00     0.001 A 
ATOM     14  C   UNL d   1      -3.354  -0.111   1.242  0.00  0.00     0.001 A 
ATOM     15  C   UNL d   1       3.374  -0.036   1.234  0.00  0.00     0.001 A 
ATOM     16  C   UNL d   1       3.350   1.180   0.531  0.00  0.00     0.001 A 
ENDROOT
BRANCH   3  17
ATOM     17  C   UNL d   1       1.167  -2.737  -1.817  0.00  0.00     0.264 C 
ATOM     18  O   UNL d   1       1.645  -3.543  -1.027  0.00  0.00    -0.265 OA
BRANCH  17  19
ATOM     19  O   UNL d   1       1.547  -2.633  -3.120  0.00  0.00    -0.326 OA
ATOM     20  C   UNL d   1       2.633  -3.488  -3.483  0.00  0.00     0.213 C 
ENDBRANCH  17  19
ENDBRANCH   3  17
BRANCH   4  21
ATOM     21  C   UNL d   1      -1.090  -0.308  -3.294  0.00  0.00     0.264 C 
ATOM     22  O   UNL d   1      -1.587   0.761  -3.628  0.00  0.00    -0.265 OA
BRANCH  21  23
ATOM     23  O   UNL d   1      -1.424  -1.508  -3.844  0.00  0.00    -0.326 OA
ATOM     24  C   UNL d   1      -2.484  -1.437  -4.800  0.00  0.00     0.213 C 
ENDBRANCH  21  23
ENDBRANCH   4  21
TORSDOF 4
