REMARK  4 active torsions:
REMARK  status: ('A' for Active; 'I' for Inactive)
REMARK    1  A    between atoms: C_2  and  C_1 
REMARK    2  A    between atoms: O_8  and  C_2 
REMARK    3  A    between atoms: C_7  and  C_3 
REMARK    4  A    between atoms: O_14  and  C_9 
ROOT
ATOM      1  C   UNL d   1       0.875   0.094   0.771  0.00  0.00     0.118 C 
ATOM      2  C   UNL d   1       0.258  -1.060   0.454  0.00  0.00     0.041 C 
ATOM      3  C   UNL d   1       0.152   1.271   1.113  0.00  0.00     0.106 C 
ATOM      4  N   UNL d   1      -0.380   2.260   1.399  0.00  0.00    -0.191 NA
ENDROOT
BRANCH   1   5
ATOM      5  C   UNL d   1       2.360   0.086   0.745  0.00  0.00     0.187 C 
ATOM      6  O   UNL d   1       3.016  -0.909   0.471  0.00  0.00    -0.645 OA
BRANCH   5   7
ATOM      7  O   UNL d   1       2.961   1.260   1.037  0.00  0.00    -0.772 OA
ATOM      8  H   UNL d   1       2.407   2.038   1.250  0.00  0.00     0.167 HD
ENDBRANCH   5   7
ENDBRANCH   1   5
BRANCH   2   9
ATOM      9  C   UNL d   1      -1.197  -1.209   0.411  0.00  0.00    -0.034 A 
ATOM     10  C   UNL d   1      -1.892  -0.924  -0.768  0.00  0.00     0.014 A 
ATOM     11  C   UNL d   1      -3.289  -0.970  -0.790  0.00  0.00     0.037 A 
ATOM     12  C   UNL d   1      -3.995  -1.304   0.365  0.00  0.00     0.068 A 
ATOM     13  C   UNL d   1      -3.297  -1.627   1.530  0.00  0.00     0.037 A 
ATOM     14  C   UNL d   1      -1.902  -1.573   1.560  0.00  0.00     0.014 A 
BRANCH  12  15
ATOM     15  O   UNL d   1      -5.357  -1.390   0.457  0.00  0.00    -0.356 OA
ATOM     16  C   UNL d   1      -6.087  -0.515  -0.398  0.00  0.00     0.210 C 
ENDBRANCH  12  15
ENDBRANCH   2   9
TORSDOF 4
