REMARK  2 active torsions:
REMARK  status: ('A' for Active; 'I' for Inactive)
REMARK    1  A    between atoms: C_7  and  N_1 
REMARK    2  A    between atoms: C_9  and  C_2 
ROOT
ATOM      1  N   UNL d   1       1.042  -0.598  -0.182  0.00  0.00    -0.270 N 
ATOM      2  C   UNL d   1      -0.236  -0.896  -0.592  0.00  0.00     0.139 A 
ATOM      3  C   UNL d   1       1.031   0.771   0.034  0.00  0.00     0.199 A 
ATOM      4  N   UNL d   1      -1.048   0.130  -0.590  0.00  0.00    -0.282 N 
ATOM      5  HN  UNL d   1      -2.034   0.145  -0.852  1.00  0.00     0.188 HD
ATOM      6  N   UNL d   1      -0.286   1.172  -0.159  0.00  0.00    -0.274 N 
ATOM      7  S   UNL d   1       2.248   1.854   0.356  0.00  0.00    -0.039 SA
ATOM      8  H   UNL d   1      -0.636   2.123  -0.132  0.00  0.00     0.189 HD
ENDROOT
BRANCH   1   9
ATOM      9  C   UNL d   1       2.192  -1.421  -0.179  0.00  0.00     0.055 A 
ATOM     10  C   UNL d   1       2.669  -2.013  -1.373  0.00  0.00    -0.034 A 
ATOM     11  C   UNL d   1       3.779  -2.875  -1.317  0.00  0.00     0.009 A 
ATOM     12  C   UNL d   1       2.069  -1.768  -2.732  0.00  0.00     0.050 C 
ATOM     13  C   UNL d   1       4.444  -3.111  -0.119  0.00  0.00     0.001 A 
ATOM     14  C   UNL d   1       3.998  -2.505   1.049  0.00  0.00     0.009 A 
ATOM     15  C   UNL d   1       2.862  -1.677   1.044  0.00  0.00    -0.034 A 
ATOM     16  C   UNL d   1       2.428  -1.108   2.371  0.00  0.00     0.050 C 
ENDBRANCH   1   9
BRANCH   2  17
ATOM     17  C   UNL d   1      -0.696  -2.230  -1.027  0.00  0.00     0.013 A 
ATOM     18  C   UNL d   1      -0.274  -3.413  -0.426  0.00  0.00     0.032 A 
ATOM     19  C   UNL d   1      -0.741  -4.604  -0.957  0.00  0.00     0.088 A 
ATOM     20  N   UNL d   1      -1.589  -4.683  -2.004  0.00  0.00    -0.375 N 
ATOM     21  C   UNL d   1      -2.007  -3.520  -2.544  0.00  0.00     0.088 A 
ATOM     22  HN  UNL d   1      -1.900  -5.582  -2.370  1.00  0.00     0.164 HD
ATOM     23  C   UNL d   1      -1.599  -2.281  -2.093  0.00  0.00     0.032 A 
ENDBRANCH   2  17
TORSDOF 2
