REMARK  6 active torsions:
REMARK  status: ('A' for Active; 'I' for Inactive)
REMARK    1  A    between atoms: C_4  and  C_1 
REMARK    2  A    between atoms: C_2  and  C_3 
REMARK       I    between atoms: N_6  and  C_4 
REMARK    3  A    between atoms: C_5  and  N_7 
REMARK    4  A    between atoms: N_8  and  C_5 
REMARK    5  A    between atoms: N_7  and  N_6 
REMARK    6  A    between atoms: C_17  and  N_8 
ROOT
ATOM      1  C   UNL d   1       0.390   2.114   0.940  0.00  0.00     0.272 C 
ATOM      2  N   UNL d   1       0.251   3.366   0.373  0.00  0.00    -0.264 N 
ATOM      3  O   UNL d   1      -0.497   1.263   0.906  0.00  0.00    -0.266 OA
ATOM      4  H   UNL d   1       0.900   4.136   0.534  0.00  0.00     0.190 HD
ENDROOT
BRANCH   2   5
ATOM      5  N   UNL d   1      -1.039   3.756  -0.086  0.00  0.00    -0.273 N 
ATOM      6  H   UNL d   1      -1.754   3.036   0.047  0.00  0.00     0.189 HD
BRANCH   5   7
ATOM      7  C   UNL d   1      -1.428   5.070   0.043  0.00  0.00     0.191 C 
ATOM      8  S   UNL d   1      -0.379   6.340   0.361  0.00  0.00    -0.039 SA
BRANCH   7   9
ATOM      9  N   UNL d   1      -2.767   5.335  -0.003  0.00  0.00    -0.332 N 
ATOM     10  H   UNL d   1      -3.019   6.217   0.432  0.00  0.00     0.168 HD
BRANCH   9  11
ATOM     11  C   UNL d   1      -3.809   4.681  -0.684  0.00  0.00     0.034 A 
ATOM     12  C   UNL d   1      -5.117   4.934  -0.253  0.00  0.00     0.031 A 
ATOM     13  C   UNL d   1      -6.210   4.403  -0.943  0.00  0.00     0.026 A 
ATOM     14  C   UNL d   1      -5.996   3.649  -2.093  0.00  0.00     0.034 A 
ATOM     15  C   UNL d   1      -4.699   3.400  -2.538  0.00  0.00     0.026 A 
ATOM     16 CL   UNL d   1      -7.341   3.046  -2.980  0.00  0.00    -0.084 Cl
ATOM     17  C   UNL d   1      -3.602   3.903  -1.826  0.00  0.00     0.031 A 
ENDBRANCH   9  11
ENDBRANCH   7   9
ENDBRANCH   5   7
ENDBRANCH   2   5
BRANCH   1  18
ATOM     18  C   UNL d   1       1.695   1.796   1.577  0.00  0.00     0.064 A 
ATOM     19  C   UNL d   1       1.839   0.905   2.654  0.00  0.00     0.066 A 
ATOM     20  C   UNL d   1       3.144   0.565   3.068  0.00  0.00     0.034 A 
ATOM     21  C   UNL d   1       4.233   1.143   2.441  0.00  0.00     0.088 A 
ATOM     22  N   UNL d   1       4.114   2.031   1.440  0.00  0.00    -0.374 N 
ATOM     23  C   UNL d   1       2.860   2.325   1.020  0.00  0.00     0.105 A 
ATOM     24  HN  UNL d   1       4.933   2.465   1.013  1.00  0.00     0.164 HD
BRANCH  19  25
ATOM     25  C   UNL d   1       0.696   0.272   3.404  0.00  0.00     0.418 C 
ATOM     26  F   UNL d   1      -0.477   0.952   3.386  0.00  0.00    -0.166 F 
ATOM     27  F   UNL d   1       0.440  -0.999   2.990  0.00  0.00    -0.166 F 
ATOM     28  F   UNL d   1       0.995   0.154   4.736  0.00  0.00    -0.166 F 
ENDBRANCH  19  25
ENDBRANCH   1  18
TORSDOF 6
