REMARK  7 active torsions:
REMARK  status: ('A' for Active; 'I' for Inactive)
REMARK    1  A    between atoms: N_3  and  C_1 
REMARK    2  A    between atoms: N_5  and  C_2 
REMARK    3  A    between atoms: C_6  and  C_9 
REMARK    4  A    between atoms: C_7  and  C_8 
REMARK    5  A    between atoms: O_19  and  C_7 
REMARK    6  A    between atoms: O_22  and  C_12 
REMARK    7  A    between atoms: C_27  and  O_19 
ROOT
ATOM      1  C   UNL d   1       1.417  -0.205   0.227  0.00  0.00     0.059 A 
ATOM      2  C   UNL d   1       0.591  -1.356   0.087  0.00  0.00     0.057 A 
ATOM      3  C   UNL d   1      -0.547   1.249   0.094  0.00  0.00     0.041 A 
ATOM      4  C   UNL d   1       0.833   1.072   0.177  0.00  0.00     0.049 A 
ATOM      5  C   UNL d   1      -0.799  -1.153  -0.034  0.00  0.00     0.033 A 
ATOM      6  C   UNL d   1      -1.367   0.127  -0.016  0.00  0.00     0.020 A 
ENDROOT
BRANCH   1   7
ATOM      7  N   UNL d   1       2.833  -0.307   0.288  0.00  0.00    -0.363 N 
ATOM      8  C   UNL d   1       3.463   0.527   1.058  0.00  0.00     0.102 C 
ATOM      9  HN  UNL d   1       3.337  -1.009  -0.253  1.00  0.00     0.165 HD
BRANCH   8  10
ATOM     10  C   UNL d   1       4.933   0.615   1.050  0.00  0.00     0.014 A 
ATOM     11  C   UNL d   1       5.726  -0.353   0.426  0.00  0.00     0.077 A 
ATOM     12  C   UNL d   1       7.108  -0.201   0.385  0.00  0.00     0.039 A 
ATOM     13  C   UNL d   1       7.700   0.934   0.943  0.00  0.00     0.026 A 
ATOM     14  C   UNL d   1       6.905   1.904   1.556  0.00  0.00     0.035 A 
ATOM     15  C   UNL d   1       5.522   1.746   1.624  0.00  0.00     0.039 A 
ATOM     16 CL   UNL d   1       7.634   3.320   2.209  0.00  0.00    -0.084 Cl
BRANCH  11  17
ATOM     17  O   UNL d   1       5.197  -1.463  -0.170  0.00  0.00    -0.360 OA
ATOM     18  H   UNL d   1       4.218  -1.339  -0.210  0.00  0.00     0.217 HD
ENDBRANCH  11  17
ENDBRANCH   8  10
ENDBRANCH   1   7
BRANCH   2  19
ATOM     19  N   UNL d   1       1.143  -2.638   0.005  0.00  0.00    -0.375 N 
ATOM     20  C   UNL d   1       0.436  -3.711  -0.717  0.00  0.00     0.149 C 
ATOM     21  C   UNL d   1       1.462  -4.788  -1.105  0.00  0.00     0.187 C 
ATOM     22  O   UNL d   1       2.125  -5.317   0.058  0.00  0.00    -0.388 OA
ATOM     23  C   UNL d   1       2.812  -4.263   0.763  0.00  0.00     0.187 C 
ATOM     24  C   UNL d   1       1.844  -3.148   1.200  0.00  0.00     0.149 C 
ENDBRANCH   2  19
BRANCH   3  25
ATOM     25  C   UNL d   1      -1.046   2.638   0.236  0.00  0.00     0.293 C 
ATOM     26  O   UNL d   1      -0.319   3.605   0.389  0.00  0.00    -0.259 OA
BRANCH  25  27
ATOM     27  O   UNL d   1      -2.398   2.624   0.340  0.00  0.00    -0.318 OA
BRANCH  27  28
ATOM     28  C   UNL d   1      -2.950   3.750   1.039  0.00  0.00     0.174 C 
ATOM     29  C   UNL d   1      -3.004   3.385   2.512  0.00  0.00     0.034 C 
ENDBRANCH  27  28
ENDBRANCH  25  27
ENDBRANCH   3  25
TORSDOF 7
