REMARK  2 active torsions:
REMARK  status: ('A' for Active; 'I' for Inactive)
REMARK    1  A    between atoms: C_11  and  C_1 
REMARK    2  A    between atoms: O_16  and  C_10 
ROOT
ATOM      1  C   UNL d   1      -2.403   0.634  -0.440  0.00  0.00     0.275 C 
ATOM      2  C   UNL d   1      -2.400  -0.770   0.228  0.00  0.00     0.275 C 
ATOM      3  C   UNL d   1      -1.198   1.431   0.075  0.00  0.00     0.215 C 
ATOM      4  C   UNL d   1       0.080   0.686   0.174  0.00  0.00     0.043 A 
ATOM      5  N   UNL d   1      -1.171  -1.381   0.353  0.00  0.00    -0.323 N 
ATOM      6  C   UNL d   1       0.046  -0.707   0.226  0.00  0.00     0.051 A 
ATOM      7  C   UNL d   1       1.298   1.365   0.150  0.00  0.00     0.044 A 
ATOM      8  C   UNL d   1       1.234  -1.439   0.190  0.00  0.00     0.069 A 
ATOM      9  C   UNL d   1       2.485   0.632   0.111  0.00  0.00     0.068 A 
ATOM     10  C   UNL d   1       2.465  -0.775   0.104  0.00  0.00     0.092 A 
ATOM     11  O   UNL d   1      -3.414  -1.397   0.533  0.00  0.00    -0.269 OA
ATOM     12  O   UNL d   1      -1.203   2.635   0.306  0.00  0.00    -0.288 OA
ATOM     13  F   UNL d   1      -3.563   1.294  -0.107  0.00  0.00    -0.218 F 
ATOM     14 CL   UNL d   1       3.972   1.511   0.041  0.00  0.00    -0.081 Cl
ATOM     15  H   UNL d   1      -1.198  -2.364   0.601  0.00  0.00     0.169 HD
ENDROOT
BRANCH   1  16
ATOM     16  C   UNL d   1      -2.355   0.405  -1.971  0.00  0.00    -0.001 A 
ATOM     17  C   UNL d   1      -3.387  -0.347  -2.567  0.00  0.00     0.011 A 
ATOM     18  C   UNL d   1      -3.308  -0.745  -3.902  0.00  0.00     0.001 A 
ATOM     19  C   UNL d   1      -2.209  -0.381  -4.674  0.00  0.00     0.000 A 
ATOM     20  C   UNL d   1      -1.212   0.419  -4.124  0.00  0.00     0.001 A 
ATOM     21  C   UNL d   1      -1.292   0.826  -2.791  0.00  0.00     0.011 A 
ENDBRANCH   1  16
BRANCH  10  22
ATOM     22  O   UNL d   1       3.678  -1.407   0.021  0.00  0.00    -0.354 OA
ATOM     23  C   UNL d   1       3.684  -2.818  -0.153  0.00  0.00     0.210 C 
ENDBRANCH  10  22
TORSDOF 2
