REMARK  8 active torsions:
REMARK  status: ('A' for Active; 'I' for Inactive)
REMARK    1  A    between atoms: C_4  and  C_1 
REMARK    2  A    between atoms: C_5  and  CA_2 
REMARK    3  A    between atoms: C_3  and  C_16 
REMARK       I    between atoms: N_14  and  C_4 
REMARK    4  A    between atoms: OXT_15  and  C_5 
REMARK    5  A    between atoms: C_25  and  N_14 
REMARK    6  A    between atoms: C_16  and  S_19 
REMARK    7  A    between atoms: S_19  and  C_26 
REMARK    8  A    between atoms: C_26  and  C_25 
ROOT
ATOM      1  C   UNL d   1      -3.289  -1.127   0.976  0.00  0.00     0.270 C 
ATOM      2  O   UNL d   1      -4.021  -1.276   1.948  0.00  0.00    -0.266 OA
ATOM      3  N   UNL d   1      -3.261  -2.000  -0.091  0.00  0.00    -0.355 N 
ATOM      4  H   UNL d   1      -2.469  -1.897  -0.722  0.00  0.00     0.162 HD
ENDROOT
BRANCH   1   5
ATOM      5  C   UNL d   1      -2.343   0.016   0.914  0.00  0.00     0.134 A 
ATOM      6  CA  UNL d   1      -2.560   1.238   1.541  0.00  0.00     0.139 A 
ATOM      7  N   UNL d   1      -1.575   2.198   1.503  0.00  0.00    -0.357 N 
ATOM      8  C   UNL d   1      -0.433   1.905   0.846  0.00  0.00     0.105 A 
ATOM      9  HN  UNL d   1      -1.704   3.102   1.957  1.00  0.00     0.165 HD
ATOM     10  C   UNL d   1      -0.245   0.695   0.212  0.00  0.00     0.105 A 
ATOM     11  N   UNL d   1      -1.188  -0.274   0.219  0.00  0.00    -0.358 N 
ATOM     12  HN  UNL d   1      -1.054  -1.164  -0.261  1.00  0.00     0.165 HD
BRANCH   6  13
ATOM     13  C   UNL d   1      -3.831   1.739   2.183  0.00  0.00     0.196 C 
ATOM     14  O   UNL d   1      -3.937   2.919   2.503  0.00  0.00    -0.645 OA
BRANCH  13  15
ATOM     15  OXT UNL d   1      -4.889   0.923   2.354  0.00  0.00    -0.772 OA
ATOM     16  HXT UNL d   1      -4.727  -0.050   2.353  0.00  0.00     0.167 HD
ENDBRANCH  13  15
ENDBRANCH   6  13
ENDBRANCH   1   5
BRANCH   3  17
ATOM     17  C   UNL d   1      -3.947  -3.282  -0.046  0.00  0.00     0.133 C 
BRANCH  17  18
ATOM     18  C   UNL d   1      -5.479  -3.176  -0.007  0.00  0.00     0.093 C 
BRANCH  18  19
ATOM     19  S   UNL d   1      -6.197  -4.853   0.017  0.00  0.00    -0.163 SA
BRANCH  19  20
ATOM     20  C   UNL d   1      -7.963  -4.414   0.141  0.00  0.00     0.117 C 
BRANCH  20  21
ATOM     21  C   UNL d   1      -8.830  -5.645   0.085  0.00  0.00     0.011 A 
ATOM     22  C   UNL d   1      -9.217  -6.143  -1.167  0.00  0.00     0.125 A 
ATOM     23  F   UNL d   1      -8.840  -5.502  -2.283  0.00  0.00    -0.205 F 
ATOM     24  C   UNL d   1      -9.990  -7.295  -1.298  0.00  0.00     0.043 A 
ATOM     25  C   UNL d   1     -10.399  -7.983  -0.160  0.00  0.00     0.005 A 
ATOM     26  C   UNL d   1     -10.026  -7.513   1.097  0.00  0.00     0.024 A 
ATOM     27  C   UNL d   1      -9.243  -6.356   1.221  0.00  0.00     0.044 A 
ATOM     28 CL   UNL d   1      -8.819  -5.856   2.820  0.00  0.00    -0.084 Cl
ENDBRANCH  20  21
ENDBRANCH  19  20
ENDBRANCH  18  19
ENDBRANCH  17  18
ENDBRANCH   3  17
TORSDOF 8
