REMARK  6 active torsions:
REMARK  status: ('A' for Active; 'I' for Inactive)
REMARK    1  A    between atoms: C_6  and  C_1 
REMARK    2  A    between atoms: C_7  and  N_2 
REMARK    3  A    between atoms: O_15  and  C_3 
REMARK    4  A    between atoms: O_16  and  C_6 
REMARK    5  A    between atoms: C_8  and  C_7 
REMARK    6  A    between atoms: C_17  and  O_16 
ROOT
ATOM      1  C   UNL d   1      -0.802   1.366  -0.082  0.00  0.00     0.073 A 
ATOM      2  N   UNL d   1      -1.134  -0.860  -0.010  0.00  0.00    -0.336 N 
ATOM      3  C   UNL d   1       0.419   0.821  -0.152  0.00  0.00     0.148 A 
ATOM      4  C   UNL d   1       0.225  -0.648  -0.139  0.00  0.00     0.278 A 
ATOM      5  C   UNL d   1      -1.895   0.364  -0.034  0.00  0.00     0.174 A 
ATOM      6  O   UNL d   1       1.101  -1.491  -0.213  0.00  0.00    -0.265 OA
ENDROOT
BRANCH   2   7
ATOM      7  C   UNL d   1      -1.744  -2.171  -0.058  0.00  0.00     0.191 C 
BRANCH   7   8
ATOM      8  C   UNL d   1      -1.928  -2.582  -1.471  0.00  0.00     0.070 A 
ATOM      9  O   UNL d   1      -3.106  -2.240  -2.070  0.00  0.00    -0.325 OA
ATOM     10  C   UNL d   1      -3.041  -2.694  -3.349  0.00  0.00     0.142 A 
ATOM     11  C   UNL d   1      -1.840  -3.323  -3.581  0.00  0.00     0.027 A 
ATOM     12  C   UNL d   1      -1.121  -3.257  -2.364  0.00  0.00     0.036 A 
ENDBRANCH   7   8
ENDBRANCH   2   7
BRANCH   1  13
ATOM     13  C   UNL d   1      -0.978   2.805   0.064  0.00  0.00     0.293 C 
ATOM     14  O   UNL d   1      -0.032   3.580   0.089  0.00  0.00    -0.259 OA
BRANCH  13  15
ATOM     15  O   UNL d   1      -2.277   3.108   0.283  0.00  0.00    -0.318 OA
BRANCH  15  16
ATOM     16  C   UNL d   1      -2.497   4.406   0.859  0.00  0.00     0.174 C 
ATOM     17  C   UNL d   1      -2.447   4.257   2.369  0.00  0.00     0.034 C 
ENDBRANCH  15  16
ENDBRANCH  13  15
ENDBRANCH   1  13
BRANCH   3  18
ATOM     18  O   UNL d   1       1.637   1.442  -0.160  0.00  0.00    -0.355 OA
ATOM     19  H   UNL d   1       1.481   2.409  -0.108  0.00  0.00     0.218 HD
ENDBRANCH   3  18
TORSDOF 6
