REMARK  5 active torsions:
REMARK  status: ('A' for Active; 'I' for Inactive)
REMARK    1  A    between atoms: C_5  and  N_1 
REMARK    2  A    between atoms: S_2  and  C_8 
REMARK    3  A    between atoms: N_9  and  S_2 
REMARK    4  A    between atoms: C_7  and  C_13 
REMARK    5  A    between atoms: C_19  and  N_9 
ROOT
ATOM      1  C   UNL d   1       2.860  -1.622   0.112  0.00  0.00     0.067 A 
ATOM      2  C   UNL d   1       5.106  -3.301   0.307  0.00  0.00     0.081 A 
ATOM      3  C   UNL d   1       3.112  -2.597  -0.871  0.00  0.00     0.062 A 
ATOM      4  C   UNL d   1       4.233  -3.430  -0.777  0.00  0.00     0.051 A 
ATOM      5  C   UNL d   1       3.756  -1.499   1.188  0.00  0.00     0.033 A 
ATOM      6  C   UNL d   1       4.860  -2.351   1.302  0.00  0.00     0.027 A 
ATOM      7 CL   UNL d   1       2.157  -2.721  -2.310  0.00  0.00    -0.082 Cl
ENDROOT
BRANCH   2   8
ATOM      8  S   UNL d   1       6.489  -4.416   0.465  0.00  0.00     0.263 S 
ATOM      9  O   UNL d   1       6.847  -4.483   1.861  0.00  0.00    -0.200 OA
ATOM     10  O   UNL d   1       6.159  -5.611  -0.290  0.00  0.00    -0.200 OA
BRANCH   8  11
ATOM     11  N   UNL d   1       7.719  -3.655  -0.393  0.00  0.00    -0.281 N 
ATOM     12  H   UNL d   1       7.797  -3.913  -1.374  0.00  0.00     0.179 HD
BRANCH  11  13
ATOM     13  C   UNL d   1       8.241  -2.424   0.061  0.00  0.00     0.043 A 
ATOM     14  C   UNL d   1       9.220  -2.427   1.055  0.00  0.00     0.046 A 
ATOM     15  C   UNL d   1       9.715  -1.218   1.565  0.00  0.00     0.050 A 
ATOM     16  C   UNL d   1       9.227  -0.011   1.038  0.00  0.00     0.016 A 
ATOM     17  C   UNL d   1       8.252  -0.015   0.038  0.00  0.00     0.003 A 
ATOM     18  C   UNL d   1       7.758  -1.224  -0.452  0.00  0.00     0.030 A 
BRANCH  15  19
ATOM     19  C   UNL d   1      10.725  -1.208   2.686  0.00  0.00     0.417 C 
ATOM     20  F   UNL d   1      11.073  -2.451   3.121  0.00  0.00    -0.166 F 
ATOM     21  F   UNL d   1      11.889  -0.595   2.339  0.00  0.00    -0.166 F 
ATOM     22  F   UNL d   1      10.266  -0.544   3.784  0.00  0.00    -0.166 F 
ENDBRANCH  15  19
ENDBRANCH  11  13
ENDBRANCH   8  11
ENDBRANCH   2   8
BRANCH   1  23
ATOM     23  N   UNL d   1       1.742  -0.756   0.046  0.00  0.00    -0.250 N 
ATOM     24  C   UNL d   1       1.846   0.611   0.071  0.00  0.00     0.232 A 
ATOM     25  C   UNL d   1       0.474   1.210  -0.068  0.00  0.00     0.123 A 
ATOM     26  O   UNL d   1       2.869   1.279   0.133  0.00  0.00    -0.273 OA
ATOM     27  C   UNL d   1      -0.476   0.013  -0.009  0.00  0.00     0.050 A 
ATOM     28  C   UNL d   1       0.441  -1.194   0.005  0.00  0.00     0.240 A 
ATOM     29  C   UNL d   1      -1.473  -0.044  -1.166  0.00  0.00     0.020 C 
ATOM     30  C   UNL d   1      -1.382   0.038   1.227  0.00  0.00     0.020 C 
ATOM     31  O   UNL d   1       0.047  -2.351   0.066  0.00  0.00    -0.272 OA
ATOM     32  C   UNL d   1      -2.669   0.786  -0.714  0.00  0.00     0.001 C 
ATOM     33  C   UNL d   1      -2.619   0.828   0.810  0.00  0.00     0.001 C 
ENDBRANCH   1  23
TORSDOF 5
