REMARK  1 active torsions:
REMARK  status: ('A' for Active; 'I' for Inactive)
REMARK    1  A    between atoms: N_6  and  C_3 
ROOT
ATOM      1  S   UNL d   1      -1.212  -1.904  -0.394  0.00  0.00     0.178 S 
ATOM      2  C   UNL d   1      -2.491  -0.663  -0.432  0.00  0.00     0.186 C 
ATOM      3  C   UNL d   1      -1.853   0.691  -0.058  0.00  0.00     0.271 C 
ATOM      4  C   UNL d   1       0.109  -0.792  -0.193  0.00  0.00     0.067 A 
ATOM      5  C   UNL d   1      -0.345   0.517  -0.059  0.00  0.00    -0.003 A 
ATOM      6  O   UNL d   1      -1.096  -2.513  -1.705  0.00  0.00    -0.223 OA
ATOM      7  O   UNL d   1      -1.330  -2.676   0.824  0.00  0.00    -0.223 OA
ATOM      8  C   UNL d   1       0.597   1.533   0.065  0.00  0.00     0.011 A 
ATOM      9  C   UNL d   1       1.445  -1.149  -0.188  0.00  0.00     0.024 A 
ATOM     10  C   UNL d   1       1.959   1.207   0.067  0.00  0.00     0.001 A 
ATOM     11  C   UNL d   1       2.380  -0.127  -0.053  0.00  0.00     0.002 A 
ENDROOT
BRANCH   3  12
ATOM     12  N   UNL d   1      -2.341   1.417   1.128  0.00  0.00     0.102 N 
ATOM     13  C   UNL d   1      -3.748   1.853   1.074  0.00  0.00     0.299 C 
ATOM     14  C   UNL d   1      -4.774   0.837   1.608  0.00  0.00     0.198 C 
ATOM     15  O   UNL d   1      -4.418   0.331   2.898  0.00  0.00    -0.388 OA
ATOM     16  C   UNL d   1      -3.091  -0.206   2.922  0.00  0.00     0.198 C 
ATOM     17  C   UNL d   1      -2.060   0.827   2.449  0.00  0.00     0.299 C 
ENDBRANCH   3  12
TORSDOF 1
