REMARK  4 active torsions:
REMARK  status: ('A' for Active; 'I' for Inactive)
REMARK    1  A    between atoms: O_4  and  S_1 
REMARK    2  A    between atoms: C_9  and  S_1 
REMARK    3  A    between atoms: C_2  and  O_4 
REMARK    4  A    between atoms: C_6  and  C_13 
ROOT
ATOM      1  C   UNL d   1       0.964   1.350  -2.014  0.00  0.00     0.251 C 
ATOM      2  C   UNL d   1       2.460   1.593  -2.048  0.00  0.00     0.195 C 
ATOM      3  O   UNL d   1       0.661   3.818  -2.125  0.00  0.00    -0.337 OA
ATOM      4  C   UNL d   1       0.172   2.592  -1.555  0.00  0.00     0.200 C 
ATOM      5  C   UNL d   1       2.923   2.979  -1.884  0.00  0.00     0.046 A 
ATOM      6  C   UNL d   1       1.997   4.015  -1.918  0.00  0.00     0.083 A 
ATOM      7  O   UNL d   1       3.265   0.692  -2.267  0.00  0.00    -0.289 OA
ATOM      8  C   UNL d   1       4.290   3.249  -1.753  0.00  0.00     0.018 A 
ATOM      9  C   UNL d   1       2.435   5.335  -1.823  0.00  0.00     0.038 A 
ATOM     10  C   UNL d   1       4.725   4.569  -1.653  0.00  0.00     0.001 A 
ATOM     11  C   UNL d   1       3.798   5.611  -1.684  0.00  0.00     0.003 A 
ENDROOT
BRANCH   1  12
ATOM     12  O   UNL d   1       0.609   0.149  -1.338  0.00  0.00    -0.255 OA
BRANCH  12  13
ATOM     13  S   UNL d   1       0.999  -0.066   0.230  0.00  0.00     0.298 S 
ATOM     14  O   UNL d   1       0.237   0.898   1.001  0.00  0.00    -0.193 OA
ATOM     15  O   UNL d   1       2.432  -0.164   0.377  0.00  0.00    -0.193 OA
BRANCH  13  16
ATOM     16  C   UNL d   1       0.331  -1.666   0.620  0.00  0.00     0.086 A 
ATOM     17  C   UNL d   1       0.250  -2.646  -0.374  0.00  0.00     0.027 A 
ATOM     18  C   UNL d   1      -0.382  -3.857  -0.088  0.00  0.00     0.020 A 
ATOM     19  C   UNL d   1      -0.923  -4.076   1.181  0.00  0.00     0.011 A 
ATOM     20  C   UNL d   1      -0.820  -3.104   2.178  0.00  0.00     0.020 A 
ATOM     21 BR   UNL d   1      -1.828  -5.695   1.546  0.00  0.00    -0.051 Br
ATOM     22  C   UNL d   1      -0.192  -1.891   1.898  0.00  0.00     0.027 A 
ENDBRANCH  13  16
ENDBRANCH  12  13
ENDBRANCH   1  12
BRANCH   4  23
ATOM     23  C   UNL d   1      -1.284   2.466  -1.997  0.00  0.00    -0.026 A 
ATOM     24  C   UNL d   1      -1.619   2.468  -3.364  0.00  0.00     0.010 A 
ATOM     25  C   UNL d   1      -2.936   2.271  -3.780  0.00  0.00     0.001 A 
ATOM     26  C   UNL d   1      -3.942   2.092  -2.836  0.00  0.00     0.000 A 
ATOM     27  C   UNL d   1      -3.633   2.119  -1.477  0.00  0.00     0.001 A 
ATOM     28  C   UNL d   1      -2.312   2.303  -1.057  0.00  0.00     0.010 A 
ENDBRANCH   4  23
TORSDOF 4
