REMARK  5 active torsions:
REMARK  status: ('A' for Active; 'I' for Inactive)
REMARK    1  A    between atoms: N_4  and  C_3 
REMARK       I    between atoms: C_5  and  N_4 
REMARK       I    between atoms: N_11  and  C_5 
REMARK    2  A    between atoms: C_6  and  C_10 
REMARK    3  A    between atoms: C_19  and  C_7 
REMARK    4  A    between atoms: C_18  and  N_11 
REMARK    5  A    between atoms: C_13  and  C_19 
ROOT
ATOM      1  N   UNL d   1       1.716   1.512   0.567  0.00  0.00    -0.294 N 
ATOM      2  C   UNL d   1       3.052   1.262   0.509  0.00  0.00     0.326 C 
ATOM      3  N   UNL d   1       3.446   0.093  -0.076  0.00  0.00    -0.309 N 
ATOM      4  O   UNL d   1       3.800   2.124   0.965  0.00  0.00    -0.247 OA
ATOM      5  H   UNL d   1       1.525   2.424   0.960  0.00  0.00     0.172 HD
ATOM      6  H   UNL d   1       2.749  -0.353  -0.664  0.00  0.00     0.170 HD
ENDROOT
BRANCH   1   7
ATOM      7  C   UNL d   1       0.634   0.697   0.323  0.00  0.00     0.116 A 
ATOM      8  N   UNL d   1       0.732  -0.613  -0.114  0.00  0.00    -0.339 N 
ATOM      9  C   UNL d   1      -0.472  -1.157  -0.162  0.00  0.00     0.056 A 
ATOM     10  HN  UNL d   1       1.601  -1.086  -0.361  1.00  0.00     0.168 HD
ATOM     11  S   UNL d   1      -1.774  -0.088   0.250  0.00  0.00    -0.085 SA
ATOM     12  C   UNL d   1      -0.649   1.151   0.545  0.00  0.00     0.100 A 
BRANCH   9  13
ATOM     13  C   UNL d   1      -0.865  -2.583  -0.466  0.00  0.00     0.103 C 
BRANCH  13  14
ATOM     14  C   UNL d   1       0.184  -3.493  -1.040  0.00  0.00    -0.045 A 
ATOM     15  C   UNL d   1       1.363  -3.863  -0.417  0.00  0.00     0.057 A 
ATOM     16  S   UNL d   1       2.245  -5.028  -1.302  0.00  0.00    -0.113 SA
ATOM     17  C   UNL d   1       1.062  -5.074  -2.532  0.00  0.00     0.050 A 
ATOM     18  C   UNL d   1       0.026  -4.202  -2.281  0.00  0.00     0.015 A 
ENDBRANCH  13  14
ENDBRANCH   9  13
ENDBRANCH   1   7
BRANCH   3  19
ATOM     19  C   UNL d   1       4.771  -0.384  -0.107  0.00  0.00     0.037 A 
ATOM     20  C   UNL d   1       5.157  -1.232  -1.150  0.00  0.00     0.045 A 
ATOM     21  C   UNL d   1       6.474  -1.722  -1.225  0.00  0.00     0.050 A 
ATOM     22  C   UNL d   1       7.378  -1.415  -0.198  0.00  0.00     0.016 A 
ATOM     23  C   UNL d   1       6.992  -0.589   0.855  0.00  0.00     0.003 A 
ATOM     24  C   UNL d   1       5.700  -0.063   0.889  0.00  0.00     0.029 A 
BRANCH  21  25
ATOM     25  C   UNL d   1       6.912  -2.582  -2.381  0.00  0.00     0.417 C 
ATOM     26  F   UNL d   1       6.188  -2.371  -3.517  0.00  0.00    -0.166 F 
ATOM     27  F   UNL d   1       8.213  -2.375  -2.734  0.00  0.00    -0.166 F 
ATOM     28  F   UNL d   1       6.808  -3.912  -2.112  0.00  0.00    -0.166 F 
ENDBRANCH  21  25
ENDBRANCH   3  19
TORSDOF 5
