REMARK  2 active torsions:
REMARK  status: ('A' for Active; 'I' for Inactive)
REMARK    1  A    between atoms: N_4  and  C_1 
REMARK       I    between atoms: C_2  and  N_3 
REMARK    2  A    between atoms: C_15  and  C_2 
ROOT
ATOM      1  C   UNL d   1      -0.064  -1.090  -0.021  0.00  0.00     0.103 A 
ATOM      2  C   UNL d   1       0.451   0.215   0.085  0.00  0.00     0.083 A 
ATOM      3  C   UNL d   1       1.854   0.460   0.229  0.00  0.00     0.102 C 
ATOM      4  N   UNL d   1       2.988   0.678   0.381  0.00  0.00    -0.191 NA
ATOM      5  N   UNL d   1      -1.385  -1.305  -0.220  0.00  0.00    -0.355 N 
ATOM      6  HN  UNL d   1      -1.753  -2.251  -0.324  1.00  0.00     0.166 HD
ATOM      7  C   UNL d   1      -0.420   1.307   0.026  0.00  0.00     0.027 A 
ATOM      8  C   UNL d   1      -2.206  -0.228  -0.278  0.00  0.00     0.089 A 
ATOM      9  C   UNL d   1      -1.778   1.082  -0.153  0.00  0.00     0.019 A 
ENDROOT
BRANCH   1  10
ATOM     10  N   UNL d   1       0.794  -2.185   0.074  0.00  0.00    -0.265 NA
ATOM     11  C   UNL d   1       0.393  -3.440  -0.587  0.00  0.00     0.117 C 
ATOM     12  C   UNL d   1       1.645  -4.345  -0.712  0.00  0.00     0.141 C 
ATOM     13  N   UNL d   1       2.440  -4.468   0.531  0.00  0.00    -0.346 N 
ATOM     14  C   UNL d   1       3.291  -5.571   0.646  0.00  0.00     0.253 C 
ATOM     15  C   UNL d   1       2.564  -3.246   1.343  0.00  0.00     0.141 C 
ATOM     16  O   UNL d   1       3.206  -6.556  -0.084  0.00  0.00    -0.267 OA
ATOM     17  C   UNL d   1       1.258  -2.454   1.445  0.00  0.00     0.117 C 
BRANCH  14  18
ATOM     18  C   UNL d   1       4.319  -5.602   1.723  0.00  0.00     0.032 A 
ATOM     19  C   UNL d   1       4.378  -6.729   2.550  0.00  0.00     0.017 A 
ATOM     20  C   UNL d   1       5.298  -6.778   3.599  0.00  0.00     0.001 A 
ATOM     21  C   UNL d   1       6.162  -5.704   3.823  0.00  0.00     0.000 A 
ATOM     22  C   UNL d   1       6.138  -4.600   2.973  0.00  0.00     0.001 A 
ATOM     23  C   UNL d   1       5.239  -4.561   1.905  0.00  0.00     0.017 A 
ENDBRANCH  14  18
ENDBRANCH   1  10
TORSDOF 2
