REMARK  4 active torsions:
REMARK  status: ('A' for Active; 'I' for Inactive)
REMARK    1  A    between atoms: C_9  and  C_2 
REMARK    2  A    between atoms: S_10  and  C_5 
REMARK    3  A    between atoms: C_8  and  C_11 
REMARK    4  A    between atoms: C_11  and  S_10 
ROOT
ATOM      1  N   UNL d   1       0.830  -0.001   0.012  0.00  0.00    -0.315 N 
ATOM      2  C   UNL d   1       0.011   1.103  -0.135  0.00  0.00     0.134 A 
ATOM      3  N   UNL d   1      -1.237   0.673  -0.225  0.00  0.00    -0.283 N 
ATOM      4  HN  UNL d   1      -2.065   1.264  -0.298  1.00  0.00     0.188 HD
ATOM      5  C   UNL d   1       0.005  -1.092  -0.068  0.00  0.00     0.162 A 
ATOM      6  N   UNL d   1      -1.237  -0.700  -0.204  0.00  0.00    -0.278 N 
ATOM      7  HN  UNL d   1      -2.055  -1.305  -0.281  1.00  0.00     0.189 HD
ATOM      8  C   UNL d   1       2.252  -0.028   0.243  0.00  0.00     0.160 C 
ENDROOT
BRANCH   2   9
ATOM      9  C   UNL d   1       0.407   2.515  -0.152  0.00  0.00     0.010 A 
ATOM     10  C   UNL d   1      -0.398   3.467   0.491  0.00  0.00     0.029 A 
ATOM     11  C   UNL d   1      -0.047   4.834   0.503  0.00  0.00    -0.009 A 
ATOM     12  C   UNL d   1      -0.837   5.801   1.140  0.00  0.00     0.015 A 
ATOM     13  C   UNL d   1       1.130   5.268  -0.141  0.00  0.00     0.042 A 
ATOM     14  C   UNL d   1      -0.440   7.133   1.133  0.00  0.00     0.018 A 
ATOM     15  C   UNL d   1       0.739   7.455   0.487  0.00  0.00     0.088 A 
ATOM     16  N   UNL d   1       1.520   6.553  -0.144  0.00  0.00    -0.365 N 
ATOM     17  HN  UNL d   1       2.381   6.840  -0.610  1.00  0.00     0.165 HD
ATOM     18  C   UNL d   1       1.898   4.322  -0.801  0.00  0.00     0.031 A 
ATOM     19  C   UNL d   1       1.544   2.966  -0.827  0.00  0.00     0.017 A 
ENDBRANCH   2   9
BRANCH   5  20
ATOM     20  S   UNL d   1       0.562  -2.728   0.019  0.00  0.00    -0.088 SA
BRANCH  20  21
ATOM     21  C   UNL d   1      -0.823  -3.592  -0.782  0.00  0.00     0.126 C 
BRANCH  21  22
ATOM     22  C   UNL d   1      -0.643  -5.088  -0.750  0.00  0.00     0.012 A 
ATOM     23  C   UNL d   1       0.042  -5.718  -1.798  0.00  0.00     0.125 A 
ATOM     24  F   UNL d   1       0.530  -4.985  -2.809  0.00  0.00    -0.205 F 
ATOM     25  C   UNL d   1       0.234  -7.098  -1.831  0.00  0.00     0.043 A 
ATOM     26  C   UNL d   1      -0.259  -7.888  -0.798  0.00  0.00     0.005 A 
ATOM     27  C   UNL d   1      -0.931  -7.287   0.264  0.00  0.00     0.024 A 
ATOM     28  C   UNL d   1      -1.117  -5.898   0.293  0.00  0.00     0.044 A 
ATOM     29 CL   UNL d   1      -1.950  -5.240   1.657  0.00  0.00    -0.084 Cl
ENDBRANCH  21  22
ENDBRANCH  20  21
ENDBRANCH   5  20
TORSDOF 4
