REMARK  5 active torsions:
REMARK  status: ('A' for Active; 'I' for Inactive)
REMARK    1  A    between atoms: C_6  and  N_1 
REMARK    2  A    between atoms: C_12  and  C_6 
REMARK    3  A    between atoms: N_9  and  C_13 
REMARK    4  A    between atoms: C_13  and  C_12 
REMARK    5  A    between atoms: O_20  and  C_12 
ROOT
ATOM      1  N   UNL d   1       0.100  -1.545  -0.561  0.00  0.00    -0.343 N 
ATOM      2  C   UNL d   1       0.549   0.238  -1.825  0.00  0.00     0.005 A 
ATOM      3  C   UNL d   1       0.269   0.679  -0.494  0.00  0.00     0.005 A 
ATOM      4  C   UNL d   1       0.372  -1.149  -1.855  0.00  0.00     0.046 A 
ATOM      5  C   UNL d   1      -0.066  -0.445   0.262  0.00  0.00     0.046 A 
ATOM      6  C   UNL d   1       0.490  -1.885  -3.048  0.00  0.00     0.032 A 
ATOM      7  C   UNL d   1      -0.460  -0.350   1.608  0.00  0.00     0.032 A 
ATOM      8  C   UNL d   1       0.911   0.908  -3.011  0.00  0.00     0.038 A 
ATOM      9  C   UNL d   1       0.248   1.946   0.127  0.00  0.00     0.038 A 
ATOM     10  C   UNL d   1       1.037   0.179  -4.197  0.00  0.00     0.035 A 
ATOM     11  C   UNL d   1      -0.136   2.045   1.466  0.00  0.00     0.035 A 
ATOM     12  C   UNL d   1       0.815  -1.195  -4.219  0.00  0.00     0.026 A 
ATOM     13  C   UNL d   1      -0.494   0.917   2.195  0.00  0.00     0.026 A 
ATOM     14 CL   UNL d   1      -0.177   3.591   2.224  0.00  0.00    -0.084 Cl
ATOM     15 CL   UNL d   1       1.468   0.995  -5.650  0.00  0.00    -0.084 Cl
ENDROOT
BRANCH   1  16
ATOM     16  C   UNL d   1       0.028  -2.921  -0.108  0.00  0.00     0.163 C 
BRANCH  16  17
ATOM     17  C   UNL d   1       1.389  -3.544   0.227  0.00  0.00     0.164 C 
BRANCH  17  18
ATOM     18  C   UNL d   1       2.223  -2.755   1.271  0.00  0.00     0.305 C 
BRANCH  18  19
ATOM     19  N   UNL d   1       3.354  -3.564   1.795  0.00  0.00     0.090 N 
ATOM     20  C   UNL d   1       4.409  -3.771   0.784  0.00  0.00     0.272 C 
ATOM     21  C   UNL d   1       5.480  -4.722   1.322  0.00  0.00     0.030 C 
ATOM     22  C   UNL d   1       6.085  -4.219   2.627  0.00  0.00     0.003 C 
ATOM     23  C   UNL d   1       4.998  -3.822   3.621  0.00  0.00     0.030 C 
ATOM     24  C   UNL d   1       3.944  -2.915   2.982  0.00  0.00     0.272 C 
ENDBRANCH  18  19
ENDBRANCH  17  18
BRANCH  17  25
ATOM     25  O   UNL d   1       1.148  -4.864   0.748  0.00  0.00    -0.392 OA
ATOM     26  H   UNL d   1       1.905  -5.036   1.350  0.00  0.00     0.210 HD
ENDBRANCH  17  25
ENDBRANCH  16  17
ENDBRANCH   1  16
TORSDOF 5
