REMARK  2 active torsions:
REMARK  status: ('A' for Active; 'I' for Inactive)
REMARK    1  A    between atoms: N_6  and  C_1 
REMARK    2  A    between atoms: C_15  and  N_4 
ROOT
ATOM      1  C   UNL d   1      -0.048  -1.202   0.236  0.00  0.00     0.127 C 
ATOM      2  C   UNL d   1       1.263  -0.523   0.517  0.00  0.00     0.295 C 
ATOM      3  N   UNL d   1      -0.339   1.074   0.285  0.00  0.00    -0.289 N 
ATOM      4  N   UNL d   1       1.047   0.852   0.400  0.00  0.00    -0.217 N 
ATOM      5  C   UNL d   1      -0.934  -0.188   0.147  0.00  0.00     0.057 C 
ATOM      6  O   UNL d   1       2.318  -1.086   0.784  0.00  0.00    -0.264 OA
ATOM      7  C   UNL d   1      -0.863   2.342  -0.186  0.00  0.00     0.178 C 
ATOM      8  C   UNL d   1      -2.407  -0.393  -0.024  0.00  0.00     0.072 C 
ENDROOT
BRANCH   1   9
ATOM      9  N   UNL d   1      -0.310  -2.551   0.203  0.00  0.00    -0.350 N 
ATOM     10  C   UNL d   1       0.563  -3.405  -0.234  0.00  0.00     0.033 C 
ATOM     11  C   UNL d   1       0.252  -4.854  -0.063  0.00  0.00     0.040 C 
ATOM     12  C   UNL d   1       1.870  -3.159  -0.908  0.00  0.00     0.033 C 
ATOM     13  C   UNL d   1       1.221  -5.782  -0.032  0.00  0.00    -0.010 C 
ATOM     14  C   UNL d   1       0.987  -7.246   0.153  0.00  0.00     0.052 C 
ATOM     15  C   UNL d   1       2.638  -5.366  -0.200  0.00  0.00     0.177 C 
ATOM     16  C   UNL d   1       2.861  -4.049  -0.817  0.00  0.00     0.057 C 
ATOM     17  O   UNL d   1       3.578  -6.099   0.080  0.00  0.00    -0.288 OA
ATOM     18  HN  UNL d   1      -1.215  -2.890   0.529  1.00  0.00     0.166 HD
ENDBRANCH   1   9
BRANCH   4  19
ATOM     19  C   UNL d   1       2.069   1.796   0.192  0.00  0.00     0.060 A 
ATOM     20  C   UNL d   1       3.184   1.444  -0.590  0.00  0.00     0.031 A 
ATOM     21  C   UNL d   1       4.263   2.315  -0.743  0.00  0.00     0.002 A 
ATOM     22  C   UNL d   1       4.252   3.541  -0.088  0.00  0.00     0.000 A 
ATOM     23  C   UNL d   1       3.154   3.902   0.694  0.00  0.00     0.002 A 
ATOM     24  C   UNL d   1       2.060   3.039   0.825  0.00  0.00     0.031 A 
ENDBRANCH   4  19
TORSDOF 2
