REMARK  4 active torsions:
REMARK  status: ('A' for Active; 'I' for Inactive)
REMARK    1  A    between atoms: N_3  and  S_1 
REMARK    2  A    between atoms: C_9  and  S_1 
REMARK    3  A    between atoms: C_2  and  N_3 
REMARK    4  A    between atoms: C_7  and  N_3 
ROOT
ATOM      1  N   UNL d   1       0.619   0.727   1.547  0.00  0.00    -0.214 N 
ENDROOT
BRANCH   1   2
ATOM      2  C   UNL d   1      -0.439   1.668   1.591  0.00  0.00     0.167 A 
ATOM      3  N   UNL d   1      -1.674   1.324   1.868  0.00  0.00    -0.334 N 
ATOM      4  C   UNL d   1      -2.426   2.466   2.108  0.00  0.00     0.051 A 
ATOM      5  HN  UNL d   1      -2.026   0.368   1.902  1.00  0.00     0.168 HD
ATOM      6  C   UNL d   1      -3.793   2.499   2.455  0.00  0.00     0.031 A 
ATOM      7  C   UNL d   1      -1.729   3.673   2.026  0.00  0.00     0.035 A 
ATOM      8  C   UNL d   1      -4.409   3.724   2.739  0.00  0.00     0.002 A 
ATOM      9  C   UNL d   1      -3.685   4.909   2.679  0.00  0.00     0.002 A 
ATOM     10  C   UNL d   1      -2.336   4.907   2.314  0.00  0.00     0.021 A 
ATOM     11  S   UNL d   1      -0.108   3.349   1.551  0.00  0.00    -0.051 SA
ENDBRANCH   1   2
BRANCH   1  12
ATOM     12  S   UNL d   1       1.017   0.127   0.032  0.00  0.00     0.271 S 
ATOM     13  O   UNL d   1       2.366  -0.412   0.100  0.00  0.00    -0.200 OA
ATOM     14  O   UNL d   1       0.705   1.120  -0.982  0.00  0.00    -0.200 OA
BRANCH  12  15
ATOM     15  C   UNL d   1      -0.072  -1.261  -0.245  0.00  0.00     0.080 A 
ATOM     16  C   UNL d   1      -1.266  -1.074  -0.947  0.00  0.00     0.026 A 
ATOM     17  C   UNL d   1      -2.045  -2.182  -1.294  0.00  0.00     0.008 A 
ATOM     18  C   UNL d   1      -1.637  -3.478  -0.952  0.00  0.00    -0.062 A 
ATOM     19  C   UNL d   1      -0.438  -3.653  -0.249  0.00  0.00     0.008 A 
ATOM     20  C   UNL d   1      -2.472  -4.658  -1.359  0.00  0.00     0.048 C 
ATOM     21  C   UNL d   1       0.350  -2.551   0.094  0.00  0.00     0.026 A 
ENDBRANCH  12  15
ENDBRANCH   1  12
BRANCH   1  22
ATOM     22  C   UNL d   1       0.860  -0.045   2.722  0.00  0.00     0.054 A 
ATOM     23  C   UNL d   1      -0.056  -0.968   3.229  0.00  0.00     0.054 A 
ATOM     24  C   UNL d   1       0.234  -1.636   4.419  0.00  0.00     0.036 A 
ATOM     25 CL   UNL d   1      -0.895  -2.764   5.061  0.00  0.00    -0.084 Cl
ATOM     26  C   UNL d   1       1.426  -1.391   5.104  0.00  0.00     0.024 A 
ATOM     27  C   UNL d   1       2.345  -0.477   4.591  0.00  0.00     0.004 A 
ATOM     28  C   UNL d   1       2.063   0.189   3.400  0.00  0.00     0.031 A 
ENDBRANCH   1  22
TORSDOF 4
