REMARK WARNING: 32 MAX_TORS EXCEEDED!!!
REMARK  40 active torsions:
REMARK  status: ('A' for Active; 'I' for Inactive)
REMARK    1  A    between atoms: C_8  and  S_1 
REMARK    2  A    between atoms: N_12  and  S_1 
REMARK    3  A    between atoms: S_2  and  C_9 
REMARK    4  A    between atoms: N_13  and  S_2 
REMARK    5  A    between atoms: C_23  and  N_12 
REMARK    6  A    between atoms: C_24  and  N_12 
REMARK    7  A    between atoms: C_25  and  N_13 
REMARK    8  A    between atoms: C_26  and  N_13 
REMARK    9  A    between atoms: C_27  and  C_23 
REMARK   10  A    between atoms: C_28  and  C_24 
REMARK   11  A    between atoms: C_29  and  C_25 
REMARK   12  A    between atoms: C_30  and  C_26 
REMARK   13  A    between atoms: C_51  and  C_27 
REMARK   14  A    between atoms: C_52  and  C_28 
REMARK   15  A    between atoms: C_53  and  C_29 
REMARK   16  A    between atoms: C_54  and  C_30 
REMARK   17  A    between atoms: C_31  and  C_35 
REMARK   18  A    between atoms: C_32  and  C_36 
REMARK   19  A    between atoms: C_33  and  C_37 
REMARK   20  A    between atoms: C_34  and  C_38 
REMARK   21  A    between atoms: C_35  and  C_47 
REMARK   22  A    between atoms: C_36  and  C_48 
REMARK   23  A    between atoms: C_37  and  C_49 
REMARK   24  A    between atoms: C_38  and  C_50 
REMARK   25  A    between atoms: C_39  and  C_55 
REMARK   26  A    between atoms: C_43  and  C_39 
REMARK   27  A    between atoms: C_40  and  C_56 
REMARK   28  A    between atoms: C_44  and  C_40 
REMARK   29  A    between atoms: C_41  and  C_57 
REMARK   30  A    between atoms: C_45  and  C_41 
REMARK   31  A    between atoms: C_42  and  C_58 
REMARK   32  A    between atoms: C_46  and  C_42 
REMARK   33  A    between atoms: C_47  and  C_43 
REMARK   34  A    between atoms: C_48  and  C_44 
REMARK   35  A    between atoms: C_49  and  C_45 
REMARK   36  A    between atoms: C_50  and  C_46 
REMARK   37  A    between atoms: C_55  and  C_51 
REMARK   38  A    between atoms: C_56  and  C_52 
REMARK   39  A    between atoms: C_57  and  C_53 
REMARK   40  A    between atoms: C_58  and  C_54 
ROOT
ATOM      1  C   UNL d   1      -0.610   1.729   3.274  0.00  0.00     0.027 A 
ATOM      2  C   UNL d   1      -1.584   2.920   5.097  0.00  0.00     0.027 A 
ATOM      3  C   UNL d   1      -1.523   1.589   4.439  0.00  0.00     0.194 A 
ATOM      4  C   UNL d   1      -0.770   3.786   4.345  0.00  0.00    -0.011 A 
ATOM      5  C   UNL d   1      -0.144   3.054   3.274  0.00  0.00    -0.011 A 
ATOM      6  C   UNL d   1       0.729   1.225   1.383  0.00  0.00     0.075 A 
ATOM      7  C   UNL d   1      -2.249   4.706   6.502  0.00  0.00     0.075 A 
ATOM      8  C   UNL d   1      -0.210   0.796   2.331  0.00  0.00     0.041 A 
ATOM      9  C   UNL d   1      -2.311   3.340   6.196  0.00  0.00     0.041 A 
ATOM     10  C   UNL d   1      -0.717   5.134   4.644  0.00  0.00     0.015 A 
ATOM     11  C   UNL d   1       0.792   3.467   2.343  0.00  0.00     0.015 A 
ATOM     12  O   UNL d   1      -2.108   0.583   4.776  0.00  0.00    -0.287 OA
ATOM     13  C   UNL d   1      -1.505   5.598   5.695  0.00  0.00     0.026 A 
ATOM     14  C   UNL d   1       1.250   2.535   1.415  0.00  0.00     0.026 A 
ENDROOT
BRANCH   6  15
ATOM     15  S   UNL d   1       1.399   0.068   0.195  0.00  0.00     0.243 S 
ATOM     16  O   UNL d   1       0.817  -1.219   0.493  0.00  0.00    -0.206 OA
ATOM     17  O   UNL d   1       2.837   0.247   0.205  0.00  0.00    -0.206 OA
BRANCH  15  18
ATOM     18  N   UNL d   1       0.785   0.663  -1.327  0.00  0.00    -0.206 NA
BRANCH  18  19
ATOM     19  C   UNL d   1       1.772   1.575  -2.019  0.00  0.00     0.107 C 
BRANCH  19  20
ATOM     20  C   UNL d   1       1.227   2.299  -3.257  0.00  0.00     0.015 C 
BRANCH  20  21
ATOM     21  C   UNL d   1      -0.066   3.080  -3.030  0.00  0.00     0.001 C 
BRANCH  21  22
ATOM     22  C   UNL d   1       0.143   4.226  -2.050  0.00  0.00     0.000 C 
BRANCH  22  23
ATOM     23  C   UNL d   1      -1.145   4.994  -1.793  0.00  0.00     0.000 C 
BRANCH  23  24
ATOM     24  C   UNL d   1      -0.880   6.108  -0.786  0.00  0.00     0.000 C 
BRANCH  24  25
ATOM     25  C   UNL d   1      -2.149   6.896  -0.494  0.00  0.00     0.000 C 
BRANCH  25  26
ATOM     26  C   UNL d   1      -1.868   8.014   0.504  0.00  0.00    -0.000 C 
BRANCH  26  27
ATOM     27  C   UNL d   1      -3.134   8.814   0.792  0.00  0.00    -0.005 C 
ATOM     28  C   UNL d   1      -2.861   9.934   1.780  0.00  0.00     0.005 C 
ENDBRANCH  26  27
ENDBRANCH  25  26
ENDBRANCH  24  25
ENDBRANCH  23  24
ENDBRANCH  22  23
ENDBRANCH  21  22
ENDBRANCH  20  21
ENDBRANCH  19  20
ENDBRANCH  18  19
BRANCH  18  29
ATOM     29  C   UNL d   1       0.293  -0.402  -2.248  0.00  0.00     0.107 C 
BRANCH  29  30
ATOM     30  C   UNL d   1      -1.048  -0.992  -1.833  0.00  0.00     0.015 C 
BRANCH  30  31
ATOM     31  C   UNL d   1      -1.510  -1.965  -2.916  0.00  0.00     0.001 C 
BRANCH  31  32
ATOM     32  C   UNL d   1      -2.736  -2.746  -2.472  0.00  0.00     0.000 C 
BRANCH  32  33
ATOM     33  C   UNL d   1      -3.156  -3.729  -3.559  0.00  0.00     0.000 C 
BRANCH  33  34
ATOM     34  C   UNL d   1      -4.379  -4.521  -3.118  0.00  0.00     0.000 C 
BRANCH  34  35
ATOM     35  C   UNL d   1      -4.811  -5.500  -4.204  0.00  0.00     0.000 C 
BRANCH  35  36
ATOM     36  C   UNL d   1      -6.042  -6.283  -3.759  0.00  0.00    -0.000 C 
BRANCH  36  37
ATOM     37  C   UNL d   1      -6.486  -7.265  -4.839  0.00  0.00    -0.005 C 
ATOM     38  C   UNL d   1      -7.712  -8.044  -4.396  0.00  0.00     0.005 C 
ENDBRANCH  36  37
ENDBRANCH  35  36
ENDBRANCH  34  35
ENDBRANCH  33  34
ENDBRANCH  32  33
ENDBRANCH  31  32
ENDBRANCH  30  31
ENDBRANCH  29  30
ENDBRANCH  18  29
ENDBRANCH  15  18
ENDBRANCH   6  15
BRANCH   7  39
ATOM     39  S   UNL d   1      -3.299   5.390   7.774  0.00  0.00     0.243 S 
ATOM     40  O   UNL d   1      -3.908   6.565   7.185  0.00  0.00    -0.206 OA
ATOM     41  O   UNL d   1      -4.118   4.306   8.271  0.00  0.00    -0.206 OA
BRANCH  39  42
ATOM     42  N   UNL d   1      -2.257   5.941   9.068  0.00  0.00    -0.206 NA
BRANCH  42  43
ATOM     43  C   UNL d   1      -1.151   6.836   8.589  0.00  0.00     0.107 C 
BRANCH  43  44
ATOM     44  C   UNL d   1      -0.169   7.299   9.662  0.00  0.00     0.015 C 
BRANCH  44  45
ATOM     45  C   UNL d   1       0.930   8.153   9.022  0.00  0.00     0.001 C 
BRANCH  45  46
ATOM     46  C   UNL d   1       1.885   8.680  10.084  0.00  0.00     0.000 C 
BRANCH  46  47
ATOM     47  C   UNL d   1       2.955   9.578   9.472  0.00  0.00     0.000 C 
BRANCH  47  48
ATOM     48  C   UNL d   1       3.893  10.090  10.559  0.00  0.00     0.000 C 
BRANCH  48  49
ATOM     49  C   UNL d   1       4.977  10.989   9.977  0.00  0.00     0.000 C 
BRANCH  49  50
ATOM     50  C   UNL d   1       5.909  11.487  11.079  0.00  0.00    -0.000 C 
BRANCH  50  51
ATOM     51  C   UNL d   1       7.001  12.386  10.509  0.00  0.00    -0.005 C 
ATOM     52  C   UNL d   1       7.929  12.882  11.604  0.00  0.00     0.005 C 
ENDBRANCH  50  51
ENDBRANCH  49  50
ENDBRANCH  48  49
ENDBRANCH  47  48
ENDBRANCH  46  47
ENDBRANCH  45  46
ENDBRANCH  44  45
ENDBRANCH  43  44
ENDBRANCH  42  43
BRANCH  42  53
ATOM     53  C   UNL d   1      -3.069   6.632  10.148  0.00  0.00     0.107 C 
BRANCH  53  54
ATOM     54  C   UNL d   1      -4.000   5.710  10.930  0.00  0.00     0.015 C 
BRANCH  54  55
ATOM     55  C   UNL d   1      -3.307   4.499  11.556  0.00  0.00     0.001 C 
BRANCH  55  56
ATOM     56  C   UNL d   1      -2.254   4.899  12.588  0.00  0.00     0.000 C 
BRANCH  56  57
ATOM     57  C   UNL d   1      -1.599   3.672  13.212  0.00  0.00     0.000 C 
BRANCH  57  58
ATOM     58  C   UNL d   1      -0.550   4.090  14.239  0.00  0.00     0.000 C 
BRANCH  58  59
ATOM     59  C   UNL d   1       0.119   2.868  14.860  0.00  0.00     0.000 C 
BRANCH  59  60
ATOM     60  C   UNL d   1       1.161   3.281  15.896  0.00  0.00    -0.000 C 
BRANCH  60  61
ATOM     61  C   UNL d   1       1.824   2.057  16.521  0.00  0.00    -0.005 C 
ATOM     62  C   UNL d   1       2.861   2.459  17.556  0.00  0.00     0.005 C 
ENDBRANCH  60  61
ENDBRANCH  59  60
ENDBRANCH  58  59
ENDBRANCH  57  58
ENDBRANCH  56  57
ENDBRANCH  55  56
ENDBRANCH  54  55
ENDBRANCH  53  54
ENDBRANCH  42  53
ENDBRANCH  39  42
ENDBRANCH   7  39
TORSDOF 40
