REMARK  6 active torsions:
REMARK  status: ('A' for Active; 'I' for Inactive)
REMARK    1  A    between atoms: C_8  and  N_2 
REMARK    2  A    between atoms: C_13  and  N_3 
REMARK    3  A    between atoms: N_11  and  C_4 
REMARK    4  A    between atoms: C_7  and  O_12 
REMARK    5  A    between atoms: O_12  and  C_19 
REMARK    6  A    between atoms: C_22  and  C_13 
ROOT
ATOM      1  C   UNL d   1      -0.778   1.182  -0.063  0.00  0.00     0.337 A 
ATOM      2  N   UNL d   1      -1.412  -0.079   0.004  0.00  0.00    -0.254 N 
ATOM      3  N   UNL d   1       0.613   1.177  -0.028  0.00  0.00    -0.266 N 
ATOM      4  C   UNL d   1      -0.690  -1.271   0.123  0.00  0.00     0.094 A 
ATOM      5  C   UNL d   1       0.648  -1.230   0.110  0.00  0.00     0.117 A 
ATOM      6  C   UNL d   1       1.379   0.032   0.001  0.00  0.00     0.254 A 
ATOM      7  O   UNL d   1      -1.401   2.242  -0.119  0.00  0.00    -0.246 OA
ATOM      8  O   UNL d   1       2.607   0.004  -0.049  0.00  0.00    -0.268 OA
ENDROOT
BRANCH   2   9
ATOM      9  C   UNL d   1      -2.846  -0.065   0.008  0.00  0.00     0.045 A 
ATOM     10  C   UNL d   1      -3.549   0.545  -1.040  0.00  0.00     0.033 A 
ATOM     11  C   UNL d   1      -4.950   0.554  -1.055  0.00  0.00     0.039 A 
ATOM     12  C   UNL d   1      -5.662  -0.055  -0.024  0.00  0.00     0.078 A 
ATOM     13  C   UNL d   1      -4.962  -0.619   1.047  0.00  0.00     0.039 A 
ATOM     14  C   UNL d   1      -3.565  -0.641   1.059  0.00  0.00     0.033 A 
BRANCH  12  15
ATOM     15  O   UNL d   1      -7.016  -0.130   0.086  0.00  0.00    -0.255 OA
BRANCH  15  16
ATOM     16  C   UNL d   1      -7.814  -0.149  -1.087  0.00  0.00     0.530 C 
ATOM     17  F   UNL d   1      -7.126  -0.416  -2.217  0.00  0.00    -0.144 F 
ATOM     18  F   UNL d   1      -8.752  -1.113  -0.944  0.00  0.00    -0.144 F 
ATOM     19  F   UNL d   1      -8.447   1.035  -1.226  0.00  0.00    -0.144 F 
ENDBRANCH  15  16
ENDBRANCH  12  15
ENDBRANCH   2   9
BRANCH   4  20
ATOM     20  N   UNL d   1      -1.313  -2.511   0.194  0.00  0.00    -0.288 NA
ATOM     21  H   UNL d   1      -2.215  -2.520  -0.278  0.00  0.00     0.125 HD
ATOM     22  H   UNL d   1      -0.730  -3.292  -0.095  0.00  0.00     0.125 HD
ENDBRANCH   4  20
BRANCH   3  23
ATOM     23  C   UNL d   1       1.310   2.463   0.006  0.00  0.00     0.137 C 
BRANCH  23  24
ATOM     24  C   UNL d   1       1.736   2.981  -1.372  0.00  0.00     0.016 C 
ATOM     25  C   UNL d   1       0.574   3.366  -2.273  0.00  0.00     0.006 C 
ENDBRANCH  23  24
ENDBRANCH   3  23
TORSDOF 6
