REMARK  5 active torsions:
REMARK  status: ('A' for Active; 'I' for Inactive)
REMARK    1  A    between atoms: S_8  and  C_3 
REMARK    2  A    between atoms: C_10  and  C_5 
REMARK    3  A    between atoms: C_12  and  S_8 
REMARK    4  A    between atoms: C_9  and  C_12 
REMARK    5  A    between atoms: C_16  and  C_9 
ROOT
ATOM      1  N   UNL d   1       0.724  -0.227   0.758  0.00  0.00    -0.347 N 
ATOM      2  HN  UNL d   1       1.548  -0.586   1.240  1.00  0.00     0.167 HD
ATOM      3  C   UNL d   1      -0.072  -1.049   0.025  0.00  0.00     0.091 A 
ATOM      4  C   UNL d   1      -1.233  -0.600  -0.608  0.00  0.00     0.078 A 
ATOM      5  C   UNL d   1       0.390   1.084   0.829  0.00  0.00     0.079 A 
ATOM      6  C   UNL d   1      -2.114  -1.464  -1.336  0.00  0.00     0.102 C 
ATOM      7  N   UNL d   1      -2.879  -2.113  -1.918  0.00  0.00    -0.191 NA
ATOM      8  C   UNL d   1      -1.557   0.760  -0.511  0.00  0.00     0.028 A 
ATOM      9  C   UNL d   1      -0.732   1.618   0.211  0.00  0.00     0.035 A 
ENDROOT
BRANCH   3  10
ATOM     10  S   UNL d   1       0.440  -2.764  -0.018  0.00  0.00    -0.103 SA
BRANCH  10  11
ATOM     11  C   UNL d   1       2.247  -2.594   0.209  0.00  0.00     0.164 C 
BRANCH  11  12
ATOM     12  C   UNL d   1       2.928  -1.857  -0.935  0.00  0.00     0.169 C 
ATOM     13  O   UNL d   1       2.323  -1.389  -1.900  0.00  0.00    -0.291 OA
BRANCH  12  14
ATOM     14  C   UNL d   1       4.421  -1.706  -0.890  0.00  0.00     0.010 A 
ATOM     15  C   UNL d   1       5.201  -2.176   0.176  0.00  0.00     0.015 A 
ATOM     16  C   UNL d   1       6.593  -2.031   0.148  0.00  0.00     0.001 A 
ATOM     17  C   UNL d   1       7.215  -1.416  -0.937  0.00  0.00     0.000 A 
ATOM     18  C   UNL d   1       6.448  -0.936  -1.995  0.00  0.00     0.001 A 
ATOM     19  C   UNL d   1       5.059  -1.079  -1.972  0.00  0.00     0.015 A 
ENDBRANCH  12  14
ENDBRANCH  11  12
ENDBRANCH  10  11
ENDBRANCH   3  10
BRANCH   5  20
ATOM     20  C   UNL d   1       1.284   1.970   1.629  0.00  0.00     0.172 C 
ATOM     21  O   UNL d   1       1.025   3.168   1.738  0.00  0.00    -0.291 OA
ATOM     22  C   UNL d   1       2.497   1.373   2.297  0.00  0.00     0.098 C 
ENDBRANCH   5  20
TORSDOF 5
