REMARK  4 active torsions:
REMARK  status: ('A' for Active; 'I' for Inactive)
REMARK    1  A    between atoms: C_2  and  C_1 
REMARK    2  A    between atoms: C_4  and  C_1 
REMARK    3  A    between atoms: C_3  and  C_2 
REMARK    4  A    between atoms: N_6  and  C_5 
ROOT
ATOM      1  C   UNL d   1       1.019  -0.089   0.222  0.00  0.00     0.163 C 
ATOM      2  O   UNL d   1       0.466   0.850  -0.355  0.00  0.00    -0.292 OA
ENDROOT
BRANCH   1   3
ATOM      3  C   UNL d   1       2.485  -0.002   0.641  0.00  0.00     0.124 C 
BRANCH   3   4
ATOM      4  C   UNL d   1       2.738   0.894   1.834  0.00  0.00    -0.029 A 
ATOM      5  C   UNL d   1       3.315   0.447   3.035  0.00  0.00     0.040 A 
ATOM      6 CL   UNL d   1       3.813  -1.189   3.278  0.00  0.00    -0.084 Cl
ATOM      7  C   UNL d   1       3.542   1.335   4.095  0.00  0.00     0.024 A 
ATOM      8  C   UNL d   1       3.218   2.684   3.969  0.00  0.00     0.002 A 
ATOM      9  C   UNL d   1       2.664   3.149   2.782  0.00  0.00     0.001 A 
ATOM     10  C   UNL d   1       2.426   2.264   1.727  0.00  0.00     0.009 A 
ENDBRANCH   3   4
ENDBRANCH   1   3
BRANCH   1  11
ATOM     11  C   UNL d   1       0.249  -1.347   0.467  0.00  0.00     0.010 A 
ATOM     12  C   UNL d   1       0.608  -2.284   1.429  0.00  0.00     0.017 A 
ATOM     13  C   UNL d   1      -0.171  -3.437   1.628  0.00  0.00     0.030 A 
ATOM     14  C   UNL d   1      -1.332  -3.696   0.883  0.00  0.00     0.029 A 
ATOM     15  C   UNL d   1      -1.670  -2.737  -0.083  0.00  0.00     0.030 A 
ATOM     16  C   UNL d   1      -0.899  -1.581  -0.293  0.00  0.00     0.017 A 
BRANCH  14  17
ATOM     17  N   UNL d   1      -2.151  -4.791   1.131  0.00  0.00    -0.390 N 
ATOM     18  C   UNL d   1      -2.816  -5.483   0.029  0.00  0.00     0.149 C 
ATOM     19  C   UNL d   1      -2.007  -5.578   2.351  0.00  0.00     0.149 C 
ENDBRANCH  14  17
ENDBRANCH   1  11
TORSDOF 4
