REMARK  4 active torsions:
REMARK  status: ('A' for Active; 'I' for Inactive)
REMARK    1  A    between atoms: S_10  and  C_1 
REMARK    2  A    between atoms: N_4  and  C_8 
REMARK    3  A    between atoms: C_14  and  S_10 
REMARK    4  A    between atoms: C_15  and  C_14 
ROOT
ATOM      1  S   UNL d   1      -3.601  -1.626  -0.079  0.00  0.00    -0.100 SA
ENDROOT
BRANCH   1   2
ATOM      2  C   UNL d   1      -2.101  -0.731   0.037  0.00  0.00     0.113 A 
ATOM      3  N   UNL d   1      -2.067   0.579   0.108  0.00  0.00    -0.344 N 
ATOM      4  C   UNL d   1      -0.748   1.005   0.201  0.00  0.00     0.050 A 
ATOM      5  HN  UNL d   1      -2.883   1.190   0.097  1.00  0.00     0.167 HD
ATOM      6  C   UNL d   1      -0.313   2.343   0.299  0.00  0.00     0.031 A 
ATOM      7  C   UNL d   1       0.211  -0.011   0.196  0.00  0.00     0.034 A 
ATOM      8  C   UNL d   1       1.054   2.627   0.392  0.00  0.00     0.002 A 
ATOM      9  C   UNL d   1       1.990   1.599   0.386  0.00  0.00     0.002 A 
ATOM     10  C   UNL d   1       1.587   0.264   0.286  0.00  0.00     0.021 A 
ATOM     11  S   UNL d   1      -0.586  -1.529   0.067  0.00  0.00    -0.063 SA
ENDBRANCH   1   2
BRANCH   1  12
ATOM     12  C   UNL d   1      -4.818  -0.280  -0.059  0.00  0.00     0.120 C 
BRANCH  12  13
ATOM     13  C   UNL d   1      -6.227  -0.830  -0.136  0.00  0.00    -0.048 A 
ATOM     14  C   UNL d   1      -6.923  -1.171   1.036  0.00  0.00     0.010 A 
ATOM     15  C   UNL d   1      -8.206  -1.723   0.968  0.00  0.00     0.036 A 
ATOM     16  C   UNL d   1      -8.799  -1.940  -0.282  0.00  0.00     0.102 A 
ATOM     17  C   UNL d   1      -8.119  -1.604  -1.459  0.00  0.00     0.036 A 
ATOM     18  C   UNL d   1      -6.837  -1.052  -1.381  0.00  0.00     0.010 A 
BRANCH  16  19
ATOM     19  N   UNL d   1     -10.139  -2.536  -0.360  0.00  0.00    -0.116 N 
ATOM     20  O   UNL d   1     -10.706  -2.822   0.705  0.00  0.00    -0.532 OA
ATOM     21  O   UNL d   1     -10.626  -2.717  -1.485  0.00  0.00    -0.532 OA
ENDBRANCH  16  19
ENDBRANCH  12  13
ENDBRANCH   1  12
TORSDOF 4
