REMARK  6 active torsions:
REMARK  status: ('A' for Active; 'I' for Inactive)
REMARK    1  A    between atoms: C_4  and  C_1 
REMARK    2  A    between atoms: N_5  and  C_1 
REMARK    3  A    between atoms: C_3  and  C_2 
REMARK    4  A    between atoms: C_6  and  C_3 
REMARK    5  A    between atoms: O_13  and  C_4 
REMARK    6  A    between atoms: C_11  and  N_5 
ROOT
ATOM      1  C   UNL d   1       0.907   0.182   0.283  0.00  0.00     0.092 C 
ATOM      2  C   UNL d   1       0.471   1.409  -0.074  0.00  0.00     0.085 C 
ENDROOT
BRANCH   1   3
ATOM      3  C   UNL d   1       0.072  -0.946  -0.265  0.00  0.00     0.304 C 
ATOM      4  O   UNL d   1      -1.124  -0.858  -0.517  0.00  0.00    -0.258 OA
BRANCH   3   5
ATOM      5  O   UNL d   1       0.872  -1.999  -0.573  0.00  0.00    -0.322 OA
ATOM      6  C   UNL d   1       0.240  -3.023  -1.342  0.00  0.00     0.213 C 
ENDBRANCH   3   5
ENDBRANCH   1   3
BRANCH   1   7
ATOM      7  N   UNL d   1       2.121  -0.110   0.913  0.00  0.00    -0.255 NA
ATOM      8  H   UNL d   1       2.760   0.686   0.745  0.00  0.00     0.134 HD
BRANCH   7   9
ATOM      9  C   UNL d   1       2.249  -0.326   2.320  0.00  0.00     0.013 A 
ATOM     10  C   UNL d   1       1.174  -0.494   3.197  0.00  0.00     0.024 A 
ATOM     11  C   UNL d   1       1.402  -0.615   4.576  0.00  0.00     0.002 A 
ATOM     12  C   UNL d   1       2.700  -0.600   5.084  0.00  0.00     0.000 A 
ATOM     13  C   UNL d   1       3.781  -0.491   4.215  0.00  0.00     0.002 A 
ATOM     14  C   UNL d   1       3.554  -0.367   2.844  0.00  0.00     0.024 A 
ENDBRANCH   7   9
ENDBRANCH   1   7
BRANCH   2  15
ATOM     15  C   UNL d   1       1.283   2.607   0.240  0.00  0.00     0.184 C 
ATOM     16  O   UNL d   1       2.385   2.533   0.774  0.00  0.00    -0.288 OA
BRANCH  15  17
ATOM     17  C   UNL d   1       0.786   3.948  -0.130  0.00  0.00     0.014 A 
ATOM     18  C   UNL d   1       0.911   4.968   0.822  0.00  0.00     0.017 A 
ATOM     19  C   UNL d   1       0.650   6.292   0.468  0.00  0.00     0.025 A 
ATOM     20  C   UNL d   1       0.279   6.593  -0.841  0.00  0.00     0.034 A 
ATOM     21  C   UNL d   1       0.131   5.575  -1.788  0.00  0.00     0.025 A 
ATOM     22 CL   UNL d   1       0.044   8.233  -1.303  0.00  0.00    -0.084 Cl
ATOM     23  C   UNL d   1       0.380   4.244  -1.434  0.00  0.00     0.017 A 
ENDBRANCH  15  17
ENDBRANCH   2  15
TORSDOF 6
