REMARK  6 active torsions:
REMARK  status: ('A' for Active; 'I' for Inactive)
REMARK    1  A    between atoms: N_13  and  C_3 
REMARK    2  A    between atoms: N_17  and  C_5 
REMARK    3  A    between atoms: C_8  and  C_10 
REMARK    4  A    between atoms: O_12  and  C_11 
REMARK    5  A    between atoms: C_20  and  O_12 
REMARK    6  A    between atoms: C_21  and  C_20 
ROOT
ATOM      1  N   UNL d   1       1.857  -0.757  -0.147  0.00  0.00    -0.323 N 
ATOM      2  HN  UNL d   1       2.708  -1.320  -0.177  1.00  0.00     0.169 HD
ATOM      3  C   UNL d   1       0.643  -1.323  -0.093  0.00  0.00     0.095 A 
ATOM      4  C   UNL d   1      -0.558  -0.592  -0.029  0.00  0.00     0.062 A 
ATOM      5  C   UNL d   1       1.899   0.571  -0.161  0.00  0.00     0.156 A 
ATOM      6  N   UNL d   1       0.836   1.370  -0.098  0.00  0.00    -0.332 N 
ATOM      7  HN  UNL d   1       0.937   2.385  -0.091  1.00  0.00     0.168 HD
ATOM      8  C   UNL d   1      -0.368   0.794  -0.043  0.00  0.00     0.050 A 
ATOM      9  C   UNL d   1      -1.888  -1.112   0.055  0.00  0.00     0.085 A 
ATOM     10  C   UNL d   1      -1.478   1.628   0.002  0.00  0.00     0.030 A 
ATOM     11  C   UNL d   1      -2.776   1.127   0.086  0.00  0.00     0.005 A 
ATOM     12  C   UNL d   1      -2.982  -0.245   0.132  0.00  0.00     0.038 A 
ENDROOT
BRANCH   9  13
ATOM     13  O   UNL d   1      -2.035  -2.478   0.126  0.00  0.00    -0.346 OA
BRANCH  13  14
ATOM     14  C   UNL d   1      -3.160  -3.052  -0.556  0.00  0.00     0.214 C 
BRANCH  14  15
ATOM     15  C   UNL d   1      -3.181  -2.761  -2.040  0.00  0.00    -0.034 A 
ATOM     16  C   UNL d   1      -2.098  -3.130  -2.849  0.00  0.00     0.010 A 
ATOM     17  C   UNL d   1      -2.093  -2.822  -4.211  0.00  0.00     0.017 A 
ATOM     18  C   UNL d   1      -3.171  -2.138  -4.790  0.00  0.00     0.047 A 
ATOM     19  C   UNL d   1      -4.260  -1.782  -3.981  0.00  0.00     0.017 A 
ATOM     20  C   UNL d   1      -4.268  -2.095  -2.621  0.00  0.00     0.010 A 
BRANCH  18  21
ATOM     21  C   UNL d   1      -3.172  -1.771  -6.253  0.00  0.00     0.417 C 
ATOM     22  F   UNL d   1      -2.069  -2.198  -6.928  0.00  0.00    -0.166 F 
ATOM     23  F   UNL d   1      -4.240  -2.294  -6.918  0.00  0.00    -0.166 F 
ATOM     24  F   UNL d   1      -3.235  -0.425  -6.452  0.00  0.00    -0.166 F 
ENDBRANCH  18  21
ENDBRANCH  14  15
ENDBRANCH  13  14
ENDBRANCH   9  13
BRANCH   3  25
ATOM     25  N   UNL d   1       0.660  -2.719  -0.185  0.00  0.00    -0.288 NA
ATOM     26  H   UNL d   1       1.621  -3.034  -0.099  0.00  0.00     0.125 HD
ATOM     27  H   UNL d   1       0.017  -3.140   0.478  0.00  0.00     0.125 HD
ENDBRANCH   3  25
BRANCH   5  28
ATOM     28  N   UNL d   1       3.141   1.172  -0.189  0.00  0.00    -0.274 NA
ATOM     29  H   UNL d   1       3.834   0.539   0.184  0.00  0.00     0.127 HD
ATOM     30  H   UNL d   1       3.082   2.094   0.218  0.00  0.00     0.127 HD
ENDBRANCH   5  28
TORSDOF 6
