REMARK  5 active torsions:
REMARK  status: ('A' for Active; 'I' for Inactive)
REMARK    1  A    between atoms: C_4  and  N_1 
REMARK    2  A    between atoms: N_7  and  C_4 
REMARK    3  A    between atoms: C_12  and  N_7 
REMARK    4  A    between atoms: C_16  and  N_7 
REMARK    5  A    between atoms: C_13  and  C_16 
ROOT
ATOM      1  N   UNL d   1       8.279   1.082  -1.917  0.00  0.00    -0.197 NA
ATOM      2  C   UNL d   1       7.123   1.064  -1.792  0.00  0.00     0.060 C 
ATOM      3  C   UNL d   1       5.664   1.028  -1.615  0.00  0.00     0.154 C 
ENDROOT
BRANCH   3   4
ATOM      4  C   UNL d   1       5.306   1.288  -0.141  0.00  0.00     0.289 C 
BRANCH   4   5
ATOM      5  N   UNL d   1       3.851   1.340   0.135  0.00  0.00     0.111 N 
BRANCH   5   6
ATOM      6  C   UNL d   1       3.251  -0.009   0.035  0.00  0.00     0.408 C 
BRANCH   6   7
ATOM      7  N   UNL d   1       1.812   0.072  -0.002  0.00  0.00    -0.252 N 
ATOM      8  C   UNL d   1       1.004  -0.238   1.056  0.00  0.00     0.263 C 
ATOM      9  C   UNL d   1      -0.367  -0.030   0.607  0.00  0.00     0.048 A 
ATOM     10  O   UNL d   1       1.296  -0.639   2.167  0.00  0.00    -0.267 OA
ATOM     11  C   UNL d   1      -1.555  -0.113   1.306  0.00  0.00     0.018 A 
ATOM     12  C   UNL d   1      -0.321   0.301  -0.735  0.00  0.00     0.048 A 
ATOM     13  C   UNL d   1      -2.729   0.157   0.599  0.00  0.00     0.001 A 
ATOM     14  C   UNL d   1      -2.686   0.485  -0.773  0.00  0.00     0.001 A 
ATOM     15  C   UNL d   1      -1.468   0.555  -1.459  0.00  0.00     0.018 A 
ATOM     16  C   UNL d   1       1.087   0.315  -1.136  0.00  0.00     0.263 C 
ATOM     17  O   UNL d   1       1.466   0.469  -2.281  0.00  0.00    -0.267 OA
ENDBRANCH   6   7
ENDBRANCH   5   6
BRANCH   5  18
ATOM     18  C   UNL d   1       3.524   2.019   1.419  0.00  0.00     0.217 C 
ATOM     19  C   UNL d   1       4.042   1.323   2.686  0.00  0.00     0.042 C 
ATOM     20  C   UNL d   1       3.960   3.494   1.427  0.00  0.00     0.042 C 
ENDBRANCH   5  18
ENDBRANCH   4   5
ENDBRANCH   3   4
TORSDOF 5
