REMARK  7 active torsions:
REMARK  status: ('A' for Active; 'I' for Inactive)
REMARK    1  A    between atoms: S_8  and  C_1 
REMARK    2  A    between atoms: C_2  and  C_12 
REMARK       I    between atoms: N_9  and  C_2 
REMARK    3  A    between atoms: C_7  and  C_13 
REMARK    4  A    between atoms: O_14  and  C_7 
REMARK    5  A    between atoms: C_12  and  S_8 
REMARK    6  A    between atoms: C_13  and  N_9 
REMARK    7  A    between atoms: C_18  and  O_14 
ROOT
ATOM      1  C   UNL d   1      -1.271   5.259  -0.021  0.00  0.00     0.227 C 
ATOM      2  N   UNL d   1      -0.087   5.927   0.168  0.00  0.00    -0.351 N 
ATOM      3  O   UNL d   1      -2.334   5.840  -0.217  0.00  0.00    -0.273 OA
ATOM      4  H   UNL d   1       0.777   5.391   0.084  0.00  0.00     0.163 HD
ENDROOT
BRANCH   1   5
ATOM      5  C   UNL d   1      -1.172   3.744   0.068  0.00  0.00     0.185 C 
BRANCH   5   6
ATOM      6  S   UNL d   1      -0.751   3.016  -1.542  0.00  0.00    -0.085 SA
BRANCH   6   7
ATOM      7  C   UNL d   1       1.011   3.225  -1.587  0.00  0.00     0.144 A 
ATOM      8  N   UNL d   1       1.625   3.908  -0.603  0.00  0.00    -0.347 N 
ATOM      9  C   UNL d   1       2.960   4.068  -0.723  0.00  0.00     0.091 A 
ATOM     10  HN  UNL d   1       1.108   4.286   0.192  1.00  0.00     0.167 HD
ATOM     11  C   UNL d   1       3.692   3.573  -1.773  0.00  0.00     0.034 A 
ATOM     12  C   UNL d   1       2.973   2.881  -2.716  0.00  0.00     0.091 A 
ATOM     13  N   UNL d   1       1.641   2.696  -2.648  0.00  0.00    -0.347 N 
ATOM     14  HN  UNL d   1       1.136   2.178  -3.367  1.00  0.00     0.167 HD
ENDBRANCH   6   7
ENDBRANCH   5   6
ENDBRANCH   1   5
BRANCH   2  15
ATOM     15  C   UNL d   1      -0.012   7.365   0.017  0.00  0.00     0.233 C 
BRANCH  15  16
ATOM     16  C   UNL d   1       1.399   7.879   0.259  0.00  0.00     0.276 C 
ATOM     17  O   UNL d   1       2.388   7.176   0.432  0.00  0.00    -0.263 OA
BRANCH  16  18
ATOM     18  O   UNL d   1       1.383   9.242   0.287  0.00  0.00    -0.321 OA
BRANCH  18  19
ATOM     19  C   UNL d   1       2.578   9.872   0.768  0.00  0.00     0.174 C 
ATOM     20  C   UNL d   1       2.509   9.945   2.282  0.00  0.00     0.034 C 
ENDBRANCH  18  19
ENDBRANCH  16  18
ENDBRANCH  15  16
ENDBRANCH   2  15
TORSDOF 7
