REMARK  6 active torsions:
REMARK  status: ('A' for Active; 'I' for Inactive)
REMARK    1  A    between atoms: C_8  and  C_1 
REMARK    2  A    between atoms: C_2  and  C_6 
REMARK    3  A    between atoms: C_3  and  S_12 
REMARK    4  A    between atoms: C_6  and  C_13 
REMARK    5  A    between atoms: S_12  and  C_8 
REMARK    6  A    between atoms: C_13  and  C_18 
ROOT
ATOM      1  C   UNL d   1      -1.782   4.614   0.019  0.00  0.00     0.144 A 
ATOM      2  N   UNL d   1      -0.787   5.273   0.640  0.00  0.00    -0.337 N 
ATOM      3  HN  UNL d   1      -0.059   4.777   1.154  1.00  0.00     0.168 HD
ATOM      4  N   UNL d   1      -2.760   5.202  -0.690  0.00  0.00    -0.347 N 
ATOM      5  HN  UNL d   1      -3.486   4.659  -1.157  1.00  0.00     0.167 HD
ATOM      6  C   UNL d   1      -0.797   6.618   0.550  0.00  0.00     0.035 A 
ATOM      7  C   UNL d   1      -2.730   6.544  -0.754  0.00  0.00     0.092 A 
ATOM      8  C   UNL d   1      -1.769   7.309  -0.142  0.00  0.00     0.046 A 
ENDROOT
BRANCH   1   9
ATOM      9  S   UNL d   1      -1.816   2.848   0.223  0.00  0.00    -0.089 SA
BRANCH   9  10
ATOM     10  C   UNL d   1      -3.254   2.433  -0.816  0.00  0.00     0.124 C 
BRANCH  10  11
ATOM     11  C   UNL d   1      -3.596   0.957  -0.758  0.00  0.00    -0.005 A 
ATOM     12  C   UNL d   1      -4.554   0.459   0.146  0.00  0.00     0.042 A 
ATOM     13 CL   UNL d   1      -5.394   1.484   1.261  0.00  0.00    -0.084 Cl
ATOM     14  C   UNL d   1      -4.882  -0.903   0.182  0.00  0.00     0.024 A 
ATOM     15  C   UNL d   1      -4.251  -1.800  -0.674  0.00  0.00     0.003 A 
ATOM     16  C   UNL d   1      -3.289  -1.334  -1.564  0.00  0.00     0.024 A 
ATOM     17  C   UNL d   1      -2.962   0.026  -1.606  0.00  0.00     0.042 A 
ATOM     18 CL   UNL d   1      -1.753   0.498  -2.752  0.00  0.00    -0.084 Cl
ENDBRANCH  10  11
ENDBRANCH   9  10
ENDBRANCH   1   9
BRANCH   6  19
ATOM     19  C   UNL d   1       0.259   7.368   1.250  0.00  0.00     0.031 C 
BRANCH  19  20
ATOM     20  C   UNL d   1       1.306   6.808   1.880  0.00  0.00     0.021 C 
BRANCH  20  21
ATOM     21  C   UNL d   1       2.292   7.569   2.589  0.00  0.00     0.010 A 
ATOM     22  C   UNL d   1       3.054   7.178   3.692  0.00  0.00    -0.044 A 
ATOM     23  C   UNL d   1       3.936   8.223   4.133  0.00  0.00     0.015 A 
ATOM     24  C   UNL d   1       2.984   5.858   4.394  0.00  0.00     0.049 C 
ATOM     25  C   UNL d   1       3.852   9.353   3.359  0.00  0.00     0.051 A 
ATOM     26  S   UNL d   1       2.728   9.171   2.098  0.00  0.00    -0.102 SA
ENDBRANCH  20  21
ENDBRANCH  19  20
ENDBRANCH   6  19
TORSDOF 6
