REMARK  4 active torsions:
REMARK  status: ('A' for Active; 'I' for Inactive)
REMARK    1  A    between atoms: C_9  and  C_7 
REMARK    2  A    between atoms: C_10  and  C_8 
REMARK    3  A    between atoms: C_14  and  C_12 
REMARK    4  A    between atoms: C_15  and  C_13 
ROOT
ATOM      1  C   UNL d   1       1.943   0.240   0.106  0.00  0.00     0.021 C 
ATOM      2  C   UNL d   1      -0.404   1.257   0.083  0.00  0.00     0.021 C 
ATOM      3  C   UNL d   1       1.074   1.455   0.237  0.00  0.00     0.188 C 
ATOM      4  N   UNL d   1      -0.036  -1.135   0.578  0.00  0.00     0.092 N 
ATOM      5  C   UNL d   1       1.261  -1.081  -0.093  0.00  0.00     0.315 C 
ATOM      6  C   UNL d   1      -0.921  -0.148  -0.037  0.00  0.00     0.315 C 
ATOM      7  C   UNL d   1       3.279   0.417   0.167  0.00  0.00     0.013 C 
ATOM      8  C   UNL d   1      -1.181   2.361   0.062  0.00  0.00     0.013 C 
ATOM      9  O   UNL d   1       1.556   2.573   0.425  0.00  0.00    -0.287 OA
ATOM     10  C   UNL d   1      -0.612  -2.476   0.482  0.00  0.00     0.310 C 
ENDROOT
BRANCH   7  11
ATOM     11  C   UNL d   1       4.249  -0.642  -0.022  0.00  0.00     0.002 C 
ATOM     12  C   UNL d   1       5.580  -0.476   0.021  0.00  0.00     0.011 C 
BRANCH  12  13
ATOM     13  C   UNL d   1       6.524  -1.576  -0.244  0.00  0.00    -0.036 A 
ATOM     14  C   UNL d   1       6.221  -2.624  -1.129  0.00  0.00     0.011 A 
ATOM     15  C   UNL d   1       7.145  -3.637  -1.389  0.00  0.00     0.001 A 
ATOM     16  C   UNL d   1       8.396  -3.606  -0.780  0.00  0.00     0.000 A 
ATOM     17  C   UNL d   1       8.719  -2.565   0.089  0.00  0.00     0.001 A 
ATOM     18  C   UNL d   1       7.789  -1.554   0.354  0.00  0.00     0.011 A 
ENDBRANCH  12  13
ENDBRANCH   7  11
BRANCH   8  19
ATOM     19  C   UNL d   1      -2.620   2.341  -0.107  0.00  0.00     0.002 C 
ATOM     20  C   UNL d   1      -3.403   3.429  -0.093  0.00  0.00     0.011 C 
BRANCH  20  21
ATOM     21  C   UNL d   1      -4.872   3.351  -0.200  0.00  0.00    -0.036 A 
ATOM     22  C   UNL d   1      -5.596   2.261   0.309  0.00  0.00     0.011 A 
ATOM     23  C   UNL d   1      -6.989   2.226   0.236  0.00  0.00     0.001 A 
ATOM     24  C   UNL d   1      -7.680   3.292  -0.331  0.00  0.00     0.000 A 
ATOM     25  C   UNL d   1      -6.977   4.389  -0.827  0.00  0.00     0.001 A 
ATOM     26  C   UNL d   1      -5.580   4.420  -0.760  0.00  0.00     0.011 A 
ENDBRANCH  20  21
ENDBRANCH   8  19
TORSDOF 4
