REMARK  5 active torsions:
REMARK  status: ('A' for Active; 'I' for Inactive)
REMARK    1  A    between atoms: C_7  and  C_1 
REMARK    2  A    between atoms: C_9  and  C_3 
REMARK    3  A    between atoms: N_5  and  C_8 
REMARK    4  A    between atoms: O_14  and  C_7 
REMARK    5  A    between atoms: C_19  and  O_14 
ROOT
ATOM      1  C   UNL d   1      -0.164  -1.315   0.013  0.00  0.00     0.071 A 
ATOM      2  C   UNL d   1      -1.490  -0.789   0.068  0.00  0.00     0.058 A 
ATOM      3  C   UNL d   1      -1.388   0.583   0.098  0.00  0.00     0.087 A 
ATOM      4  C   UNL d   1       0.669  -0.211   0.023  0.00  0.00     0.066 A 
ATOM      5  O   UNL d   1      -0.070   0.935   0.070  0.00  0.00    -0.314 OA
ATOM      6  C   UNL d   1       2.134  -0.014  -0.015  0.00  0.00     0.078 C 
ENDROOT
BRANCH   3   7
ATOM      7  C   UNL d   1      -2.357   1.671   0.175  0.00  0.00     0.000 A 
ATOM      8  C   UNL d   1      -1.951   3.012   0.119  0.00  0.00     0.050 A 
ATOM      9  C   UNL d   1      -2.895   4.038   0.257  0.00  0.00     0.103 A 
ATOM     10  C   UNL d   1      -4.252   3.744   0.437  0.00  0.00     0.036 A 
ATOM     11  C   UNL d   1      -4.664   2.415   0.471  0.00  0.00     0.003 A 
ATOM     12  C   UNL d   1      -3.724   1.389   0.337  0.00  0.00     0.014 A 
BRANCH   9  13
ATOM     13  N   UNL d   1      -2.455   5.438   0.230  0.00  0.00    -0.116 N 
ATOM     14  O   UNL d   1      -1.250   5.663   0.055  0.00  0.00    -0.532 OA
ATOM     15  O   UNL d   1      -3.320   6.316   0.386  0.00  0.00    -0.532 OA
ENDBRANCH   9  13
ENDBRANCH   3   7
BRANCH   1  16
ATOM     16  C   UNL d   1       0.228  -2.707  -0.088  0.00  0.00     0.295 C 
ATOM     17  O   UNL d   1       1.382  -3.090  -0.229  0.00  0.00    -0.259 OA
BRANCH  16  18
ATOM     18  O   UNL d   1      -0.867  -3.522  -0.103  0.00  0.00    -0.318 OA
BRANCH  18  19
ATOM     19  C   UNL d   1      -0.663  -4.827  -0.652  0.00  0.00     0.174 C 
ATOM     20  C   UNL d   1      -0.840  -4.735  -2.157  0.00  0.00     0.034 C 
ENDBRANCH  18  19
ENDBRANCH  16  18
ENDBRANCH   1  16
TORSDOF 5
