REMARK  5 active torsions:
REMARK  status: ('A' for Active; 'I' for Inactive)
REMARK    1  A    between atoms: C_7  and  C_1 
REMARK    2  A    between atoms: C_2  and  N_8 
REMARK    3  A    between atoms: N_3  and  C_2 
REMARK    4  A    between atoms: C_4  and  N_3 
REMARK    5  A    between atoms: N_8  and  C_15 
ROOT
ATOM      1  N   UNL d   1       0.052  -3.692   2.284  0.00  0.00    -0.333 N 
ATOM      2  H   UNL d   1       0.388  -2.758   2.150  0.00  0.00     0.168 HD
ENDROOT
BRANCH   1   3
ATOM      3  C   UNL d   1       0.689  -4.623   1.526  0.00  0.00     0.172 C 
ATOM      4  S   UNL d   1       1.081  -6.199   1.960  0.00  0.00    -0.041 SA
BRANCH   3   5
ATOM      5  N   UNL d   1       1.136  -4.227   0.313  0.00  0.00    -0.362 N 
ATOM      6  H   UNL d   1       1.613  -5.004  -0.133  0.00  0.00     0.162 HD
BRANCH   5   7
ATOM      7  C   UNL d   1       0.764  -3.184  -0.634  0.00  0.00     0.092 C 
ATOM      8  C   UNL d   1      -0.636  -3.268  -1.300  0.00  0.00     0.031 C 
ATOM      9  C   UNL d   1      -1.732  -2.735  -0.400  0.00  0.00    -0.024 C 
ATOM     10  C   UNL d   1      -0.505  -2.042  -2.225  0.00  0.00     0.019 C 
ATOM     11  C   UNL d   1      -1.549  -1.408  -0.280  0.00  0.00    -0.026 C 
ATOM     12  C   UNL d   1      -0.305  -1.063  -1.059  0.00  0.00     0.010 C 
ATOM     13  C   UNL d   1       0.896  -1.675  -0.284  0.00  0.00     0.034 C 
ENDBRANCH   5   7
ENDBRANCH   3   5
ENDBRANCH   1   3
BRANCH   1  14
ATOM     14  C   UNL d   1      -0.831  -3.864   3.377  0.00  0.00     0.035 A 
ATOM     15  C   UNL d   1      -1.661  -4.979   3.517  0.00  0.00     0.045 A 
ATOM     16  C   UNL d   1      -2.660  -5.014   4.505  0.00  0.00     0.050 A 
ATOM     17  C   UNL d   1      -2.781  -3.936   5.393  0.00  0.00     0.016 A 
ATOM     18  C   UNL d   1      -1.927  -2.840   5.287  0.00  0.00     0.003 A 
ATOM     19  C   UNL d   1      -0.969  -2.798   4.273  0.00  0.00     0.029 A 
BRANCH  16  20
ATOM     20  C   UNL d   1      -3.658  -6.144   4.545  0.00  0.00     0.417 C 
ATOM     21  F   UNL d   1      -3.346  -7.187   3.727  0.00  0.00    -0.166 F 
ATOM     22  F   UNL d   1      -4.900  -5.735   4.162  0.00  0.00    -0.166 F 
ATOM     23  F   UNL d   1      -3.811  -6.677   5.789  0.00  0.00    -0.166 F 
ENDBRANCH  16  20
ENDBRANCH   1  14
TORSDOF 5
