REMARK  4 active torsions:
REMARK  status: ('A' for Active; 'I' for Inactive)
REMARK    1  A    between atoms: S_12  and  C_1 
REMARK    2  A    between atoms: C_7  and  C_6 
REMARK    3  A    between atoms: C_11  and  C_7 
REMARK    4  A    between atoms: C_8  and  S_12 
ROOT
ATOM      1  C   UNL d   1       1.945  -5.247  -0.021  0.00  0.00     0.063 C 
ATOM      2  C   UNL d   1       1.609  -3.958  -0.175  0.00  0.00     0.057 C 
ENDROOT
BRANCH   2   3
ATOM      3  S   UNL d   1      -0.057  -3.480  -0.075  0.00  0.00    -0.066 SA
BRANCH   3   4
ATOM      4  C   UNL d   1       0.023  -1.707  -0.245  0.00  0.00     0.148 A 
ATOM      5  N   UNL d   1       0.982  -1.156  -1.009  0.00  0.00    -0.341 N 
ATOM      6  C   UNL d   1       0.956   0.185  -1.147  0.00  0.00     0.009 A 
ATOM      7  HN  UNL d   1       1.695  -1.726  -1.463  1.00  0.00     0.167 HD
ATOM      8  C   UNL d   1       2.017   0.815  -2.000  0.00  0.00     0.068 C 
ATOM      9  C   UNL d   1      -0.002   0.976  -0.542  0.00  0.00     0.049 A 
ATOM     10  C   UNL d   1      -0.950   0.324   0.220  0.00  0.00     0.009 A 
ATOM     11  N   UNL d   1      -0.951  -1.014   0.375  0.00  0.00    -0.341 N 
ATOM     12  C   UNL d   1      -2.032   1.102   0.907  0.00  0.00     0.068 C 
ATOM     13  HN  UNL d   1      -1.660  -1.483   0.939  1.00  0.00     0.167 HD
ENDBRANCH   3   4
ENDBRANCH   2   3
BRANCH   1  14
ATOM     14  C   UNL d   1       3.366  -5.677  -0.104  0.00  0.00     0.182 C 
ATOM     15  O   UNL d   1       4.222  -4.988  -0.644  0.00  0.00    -0.288 OA
BRANCH  14  16
ATOM     16  C   UNL d   1       3.723  -7.005   0.472  0.00  0.00     0.014 A 
ATOM     17  C   UNL d   1       4.795  -7.713  -0.089  0.00  0.00     0.017 A 
ATOM     18  C   UNL d   1       5.204  -8.933   0.459  0.00  0.00     0.020 A 
ATOM     19  C   UNL d   1       4.545  -9.443   1.576  0.00  0.00     0.011 A 
ATOM     20  C   UNL d   1       3.476  -8.751   2.143  0.00  0.00     0.020 A 
ATOM     21 BR   UNL d   1       5.122 -11.070   2.345  0.00  0.00    -0.051 Br
ATOM     22  C   UNL d   1       3.063  -7.532   1.592  0.00  0.00     0.017 A 
ENDBRANCH  14  16
ENDBRANCH   1  14
TORSDOF 4
