REMARK  4 active torsions:
REMARK  status: ('A' for Active; 'I' for Inactive)
REMARK    1  A    between atoms: C_2  and  S_1 
REMARK    2  A    between atoms: N_12  and  S_1 
REMARK    3  A    between atoms: C_9  and  C_3 
REMARK    4  A    between atoms: C_5  and  C_10 
ROOT
ATOM      1  C   UNL d   1       0.509   0.983   1.487  0.00  0.00     0.116 A 
ATOM      2  S   UNL d   1       1.108   2.579   1.576  0.00  0.00    -0.075 SA
ATOM      3  C   UNL d   1       0.215   2.905   2.994  0.00  0.00     0.035 A 
ATOM      4  C   UNL d   1      -0.296   0.676   2.566  0.00  0.00     0.034 A 
ATOM      5  C   UNL d   1      -0.473   1.792   3.436  0.00  0.00     0.023 A 
ENDROOT
BRANCH   3   6
ATOM      6  C   UNL d   1       0.170   4.246   3.657  0.00  0.00     0.074 A 
ATOM      7  C   UNL d   1       0.868   5.404   3.249  0.00  0.00     0.077 A 
ATOM      8  C   UNL d   1       0.457   6.380   4.126  0.00  0.00     0.184 A 
ATOM      9  O   UNL d   1      -0.416   5.838   5.016  0.00  0.00    -0.233 OA
ATOM     10  N   UNL d   1      -0.595   4.496   4.727  0.00  0.00    -0.260 N 
ATOM     11  HN  UNL d   1      -1.189   3.834   5.227  1.00  0.00     0.195 HD
BRANCH   8  12
ATOM     12  C   UNL d   1       0.749   7.814   4.274  0.00  0.00     0.441 C 
ATOM     13  F   UNL d   1       1.616   8.247   3.320  0.00  0.00    -0.164 F 
ATOM     14  F   UNL d   1      -0.365   8.580   4.160  0.00  0.00    -0.164 F 
ATOM     15  F   UNL d   1       1.314   8.105   5.473  0.00  0.00    -0.164 F 
ENDBRANCH   8  12
ENDBRANCH   3   6
BRANCH   1  16
ATOM     16  S   UNL d   1       0.973   0.056   0.044  0.00  0.00     0.250 S 
ATOM     17  O   UNL d   1       0.115  -1.109   0.067  0.00  0.00    -0.205 OA
ATOM     18  O   UNL d   1       2.415  -0.070   0.103  0.00  0.00    -0.205 OA
BRANCH  16  19
ATOM     19  N   UNL d   1       0.566   0.972  -1.335  0.00  0.00    -0.206 NA
ATOM     20  C   UNL d   1      -0.852   1.383  -1.464  0.00  0.00     0.107 C 
ATOM     21  C   UNL d   1      -1.457   0.410  -2.451  0.00  0.00     0.017 C 
ATOM     22  C   UNL d   1      -0.324   0.110  -3.412  0.00  0.00     0.017 C 
ATOM     23  C   UNL d   1       0.962   0.334  -2.621  0.00  0.00     0.107 C 
ENDBRANCH  16  19
ENDBRANCH   1  16
TORSDOF 4
