REMARK  2 active torsions:
REMARK  status: ('A' for Active; 'I' for Inactive)
REMARK    1  A    between atoms: C_7  and  C_10 
REMARK    2  A    between atoms: O_15  and  C_7 
ROOT
ATOM      1  N   UNL d   1      -0.540   1.435   0.025  0.00  0.00    -0.356 N 
ATOM      2  HN  UNL d   1      -0.544   2.455   0.032  1.00  0.00     0.166 HD
ATOM      3  N   UNL d   1      -0.536  -1.374  -0.013  0.00  0.00    -0.356 N 
ATOM      4  HN  UNL d   1      -0.535  -2.394  -0.037  1.00  0.00     0.166 HD
ATOM      5  C   UNL d   1       0.612   0.740   0.032  0.00  0.00     0.060 A 
ATOM      6  C   UNL d   1       0.611  -0.673  -0.003  0.00  0.00     0.059 A 
ATOM      7  C   UNL d   1      -1.698   0.725   0.009  0.00  0.00     0.028 A 
ATOM      8  C   UNL d   1      -1.695  -0.670   0.009  0.00  0.00     0.028 A 
ATOM      9  C   UNL d   1       3.040   0.734   0.110  0.00  0.00     0.041 A 
ATOM     10  C   UNL d   1       1.822   1.422   0.090  0.00  0.00     0.049 A 
ATOM     11  C   UNL d   1       3.035  -0.661   0.042  0.00  0.00     0.020 A 
ATOM     12  C   UNL d   1       1.822  -1.349  -0.014  0.00  0.00     0.033 A 
ATOM     13  C   UNL d   1      -2.970   1.517  -0.001  0.00  0.00     0.070 C 
ATOM     14  C   UNL d   1      -2.961  -1.470   0.062  0.00  0.00     0.070 C 
ENDROOT
BRANCH   9  15
ATOM     15  C   UNL d   1       4.353   1.424   0.224  0.00  0.00     0.293 C 
ATOM     16  O   UNL d   1       5.420   0.833   0.223  0.00  0.00    -0.259 OA
BRANCH  15  17
ATOM     17  O   UNL d   1       4.187   2.763   0.354  0.00  0.00    -0.323 OA
ATOM     18  C   UNL d   1       5.410   3.482   0.524  0.00  0.00     0.213 C 
ENDBRANCH  15  17
ENDBRANCH   9  15
TORSDOF 2
