REMARK  4 active torsions:
REMARK  status: ('A' for Active; 'I' for Inactive)
REMARK    1  A    between atoms: C_7  and  C_1 
REMARK    2  A    between atoms: C_15  and  C_5 
REMARK    3  A    between atoms: O_16  and  C_15 
REMARK    4  A    between atoms: C_17  and  O_16 
ROOT
ATOM      1  C   UNL d   1       0.068   1.273   0.053  0.00  0.00     0.032 A 
ATOM      2  S   UNL d   1      -1.040  -0.043   0.088  0.00  0.00    -0.073 SA
ATOM      3  N   UNL d   1       1.463  -0.622  -0.067  0.00  0.00    -0.360 N 
ATOM      4  HN  UNL d   1       2.338  -1.139  -0.141  1.00  0.00     0.165 HD
ATOM      5  C   UNL d   1       0.265  -1.161   0.003  0.00  0.00     0.075 A 
ATOM      6  C   UNL d   1       1.351   0.755  -0.024  0.00  0.00     0.108 A 
ENDROOT
BRANCH   1   7
ATOM      7  C   UNL d   1      -0.375   2.677   0.084  0.00  0.00    -0.015 A 
ATOM      8  C   UNL d   1      -1.567   3.074   0.711  0.00  0.00     0.052 A 
ATOM      9  C   UNL d   1      -1.959   4.420   0.743  0.00  0.00     0.102 A 
ATOM     10  O   UNL d   1      -3.168   4.655   1.351  0.00  0.00    -0.348 OA
ATOM     11  C   UNL d   1      -1.127   5.402   0.194  0.00  0.00     0.102 A 
ATOM     12  C   UNL d   1      -3.920   5.695   0.723  0.00  0.00     0.178 C 
ATOM     13  C   UNL d   1      -3.528   7.059   1.265  0.00  0.00     0.053 C 
ATOM     14  C   UNL d   1      -2.022   7.201   1.403  0.00  0.00     0.178 C 
ATOM     15  O   UNL d   1      -1.355   6.754   0.223  0.00  0.00    -0.348 OA
ATOM     16  C   UNL d   1       0.042   5.018  -0.461  0.00  0.00     0.040 A 
ATOM     17  C   UNL d   1       0.414   3.671  -0.516  0.00  0.00     0.016 A 
ENDBRANCH   1   7
BRANCH   5  18
ATOM     18  C   UNL d   1      -0.015  -2.635  -0.039  0.00  0.00     0.240 C 
BRANCH  18  19
ATOM     19  O   UNL d   1      -0.044  -3.105   1.312  0.00  0.00    -0.345 OA
BRANCH  19  20
ATOM     20  C   UNL d   1      -0.204  -4.456   1.463  0.00  0.00     0.069 A 
ATOM     21  C   UNL d   1       0.337  -4.998   2.632  0.00  0.00     0.038 A 
ATOM     22  C   UNL d   1       0.217  -6.363   2.904  0.00  0.00     0.026 A 
ATOM     23  C   UNL d   1      -0.461  -7.186   2.008  0.00  0.00     0.034 A 
ATOM     24  C   UNL d   1      -1.020  -6.652   0.849  0.00  0.00     0.026 A 
ATOM     25 CL   UNL d   1      -0.620  -8.867   2.336  0.00  0.00    -0.084 Cl
ATOM     26  C   UNL d   1      -0.894  -5.287   0.576  0.00  0.00     0.038 A 
ENDBRANCH  19  20
ENDBRANCH  18  19
ENDBRANCH   5  18
TORSDOF 4
