REMARK  5 active torsions:
REMARK  status: ('A' for Active; 'I' for Inactive)
REMARK    1  A    between atoms: C_7  and  C_1 
REMARK    2  A    between atoms: C_8  and  C_1 
REMARK    3  A    between atoms: C_2  and  C_3 
REMARK    4  A    between atoms: O_13  and  C_7 
REMARK    5  A    between atoms: O_12  and  C_8 
ROOT
ATOM      1  C   UNL d   1       0.935   0.796  -0.397  0.00  0.00     0.113 C 
ATOM      2  C   UNL d   1       0.541  -0.288  -1.098  0.00  0.00     0.062 C 
ENDROOT
BRANCH   1   3
ATOM      3  C   UNL d   1       0.183   1.144   0.831  0.00  0.00     0.183 C 
ATOM      4  O   UNL d   1       0.176   2.289   1.268  0.00  0.00    -0.646 OA
BRANCH   3   5
ATOM      5  O   UNL d   1      -0.424   0.138   1.492  0.00  0.00    -0.772 OA
ATOM      6  H   UNL d   1      -0.213  -0.774   1.219  0.00  0.00     0.167 HD
ENDBRANCH   3   5
ENDBRANCH   1   3
BRANCH   1   7
ATOM      7  C   UNL d   1       2.048   1.697  -0.847  0.00  0.00     0.183 C 
ATOM      8  O   UNL d   1       2.786   1.478  -1.792  0.00  0.00    -0.646 OA
BRANCH   7   9
ATOM      9  O   UNL d   1       2.222   2.811  -0.094  0.00  0.00    -0.772 OA
ATOM     10  H   UNL d   1       1.538   2.978   0.598  0.00  0.00     0.167 HD
ENDBRANCH   7   9
ENDBRANCH   1   7
BRANCH   2  11
ATOM     11  C   UNL d   1       1.199  -0.758  -2.263  0.00  0.00     0.077 A 
ATOM     12  O   UNL d   1       0.843  -0.379  -3.531  0.00  0.00    -0.315 OA
ATOM     13  C   UNL d   1       1.702  -0.963  -4.408  0.00  0.00     0.056 A 
ATOM     14  C   UNL d   1       1.530  -0.611  -5.832  0.00  0.00     0.077 C 
ATOM     15  C   UNL d   1       2.599  -1.771  -3.740  0.00  0.00    -0.030 A 
ATOM     16  C   UNL d   1       2.250  -1.658  -2.367  0.00  0.00     0.046 A 
ATOM     17  C   UNL d   1       3.712  -2.556  -4.323  0.00  0.00     0.050 C 
ENDBRANCH   2  11
TORSDOF 5
