REMARK  3 active torsions:
REMARK  status: ('A' for Active; 'I' for Inactive)
REMARK    1  A    between atoms: C_9  and  C_1 
REMARK    2  A    between atoms: N_12  and  C_6 
REMARK    3  A    between atoms: O_13  and  C_7 
ROOT
ATOM      1  C   UNL d   1      -0.628   1.155  -0.010  0.00  0.00     0.135 A 
ATOM      2  N   UNL d   1      -1.337   0.001  -0.051  0.00  0.00    -0.331 N 
ATOM      3  HN  UNL d   1      -2.357   0.004  -0.056  1.00  0.00     0.168 HD
ATOM      4  N   UNL d   1       0.718   1.212   0.009  0.00  0.00    -0.321 N 
ATOM      5  HN  UNL d   1       1.226   2.096   0.055  1.00  0.00     0.169 HD
ATOM      6  C   UNL d   1      -0.643  -1.145  -0.084  0.00  0.00     0.083 A 
ATOM      7  C   UNL d   1       1.339   0.036  -0.038  0.00  0.00     0.144 A 
ATOM      8  C   UNL d   1       0.728  -1.184  -0.092  0.00  0.00     0.097 A 
ENDROOT
BRANCH   1   9
ATOM      9  C   UNL d   1      -1.388   2.433  -0.002  0.00  0.00     0.076 A 
ATOM     10  N   UNL d   1      -0.669   3.593   0.036  0.00  0.00    -0.363 N 
ATOM     11  C   UNL d   1      -1.343   4.763   0.025  0.00  0.00     0.088 A 
ATOM     12  HN  UNL d   1       0.350   3.576   0.072  1.00  0.00     0.165 HD
ATOM     13  C   UNL d   1      -2.722   4.858  -0.019  0.00  0.00     0.017 A 
ATOM     14  C   UNL d   1      -3.456   3.681  -0.053  0.00  0.00     0.004 A 
ATOM     15  C   UNL d   1      -2.786   2.458  -0.044  0.00  0.00     0.033 A 
ENDBRANCH   1   9
BRANCH   6  16
ATOM     16  N   UNL d   1      -1.386  -2.321  -0.170  0.00  0.00    -0.288 NA
ATOM     17  H   UNL d   1      -2.371  -2.082  -0.096  0.00  0.00     0.125 HD
ATOM     18  H   UNL d   1      -1.105  -3.006   0.522  0.00  0.00     0.125 HD
ENDBRANCH   6  16
BRANCH   7  19
ATOM     19  O   UNL d   1       2.692   0.128  -0.032  0.00  0.00    -0.346 OA
ATOM     20  H   UNL d   1       2.797   1.097  -0.004  0.00  0.00     0.219 HD
ENDBRANCH   7  19
TORSDOF 3
