REMARK  2 active torsions:
REMARK  status: ('A' for Active; 'I' for Inactive)
REMARK       I    between atoms: N_2  and  C_1 
REMARK    1  A    between atoms: C_6  and  C_1 
REMARK       I    between atoms: C_5  and  N_2 
REMARK       I    between atoms: N_12  and  C_5 
REMARK    2  A    between atoms: C_14  and  N_12 
ROOT
ATOM      1  C   UNL d   1       1.061  -4.879   0.317  0.00  0.00     0.261 C 
ATOM      2  N   UNL d   1       0.466  -3.643   0.476  0.00  0.00    -0.275 N 
ATOM      3  C   UNL d   1       1.054  -2.402   0.586  0.00  0.00     0.327 C 
ATOM      4  N   UNL d   1       2.410  -2.367   0.388  0.00  0.00    -0.309 N 
ATOM      5  O   UNL d   1       2.260  -5.011   0.076  0.00  0.00    -0.267 OA
ATOM      6  O   UNL d   1       0.326  -1.450   0.858  0.00  0.00    -0.247 OA
ATOM      7  H   UNL d   1      -0.524  -3.598   0.681  0.00  0.00     0.173 HD
ATOM      8  H   UNL d   1       2.820  -3.247   0.081  0.00  0.00     0.170 HD
ENDROOT
BRANCH   4   9
ATOM      9  C   UNL d   1       3.281  -1.276   0.587  0.00  0.00     0.039 A 
ATOM     10  C   UNL d   1       2.858  -0.066   1.150  0.00  0.00     0.069 A 
ATOM     11  C   UNL d   1       3.846   0.887   1.369  0.00  0.00     0.106 A 
ATOM     12  O   UNL d   1       3.690   2.109   1.952  0.00  0.00    -0.296 OA
ATOM     13  C   UNL d   1       5.182   0.736   1.048  0.00  0.00     0.068 A 
ATOM     14  C   UNL d   1       4.955   2.631   1.962  0.00  0.00     0.120 A 
ATOM     15  C   UNL d   1       5.110   3.954   2.598  0.00  0.00     0.098 C 
ATOM     16  N   UNL d   1       5.879   1.859   1.420  0.00  0.00    -0.338 N 
ATOM     17  HN  UNL d   1       6.874   2.051   1.305  1.00  0.00     0.168 HD
ATOM     18  C   UNL d   1       5.597  -0.459   0.450  0.00  0.00     0.035 A 
ATOM     19  C   UNL d   1       4.632  -1.462   0.237  0.00  0.00     0.032 A 
ENDBRANCH   4   9
BRANCH   1  20
ATOM     20  C   UNL d   1       0.173  -6.082   0.346  0.00  0.00     0.054 A 
ATOM     21  C   UNL d   1      -1.055  -6.179   1.017  0.00  0.00     0.049 A 
ATOM     22 CL   UNL d   1      -1.726  -4.915   1.988  0.00  0.00    -0.083 Cl
ATOM     23  C   UNL d   1      -1.805  -7.363   0.947  0.00  0.00     0.025 A 
ATOM     24  C   UNL d   1      -1.335  -8.458   0.222  0.00  0.00     0.002 A 
ATOM     25  C   UNL d   1      -0.112  -8.379  -0.433  0.00  0.00     0.001 A 
ATOM     26  C   UNL d   1       0.637  -7.203  -0.369  0.00  0.00     0.019 A 
ENDBRANCH   1  20
TORSDOF 2
