REMARK  3 active torsions:
REMARK  status: ('A' for Active; 'I' for Inactive)
REMARK       I    between atoms: N_2  and  C_1 
REMARK       I    between atoms: N_4  and  C_1 
REMARK    1  A    between atoms: C_3  and  N_2 
REMARK    2  A    between atoms: C_6  and  N_4 
REMARK    3  A    between atoms: N_5  and  C_7 
ROOT
ATOM      1  C   UNL d   1      -1.130   0.678  -1.093  0.00  0.00     0.063 A 
ATOM      2  C   UNL d   1      -1.777   0.940   0.142  0.00  0.00     0.057 A 
ATOM      3  C   UNL d   1      -1.845   0.592  -2.292  0.00  0.00     0.032 A 
ATOM      4  C   UNL d   1      -3.165   1.123   0.117  0.00  0.00     0.031 A 
ATOM      5  C   UNL d   1      -3.223   0.784  -2.285  0.00  0.00     0.002 A 
ATOM      6  C   UNL d   1      -3.881   1.049  -1.085  0.00  0.00     0.002 A 
ENDROOT
BRANCH   1   7
ATOM      7  N   UNL d   1       0.232   0.328  -1.040  0.00  0.00    -0.307 N 
ATOM      8  C   UNL d   1       1.296   0.960  -1.631  0.00  0.00     0.325 C 
ATOM      9  N   UNL d   1       1.017   1.876  -2.606  0.00  0.00    -0.303 N 
ATOM     10  O   UNL d   1       2.415   0.704  -1.192  0.00  0.00    -0.247 OA
ATOM     11  H   UNL d   1       0.138   1.827  -3.090  0.00  0.00     0.171 HD
ATOM     12  H   UNL d   1       0.513  -0.021  -0.129  0.00  0.00     0.170 HD
BRANCH   9  13
ATOM     13  C   UNL d   1       2.017   2.589  -3.221  0.00  0.00     0.077 A 
ATOM     14  S   UNL d   1       1.662   3.072  -4.810  0.00  0.00    -0.084 SA
ATOM     15  C   UNL d   1       3.265   3.636  -5.040  0.00  0.00     0.052 A 
ATOM     16  C   UNL d   1       4.002   3.579  -3.876  0.00  0.00     0.010 A 
ATOM     17  C   UNL d   1       3.269   2.977  -2.812  0.00  0.00     0.038 A 
ENDBRANCH   9  13
ENDBRANCH   1   7
BRANCH   2  18
ATOM     18  N   UNL d   1      -1.018   0.980   1.319  0.00  0.00    -0.375 N 
ATOM     19  C   UNL d   1      -1.651   0.688   2.618  0.00  0.00     0.149 C 
ATOM     20  C   UNL d   1      -0.536   0.357   3.630  0.00  0.00     0.187 C 
ATOM     21  O   UNL d   1       0.418   1.429   3.746  0.00  0.00    -0.388 OA
ATOM     22  C   UNL d   1       1.007   1.729   2.465  0.00  0.00     0.187 C 
ATOM     23  C   UNL d   1      -0.075   2.121   1.444  0.00  0.00     0.149 C 
ENDBRANCH   2  18
TORSDOF 3
