REMARK  5 active torsions:
REMARK  status: ('A' for Active; 'I' for Inactive)
REMARK    1  A    between atoms: C_5  and  C_1 
REMARK    2  A    between atoms: O_9  and  C_2 
REMARK    3  A    between atoms: O_14  and  C_8 
REMARK    4  A    between atoms: C_13  and  O_9 
REMARK    5  A    between atoms: O_23  and  C_12 
ROOT
ATOM      1  C   UNL d   1       1.298   0.791  -0.038  0.00  0.00     0.097 A 
ATOM      2  C   UNL d   1      -0.074   1.176  -0.080  0.00  0.00     0.128 A 
ATOM      3  N   UNL d   1       1.402  -0.552   0.009  0.00  0.00    -0.297 N 
ATOM      4  HN  UNL d   1       2.250  -1.110   0.103  1.00  0.00     0.187 HD
ATOM      5  N   UNL d   1       0.137  -0.991  -0.097  0.00  0.00    -0.302 N 
ATOM      6  C   UNL d   1      -0.802   0.003  -0.157  0.00  0.00     0.058 A 
ATOM      7  C   UNL d   1      -2.242  -0.319  -0.272  0.00  0.00     0.072 C 
ATOM      8  H   UNL d   1      -0.021  -1.995  -0.120  0.00  0.00     0.186 HD
ENDROOT
BRANCH   1   9
ATOM      9  C   UNL d   1       2.501   1.635   0.021  0.00  0.00     0.028 A 
ATOM     10  C   UNL d   1       3.692   1.175   0.614  0.00  0.00     0.081 A 
ATOM     11  C   UNL d   1       4.818   1.991   0.712  0.00  0.00     0.074 A 
ATOM     12  C   UNL d   1       4.774   3.279   0.195  0.00  0.00     0.068 A 
ATOM     13  C   UNL d   1       3.625   3.756  -0.425  0.00  0.00     0.037 A 
ATOM     14  C   UNL d   1       2.494   2.935  -0.512  0.00  0.00     0.019 A 
BRANCH  10  15
ATOM     15  O   UNL d   1       3.815  -0.093   1.125  0.00  0.00    -0.360 OA
ATOM     16  H   UNL d   1       3.011  -0.582   0.835  0.00  0.00     0.217 HD
ENDBRANCH  10  15
BRANCH  12  17
ATOM     17  O   UNL d   1       5.891   4.052   0.309  0.00  0.00    -0.361 OA
ATOM     18  H   UNL d   1       5.710   4.922  -0.083  0.00  0.00     0.217 HD
ENDBRANCH  12  17
ENDBRANCH   1   9
BRANCH   2  19
ATOM     19  O   UNL d   1      -0.543   2.442  -0.112  0.00  0.00    -0.306 OA
BRANCH  19  20
ATOM     20  C   UNL d   1      -1.649   2.862   0.585  0.00  0.00     0.076 A 
ATOM     21  C   UNL d   1      -2.117   2.253   1.752  0.00  0.00     0.040 A 
ATOM     22  C   UNL d   1      -3.271   2.733   2.372  0.00  0.00     0.045 A 
ATOM     23  C   UNL d   1      -3.915   3.850   1.852  0.00  0.00     0.116 A 
ATOM     24  C   UNL d   1      -3.425   4.500   0.725  0.00  0.00     0.045 A 
ATOM     25  F   UNL d   1      -5.023   4.309   2.449  0.00  0.00    -0.206 F 
ATOM     26  C   UNL d   1      -2.286   4.004   0.089  0.00  0.00     0.040 A 
ENDBRANCH  19  20
ENDBRANCH   2  19
TORSDOF 5
