REMARK  4 active torsions:
REMARK  status: ('A' for Active; 'I' for Inactive)
REMARK    1  A    between atoms: C_9  and  C_1 
REMARK    2  A    between atoms: C_8  and  C_3 
REMARK    3  A    between atoms: O_27  and  C_9 
REMARK    4  A    between atoms: C_18  and  C_12 
ROOT
ATOM      1  C   UNL d   1       2.094  -1.332  -0.009  0.00  0.00     0.052 A 
ATOM      2  C   UNL d   1      -0.323  -0.491   0.041  0.00  0.00     0.023 A 
ATOM      3  C   UNL d   1       0.598  -1.700  -0.082  0.00  0.00     0.098 A 
ATOM      4  C   UNL d   1       0.167   0.764   0.126  0.00  0.00     0.021 A 
ATOM      5  C   UNL d   1       2.485  -0.037   0.101  0.00  0.00     0.018 A 
ATOM      6  N   UNL d   1       1.530   0.970   0.147  0.00  0.00    -0.362 N 
ATOM      7  C   UNL d   1      -1.803  -0.686   0.006  0.00  0.00     0.159 C 
ATOM      8  C   UNL d   1      -0.707   2.002   0.124  0.00  0.00     0.067 C 
ATOM      9  C   UNL d   1      -2.124   1.740  -0.426  0.00  0.00     0.031 C 
ATOM     10  C   UNL d   1      -2.671   0.512   0.309  0.00  0.00     0.093 C 
ATOM     11  O   UNL d   1      -2.305  -1.781  -0.233  0.00  0.00    -0.293 OA
ATOM     12  C   UNL d   1       3.905   0.476   0.160  0.00  0.00     0.069 C 
ATOM     13  H   UNL d   1       1.868   1.929   0.186  0.00  0.00     0.165 HD
ENDROOT
BRANCH   3  14
ATOM     14  C   UNL d   1       0.230  -2.815   0.900  0.00  0.00    -0.044 A 
ATOM     15  C   UNL d   1      -0.160  -4.068   0.388  0.00  0.00     0.018 A 
ATOM     16  C   UNL d   1      -0.471  -5.138   1.233  0.00  0.00    -0.024 A 
ATOM     17  C   UNL d   1      -0.830  -6.467   0.642  0.00  0.00     0.044 C 
ATOM     18  C   UNL d   1      -0.397  -4.949   2.611  0.00  0.00     0.076 A 
ATOM     19  C   UNL d   1      -1.490  -7.348   1.689  0.00  0.00     0.042 C 
ATOM     20  C   UNL d   1      -0.737  -7.278   3.026  0.00  0.00     0.061 C 
ATOM     21  O   UNL d   1      -0.663  -5.930   3.527  0.00  0.00    -0.340 OA
ATOM     22  C   UNL d   1      -1.528  -8.069   4.077  0.00  0.00     0.046 C 
ATOM     23  C   UNL d   1       0.683  -7.859   2.942  0.00  0.00     0.046 C 
ATOM     24  C   UNL d   1      -0.048  -3.702   3.135  0.00  0.00     0.038 A 
ATOM     25  C   UNL d   1       0.276  -2.640   2.287  0.00  0.00     0.011 A 
ENDBRANCH   3  14
BRANCH   1  26
ATOM     26  C   UNL d   1       3.076  -2.455  -0.051  0.00  0.00     0.291 C 
ATOM     27  O   UNL d   1       4.157  -2.458   0.510  0.00  0.00    -0.260 OA
BRANCH  26  28
ATOM     28  O   UNL d   1       2.580  -3.480  -0.793  0.00  0.00    -0.323 OA
ATOM     29  C   UNL d   1       3.319  -4.703  -0.723  0.00  0.00     0.213 C 
ENDBRANCH  26  28
ENDBRANCH   1  26
BRANCH   9  30
ATOM     30  C   UNL d   1      -2.246   1.609  -1.950  0.00  0.00    -0.053 A 
ATOM     31  C   UNL d   1      -1.144   1.697  -2.820  0.00  0.00     0.010 A 
ATOM     32  C   UNL d   1      -1.306   1.579  -4.203  0.00  0.00     0.043 A 
ATOM     33  C   UNL d   1      -2.570   1.371  -4.732  0.00  0.00     0.116 A 
ATOM     34  C   UNL d   1      -3.678   1.279  -3.904  0.00  0.00     0.043 A 
ATOM     35  F   UNL d   1      -2.722   1.263  -6.058  0.00  0.00    -0.206 F 
ATOM     36  C   UNL d   1      -3.518   1.403  -2.521  0.00  0.00     0.010 A 
ENDBRANCH   9  30
TORSDOF 4
