REMARK  3 active torsions:
REMARK  status: ('A' for Active; 'I' for Inactive)
REMARK    1  A    between atoms: O_5  and  C_2 
REMARK    2  A    between atoms: C_10  and  O_5 
REMARK    3  A    between atoms: O_16  and  C_11 
ROOT
ATOM      1  C   UNL d   1      -1.803  -1.206  -1.578  0.00  0.00     0.165 A 
ATOM      2  C   UNL d   1      -0.625  -1.923  -1.406  0.00  0.00     0.186 A 
ATOM      3  C   UNL d   1      -2.692  -0.945  -0.485  0.00  0.00     0.122 C 
ATOM      4  N   UNL d   1      -3.406  -0.737   0.407  0.00  0.00    -0.190 NA
ATOM      5  N   UNL d   1      -2.192  -0.730  -2.796  0.00  0.00    -0.353 N 
ATOM      6  HN  UNL d   1      -3.060  -0.211  -2.926  1.00  0.00     0.166 HD
ATOM      7  N   UNL d   1       0.236  -2.142  -2.437  0.00  0.00    -0.343 N 
ATOM      8  HN  UNL d   1       1.124  -2.626  -2.307  1.00  0.00     0.167 HD
ATOM      9  C   UNL d   1      -1.347  -0.993  -3.821  0.00  0.00     0.106 A 
ATOM     10  C   UNL d   1      -0.157  -1.678  -3.644  0.00  0.00     0.107 A 
ENDROOT
BRANCH   2  11
ATOM     11  O   UNL d   1      -0.308  -2.416  -0.150  0.00  0.00    -0.291 OA
BRANCH  11  12
ATOM     12  C   UNL d   1       0.317  -3.641  -0.077  0.00  0.00     0.078 A 
ATOM     13  C   UNL d   1       1.161  -3.851   1.015  0.00  0.00     0.040 A 
ATOM     14  C   UNL d   1       1.837  -5.070   1.165  0.00  0.00     0.039 A 
ATOM     15  C   UNL d   1       1.667  -6.085   0.222  0.00  0.00     0.068 A 
ATOM     16  C   UNL d   1       0.790  -5.885  -0.845  0.00  0.00     0.039 A 
ATOM     17  C   UNL d   1       0.101  -4.680  -0.985  0.00  0.00     0.040 A 
BRANCH  15  18
ATOM     18  O   UNL d   1       2.285  -7.303   0.217  0.00  0.00    -0.356 OA
ATOM     19  C   UNL d   1       3.188  -7.576   1.279  0.00  0.00     0.210 C 
ENDBRANCH  15  18
ENDBRANCH  11  12
ENDBRANCH   2  11
TORSDOF 3
