REMARK  5 active torsions:
REMARK  status: ('A' for Active; 'I' for Inactive)
REMARK       I    between atoms: C_5  and  N_1 
REMARK    1  A    between atoms: C_2  and  C_3 
REMARK       I    between atoms: N_7  and  C_3 
REMARK    2  A    between atoms: C_15  and  C_5 
REMARK    3  A    between atoms: C_17  and  N_7 
REMARK    4  A    between atoms: C_12  and  O_14 
REMARK    5  A    between atoms: O_14  and  C_15 
ROOT
ATOM      1  N   UNL d   1      -2.195  -0.526  -0.406  0.00  0.00    -0.337 N 
ATOM      2  C   UNL d   1      -2.038   0.955  -0.328  0.00  0.00     0.179 C 
ATOM      3  C   UNL d   1      -1.480  -1.205   0.688  0.00  0.00     0.132 C 
ATOM      4  C   UNL d   1      -2.494  -1.152  -1.613  0.00  0.00     0.244 C 
ATOM      5  C   UNL d   1      -0.546   1.317  -0.465  0.00  0.00     0.040 C 
ATOM      6  C   UNL d   1       0.031  -0.861   0.705  0.00  0.00     0.008 C 
ATOM      7  C   UNL d   1       0.245   0.669   0.688  0.00  0.00    -0.006 C 
ATOM      8  O   UNL d   1      -2.756  -0.483  -2.620  0.00  0.00    -0.271 OA
ATOM      9  C   UNL d   1       0.812  -1.549  -0.429  0.00  0.00     0.006 C 
ATOM     10  C   UNL d   1       1.731   1.045   0.651  0.00  0.00     0.005 C 
ATOM     11  C   UNL d   1       2.494   0.348  -0.468  0.00  0.00     0.000 C 
ATOM     12  C   UNL d   1       2.293  -1.163  -0.416  0.00  0.00     0.000 C 
ENDROOT
BRANCH   2  13
ATOM     13  C   UNL d   1      -2.897   2.091  -0.962  0.00  0.00     0.241 C 
ATOM     14  N   UNL d   1      -3.846   1.764  -1.891  0.00  0.00    -0.351 N 
ATOM     15  H   UNL d   1      -3.691   0.867  -2.356  0.00  0.00     0.163 HD
ATOM     16  O   UNL d   1      -2.696   3.258  -0.614  0.00  0.00    -0.271 OA
BRANCH  14  17
ATOM     17  C   UNL d   1      -4.662   2.757  -2.614  0.00  0.00     0.022 C 
ATOM     18  C   UNL d   1      -3.786   3.652  -3.510  0.00  0.00     0.037 C 
ATOM     19  C   UNL d   1      -5.659   2.002  -3.509  0.00  0.00     0.037 C 
ATOM     20  C   UNL d   1      -5.469   3.633  -1.637  0.00  0.00     0.037 C 
ENDBRANCH  14  17
ENDBRANCH   2  13
BRANCH   4  21
ATOM     21  C   UNL d   1      -2.549  -2.696  -1.720  0.00  0.00     0.278 C 
BRANCH  21  22
ATOM     22  O   UNL d   1      -3.888  -3.141  -1.946  0.00  0.00    -0.340 OA
BRANCH  22  23
ATOM     23  C   UNL d   1      -4.056  -4.476  -2.233  0.00  0.00     0.091 A 
ATOM     24  C   UNL d   1      -5.221  -5.113  -1.767  0.00  0.00     0.069 A 
ATOM     25  C   UNL d   1      -5.492  -6.450  -2.088  0.00  0.00     0.050 A 
ATOM     26 CL   UNL d   1      -6.359  -4.281  -0.766  0.00  0.00    -0.081 Cl
ATOM     27  C   UNL d   1      -4.602  -7.157  -2.887  0.00  0.00     0.035 A 
ATOM     28  C   UNL d   1      -3.447  -6.540  -3.361  0.00  0.00     0.026 A 
ATOM     29 CL   UNL d   1      -4.935  -8.792  -3.308  0.00  0.00    -0.084 Cl
ATOM     30  C   UNL d   1      -3.178  -5.206  -3.041  0.00  0.00     0.040 A 
ENDBRANCH  22  23
ENDBRANCH  21  22
ENDBRANCH   4  21
TORSDOF 5
