REMARK  6 active torsions:
REMARK  status: ('A' for Active; 'I' for Inactive)
REMARK    1  A    between atoms: C_2  and  S_1 
REMARK    2  A    between atoms: N_8  and  S_1 
REMARK    3  A    between atoms: C_3  and  C_7 
REMARK    4  A    between atoms: C_14  and  C_19 
REMARK    5  A    between atoms: O_23  and  C_14 
REMARK    6  A    between atoms: C_25  and  O_23 
ROOT
ATOM      1  S   UNL d   1       0.870  -0.025  -0.124  0.00  0.00     0.267 S 
ATOM      2  O   UNL d   1      -0.013   1.123  -0.117  0.00  0.00    -0.200 OA
ATOM      3  O   UNL d   1       2.288   0.110   0.128  0.00  0.00    -0.200 OA
ENDROOT
BRANCH   1   4
ATOM      4  C   UNL d   1       0.809  -0.680  -1.788  0.00  0.00     0.121 A 
ATOM      5  S   UNL d   1      -0.713  -1.155  -2.403  0.00  0.00    -0.074 SA
ATOM      6  C   UNL d   1      -0.020  -1.786  -3.830  0.00  0.00     0.033 A 
ATOM      7  C   UNL d   1       1.344  -1.587  -3.864  0.00  0.00     0.023 A 
ATOM      8  C   UNL d   1       1.817  -0.912  -2.704  0.00  0.00     0.034 A 
BRANCH   6   9
ATOM      9  C   UNL d   1      -0.762  -2.466  -4.941  0.00  0.00     0.056 A 
ATOM     10  N   UNL d   1      -0.074  -3.014  -6.012  0.00  0.00    -0.353 N 
ATOM     11  C   UNL d   1      -0.917  -3.545  -6.869  0.00  0.00     0.047 A 
ATOM     12  HN  UNL d   1       0.941  -3.007  -6.119  1.00  0.00     0.166 HD
ATOM     13  C   UNL d   1      -0.514  -4.226  -8.129  0.00  0.00     0.076 C 
ATOM     14  S   UNL d   1      -2.579  -3.398  -6.456  0.00  0.00    -0.087 SA
ATOM     15  C   UNL d   1      -2.135  -2.594  -5.006  0.00  0.00     0.082 A 
ENDBRANCH   6   9
ENDBRANCH   1   4
BRANCH   1  16
ATOM     16  N   UNL d   1       0.273  -1.206   0.970  0.00  0.00    -0.306 N 
ATOM     17  C   UNL d   1      -1.183  -1.168   1.223  0.00  0.00     0.136 C 
ATOM     18  C   UNL d   1      -1.565  -2.121   2.353  0.00  0.00     0.035 C 
ATOM     19  C   UNL d   1      -1.079  -3.544   2.082  0.00  0.00     0.088 C 
ATOM     20  C   UNL d   1       0.441  -3.517   1.886  0.00  0.00     0.035 C 
ATOM     21  C   UNL d   1       0.862  -2.558   0.776  0.00  0.00     0.136 C 
BRANCH  19  22
ATOM     22  C   UNL d   1      -1.776  -4.178   0.886  0.00  0.00     0.263 C 
ATOM     23  O   UNL d   1      -1.198  -4.660  -0.078  0.00  0.00    -0.265 OA
BRANCH  22  24
ATOM     24  O   UNL d   1      -3.129  -4.153   1.041  0.00  0.00    -0.322 OA
BRANCH  24  25
ATOM     25  C   UNL d   1      -3.879  -4.728  -0.042  0.00  0.00     0.174 C 
ATOM     26  C   UNL d   1      -4.067  -3.704  -1.147  0.00  0.00     0.034 C 
ENDBRANCH  24  25
ENDBRANCH  22  24
ENDBRANCH  19  22
ENDBRANCH   1  16
TORSDOF 6
