REMARK  4 active torsions:
REMARK  status: ('A' for Active; 'I' for Inactive)
REMARK    1  A    between atoms: S_10  and  C_2 
REMARK    2  A    between atoms: C_15  and  S_10 
REMARK    3  A    between atoms: C_11  and  C_12 
REMARK    4  A    between atoms: C_16  and  C_15 
ROOT
ATOM      1  C   UNL d   1       1.084   0.758   0.250  0.00  0.00     0.085 A 
ATOM      2  C   UNL d   1       2.437   0.437   0.143  0.00  0.00     0.092 A 
ATOM      3  N   UNL d   1       2.878  -0.845   0.138  0.00  0.00    -0.349 N 
ATOM      4  HN  UNL d   1       3.875  -1.042   0.058  1.00  0.00     0.166 HD
ATOM      5  C   UNL d   1       0.146  -0.296   0.349  0.00  0.00    -0.026 A 
ATOM      6  C   UNL d   1       0.615  -1.643   0.342  0.00  0.00    -0.002 A 
ATOM      7  C   UNL d   1       0.662   2.132   0.265  0.00  0.00     0.103 C 
ATOM      8  C   UNL d   1       2.004  -1.847   0.239  0.00  0.00     0.043 A 
ATOM      9  N   UNL d   1       0.277   3.226   0.284  0.00  0.00    -0.191 NA
ATOM     10  C   UNL d   1      -1.338  -0.031   0.468  0.00  0.00     0.050 C 
ATOM     11  C   UNL d   1      -0.218  -2.785   0.439  0.00  0.00     0.014 A 
ATOM     12  C   UNL d   1       2.515  -3.136   0.248  0.00  0.00     0.030 A 
ATOM     13  C   UNL d   1       0.316  -4.075   0.450  0.00  0.00     0.001 A 
ATOM     14  C   UNL d   1       1.687  -4.251   0.358  0.00  0.00     0.002 A 
ENDROOT
BRANCH   2  15
ATOM     15  S   UNL d   1       3.734   1.668   0.009  0.00  0.00    -0.106 SA
BRANCH  15  16
ATOM     16  C   UNL d   1       5.199   0.581  -0.122  0.00  0.00     0.119 C 
BRANCH  16  17
ATOM     17  C   UNL d   1       6.476   1.365  -0.276  0.00  0.00    -0.049 A 
ATOM     18  C   UNL d   1       7.235   1.730   0.839  0.00  0.00     0.008 A 
ATOM     19  C   UNL d   1       8.399   2.492   0.689  0.00  0.00     0.008 A 
ATOM     20  C   UNL d   1       8.835   2.929  -0.576  0.00  0.00    -0.051 A 
ATOM     21  C   UNL d   1       8.084   2.518  -1.689  0.00  0.00     0.008 A 
ATOM     22  C   UNL d   1       6.922   1.753  -1.543  0.00  0.00     0.008 A 
BRANCH  20  23
ATOM     23  C   UNL d   1      10.049   3.866  -0.699  0.00  0.00    -0.024 C 
ATOM     24  C   UNL d   1      10.345   4.309  -2.150  0.00  0.00     0.019 C 
ATOM     25  C   UNL d   1       9.781   5.150   0.120  0.00  0.00     0.019 C 
ATOM     26  C   UNL d   1      11.321   3.180  -0.159  0.00  0.00     0.019 C 
ENDBRANCH  20  23
ENDBRANCH  16  17
ENDBRANCH  15  16
ENDBRANCH   2  15
TORSDOF 4
