REMARK  9 active torsions:
REMARK  status: ('A' for Active; 'I' for Inactive)
REMARK    1  A    between atoms: C_19  and  N_1 
REMARK    2  A    between atoms: C_18  and  C_3 
REMARK    3  A    between atoms: S_15  and  C_6 
REMARK    4  A    between atoms: S_16  and  C_7 
REMARK    5  A    between atoms: C_10  and  C_17 
REMARK    6  A    between atoms: C_17  and  S_15 
REMARK    7  A    between atoms: C_23  and  S_16 
REMARK    8  A    between atoms: C_20  and  C_19 
REMARK    9  A    between atoms: C_25  and  C_23 
ROOT
ATOM      1  C   UNL d   1      -3.674  -1.810   0.006  0.00  0.00     0.160 C 
ENDROOT
BRANCH   1   2
ATOM      2  C   UNL d   1      -5.181  -1.811   0.017  0.00  0.00     0.109 A 
ATOM      3  N   UNL d   1      -6.002  -1.303  -0.971  0.00  0.00    -0.319 N 
ATOM      4  C   UNL d   1      -7.293  -1.515  -0.549  0.00  0.00     0.162 A 
ATOM      5  C   UNL d   1      -5.599  -0.647  -2.188  0.00  0.00     0.159 C 
ATOM      6  N   UNL d   1      -7.274  -2.135   0.607  0.00  0.00    -0.278 N 
ATOM      7  N   UNL d   1      -5.952  -2.327   0.960  0.00  0.00    -0.286 N 
ATOM      8  HN  UNL d   1      -8.089  -2.425   1.147  1.00  0.00     0.189 HD
ATOM      9  HN  UNL d   1      -5.625  -2.789   1.808  1.00  0.00     0.188 HD
BRANCH   4  10
ATOM     10  S   UNL d   1      -8.691  -1.052  -1.471  0.00  0.00    -0.088 SA
BRANCH  10  11
ATOM     11  C   UNL d   1     -10.004  -0.977  -0.211  0.00  0.00     0.121 C 
BRANCH  11  12
ATOM     12  C   UNL d   1     -11.371  -0.693  -0.816  0.00  0.00    -0.048 A 
ATOM     13  C   UNL d   1     -12.248  -1.749  -1.123  0.00  0.00     0.011 A 
ATOM     14  C   UNL d   1     -13.515  -1.494  -1.664  0.00  0.00     0.043 A 
ATOM     15  C   UNL d   1     -13.906  -0.186  -1.906  0.00  0.00     0.116 A 
ATOM     16  C   UNL d   1     -13.059   0.875  -1.618  0.00  0.00     0.043 A 
ATOM     17  F   UNL d   1     -15.122   0.057  -2.424  0.00  0.00    -0.206 F 
ATOM     18  C   UNL d   1     -11.795   0.625  -1.075  0.00  0.00     0.011 A 
ENDBRANCH  11  12
ENDBRANCH  10  11
ENDBRANCH   4  10
ENDBRANCH   1   2
BRANCH   1  19
ATOM     19  S   UNL d   1      -3.007  -0.126   0.234  0.00  0.00    -0.085 SA
BRANCH  19  20
ATOM     20  C   UNL d   1      -1.286  -0.354   0.103  0.00  0.00     0.163 A 
ATOM     21  N   UNL d   1      -0.350   0.566   0.536  0.00  0.00    -0.307 N 
ATOM     22  C   UNL d   1       0.887  -0.029   0.321  0.00  0.00     0.135 A 
ATOM     23  N   UNL d   1       0.672  -1.175  -0.314  0.00  0.00    -0.283 N 
ATOM     24  N   UNL d   1      -0.685  -1.383  -0.427  0.00  0.00    -0.278 N 
ATOM     25  HN  UNL d   1       1.397  -1.802  -0.663  1.00  0.00     0.188 HD
ATOM     26  HN  UNL d   1      -1.137  -2.194  -0.849  1.00  0.00     0.189 HD
BRANCH  21  27
ATOM     27  C   UNL d   1      -0.633   1.854   1.153  0.00  0.00     0.159 C 
BRANCH  27  28
ATOM     28  C   UNL d   1      -0.059   3.040   0.425  0.00  0.00    -0.017 C 
ATOM     29  C   UNL d   1      -0.786   4.071  -0.026  0.00  0.00     0.008 C 
ENDBRANCH  27  28
ENDBRANCH  21  27
BRANCH  22  30
ATOM     30  C   UNL d   1       2.236   0.481   0.661  0.00  0.00     0.009 A 
ATOM     31  C   UNL d   1       2.512   1.220   1.822  0.00  0.00     0.015 A 
ATOM     32  C   UNL d   1       3.802   1.706   2.087  0.00  0.00     0.001 A 
ATOM     33  C   UNL d   1       4.851   1.421   1.221  0.00  0.00     0.000 A 
ATOM     34  C   UNL d   1       4.613   0.644   0.090  0.00  0.00     0.001 A 
ATOM     35  C   UNL d   1       3.319   0.181  -0.185  0.00  0.00     0.015 A 
ENDBRANCH  22  30
ENDBRANCH  19  20
ENDBRANCH   1  19
TORSDOF 9
