REMARK  4 active torsions:
REMARK  status: ('A' for Active; 'I' for Inactive)
REMARK    1  A    between atoms: C_3  and  N_1 
REMARK       I    between atoms: C_4  and  N_1 
REMARK    2  A    between atoms: C_2  and  C_5 
REMARK    3  A    between atoms: C_8  and  C_3 
REMARK    4  A    between atoms: C_14  and  C_4 
ROOT
ATOM      1  C   UNL d   1       0.128   0.684   1.108  0.00  0.00     0.129 C 
ATOM      2  N   UNL d   1      -1.143   0.562   0.920  0.00  0.00    -0.384 N 
ATOM      3  HN  UNL d   1      -1.878   1.009   1.467  1.00  0.00     0.157 HD
ATOM      4  H   UNL d   1      -1.283  -0.074   0.111  0.00  0.00     0.157 HD
ENDROOT
BRANCH   1   5
ATOM      5  N   UNL d   1       1.066   0.054   0.315  0.00  0.00    -0.307 N 
ATOM      6  C   UNL d   1       0.846  -0.704  -0.822  0.00  0.00     0.257 C 
ATOM      7  O   UNL d   1      -0.268  -1.057  -1.204  0.00  0.00    -0.267 OA
ATOM      8  H   UNL d   1       2.022   0.233   0.610  0.00  0.00     0.170 HD
BRANCH   6   9
ATOM      9  C   UNL d   1       2.068  -1.137  -1.554  0.00  0.00     0.032 A 
ATOM     10  C   UNL d   1       2.041  -2.353  -2.248  0.00  0.00     0.017 A 
ATOM     11  C   UNL d   1       3.190  -2.819  -2.891  0.00  0.00     0.001 A 
ATOM     12  C   UNL d   1       4.364  -2.066  -2.856  0.00  0.00     0.000 A 
ATOM     13  C   UNL d   1       4.385  -0.834  -2.204  0.00  0.00     0.001 A 
ATOM     14  C   UNL d   1       3.238  -0.363  -1.561  0.00  0.00     0.017 A 
ENDBRANCH   6   9
ENDBRANCH   1   5
BRANCH   1  15
ATOM     15  C   UNL d   1       0.712   1.556   2.168  0.00  0.00     0.076 A 
ATOM     16  N   UNL d   1       2.076   1.599   2.199  0.00  0.00    -0.362 N 
ATOM     17  C   UNL d   1       2.628   2.512   3.035  0.00  0.00     0.104 A 
ATOM     18  HN  UNL d   1       2.648   0.981   1.624  1.00  0.00     0.165 HD
ATOM     19  C   UNL d   1       1.895   3.390   3.824  0.00  0.00     0.063 A 
ATOM     20  C   UNL d   1       0.499   3.272   3.806  0.00  0.00     0.020 A 
ATOM     21  C   UNL d   1      -0.106   2.340   2.967  0.00  0.00     0.034 A 
BRANCH  19  22
ATOM     22  C   UNL d   1       2.579   4.465   4.615  0.00  0.00     0.418 C 
ATOM     23  F   UNL d   1       3.933   4.464   4.472  0.00  0.00    -0.166 F 
ATOM     24  F   UNL d   1       2.170   5.710   4.245  0.00  0.00    -0.166 F 
ATOM     25  F   UNL d   1       2.341   4.373   5.950  0.00  0.00    -0.166 F 
ENDBRANCH  19  22
ENDBRANCH   1  15
TORSDOF 4
