REMARK  8 active torsions:
REMARK  status: ('A' for Active; 'I' for Inactive)
REMARK    1  A    between atoms: C_3  and  N_1 
REMARK       I    between atoms: C_2  and  N_8 
REMARK       I    between atoms: N_9  and  C_2 
REMARK    2  A    between atoms: C_14  and  C_3 
REMARK    3  A    between atoms: C_15  and  C_3 
REMARK    4  A    between atoms: C_4  and  C_16 
REMARK       I    between atoms: N_10  and  C_4 
REMARK    5  A    between atoms: S_11  and  C_7 
REMARK    6  A    between atoms: N_8  and  N_10 
REMARK    7  A    between atoms: C_17  and  N_9 
REMARK    8  A    between atoms: C_16  and  S_11 
ROOT
ATOM      1  S   UNL d   1      -0.320  -1.669  -1.785  0.00  0.00    -0.151 SA
ENDROOT
BRANCH   1   2
ATOM      2  C   UNL d   1      -0.363  -1.073  -0.025  0.00  0.00     0.104 C 
ATOM      3  C   UNL d   1       0.952  -0.323   0.334  0.00  0.00     0.290 C 
ATOM      4  N   UNL d   1       0.311   0.929  -0.171  0.00  0.00     0.104 N 
ATOM      5  C   UNL d   1      -1.004   0.328   0.172  0.00  0.00     0.290 C 
BRANCH   4   6
ATOM      6  C   UNL d   1       0.673   2.094   0.665  0.00  0.00     0.289 C 
BRANCH   6   7
ATOM      7  C   UNL d   1       2.032   2.654   0.222  0.00  0.00    -0.021 A 
ATOM      8  C   UNL d   1       2.231   3.102  -1.097  0.00  0.00     0.010 A 
ATOM      9  C   UNL d   1       3.436   3.691  -1.483  0.00  0.00     0.001 A 
ATOM     10  C   UNL d   1       4.469   3.826  -0.559  0.00  0.00     0.000 A 
ATOM     11  C   UNL d   1       4.302   3.358   0.743  0.00  0.00     0.001 A 
ATOM     12  C   UNL d   1       3.092   2.775   1.133  0.00  0.00     0.010 A 
ENDBRANCH   6   7
BRANCH   6  13
ATOM     13  C   UNL d   1      -0.373   3.222   0.674  0.00  0.00    -0.021 A 
ATOM     14  C   UNL d   1      -0.497   4.036   1.815  0.00  0.00     0.010 A 
ATOM     15  C   UNL d   1      -1.418   5.085   1.850  0.00  0.00     0.001 A 
ATOM     16  C   UNL d   1      -2.225   5.341   0.745  0.00  0.00     0.000 A 
ATOM     17  C   UNL d   1      -2.104   4.559  -0.401  0.00  0.00     0.001 A 
ATOM     18  C   UNL d   1      -1.179   3.513  -0.440  0.00  0.00     0.010 A 
ENDBRANCH   6  13
ENDBRANCH   4   6
ENDBRANCH   1   2
BRANCH   1  19
ATOM     19  C   UNL d   1      -1.895  -2.566  -1.829  0.00  0.00     0.178 C 
BRANCH  19  20
ATOM     20  C   UNL d   1      -3.069  -1.619  -1.695  0.00  0.00     0.245 C 
ATOM     21  N   UNL d   1      -3.516  -1.080  -2.885  0.00  0.00    -0.265 N 
ATOM     22  H   UNL d   1      -3.298  -1.512  -3.788  0.00  0.00     0.190 HD
ATOM     23  O   UNL d   1      -3.545  -1.319  -0.598  0.00  0.00    -0.271 OA
BRANCH  21  24
ATOM     24  N   UNL d   1      -4.683  -0.293  -2.863  0.00  0.00    -0.249 N 
ATOM     25  C   UNL d   1      -5.451  -0.284  -4.017  0.00  0.00     0.339 C 
ATOM     26  N   UNL d   1      -6.517   0.585  -3.919  0.00  0.00    -0.308 N 
ATOM     27  O   UNL d   1      -5.156  -1.000  -4.968  0.00  0.00    -0.245 OA
ATOM     28  H   UNL d   1      -6.660   1.015  -3.016  0.00  0.00     0.170 HD
ATOM     29  H   UNL d   1      -4.620   0.541  -2.289  0.00  0.00     0.192 HD
BRANCH  26  30
ATOM     30  C   UNL d   1      -7.442   0.918  -4.932  0.00  0.00     0.036 A 
ATOM     31  C   UNL d   1      -7.406   0.378  -6.219  0.00  0.00     0.029 A 
ATOM     32  C   UNL d   1      -8.303   0.811  -7.200  0.00  0.00     0.002 A 
ATOM     33  C   UNL d   1      -9.252   1.783  -6.902  0.00  0.00     0.000 A 
ATOM     34  C   UNL d   1      -9.323   2.303  -5.612  0.00  0.00     0.002 A 
ATOM     35  C   UNL d   1      -8.427   1.869  -4.630  0.00  0.00     0.029 A 
ENDBRANCH  26  30
ENDBRANCH  21  24
ENDBRANCH  19  20
ENDBRANCH   1  19
TORSDOF 8
