REMARK  1 active torsions:
REMARK  status: ('A' for Active; 'I' for Inactive)
REMARK    1  A    between atoms: C_2  and  C_3 
ROOT
ATOM      1  C   UNL d   1       0.104   1.437   0.123  0.00  0.00    -0.017 A 
ATOM      2  C   UNL d   1       0.071   2.780   0.046  0.00  0.00     0.001 C 
ATOM      3  C   UNL d   1       1.258   0.498   0.137  0.00  0.00    -0.014 A 
ATOM      4  C   UNL d   1      -1.152   0.632   0.085  0.00  0.00    -0.014 A 
ATOM      5  C   UNL d   1       0.701  -0.801  -0.002  0.00  0.00    -0.014 A 
ATOM      6  C   UNL d   1      -0.753  -0.717  -0.015  0.00  0.00    -0.014 A 
ATOM      7  C   UNL d   1       2.624   0.656   0.294  0.00  0.00     0.013 A 
ATOM      8  C   UNL d   1      -2.494   0.982   0.121  0.00  0.00     0.013 A 
ATOM      9  C   UNL d   1       1.514  -1.923  -0.073  0.00  0.00     0.013 A 
ATOM     10  C   UNL d   1      -1.700  -1.731  -0.074  0.00  0.00     0.013 A 
ATOM     11  C   UNL d   1       3.442  -0.479   0.235  0.00  0.00     0.001 A 
ATOM     12  C   UNL d   1      -3.446  -0.039   0.059  0.00  0.00     0.001 A 
ATOM     13  C   UNL d   1       2.895  -1.755   0.035  0.00  0.00     0.001 A 
ATOM     14  C   UNL d   1      -3.054  -1.383  -0.037  0.00  0.00     0.001 A 
ENDROOT
BRANCH   2  15
ATOM     15  C   UNL d   1       1.189   3.777  -0.088  0.00  0.00     0.076 A 
ATOM     16  C   UNL d   1       0.960   4.723  -1.270  0.00  0.00    -0.035 A 
ATOM     17  C   UNL d   1       0.910   6.062  -0.825  0.00  0.00    -0.018 A 
ATOM     18  C   UNL d   1       0.788   4.401  -2.609  0.00  0.00     0.009 A 
ATOM     19  C   UNL d   1       0.692   7.094  -1.723  0.00  0.00     0.013 A 
ATOM     20  C   UNL d   1       1.064   6.084   0.613  0.00  0.00    -0.018 A 
ATOM     21  C   UNL d   1       0.504   6.776  -3.072  0.00  0.00     0.001 A 
ATOM     22  C   UNL d   1       0.548   5.441  -3.510  0.00  0.00     0.001 A 
ATOM     23  C   UNL d   1       1.225   4.760   1.080  0.00  0.00    -0.035 A 
ATOM     24  C   UNL d   1       1.020   7.145   1.503  0.00  0.00     0.013 A 
ATOM     25  C   UNL d   1       1.356   4.485   2.433  0.00  0.00     0.009 A 
ATOM     26  C   UNL d   1       1.297   5.554   3.330  0.00  0.00     0.001 A 
ATOM     27  C   UNL d   1       1.129   6.871   2.870  0.00  0.00     0.001 A 
ENDBRANCH   2  15
TORSDOF 1
