REMARK  4 active torsions:
REMARK  status: ('A' for Active; 'I' for Inactive)
REMARK    1  A    between atoms: C_2  and  C_1 
REMARK       I    between atoms: N_3  and  C_1 
REMARK    2  A    between atoms: C_4  and  N_3 
REMARK    3  A    between atoms: N_11  and  C_5 
REMARK    4  A    between atoms: N_12  and  C_7 
ROOT
ATOM      1  C   UNL d   1       0.990   0.173  -0.039  0.00  0.00     0.258 C 
ATOM      2  N   UNL d   1       0.281  -0.688   0.774  0.00  0.00    -0.321 N 
ATOM      3  O   UNL d   1       2.198   0.395   0.010  0.00  0.00    -0.267 OA
ATOM      4  H   UNL d   1      -0.598  -1.025   0.402  0.00  0.00     0.169 HD
ENDROOT
BRANCH   2   5
ATOM      5  C   UNL d   1       0.780  -1.339   1.931  0.00  0.00     0.056 A 
ATOM      6  C   UNL d   1       1.782  -0.808   2.780  0.00  0.00     0.034 A 
ATOM      7  C   UNL d   1       2.128  -1.516   3.942  0.00  0.00     0.049 A 
ATOM      8  C   UNL d   1       1.569  -2.763   4.213  0.00  0.00     0.035 A 
ATOM      9  C   UNL d   1       0.604  -3.297   3.368  0.00  0.00     0.026 A 
ATOM     10 CL   UNL d   1       2.061  -3.634   5.613  0.00  0.00    -0.084 Cl
ATOM     11  C   UNL d   1       0.193  -2.575   2.246  0.00  0.00     0.033 A 
BRANCH   6  12
ATOM     12  N   UNL d   1       2.246   0.523   2.673  0.00  0.00    -0.301 NA
ATOM     13  H   UNL d   1       2.325   0.787   1.685  0.00  0.00     0.124 HD
ATOM     14  H   UNL d   1       3.141   0.672   3.126  0.00  0.00     0.124 HD
ENDBRANCH   6  12
ENDBRANCH   2   5
BRANCH   1  15
ATOM     15  C   UNL d   1       0.195   0.866  -1.075  0.00  0.00     0.053 A 
ATOM     16  C   UNL d   1       0.583   0.813  -2.426  0.00  0.00     0.021 A 
ATOM     17  C   UNL d   1      -0.184   1.528  -3.354  0.00  0.00     0.024 A 
ATOM     18  C   UNL d   1      -1.229   2.359  -2.936  0.00  0.00     0.002 A 
ATOM     19  C   UNL d   1      -1.565   2.442  -1.587  0.00  0.00     0.001 A 
ATOM     20  C   UNL d   1      -0.861   1.686  -0.652  0.00  0.00     0.019 A 
BRANCH  16  21
ATOM     21  N   UNL d   1       1.546  -0.101  -2.897  0.00  0.00    -0.302 NA
ATOM     22  H   UNL d   1       2.260  -0.296  -2.189  0.00  0.00     0.124 HD
ATOM     23  H   UNL d   1       1.975   0.180  -3.774  0.00  0.00     0.124 HD
ENDBRANCH  16  21
ENDBRANCH   1  15
TORSDOF 4
