REMARK  3 active torsions:
REMARK  status: ('A' for Active; 'I' for Inactive)
REMARK       I    between atoms: C_5  and  N_1 
REMARK    1  A    between atoms: C_10  and  C_5 
REMARK    2  A    between atoms: C_9  and  N_7 
REMARK    3  A    between atoms: O_22  and  C_17 
ROOT
ATOM      1  N   UNL d   1       0.994   0.504   0.190  0.00  0.00    -0.280 N 
ATOM      2  C   UNL d   1       0.588  -0.840   0.315  0.00  0.00     0.155 C 
ATOM      3  S   UNL d   1      -1.157  -0.855   0.534  0.00  0.00    -0.057 SA
ATOM      4  C   UNL d   1       0.049   1.187  -0.761  0.00  0.00     0.068 C 
ATOM      5  C   UNL d   1       2.287   0.853   0.581  0.00  0.00     0.260 C 
ATOM      6  C   UNL d   1      -1.324   0.643  -0.330  0.00  0.00     0.005 C 
ATOM      7  N   UNL d   1       1.361  -1.863   0.152  0.00  0.00    -0.335 N 
ATOM      8  HN  UNL d   1       2.365  -1.707   0.055  1.00  0.00     0.168 HD
ATOM      9  O   UNL d   1       3.125   0.061   1.012  0.00  0.00    -0.267 OA
ATOM     10  C   UNL d   1      -2.538   1.192  -0.468  0.00  0.00     0.029 C 
ATOM     11  C   UNL d   1       0.002   2.718  -0.843  0.00  0.00     0.044 C 
ATOM     12  C   UNL d   1       0.374   0.700  -2.200  0.00  0.00     0.044 C 
ENDROOT
BRANCH   5  13
ATOM     13  C   UNL d   1       2.736   2.266   0.630  0.00  0.00     0.032 C 
ATOM     14  C   UNL d   1       1.982   3.264   1.257  0.00  0.00     0.020 C 
ATOM     15  C   UNL d   1       2.405   4.598   1.217  0.00  0.00     0.038 C 
ATOM     16  C   UNL d   1       3.638   4.918   0.649  0.00  0.00     0.068 C 
ATOM     17  C   UNL d   1       4.476   3.902   0.194  0.00  0.00     0.038 C 
ATOM     18  C   UNL d   1       4.021   2.580   0.170  0.00  0.00     0.020 C 
BRANCH  16  19
ATOM     19  O   UNL d   1       4.121   6.196   0.587  0.00  0.00    -0.356 OA
ATOM     20  C   UNL d   1       3.220   7.096  -0.060  0.00  0.00     0.210 C 
ENDBRANCH  16  19
ENDBRANCH   5  13
BRANCH   7  21
ATOM     21  C   UNL d   1       0.875  -3.190   0.102  0.00  0.00     0.056 A 
ATOM     22  C   UNL d   1       1.432  -4.203   0.900  0.00  0.00     0.060 A 
ATOM     23 CL   UNL d   1       2.737  -3.877   1.988  0.00  0.00    -0.082 Cl
ATOM     24  C   UNL d   1       0.965  -5.523   0.824  0.00  0.00     0.026 A 
ATOM     25  C   UNL d   1      -0.065  -5.856  -0.058  0.00  0.00     0.002 A 
ATOM     26  C   UNL d   1      -0.599  -4.879  -0.888  0.00  0.00     0.002 A 
ATOM     27  C   UNL d   1      -0.109  -3.570  -0.831  0.00  0.00     0.031 A 
ENDBRANCH   7  21
TORSDOF 3
