REMARK  2 active torsions:
REMARK  status: ('A' for Active; 'I' for Inactive)
REMARK    1  A    between atoms: C_7  and  N_1 
REMARK    2  A    between atoms: N_16  and  C_13 
ROOT
ATOM      1  N   UNL d   1       2.793  -0.001  -0.022  0.00  0.00    -0.242 N 
ATOM      2  C   UNL d   1       2.139   1.230   0.077  0.00  0.00     0.266 A 
ATOM      3  C   UNL d   1       2.143  -1.234  -0.124  0.00  0.00     0.266 A 
ATOM      4  C   UNL d   1       0.656   1.208   0.022  0.00  0.00     0.045 A 
ATOM      5  C   UNL d   1       0.664  -1.225  -0.056  0.00  0.00     0.045 A 
ATOM      6  C   UNL d   1      -0.031  -0.010  -0.016  0.00  0.00     0.007 A 
ATOM      7  C   UNL d   1      -1.454  -0.020  -0.006  0.00  0.00    -0.002 A 
ATOM      8  C   UNL d   1      -0.041   2.422   0.023  0.00  0.00     0.020 A 
ATOM      9  O   UNL d   1       2.702  -2.321  -0.260  0.00  0.00    -0.267 OA
ATOM     10  O   UNL d   1       2.691   2.324   0.192  0.00  0.00    -0.267 OA
ATOM     11  C   UNL d   1      -2.135   1.224   0.003  0.00  0.00     0.045 A 
ATOM     12  C   UNL d   1      -1.431   2.431   0.011  0.00  0.00     0.026 A 
ATOM     13  C   UNL d   1      -0.017  -2.449  -0.059  0.00  0.00     0.018 A 
ATOM     14 CL   UNL d   1      -3.863   1.328   0.005  0.00  0.00    -0.083 Cl
ATOM     15  C   UNL d   1      -2.112  -1.271  -0.015  0.00  0.00     0.014 A 
ATOM     16  C   UNL d   1      -1.404  -2.473  -0.031  0.00  0.00     0.002 A 
ENDROOT
BRANCH   1  17
ATOM     17  C   UNL d   1       4.226  -0.003   0.005  0.00  0.00     0.067 A 
ATOM     18  C   UNL d   1       4.983  -0.528  -1.067  0.00  0.00     0.033 A 
ATOM     19  C   UNL d   1       6.381  -0.448  -1.001  0.00  0.00     0.025 A 
ATOM     20  C   UNL d   1       7.023   0.027   0.144  0.00  0.00     0.002 A 
ATOM     21  C   UNL d   1       6.273   0.497   1.218  0.00  0.00     0.002 A 
ATOM     22  C   UNL d   1       4.881   0.506   1.139  0.00  0.00     0.032 A 
BRANCH  18  23
ATOM     23  N   UNL d   1       4.388  -0.886  -2.299  0.00  0.00    -0.301 NA
ATOM     24  H   UNL d   1       3.489  -1.339  -2.151  0.00  0.00     0.124 HD
ATOM     25  H   UNL d   1       4.988  -1.486  -2.856  0.00  0.00     0.124 HD
ENDBRANCH  18  23
ENDBRANCH   1  17
TORSDOF 2
