REMARK  4 active torsions:
REMARK  status: ('A' for Active; 'I' for Inactive)
REMARK    1  A    between atoms: O_6  and  C_4 
REMARK    2  A    between atoms: O_8  and  C_5 
REMARK    3  A    between atoms: C_7  and  O_6 
REMARK    4  A    between atoms: C_9  and  C_7 
ROOT
ATOM      1  C   UNL d   1      -0.549   0.018   0.139  0.00  0.00     0.111 A 
ATOM      2  C   UNL d   1      -1.969   0.154   0.301  0.00  0.00     0.105 C 
ATOM      3  N   UNL d   1      -3.123   0.240   0.393  0.00  0.00    -0.191 NA
ATOM      4  C   UNL d   1       0.253   1.177   0.074  0.00  0.00     0.092 A 
ATOM      5  C   UNL d   1       0.063  -1.246   0.084  0.00  0.00     0.091 A 
ATOM      6  C   UNL d   1       2.238  -0.204  -0.139  0.00  0.00     0.006 A 
ATOM      7  C   UNL d   1       1.639   1.054  -0.100  0.00  0.00     0.038 A 
ATOM      8  C   UNL d   1       1.454  -1.348  -0.028  0.00  0.00     0.038 A 
ENDROOT
BRANCH   4   9
ATOM      9  O   UNL d   1      -0.386   2.391   0.193  0.00  0.00    -0.345 OA
BRANCH   9  10
ATOM     10  C   UNL d   1       0.428   3.490   0.618  0.00  0.00     0.214 C 
BRANCH  10  11
ATOM     11  C   UNL d   1      -0.403   4.624   1.173  0.00  0.00    -0.034 A 
ATOM     12  C   UNL d   1       0.091   5.373   2.254  0.00  0.00     0.009 A 
ATOM     13  C   UNL d   1      -0.620   6.466   2.751  0.00  0.00     0.001 A 
ATOM     14  C   UNL d   1      -1.830   6.831   2.167  0.00  0.00     0.000 A 
ATOM     15  C   UNL d   1      -2.329   6.101   1.089  0.00  0.00     0.001 A 
ATOM     16  C   UNL d   1      -1.618   5.005   0.591  0.00  0.00     0.009 A 
ENDBRANCH  10  11
ENDBRANCH   9  10
ENDBRANCH   4   9
BRANCH   5  17
ATOM     17  O   UNL d   1      -0.578  -2.447   0.255  0.00  0.00    -0.354 OA
ATOM     18  C   UNL d   1      -1.606  -2.718  -0.697  0.00  0.00     0.210 C 
ENDBRANCH   5  17
TORSDOF 4
