REMARK  4 active torsions:
REMARK  status: ('A' for Active; 'I' for Inactive)
REMARK    1  A    between atoms: C_3  and  N_1 
REMARK    2  A    between atoms: C_2  and  C_7 
REMARK       I    between atoms: N_4  and  C_2 
REMARK    3  A    between atoms: C_15  and  N_4 
REMARK    4  A    between atoms: C_16  and  C_15 
ROOT
ATOM      1  C   UNL d   1      -2.375   2.813   3.586  0.00  0.00     0.251 C 
ATOM      2  N   UNL d   1      -3.509   2.231   4.103  0.00  0.00    -0.351 N 
ATOM      3  O   UNL d   1      -2.054   3.964   3.873  0.00  0.00    -0.268 OA
ATOM      4  H   UNL d   1      -3.823   1.293   3.893  0.00  0.00     0.163 HD
ENDROOT
BRANCH   1   5
ATOM      5  C   UNL d   1      -1.513   2.024   2.652  0.00  0.00     0.032 A 
ATOM      6  C   UNL d   1      -1.795   0.711   2.253  0.00  0.00     0.019 A 
ATOM      7  C   UNL d   1      -0.940   0.043   1.361  0.00  0.00     0.037 A 
ATOM      8  C   UNL d   1       0.200   0.691   0.865  0.00  0.00     0.102 A 
ATOM      9  C   UNL d   1       0.498   1.998   1.260  0.00  0.00     0.037 A 
ATOM     10  C   UNL d   1      -0.359   2.655   2.150  0.00  0.00     0.019 A 
BRANCH   8  11
ATOM     11  N   UNL d   1       1.087  -0.004  -0.079  0.00  0.00    -0.116 N 
ATOM     12  O   UNL d   1       2.067   0.617  -0.513  0.00  0.00    -0.532 OA
ATOM     13  O   UNL d   1       0.799  -1.170  -0.387  0.00  0.00    -0.532 OA
ENDBRANCH   8  11
ENDBRANCH   1   5
BRANCH   2  14
ATOM     14  C   UNL d   1      -4.355   2.987   5.005  0.00  0.00     0.179 C 
BRANCH  14  15
ATOM     15  C   UNL d   1      -5.539   2.207   5.535  0.00  0.00     0.026 A 
ATOM     16  N   UNL d   1      -5.768   0.953   5.057  0.00  0.00    -0.368 N 
ATOM     17  C   UNL d   1      -6.830   0.288   5.569  0.00  0.00     0.088 A 
ATOM     18  HN  UNL d   1      -5.167   0.534   4.346  1.00  0.00     0.165 HD
ATOM     19  C   UNL d   1      -7.678   0.802   6.539  0.00  0.00     0.017 A 
ATOM     20  C   UNL d   1      -7.434   2.085   7.010  0.00  0.00     0.003 A 
ATOM     21  C   UNL d   1      -6.355   2.801   6.500  0.00  0.00     0.027 A 
ENDBRANCH  14  15
ENDBRANCH   2  14
TORSDOF 4
