REMARK  0 active torsions:
REMARK  status: ('A' for Active; 'I' for Inactive)
ROOT
ATOM      1  C   UNL d   1       0.804  -1.719  -0.023  0.00  0.00     0.257 A 
ATOM      2  N   UNL d   1      -0.564  -1.822  -0.034  0.00  0.00    -0.322 N 
ATOM      3  C   UNL d   1       0.541   0.774  -0.018  0.00  0.00    -0.008 A 
ATOM      4  C   UNL d   1       1.387  -0.352  -0.008  0.00  0.00     0.043 A 
ATOM      5  C   UNL d   1      -1.439  -0.730  -0.022  0.00  0.00     0.046 A 
ATOM      6  C   UNL d   1      -0.926   0.581  -0.016  0.00  0.00     0.002 A 
ATOM      7  O   UNL d   1       1.512  -2.720  -0.028  0.00  0.00    -0.267 OA
ATOM      8  C   UNL d   1       1.161   2.038  -0.023  0.00  0.00     0.013 A 
ATOM      9  C   UNL d   1       2.785  -0.222   0.014  0.00  0.00     0.018 A 
ATOM     10  C   UNL d   1      -1.857   1.634   0.003  0.00  0.00     0.014 A 
ATOM     11  C   UNL d   1      -2.815  -0.981  -0.009  0.00  0.00     0.030 A 
ATOM     12  C   UNL d   1       2.555   2.170  -0.006  0.00  0.00     0.001 A 
ATOM     13  C   UNL d   1      -3.235   1.388   0.019  0.00  0.00     0.001 A 
ATOM     14  C   UNL d   1       3.367   1.042   0.017  0.00  0.00     0.001 A 
ATOM     15  C   UNL d   1      -3.713   0.082   0.014  0.00  0.00     0.002 A 
ATOM     16  H   UNL d   1      -0.928  -2.765  -0.045  0.00  0.00     0.169 HD
ENDROOT
TORSDOF 0
