REMARK  5 active torsions:
REMARK  status: ('A' for Active; 'I' for Inactive)
REMARK    1  A    between atoms: C_2  and  N_1 
REMARK       I    between atoms: C_4  and  N_6 
REMARK    2  A    between atoms: C_14  and  C_4 
REMARK    3  A    between atoms: N_6  and  C_11 
REMARK    4  A    between atoms: C_8  and  S_12 
REMARK    5  A    between atoms: S_12  and  C_14 
ROOT
ATOM      1  C   UNL d   1       1.704   3.647  -3.514  0.00  0.00     0.231 C 
ATOM      2  N   UNL d   1       0.612   3.897  -2.693  0.00  0.00    -0.326 N 
ATOM      3  O   UNL d   1       2.492   2.713  -3.388  0.00  0.00    -0.272 OA
ATOM      4  H   UNL d   1       0.037   4.697  -2.937  0.00  0.00     0.169 HD
ENDROOT
BRANCH   1   5
ATOM      5  C   UNL d   1       1.884   4.669  -4.630  0.00  0.00     0.184 C 
BRANCH   5   6
ATOM      6  S   UNL d   1       1.736   3.868  -6.257  0.00  0.00    -0.103 SA
BRANCH   6   7
ATOM      7  C   UNL d   1       0.051   3.304  -6.151  0.00  0.00     0.069 A 
ATOM      8  N   UNL d   1      -0.828   4.088  -5.483  0.00  0.00    -0.361 N 
ATOM      9  C   UNL d   1      -2.110   3.664  -5.438  0.00  0.00     0.089 A 
ATOM     10  HN  UNL d   1      -0.537   4.957  -5.036  1.00  0.00     0.165 HD
ATOM     11  C   UNL d   1      -2.558   2.487  -6.017  0.00  0.00     0.017 A 
ATOM     12  C   UNL d   1      -1.637   1.696  -6.692  0.00  0.00     0.004 A 
ATOM     13  C   UNL d   1      -0.310   2.111  -6.767  0.00  0.00     0.037 A 
ENDBRANCH   6   7
ENDBRANCH   5   6
ENDBRANCH   1   5
BRANCH   2  14
ATOM     14  C   UNL d   1       0.152   3.098  -1.624  0.00  0.00     0.037 A 
ATOM     15  C   UNL d   1       0.723   1.871  -1.278  0.00  0.00     0.065 A 
ATOM     16  C   UNL d   1       0.187   1.117  -0.225  0.00  0.00     0.105 A 
ATOM     17  C   UNL d   1      -0.913   1.584   0.503  0.00  0.00     0.036 A 
ATOM     18  C   UNL d   1      -1.479   2.813   0.168  0.00  0.00     0.005 A 
ATOM     19  C   UNL d   1      -0.952   3.561  -0.892  0.00  0.00     0.029 A 
BRANCH  16  20
ATOM     20  N   UNL d   1       0.781  -0.185   0.106  0.00  0.00    -0.116 N 
ATOM     21  O   UNL d   1       1.736  -0.584  -0.571  0.00  0.00    -0.532 OA
ATOM     22  O   UNL d   1       0.279  -0.818   1.049  0.00  0.00    -0.532 OA
ENDBRANCH  16  20
ENDBRANCH   2  14
TORSDOF 5
