REMARK  3 active torsions:
REMARK  status: ('A' for Active; 'I' for Inactive)
REMARK    1  A    between atoms: C_2  and  S_1 
REMARK    2  A    between atoms: N_3  and  S_1 
REMARK    3  A    between atoms: N_5  and  C_6 
REMARK       I    between atoms: C_10  and  N_5 
ROOT
ATOM      1  C   UNL d   1       0.356   0.028   1.681  0.00  0.00     0.076 A 
ATOM      2  C   UNL d   1       0.599   1.138   2.490  0.00  0.00     0.050 A 
ATOM      3  C   UNL d   1      -0.643   0.066   4.308  0.00  0.00     0.056 A 
ATOM      4  C   UNL d   1       0.097   1.152   3.794  0.00  0.00     0.062 A 
ATOM      5  C   UNL d   1      -0.370  -1.059   2.168  0.00  0.00     0.027 A 
ATOM      6  C   UNL d   1      -0.866  -1.037   3.477  0.00  0.00     0.033 A 
ATOM      7 CL   UNL d   1       0.423   2.544   4.772  0.00  0.00    -0.082 Cl
ENDROOT
BRANCH   1   8
ATOM      8  S   UNL d   1       1.080  -0.041   0.063  0.00  0.00     0.243 S 
ATOM      9  O   UNL d   1       0.620  -1.246  -0.593  0.00  0.00    -0.206 OA
ATOM     10  O   UNL d   1       2.494   0.226   0.235  0.00  0.00    -0.206 OA
BRANCH   8  11
ATOM     11  N   UNL d   1       0.378   1.296  -0.774  0.00  0.00    -0.206 NA
ATOM     12  C   UNL d   1      -1.089   1.147  -1.020  0.00  0.00     0.107 C 
ATOM     13  C   UNL d   1      -1.646   2.395  -1.704  0.00  0.00     0.015 C 
ATOM     14  C   UNL d   1      -0.914   2.675  -3.011  0.00  0.00     0.002 C 
ATOM     15  C   UNL d   1       0.578   2.809  -2.747  0.00  0.00     0.015 C 
ATOM     16  C   UNL d   1       1.128   1.575  -2.042  0.00  0.00     0.107 C 
ENDBRANCH   8  11
ENDBRANCH   1   8
BRANCH   3  17
ATOM     17  N   UNL d   1      -1.119   0.139   5.642  0.00  0.00    -0.326 N 
ATOM     18  C   UNL d   1      -1.854  -0.807   6.330  0.00  0.00     0.218 C 
ATOM     19  O   UNL d   1      -2.228  -1.895   5.903  0.00  0.00    -0.274 OA
ATOM     20  C   UNL d   1      -2.209  -0.385   7.735  0.00  0.00     0.117 C 
ATOM     21  H   UNL d   1      -0.878   0.995   6.130  0.00  0.00     0.169 HD
ENDBRANCH   3  17
TORSDOF 3
