REMARK  7 active torsions:
REMARK  status: ('A' for Active; 'I' for Inactive)
REMARK    1  A    between atoms: C_3  and  S_23 
REMARK    2  A    between atoms: S_22  and  C_4 
REMARK    3  A    between atoms: C_25  and  C_5 
REMARK    4  A    between atoms: C_26  and  C_6 
REMARK    5  A    between atoms: C_19  and  S_22 
REMARK    6  A    between atoms: S_23  and  C_20 
REMARK    7  A    between atoms: S_27  and  C_21 
ROOT
ATOM      1  N   UNL d   1      -3.335   3.320  -1.151  0.00  0.00    -0.331 N 
ATOM      2  HN  UNL d   1      -2.845   3.685  -1.968  1.00  0.00     0.168 HD
ATOM      3  N   UNL d   1      -5.371   2.980   0.026  0.00  0.00    -0.331 N 
ATOM      4  HN  UNL d   1      -6.381   3.109   0.084  1.00  0.00     0.168 HD
ATOM      5  C   UNL d   1      -2.679   2.717  -0.141  0.00  0.00     0.082 A 
ATOM      6  C   UNL d   1      -4.677   2.362   1.005  0.00  0.00     0.082 A 
ATOM      7  C   UNL d   1      -4.664   3.415  -1.026  0.00  0.00     0.145 A 
ATOM      8  C   UNL d   1      -3.312   2.204   0.968  0.00  0.00     0.074 A 
ENDROOT
BRANCH   5   9
ATOM      9  S   UNL d   1      -0.900   2.732  -0.201  0.00  0.00    -0.035 SA
BRANCH   9  10
ATOM     10  C   UNL d   1      -0.633   1.855  -1.657  0.00  0.00     0.167 A 
ATOM     11  N   UNL d   1      -1.088   2.268  -2.873  0.00  0.00    -0.320 N 
ATOM     12  C   UNL d   1      -0.563   1.394  -3.797  0.00  0.00     0.132 A 
ATOM     13  H   UNL d   1      -1.679   3.067  -3.041  0.00  0.00     0.169 HD
ATOM     14  N   UNL d   1       0.149   0.493  -3.139  0.00  0.00    -0.283 N 
ATOM     15  N   UNL d   1       0.114   0.791  -1.797  0.00  0.00    -0.278 N 
ATOM     16  HN  UNL d   1       0.643  -0.295  -3.559  1.00  0.00     0.188 HD
ATOM     17  HN  UNL d   1       0.584   0.279  -1.050  1.00  0.00     0.189 HD
BRANCH  12  18
ATOM     18  C   UNL d   1      -0.745   1.454  -5.249  0.00  0.00     0.009 A 
ATOM     19  C   UNL d   1      -1.544   2.419  -5.880  0.00  0.00     0.015 A 
ATOM     20  C   UNL d   1      -1.679   2.433  -7.274  0.00  0.00     0.001 A 
ATOM     21  C   UNL d   1      -1.017   1.487  -8.056  0.00  0.00     0.000 A 
ATOM     22  C   UNL d   1      -0.218   0.525  -7.447  0.00  0.00     0.001 A 
ATOM     23  C   UNL d   1      -0.084   0.511  -6.056  0.00  0.00     0.015 A 
ENDBRANCH  12  18
ENDBRANCH   9  10
ENDBRANCH   5   9
BRANCH   7  24
ATOM     24  S   UNL d   1      -5.512   4.308  -2.302  0.00  0.00    -0.098 SA
ATOM     25  C   UNL d   1      -7.108   3.455  -2.281  0.00  0.00     0.099 C 
ENDBRANCH   7  24
BRANCH   6  26
ATOM     26  S   UNL d   1      -5.603   1.746   2.402  0.00  0.00    -0.035 SA
BRANCH  26  27
ATOM     27  C   UNL d   1      -6.286   3.210   3.007  0.00  0.00     0.167 A 
ATOM     28  N   UNL d   1      -6.655   4.244   2.206  0.00  0.00    -0.320 N 
ATOM     29  C   UNL d   1      -7.112   5.243   3.025  0.00  0.00     0.132 A 
ATOM     30  H   UNL d   1      -6.560   4.264   1.202  0.00  0.00     0.169 HD
ATOM     31  N   UNL d   1      -7.087   4.782   4.265  0.00  0.00    -0.283 N 
ATOM     32  N   UNL d   1      -6.572   3.500   4.252  0.00  0.00    -0.278 N 
ATOM     33  HN  UNL d   1      -7.397   5.290   5.094  1.00  0.00     0.188 HD
ATOM     34  HN  UNL d   1      -6.439   2.893   5.060  1.00  0.00     0.189 HD
BRANCH  29  35
ATOM     35  C   UNL d   1      -7.528   6.571   2.575  0.00  0.00     0.009 A 
ATOM     36  C   UNL d   1      -7.432   6.970   1.232  0.00  0.00     0.015 A 
ATOM     37  C   UNL d   1      -7.819   8.254   0.837  0.00  0.00     0.001 A 
ATOM     38  C   UNL d   1      -8.308   9.157   1.777  0.00  0.00     0.000 A 
ATOM     39  C   UNL d   1      -8.411   8.778   3.113  0.00  0.00     0.001 A 
ATOM     40  C   UNL d   1      -8.023   7.495   3.509  0.00  0.00     0.015 A 
ENDBRANCH  29  35
ENDBRANCH  26  27
ENDBRANCH   6  26
TORSDOF 7
