REMARK  5 active torsions:
REMARK  status: ('A' for Active; 'I' for Inactive)
REMARK    1  A    between atoms: N_8  and  S_1 
REMARK    2  A    between atoms: C_12  and  S_1 
REMARK    3  A    between atoms: C_2  and  C_9 
REMARK    4  A    between atoms: C_13  and  C_5 
REMARK    5  A    between atoms: C_9  and  N_8 
ROOT
ATOM      1  C   UNL d   1       0.526  -0.736  -3.862  0.00  0.00     0.017 A 
ATOM      2  N   UNL d   1       0.104  -2.460  -5.303  0.00  0.00    -0.260 N 
ATOM      3  HN  UNL d   1       0.035  -3.390  -5.718  1.00  0.00     0.195 HD
ATOM      4  C   UNL d   1       0.571  -2.164  -4.079  0.00  0.00     0.075 A 
ATOM      5  O   UNL d   1      -0.262  -1.280  -5.888  0.00  0.00    -0.242 OA
ATOM      6  C   UNL d   1      -0.019  -0.253  -5.041  0.00  0.00     0.082 A 
ATOM      7  C   UNL d   1      -0.401   1.076  -5.559  0.00  0.00     0.079 C 
ENDROOT
BRANCH   1   8
ATOM      8  C   UNL d   1       0.983   0.016  -2.653  0.00  0.00     0.148 C 
BRANCH   8   9
ATOM      9  N   UNL d   1       0.181   1.223  -2.442  0.00  0.00    -0.211 NA
ATOM     10  H   UNL d   1       0.062   1.831  -3.244  0.00  0.00     0.140 HD
BRANCH   9  11
ATOM     11  S   UNL d   1       0.530   2.152  -1.078  0.00  0.00     0.241 S 
ATOM     12  O   UNL d   1       0.802   1.264   0.026  0.00  0.00    -0.206 OA
ATOM     13  O   UNL d   1      -0.485   3.180  -1.014  0.00  0.00    -0.206 OA
BRANCH  11  14
ATOM     14  C   UNL d   1       2.052   2.953  -1.541  0.00  0.00     0.074 A 
ATOM     15  C   UNL d   1       2.005   4.148  -2.268  0.00  0.00     0.025 A 
ATOM     16  C   UNL d   1       3.193   4.812  -2.578  0.00  0.00     0.002 A 
ATOM     17  C   UNL d   1       4.416   4.287  -2.156  0.00  0.00     0.000 A 
ATOM     18  C   UNL d   1       4.457   3.100  -1.423  0.00  0.00     0.002 A 
ATOM     19  C   UNL d   1       3.274   2.431  -1.106  0.00  0.00     0.025 A 
ENDBRANCH  11  14
ENDBRANCH   9  11
ENDBRANCH   8   9
ENDBRANCH   1   8
BRANCH   4  20
ATOM     20  C   UNL d   1       1.001  -3.256  -3.196  0.00  0.00    -0.007 A 
ATOM     21  C   UNL d   1       2.050  -3.113  -2.281  0.00  0.00     0.014 A 
ATOM     22  C   UNL d   1       2.409  -4.172  -1.437  0.00  0.00     0.001 A 
ATOM     23  C   UNL d   1       1.740  -5.392  -1.514  0.00  0.00     0.000 A 
ATOM     24  C   UNL d   1       0.716  -5.561  -2.440  0.00  0.00     0.001 A 
ATOM     25  C   UNL d   1       0.350  -4.501  -3.273  0.00  0.00     0.014 A 
ENDBRANCH   4  20
TORSDOF 5
