REMARK  4 active torsions:
REMARK  status: ('A' for Active; 'I' for Inactive)
REMARK    1  A    between atoms: C_7  and  N_1 
REMARK    2  A    between atoms: N_11  and  C_2 
REMARK    3  A    between atoms: N_10  and  C_4 
REMARK    4  A    between atoms: C_12  and  C_7 
ROOT
ATOM      1  N   UNL d   1      -0.740   1.138  -0.082  0.00  0.00    -0.284 N 
ATOM      2  C   UNL d   1      -1.468  -0.051  -0.208  0.00  0.00     0.116 C 
ATOM      3  C   UNL d   1       0.637   1.158   0.111  0.00  0.00     0.331 C 
ATOM      4  C   UNL d   1      -0.862  -1.252   0.000  0.00  0.00     0.135 C 
ATOM      5  N   UNL d   1       1.262  -0.043   0.115  0.00  0.00    -0.273 N 
ATOM      6  C   UNL d   1       0.630  -1.232   0.223  0.00  0.00     0.279 C 
ATOM      7  O   UNL d   1       1.298   2.179   0.296  0.00  0.00    -0.246 OA
ATOM      8  O   UNL d   1       1.246  -2.265   0.484  0.00  0.00    -0.265 OA
ATOM      9  H   UNL d   1       2.250  -0.033   0.307  0.00  0.00     0.173 HD
ENDROOT
BRANCH   1  10
ATOM     10  C   UNL d   1      -1.418   2.439  -0.002  0.00  0.00     0.173 C 
BRANCH  10  11
ATOM     11  C   UNL d   1      -1.732   3.057  -1.347  0.00  0.00    -0.040 A 
ATOM     12  C   UNL d   1      -3.044   3.444  -1.664  0.00  0.00     0.009 A 
ATOM     13  C   UNL d   1      -3.333   4.021  -2.901  0.00  0.00     0.001 A 
ATOM     14  C   UNL d   1      -2.315   4.231  -3.828  0.00  0.00     0.000 A 
ATOM     15  C   UNL d   1      -1.005   3.876  -3.517  0.00  0.00     0.001 A 
ATOM     16  C   UNL d   1      -0.714   3.298  -2.281  0.00  0.00     0.009 A 
ENDBRANCH  10  11
ENDBRANCH   1  10
BRANCH   2  17
ATOM     17  N   UNL d   1      -2.822  -0.011  -0.518  0.00  0.00    -0.286 NA
ATOM     18  H   UNL d   1      -3.114   0.879  -0.901  0.00  0.00     0.125 HD
ATOM     19  H   UNL d   1      -3.373  -0.242   0.306  0.00  0.00     0.125 HD
ENDBRANCH   2  17
BRANCH   4  20
ATOM     20  N   UNL d   1      -1.402  -2.537   0.062  0.00  0.00    -0.387 N 
ATOM     21  C   UNL d   1      -2.705  -3.046  -0.269  0.00  0.00     0.146 C 
ATOM     22  H   UNL d   1      -0.665  -3.245   0.126  0.00  0.00     0.159 HD
ENDBRANCH   4  20
TORSDOF 4
