REMARK  2 active torsions:
REMARK  status: ('A' for Active; 'I' for Inactive)
REMARK    1  A    between atoms: N_4  and  C_5 
REMARK    2  A    between atoms: C_6  and  N_4 
ROOT
ATOM      1  N   UNL d   1       0.103   1.028  -0.288  0.00  0.00     0.101 N 
ATOM      2  C   UNL d   1       1.339   0.284   0.018  0.00  0.00     0.153 C 
ATOM      3  C   UNL d   1      -1.186   0.389   0.036  0.00  0.00     0.153 C 
ATOM      4  C   UNL d   1      -0.028  -1.884   0.137  0.00  0.00     0.086 C 
ATOM      5  C   UNL d   1      -1.223  -1.088  -0.398  0.00  0.00     0.066 C 
ATOM      6  C   UNL d   1       1.248  -1.203  -0.383  0.00  0.00     0.066 C 
ATOM      7  C   UNL d   1      -2.273   1.144  -0.764  0.00  0.00     0.048 C 
ATOM      8  C   UNL d   1      -1.542   0.565   1.524  0.00  0.00     0.048 C 
ATOM      9  C   UNL d   1       2.460   0.942  -0.824  0.00  0.00     0.048 C 
ATOM     10  C   UNL d   1       1.749   0.441   1.492  0.00  0.00     0.048 C 
ATOM     11  H   UNL d   1       0.102   1.251  -1.286  0.00  0.00     0.317 HD
ENDROOT
BRANCH   4  12
ATOM     12  N   UNL d   1      -0.057  -3.271  -0.362  0.00  0.00    -0.385 N 
ATOM     13  H   UNL d   1       0.846  -3.574  -0.707  0.00  0.00     0.160 HD
BRANCH  12  14
ATOM     14  C   UNL d   1      -0.722  -4.290   0.332  0.00  0.00     0.034 A 
ATOM     15  C   UNL d   1      -0.426  -5.655   0.083  0.00  0.00    -0.036 A 
ATOM     16  C   UNL d   1       0.681  -6.126  -0.824  0.00  0.00     0.050 C 
ATOM     17  C   UNL d   1      -1.211  -6.668   0.677  0.00  0.00     0.009 A 
ATOM     18  C   UNL d   1      -2.276  -6.359   1.517  0.00  0.00     0.001 A 
ATOM     19  C   UNL d   1      -2.570  -5.031   1.776  0.00  0.00     0.002 A 
ATOM     20  C   UNL d   1      -1.804  -4.019   1.188  0.00  0.00     0.029 A 
ENDBRANCH  12  14
ENDBRANCH   4  12
TORSDOF 2
