REMARK  3 active torsions:
REMARK  status: ('A' for Active; 'I' for Inactive)
REMARK    1  A    between atoms: C_6  and  C_1 
REMARK    2  A    between atoms: C_5  and  C_2 
REMARK       I    between atoms: N_9  and  C_5 
REMARK    3  A    between atoms: C_12  and  N_9 
ROOT
ATOM      1  C   UNL d   1       0.105  -5.041  -0.466  0.00  0.00    -0.086 C 
ATOM      2  C   UNL d   1       0.210  -5.353  -1.627  0.00  0.00     0.015 C 
ATOM      3  C   UNL d   1      -0.048  -4.537   0.921  0.00  0.00     0.088 C 
ATOM      4  C   UNL d   1       1.322  -4.415   1.611  0.00  0.00     0.053 C 
ATOM      5  C   UNL d   1      -0.890  -5.568   1.692  0.00  0.00     0.053 C 
ENDROOT
BRANCH   3   6
ATOM      6  N   UNL d   1      -0.733  -3.233   0.909  0.00  0.00    -0.337 N 
ATOM      7  C   UNL d   1      -0.264  -2.190   0.133  0.00  0.00     0.257 C 
ATOM      8  O   UNL d   1       0.733  -2.314  -0.578  0.00  0.00    -0.267 OA
ATOM      9  H   UNL d   1      -1.453  -3.055   1.592  0.00  0.00     0.164 HD
BRANCH   7  10
ATOM     10  C   UNL d   1      -0.924  -0.900   0.211  0.00  0.00     0.092 A 
ATOM     11  C   UNL d   1      -2.286  -0.405   0.286  0.00  0.00     0.086 A 
ATOM     12  N   UNL d   1      -2.253   0.938   0.196  0.00  0.00    -0.259 N 
ATOM     13  O   UNL d   1      -0.954   1.336   0.153  0.00  0.00    -0.241 OA
ATOM     14  HN  UNL d   1      -3.066   1.553   0.165  1.00  0.00     0.195 HD
ATOM     15  C   UNL d   1      -0.152   0.256   0.151  0.00  0.00     0.090 A 
ATOM     16  C   UNL d   1       1.296   0.542   0.087  0.00  0.00     0.080 C 
BRANCH  11  17
ATOM     17  C   UNL d   1      -3.612  -1.063   0.459  0.00  0.00     0.037 C 
ATOM     18  C   UNL d   1      -4.695  -0.410   1.118  0.00  0.00     0.048 C 
ATOM     19 CL   UNL d   1      -4.754   1.279   1.532  0.00  0.00    -0.083 Cl
ATOM     20  C   UNL d   1      -5.871  -1.098   1.469  0.00  0.00     0.025 C 
ATOM     21  C   UNL d   1      -6.011  -2.445   1.186  0.00  0.00     0.003 C 
ATOM     22  C   UNL d   1      -5.029  -3.073   0.435  0.00  0.00     0.025 C 
ATOM     23  C   UNL d   1      -3.880  -2.373   0.019  0.00  0.00     0.048 C 
ATOM     24 CL   UNL d   1      -2.968  -3.164  -1.221  0.00  0.00    -0.083 Cl
ENDBRANCH  11  17
ENDBRANCH   7  10
ENDBRANCH   3   6
TORSDOF 3
