REMARK  6 active torsions:
REMARK  status: ('A' for Active; 'I' for Inactive)
REMARK    1  A    between atoms: N_2  and  C_1 
REMARK    2  A    between atoms: N_3  and  C_1 
REMARK    3  A    between atoms: C_7  and  N_2 
REMARK    4  A    between atoms: C_9  and  N_2 
REMARK    5  A    between atoms: C_6  and  N_3 
REMARK    6  A    between atoms: C_14  and  C_9 
ROOT
ATOM      1  N   UNL d   1       0.066  -0.980   0.849  0.00  0.00    -0.320 N 
ENDROOT
BRANCH   1   2
ATOM      2  C   UNL d   1       0.723  -0.101  -0.024  0.00  0.00     0.179 C 
ATOM      3  S   UNL d   1       2.325  -0.223  -0.531  0.00  0.00    -0.040 SA
BRANCH   2   4
ATOM      4  N   UNL d   1       0.016   0.930  -0.582  0.00  0.00    -0.332 N 
ATOM      5  H   UNL d   1       0.368   1.240  -1.482  0.00  0.00     0.168 HD
BRANCH   4   6
ATOM      6  C   UNL d   1      -0.916   1.818   0.005  0.00  0.00     0.056 A 
ATOM      7  C   UNL d   1      -1.700   2.628  -0.836  0.00  0.00     0.060 A 
ATOM      8 CL   UNL d   1      -1.646   2.445  -2.557  0.00  0.00    -0.082 Cl
ATOM      9  C   UNL d   1      -2.567   3.584  -0.303  0.00  0.00     0.026 A 
ATOM     10  C   UNL d   1      -2.637   3.761   1.077  0.00  0.00     0.002 A 
ATOM     11  C   UNL d   1      -1.859   2.967   1.920  0.00  0.00     0.002 A 
ATOM     12  C   UNL d   1      -1.010   1.989   1.389  0.00  0.00     0.031 A 
ENDBRANCH   4   6
ENDBRANCH   2   4
ENDBRANCH   1   2
BRANCH   1  13
ATOM     13  C   UNL d   1      -1.339  -1.321   0.694  0.00  0.00     0.037 A 
ATOM     14  C   UNL d   1      -1.970  -1.231  -0.564  0.00  0.00     0.033 A 
ATOM     15  C   UNL d   1      -3.312  -1.582  -0.736  0.00  0.00     0.044 A 
ATOM     16  C   UNL d   1      -4.038  -2.046   0.346  0.00  0.00     0.116 A 
ATOM     17  C   UNL d   1      -3.445  -2.169   1.596  0.00  0.00     0.044 A 
ATOM     18  F   UNL d   1      -5.322  -2.390   0.185  0.00  0.00    -0.206 F 
ATOM     19  C   UNL d   1      -2.102  -1.813   1.766  0.00  0.00     0.033 A 
ENDBRANCH   1  13
BRANCH   1  20
ATOM     20  C   UNL d   1       0.855  -1.843   1.765  0.00  0.00     0.170 C 
BRANCH  20  21
ATOM     21  C   UNL d   1       1.150  -3.258   1.282  0.00  0.00    -0.037 A 
ATOM     22  C   UNL d   1       0.879  -3.699  -0.025  0.00  0.00     0.048 A 
ATOM     23  C   UNL d   1       1.211  -4.992  -0.372  0.00  0.00     0.105 A 
ATOM     24  O   UNL d   1       1.012  -5.561  -1.592  0.00  0.00    -0.323 OA
ATOM     25  C   UNL d   1       1.803  -5.853   0.519  0.00  0.00     0.105 A 
ATOM     26  C   UNL d   1       1.576  -6.870  -1.374  0.00  0.00     0.352 A 
ATOM     27  O   UNL d   1       2.053  -7.073  -0.026  0.00  0.00    -0.323 OA
ATOM     28  C   UNL d   1       2.097  -5.467   1.807  0.00  0.00     0.040 A 
ATOM     29  C   UNL d   1       1.770  -4.159   2.186  0.00  0.00     0.012 A 
ENDBRANCH  20  21
ENDBRANCH   1  20
TORSDOF 6
