REMARK  4 active torsions:
REMARK  status: ('A' for Active; 'I' for Inactive)
REMARK    1  A    between atoms: C_3  and  CA_1 
REMARK    2  A    between atoms: N_4  and  CA_1 
REMARK    3  A    between atoms: C_7  and  C_2 
REMARK    4  A    between atoms: OXT_14  and  C_3 
REMARK       I    between atoms: C_5  and  N_4 
ROOT
ATOM      1  CA  UNL d   1       0.983   0.031   0.002  0.00  0.00     0.110 C 
ATOM      2  C   UNL d   1       0.462   0.890   0.901  0.00  0.00     0.048 C 
ENDROOT
BRANCH   1   3
ATOM      3  C   UNL d   1       2.445  -0.285  -0.205  0.00  0.00     0.193 C 
ATOM      4  O   UNL d   1       2.760  -1.256  -0.890  0.00  0.00    -0.645 OA
BRANCH   3   5
ATOM      5  OXT UNL d   1       3.369   0.532   0.317  0.00  0.00    -0.772 OA
ATOM      6  HXT UNL d   1       3.037   1.337   0.747  0.00  0.00     0.167 HD
ENDBRANCH   3   5
ENDBRANCH   1   3
BRANCH   1   7
ATOM      7  N   UNL d   1       0.184  -0.717  -0.867  0.00  0.00    -0.322 N 
ATOM      8  C   UNL d   1      -1.186  -0.717  -1.032  0.00  0.00     0.218 C 
ATOM      9  O   UNL d   1      -1.991  -0.041  -0.400  0.00  0.00    -0.274 OA
ATOM     10  C   UNL d   1      -1.665  -1.648  -2.118  0.00  0.00     0.117 C 
ATOM     11  H   UNL d   1       0.728  -1.344  -1.462  0.00  0.00     0.169 HD
ENDBRANCH   1   7
BRANCH   2  12
ATOM     12  C   UNL d   1       1.115   1.771   1.868  0.00  0.00    -0.032 A 
ATOM     13  C   UNL d   1       1.409   1.335   3.163  0.00  0.00     0.037 A 
ATOM     14  C   UNL d   1       1.980   2.220   4.087  0.00  0.00     0.056 A 
ATOM     15 CL   UNL d   1       2.287   1.629   5.681  0.00  0.00    -0.083 Cl
ATOM     16  C   UNL d   1       2.271   3.536   3.708  0.00  0.00     0.055 A 
ATOM     17  C   UNL d   1       1.992   3.964   2.407  0.00  0.00     0.026 A 
ATOM     18 CL   UNL d   1       2.962   4.686   4.797  0.00  0.00    -0.083 Cl
ATOM     19  C   UNL d   1       1.407   3.088   1.492  0.00  0.00     0.013 A 
ENDBRANCH   2  12
TORSDOF 4
