REMARK  6 active torsions:
REMARK  status: ('A' for Active; 'I' for Inactive)
REMARK    1  A    between atoms: N_4  and  S_1 
REMARK    2  A    between atoms: C_8  and  S_1 
REMARK    3  A    between atoms: N_3  and  C_2 
REMARK    4  A    between atoms: C_7  and  N_4 
REMARK    5  A    between atoms: C_5  and  S_6 
REMARK    6  A    between atoms: S_6  and  C_10 
ROOT
ATOM      1  C   UNL d   1       0.651  -2.576  -0.801  0.00  0.00     0.059 A 
ATOM      2  C   UNL d   1       1.980  -2.757  -1.242  0.00  0.00     0.033 A 
ATOM      3  C   UNL d   1      -0.367  -3.417  -1.274  0.00  0.00     0.031 A 
ATOM      4  C   UNL d   1       2.246  -3.781  -2.166  0.00  0.00     0.021 A 
ATOM      5  C   UNL d   1      -0.084  -4.423  -2.195  0.00  0.00     0.002 A 
ATOM      6  C   UNL d   1       1.221  -4.606  -2.639  0.00  0.00     0.002 A 
ENDROOT
BRANCH   1   7
ATOM      7  N   UNL d   1       0.269  -1.541   0.114  0.00  0.00    -0.279 N 
ATOM      8  H   UNL d   1      -0.392  -1.808   0.842  0.00  0.00     0.179 HD
BRANCH   7   9
ATOM      9  S   UNL d   1      -0.127  -0.008  -0.496  0.00  0.00     0.263 S 
ATOM     10  O   UNL d   1       0.949   0.495  -1.316  0.00  0.00    -0.200 OA
ATOM     11  O   UNL d   1      -0.630   0.743   0.636  0.00  0.00    -0.200 OA
BRANCH   9  12
ATOM     12  C   UNL d   1      -1.521  -0.319  -1.569  0.00  0.00     0.080 A 
ATOM     13  C   UNL d   1      -2.823  -0.272  -1.052  0.00  0.00     0.028 A 
ATOM     14  C   UNL d   1      -3.908  -0.483  -1.907  0.00  0.00     0.044 A 
ATOM     15  C   UNL d   1      -3.683  -0.726  -3.260  0.00  0.00     0.116 A 
ATOM     16  C   UNL d   1      -2.393  -0.752  -3.781  0.00  0.00     0.044 A 
ATOM     17  F   UNL d   1      -4.727  -0.931  -4.073  0.00  0.00    -0.206 F 
ATOM     18  C   UNL d   1      -1.303  -0.537  -2.936  0.00  0.00     0.028 A 
ENDBRANCH   9  12
ENDBRANCH   7   9
ENDBRANCH   1   7
BRANCH   2  19
ATOM     19  S   UNL d   1       3.371  -1.761  -0.693  0.00  0.00    -0.086 SA
BRANCH  19  20
ATOM     20  C   UNL d   1       4.074  -2.775   0.604  0.00  0.00     0.038 A 
ATOM     21  C   UNL d   1       5.364  -3.333   0.591  0.00  0.00     0.121 A 
ATOM     22  C   UNL d   1       5.870  -4.080   1.668  0.00  0.00     0.061 A 
ATOM     23  C   UNL d   1       5.071  -4.267   2.789  0.00  0.00     0.036 A 
ATOM     24  C   UNL d   1       3.800  -3.701   2.847  0.00  0.00     0.025 A 
ATOM     25 CL   UNL d   1       5.655  -5.193   4.113  0.00  0.00    -0.084 Cl
ATOM     26  C   UNL d   1       3.311  -2.958   1.768  0.00  0.00     0.023 A 
BRANCH  21  27
ATOM     27  N   UNL d   1       6.254  -3.148  -0.537  0.00  0.00    -0.114 N 
ATOM     28  O   UNL d   1       5.914  -3.653  -1.616  0.00  0.00    -0.532 OA
ATOM     29  O   UNL d   1       7.324  -2.569  -0.316  0.00  0.00    -0.532 OA
ENDBRANCH  21  27
ENDBRANCH  19  20
ENDBRANCH   2  19
TORSDOF 6
