REMARK  3 active torsions:
REMARK  status: ('A' for Active; 'I' for Inactive)
REMARK    1  A    between atoms: C_4  and  C_1 
REMARK    2  A    between atoms: C_7  and  N_3 
REMARK    3  A    between atoms: C_13  and  C_7 
ROOT
ATOM      1  C   UNL d   1      -0.329  -0.731   1.247  0.00  0.00     0.115 C 
ATOM      2  C   UNL d   1       0.820   0.211   1.194  0.00  0.00     0.262 C 
ATOM      3  N   UNL d   1       1.149   0.703  -0.076  0.00  0.00    -0.320 N 
ATOM      4  C   UNL d   1      -1.099  -0.882   0.154  0.00  0.00     0.023 C 
ATOM      5  C   UNL d   1       0.328   0.519  -1.175  0.00  0.00     0.094 C 
ATOM      6  O   UNL d   1       1.438   0.514   2.211  0.00  0.00    -0.267 OA
ATOM      7  C   UNL d   1      -0.797  -0.201  -1.077  0.00  0.00     0.018 C 
ENDROOT
BRANCH   3   8
ATOM      8  C   UNL d   1       2.438   1.382  -0.244  0.00  0.00     0.170 C 
BRANCH   8   9
ATOM      9  C   UNL d   1       3.554   0.368  -0.410  0.00  0.00    -0.040 A 
ATOM     10  C   UNL d   1       3.904  -0.121  -1.675  0.00  0.00     0.009 A 
ATOM     11  C   UNL d   1       4.827  -1.165  -1.800  0.00  0.00     0.007 A 
ATOM     12  C   UNL d   1       5.409  -1.740  -0.664  0.00  0.00    -0.062 A 
ATOM     13  C   UNL d   1       5.089  -1.229   0.596  0.00  0.00     0.007 A 
ATOM     14  C   UNL d   1       6.314  -2.929  -0.800  0.00  0.00     0.048 C 
ATOM     15  C   UNL d   1       4.176  -0.181   0.720  0.00  0.00     0.009 A 
ENDBRANCH   8   9
ENDBRANCH   3   8
BRANCH   1  16
ATOM     16  C   UNL d   1      -0.526  -1.518   2.488  0.00  0.00     0.422 C 
ATOM     17  F   UNL d   1       0.430  -1.404   3.440  0.00  0.00    -0.166 F 
ATOM     18  F   UNL d   1      -1.710  -1.208   3.085  0.00  0.00    -0.166 F 
ATOM     19  F   UNL d   1      -0.600  -2.850   2.199  0.00  0.00    -0.166 F 
ENDBRANCH   1  16
TORSDOF 3
