REMARK  8 active torsions:
REMARK  status: ('A' for Active; 'I' for Inactive)
REMARK    1  A    between atoms: N_2  and  C_1 
REMARK    2  A    between atoms: N_4  and  C_1 
REMARK    3  A    between atoms: C_3  and  N_2 
REMARK    4  A    between atoms: C_10  and  C_3 
REMARK    5  A    between atoms: C_8  and  N_4 
REMARK    6  A    between atoms: O_9  and  C_10 
REMARK    7  A    between atoms: C_11  and  O_9 
REMARK    8  A    between atoms: O_23  and  C_13 
ROOT
ATOM      1  C   UNL d   1       1.175   1.649   1.943  0.00  0.00     0.101 C 
ATOM      2  N   UNL d   1       2.454   1.741   2.007  0.00  0.00    -0.387 N 
ATOM      3  HN  UNL d   1       2.972   2.274   2.706  1.00  0.00     0.157 HD
ATOM      4  H   UNL d   1       2.876   1.192   1.243  0.00  0.00     0.157 HD
ENDROOT
BRANCH   1   5
ATOM      5  N   UNL d   1       0.500   0.964   0.940  0.00  0.00    -0.321 N 
ATOM      6  H   UNL d   1      -0.488   0.843   1.119  0.00  0.00     0.169 HD
BRANCH   5   7
ATOM      7  C   UNL d   1       0.908   0.325  -0.227  0.00  0.00     0.177 C 
ATOM      8  S   UNL d   1       2.466  -0.091  -0.645  0.00  0.00    -0.040 SA
BRANCH   7   9
ATOM      9  N   UNL d   1      -0.120  -0.018  -1.079  0.00  0.00    -0.333 N 
ATOM     10  H   UNL d   1       0.120  -0.731  -1.764  0.00  0.00     0.168 HD
BRANCH   9  11
ATOM     11  C   UNL d   1      -1.351   0.642  -1.277  0.00  0.00     0.034 A 
ATOM     12  C   UNL d   1      -1.552   1.983  -0.924  0.00  0.00     0.031 A 
ATOM     13  C   UNL d   1      -2.781   2.602  -1.161  0.00  0.00     0.026 A 
ATOM     14  C   UNL d   1      -3.812   1.884  -1.758  0.00  0.00     0.034 A 
ATOM     15  C   UNL d   1      -3.616   0.557  -2.135  0.00  0.00     0.026 A 
ATOM     16 CL   UNL d   1      -5.326   2.646  -2.047  0.00  0.00    -0.084 Cl
ATOM     17  C   UNL d   1      -2.380  -0.059  -1.911  0.00  0.00     0.031 A 
ENDBRANCH   9  11
ENDBRANCH   7   9
ENDBRANCH   5   7
ENDBRANCH   1   5
BRANCH   1  18
ATOM     18  C   UNL d   1       0.272   2.357   2.949  0.00  0.00     0.251 C 
BRANCH  18  19
ATOM     19  O   UNL d   1      -0.058   1.437   3.979  0.00  0.00    -0.344 OA
BRANCH  19  20
ATOM     20  C   UNL d   1      -0.796   1.916   5.026  0.00  0.00     0.069 A 
ATOM     21  C   UNL d   1      -1.405   3.171   5.111  0.00  0.00     0.039 A 
ATOM     22  C   UNL d   1      -2.161   3.519   6.243  0.00  0.00     0.039 A 
ATOM     23  C   UNL d   1      -2.308   2.622   7.299  0.00  0.00     0.068 A 
ATOM     24  C   UNL d   1      -1.693   1.373   7.215  0.00  0.00     0.039 A 
ATOM     25  C   UNL d   1      -0.943   1.024   6.087  0.00  0.00     0.039 A 
BRANCH  23  26
ATOM     26  O   UNL d   1      -3.011   2.828   8.452  0.00  0.00    -0.356 OA
ATOM     27  C   UNL d   1      -3.669   4.079   8.600  0.00  0.00     0.210 C 
ENDBRANCH  23  26
ENDBRANCH  19  20
ENDBRANCH  18  19
ENDBRANCH   1  18
TORSDOF 8
