REMARK  5 active torsions:
REMARK  status: ('A' for Active; 'I' for Inactive)
REMARK    1  A    between atoms: C_2  and  C_1 
REMARK    2  A    between atoms: C_5  and  C_2 
REMARK    3  A    between atoms: C_4  and  C_3 
REMARK    4  A    between atoms: O_10  and  C_4 
REMARK    5  A    between atoms: O_16  and  C_11 
ROOT
ATOM      1  C   UNL d   1       1.393  -0.250   0.014  0.00  0.00     0.032 A 
ATOM      2  C   UNL d   1       0.486  -1.131   0.629  0.00  0.00     0.051 A 
ATOM      3  C   UNL d   1       0.897   0.795  -0.793  0.00  0.00     0.016 A 
ATOM      4  C   UNL d   1      -0.896  -0.869   0.503  0.00  0.00     0.019 A 
ATOM      5  C   UNL d   1      -0.472   1.038  -0.899  0.00  0.00     0.001 A 
ATOM      6  C   UNL d   1      -1.369   0.212  -0.240  0.00  0.00     0.001 A 
ENDROOT
BRANCH   1   7
ATOM      7  C   UNL d   1       2.867  -0.380   0.140  0.00  0.00     0.193 C 
ATOM      8  O   UNL d   1       3.348  -1.509   0.072  0.00  0.00    -0.287 OA
BRANCH   7   9
ATOM      9  C   UNL d   1       3.774   0.803   0.250  0.00  0.00     0.015 A 
ATOM     10  C   UNL d   1       5.116   0.646  -0.124  0.00  0.00     0.018 A 
ATOM     11  C   UNL d   1       5.987   1.743  -0.139  0.00  0.00     0.037 A 
ATOM     12  C   UNL d   1       5.522   3.006   0.222  0.00  0.00     0.068 A 
ATOM     13  C   UNL d   1       4.194   3.161   0.621  0.00  0.00     0.037 A 
ATOM     14  C   UNL d   1       3.331   2.063   0.670  0.00  0.00     0.018 A 
BRANCH  12  15
ATOM     15  O   UNL d   1       6.252   4.161   0.178  0.00  0.00    -0.356 OA
ATOM     16  C   UNL d   1       7.649   4.014   0.410  0.00  0.00     0.210 C 
ENDBRANCH  12  15
ENDBRANCH   7   9
ENDBRANCH   1   7
BRANCH   2  17
ATOM     17  C   UNL d   1       0.807  -2.321   1.466  0.00  0.00     0.177 C 
ATOM     18  O   UNL d   1       0.083  -2.642   2.401  0.00  0.00    -0.646 OA
BRANCH  17  19
ATOM     19  O   UNL d   1       1.811  -3.114   1.054  0.00  0.00    -0.773 OA
ATOM     20  H   UNL d   1       2.457  -2.693   0.437  0.00  0.00     0.167 HD
ENDBRANCH  17  19
ENDBRANCH   2  17
TORSDOF 5
