REMARK  4 active torsions:
REMARK  status: ('A' for Active; 'I' for Inactive)
REMARK    1  A    between atoms: C_5  and  N_1 
REMARK       I    between atoms: C_2  and  N_4 
REMARK    2  A    between atoms: C_3  and  C_2 
REMARK    3  A    between atoms: N_4  and  C_9 
REMARK    4  A    between atoms: O_12  and  C_10 
ROOT
ATOM      1  C   UNL d   1       1.669  -4.747  -0.879  0.00  0.00     0.259 C 
ATOM      2  N   UNL d   1       0.749  -4.230  -1.777  0.00  0.00    -0.323 N 
ATOM      3  O   UNL d   1       2.291  -4.117  -0.027  0.00  0.00    -0.267 OA
ATOM      4  H   UNL d   1       0.404  -4.853  -2.495  0.00  0.00     0.169 HD
ENDROOT
BRANCH   2   5
ATOM      5  C   UNL d   1       0.226  -2.922  -1.808  0.00  0.00     0.037 A 
ATOM      6  C   UNL d   1       0.619  -1.906  -0.936  0.00  0.00     0.065 A 
ATOM      7  C   UNL d   1      -0.028  -0.662  -0.982  0.00  0.00     0.105 A 
ATOM      8  C   UNL d   1      -1.045  -0.414  -1.912  0.00  0.00     0.036 A 
ATOM      9  C   UNL d   1      -1.411  -1.418  -2.806  0.00  0.00     0.005 A 
ATOM     10  C   UNL d   1      -0.777  -2.663  -2.754  0.00  0.00     0.029 A 
BRANCH   7  11
ATOM     11  N   UNL d   1       0.344   0.382  -0.019  0.00  0.00    -0.116 N 
ATOM     12  O   UNL d   1       1.232   0.127   0.805  0.00  0.00    -0.532 OA
ATOM     13  O   UNL d   1      -0.261   1.463  -0.085  0.00  0.00    -0.532 OA
ENDBRANCH   7  11
ENDBRANCH   2   5
BRANCH   1  14
ATOM     14  C   UNL d   1       1.955  -6.203  -1.008  0.00  0.00     0.065 A 
ATOM     15  C   UNL d   1       3.203  -6.701  -0.602  0.00  0.00     0.081 A 
ATOM     16  C   UNL d   1       3.522  -8.045  -0.782  0.00  0.00     0.037 A 
ATOM     17  C   UNL d   1       2.587  -8.914  -1.343  0.00  0.00     0.003 A 
ATOM     18  C   UNL d   1       1.323  -8.445  -1.697  0.00  0.00     0.001 A 
ATOM     19  C   UNL d   1       1.001  -7.097  -1.521  0.00  0.00     0.020 A 
BRANCH  15  20
ATOM     20  O   UNL d   1       4.167  -5.923  -0.017  0.00  0.00    -0.360 OA
ATOM     21  H   UNL d   1       3.757  -5.057   0.212  0.00  0.00     0.217 HD
ENDBRANCH  15  20
ENDBRANCH   1  14
TORSDOF 4
