REMARK  7 active torsions:
REMARK  status: ('A' for Active; 'I' for Inactive)
REMARK    1  A    between atoms: S_10  and  C_2 
REMARK    2  A    between atoms: C_13  and  C_3 
REMARK    3  A    between atoms: C_8  and  C_11 
REMARK       I    between atoms: C_9  and  N_12 
REMARK    4  A    between atoms: O_16  and  C_9 
REMARK    5  A    between atoms: C_11  and  S_10 
REMARK    6  A    between atoms: N_12  and  C_13 
REMARK    7  A    between atoms: C_18  and  O_16 
ROOT
ATOM      1  N   UNL d   1       0.850   0.244  -0.143  0.00  0.00    -0.318 N 
ATOM      2  C   UNL d   1      -0.026   1.286  -0.275  0.00  0.00     0.162 A 
ATOM      3  C   UNL d   1       0.069  -0.894  -0.119  0.00  0.00     0.117 A 
ATOM      4  N   UNL d   1      -1.257   0.830  -0.257  0.00  0.00    -0.278 N 
ATOM      5  HN  UNL d   1      -2.106   1.393  -0.303  1.00  0.00     0.189 HD
ATOM      6  N   UNL d   1      -1.200  -0.536  -0.165  0.00  0.00    -0.285 N 
ATOM      7  HN  UNL d   1      -2.001  -1.168  -0.136  1.00  0.00     0.188 HD
ATOM      8  C   UNL d   1       2.286   0.285  -0.038  0.00  0.00     0.160 C 
ENDROOT
BRANCH   2   9
ATOM      9  S   UNL d   1       0.429   2.944  -0.481  0.00  0.00    -0.088 SA
BRANCH   9  10
ATOM     10  C   UNL d   1      -1.222   3.717  -0.488  0.00  0.00     0.124 C 
BRANCH  10  11
ATOM     11  C   UNL d   1      -1.175   5.207  -0.752  0.00  0.00    -0.005 A 
ATOM     12  C   UNL d   1      -1.317   5.727  -2.053  0.00  0.00     0.042 A 
ATOM     13 CL   UNL d   1      -1.504   4.710  -3.441  0.00  0.00    -0.084 Cl
ATOM     14  C   UNL d   1      -1.320   7.110  -2.288  0.00  0.00     0.024 A 
ATOM     15  C   UNL d   1      -1.168   8.002  -1.232  0.00  0.00     0.003 A 
ATOM     16  C   UNL d   1      -1.002   7.512   0.058  0.00  0.00     0.024 A 
ATOM     17  C   UNL d   1      -1.001   6.131   0.297  0.00  0.00     0.042 A 
ATOM     18 CL   UNL d   1      -0.786   5.630   1.940  0.00  0.00    -0.084 Cl
ENDBRANCH  10  11
ENDBRANCH   9  10
ENDBRANCH   2   9
BRANCH   3  19
ATOM     19  C   UNL d   1       0.569  -2.291  -0.029  0.00  0.00     0.203 C 
BRANCH  19  20
ATOM     20  N   UNL d   1       1.191  -2.673  -1.275  0.00  0.00    -0.330 N 
ATOM     21  C   UNL d   1       2.523  -2.915  -1.377  0.00  0.00     0.361 C 
ATOM     22  O   UNL d   1       3.322  -2.760  -0.469  0.00  0.00    -0.238 OA
ATOM     23  H   UNL d   1       0.623  -2.829  -2.095  0.00  0.00     0.165 HD
BRANCH  21  24
ATOM     24  O   UNL d   1       2.816  -3.328  -2.633  0.00  0.00    -0.294 OA
BRANCH  24  25
ATOM     25  C   UNL d   1       4.186  -3.668  -2.984  0.00  0.00     0.061 C 
ATOM     26  C   UNL d   1       4.738  -4.782  -2.083  0.00  0.00     0.046 C 
ATOM     27  C   UNL d   1       4.116  -4.191  -4.428  0.00  0.00     0.046 C 
ATOM     28  C   UNL d   1       5.077  -2.420  -2.957  0.00  0.00     0.046 C 
ENDBRANCH  24  25
ENDBRANCH  21  24
ENDBRANCH  19  20
ENDBRANCH   3  19
TORSDOF 7
