REMARK  10 active torsions:
REMARK  status: ('A' for Active; 'I' for Inactive)
REMARK    1  A    between atoms: N_2  and  S_1 
REMARK    2  A    between atoms: C_6  and  S_1 
REMARK    3  A    between atoms: C_5  and  N_2 
REMARK    4  A    between atoms: C_4  and  C_3 
REMARK       I    between atoms: N_9  and  C_4 
REMARK    5  A    between atoms: C_16  and  N_9 
REMARK    6  A    between atoms: C_10  and  C_16 
REMARK    7  A    between atoms: C_22  and  C_19 
REMARK    8  A    between atoms: C_23  and  C_22 
REMARK    9  A    between atoms: C_25  and  C_23 
REMARK   10  A    between atoms: C_24  and  C_25 
ROOT
ATOM      1  N   UNL d   1       0.709  -1.482   0.681  0.00  0.00    -0.280 N 
ATOM      2  H   UNL d   1       1.513  -1.578   1.301  0.00  0.00     0.179 HD
ENDROOT
BRANCH   1   3
ATOM      3  S   UNL d   1       0.821  -0.040  -0.209  0.00  0.00     0.263 S 
ATOM      4  O   UNL d   1      -0.166  -0.053  -1.265  0.00  0.00    -0.200 OA
ATOM      5  O   UNL d   1       2.230   0.122  -0.498  0.00  0.00    -0.200 OA
BRANCH   3   6
ATOM      6  C   UNL d   1       0.367   1.234   0.937  0.00  0.00     0.079 A 
ATOM      7  C   UNL d   1       1.337   1.806   1.766  0.00  0.00     0.026 A 
ATOM      8  C   UNL d   1       0.981   2.863   2.608  0.00  0.00     0.009 A 
ATOM      9  C   UNL d   1      -0.332   3.360   2.618  0.00  0.00    -0.058 A 
ATOM     10  C   UNL d   1      -1.283   2.793   1.756  0.00  0.00     0.009 A 
ATOM     11  C   UNL d   1      -0.939   1.734   0.921  0.00  0.00     0.026 A 
BRANCH   9  12
ATOM     12  C   UNL d   1      -0.712   4.508   3.523  0.00  0.00     0.038 C 
BRANCH  12  13
ATOM     13  C   UNL d   1      -1.864   4.185   4.482  0.00  0.00     0.005 C 
BRANCH  13  14
ATOM     14  C   UNL d   1      -1.529   3.061   5.466  0.00  0.00    -0.000 C 
BRANCH  14  15
ATOM     15  C   UNL d   1      -2.710   2.777   6.393  0.00  0.00    -0.005 C 
ATOM     16  C   UNL d   1      -2.395   1.656   7.370  0.00  0.00     0.005 C 
ENDBRANCH  14  15
ENDBRANCH  13  14
ENDBRANCH  12  13
ENDBRANCH   9  12
ENDBRANCH   3   6
ENDBRANCH   1   3
BRANCH   1  17
ATOM     17  C   UNL d   1      -0.559  -1.868   1.235  0.00  0.00     0.058 A 
ATOM     18  C   UNL d   1      -1.535  -2.590   0.525  0.00  0.00     0.059 A 
ATOM     19  C   UNL d   1      -2.746  -2.909   1.179  0.00  0.00     0.019 A 
ATOM     20  C   UNL d   1      -2.979  -2.534   2.503  0.00  0.00     0.001 A 
ATOM     21  C   UNL d   1      -2.010  -1.820   3.195  0.00  0.00     0.002 A 
ATOM     22  C   UNL d   1      -0.810  -1.484   2.564  0.00  0.00     0.031 A 
BRANCH  18  23
ATOM     23  C   UNL d   1      -1.400  -3.126  -0.865  0.00  0.00     0.253 C 
ATOM     24  N   UNL d   1      -0.147  -3.156  -1.437  0.00  0.00    -0.356 N 
ATOM     25  H   UNL d   1       0.644  -2.778  -0.933  0.00  0.00     0.162 HD
ATOM     26  O   UNL d   1      -2.393  -3.560  -1.447  0.00  0.00    -0.268 OA
BRANCH  24  27
ATOM     27  C   UNL d   1       0.005  -3.573  -2.808  0.00  0.00     0.127 C 
BRANCH  27  28
ATOM     28  C   UNL d   1       1.371  -3.276  -3.337  0.00  0.00     0.003 A 
ATOM     29  C   UNL d   1       1.889  -1.875  -3.560  0.00  0.00     0.007 A 
ATOM     30  C   UNL d   1       1.486  -2.715  -4.736  0.00  0.00     0.007 A 
ENDBRANCH  27  28
ENDBRANCH  24  27
ENDBRANCH  18  23
ENDBRANCH   1  17
TORSDOF 10
