REMARK  7 active torsions:
REMARK  status: ('A' for Active; 'I' for Inactive)
REMARK    1  A    between atoms: C_7  and  C_1 
REMARK       I    between atoms: C_2  and  N_3 
REMARK    2  A    between atoms: C_4  and  C_2 
REMARK    3  A    between atoms: N_3  and  C_6 
REMARK    4  A    between atoms: O_14  and  C_5 
REMARK    5  A    between atoms: O_15  and  C_7 
REMARK    6  A    between atoms: O_16  and  C_8 
REMARK    7  A    between atoms: O_17  and  C_9 
ROOT
ATOM      1  C   UNL d   1       3.228  -2.873  -0.659  0.00  0.00     0.256 C 
ATOM      2  N   UNL d   1       1.937  -2.824  -0.169  0.00  0.00    -0.322 N 
ATOM      3  O   UNL d   1       3.697  -3.751  -1.372  0.00  0.00    -0.267 OA
ATOM      4  H   UNL d   1       1.650  -1.953   0.264  0.00  0.00     0.169 HD
ENDROOT
BRANCH   1   5
ATOM      5  C   UNL d   1       4.080  -1.682  -0.342  0.00  0.00     0.037 A 
ATOM      6  C   UNL d   1       3.902  -0.890   0.803  0.00  0.00     0.057 A 
ATOM      7  C   UNL d   1       4.697   0.251   1.026  0.00  0.00     0.105 A 
ATOM      8  C   UNL d   1       5.701   0.594   0.094  0.00  0.00     0.135 A 
ATOM      9  C   UNL d   1       5.915  -0.256  -1.011  0.00  0.00     0.105 A 
ATOM     10  C   UNL d   1       5.094  -1.360  -1.241  0.00  0.00     0.057 A 
BRANCH   7  11
ATOM     11  O   UNL d   1       4.536   1.062   2.119  0.00  0.00    -0.353 OA
ATOM     12  C   UNL d   1       3.681   0.641   3.173  0.00  0.00     0.210 C 
ENDBRANCH   7  11
BRANCH   8  13
ATOM     13  O   UNL d   1       6.529   1.686   0.132  0.00  0.00    -0.351 OA
ATOM     14  C   UNL d   1       6.290   2.736   1.054  0.00  0.00     0.210 C 
ENDBRANCH   8  13
BRANCH   9  15
ATOM     15  O   UNL d   1       6.872  -0.052  -1.977  0.00  0.00    -0.353 OA
ATOM     16  C   UNL d   1       8.188   0.126  -1.454  0.00  0.00     0.210 C 
ENDBRANCH   9  15
ENDBRANCH   1   5
BRANCH   2  17
ATOM     17  C   UNL d   1       0.859  -3.701  -0.457  0.00  0.00     0.051 A 
ATOM     18  C   UNL d   1      -0.467  -3.326  -0.126  0.00  0.00     0.066 A 
ATOM     19  C   UNL d   1      -1.539  -4.175  -0.461  0.00  0.00     0.020 A 
ATOM     20  C   UNL d   1      -1.316  -5.385  -1.117  0.00  0.00     0.001 A 
ATOM     21  C   UNL d   1      -0.014  -5.768  -1.416  0.00  0.00     0.002 A 
ATOM     22  C   UNL d   1       1.062  -4.940  -1.083  0.00  0.00     0.030 A 
BRANCH  18  23
ATOM     23  C   UNL d   1      -0.845  -2.051   0.554  0.00  0.00     0.295 C 
ATOM     24  O   UNL d   1      -1.909  -1.882   1.128  0.00  0.00    -0.259 OA
BRANCH  23  25
ATOM     25  O   UNL d   1       0.127  -1.115   0.408  0.00  0.00    -0.322 OA
ATOM     26  C   UNL d   1      -0.169   0.190   0.914  0.00  0.00     0.213 C 
ENDBRANCH  23  25
ENDBRANCH  18  23
ENDBRANCH   2  17
TORSDOF 7
