REMARK  8 active torsions:
REMARK  status: ('A' for Active; 'I' for Inactive)
REMARK    1  A    between atoms: N_2  and  S_1 
REMARK    2  A    between atoms: C_5  and  S_1 
REMARK    3  A    between atoms: C_3  and  N_2 
REMARK    4  A    between atoms: C_8  and  C_3 
REMARK    5  A    between atoms: C_3  and  C_4 
REMARK    6  A    between atoms: O_12  and  C_4 
REMARK    7  A    between atoms: C_13  and  C_8 
REMARK    8  A    between atoms: C_17  and  O_12 
ROOT
ATOM      1  C   UNL d   1       0.963   2.575  -0.066  0.00  0.00     0.197 C 
ENDROOT
BRANCH   1   2
ATOM      2  C   UNL d   1       2.457   2.264   0.059  0.00  0.00     0.074 C 
BRANCH   2   3
ATOM      3  C   UNL d   1       3.305   2.317  -1.194  0.00  0.00    -0.056 A 
ATOM      4  C   UNL d   1       3.362   3.462  -2.001  0.00  0.00     0.007 A 
ATOM      5  C   UNL d   1       4.302   3.554  -3.033  0.00  0.00     0.001 A 
ATOM      6  C   UNL d   1       5.192   2.507  -3.268  0.00  0.00     0.000 A 
ATOM      7  C   UNL d   1       5.127   1.354  -2.491  0.00  0.00     0.001 A 
ATOM      8  C   UNL d   1       4.188   1.259  -1.463  0.00  0.00     0.007 A 
ENDBRANCH   2   3
ENDBRANCH   1   2
BRANCH   1   9
ATOM      9  C   UNL d   1       0.118   1.528  -0.820  0.00  0.00     0.282 C 
ATOM     10  O   UNL d   1      -1.104   1.639  -0.913  0.00  0.00    -0.263 OA
BRANCH   9  11
ATOM     11  O   UNL d   1       0.826   0.474  -1.293  0.00  0.00    -0.320 OA
BRANCH  11  12
ATOM     12  C   UNL d   1       0.072  -0.533  -1.990  0.00  0.00     0.174 C 
ATOM     13  C   UNL d   1      -0.586  -1.499  -1.020  0.00  0.00     0.034 C 
ENDBRANCH  11  12
ENDBRANCH   9  11
ENDBRANCH   1   9
BRANCH   1  14
ATOM     14  N   UNL d   1       0.293   2.632   1.269  0.00  0.00    -0.301 N 
ATOM     15  H   UNL d   1      -0.699   2.380   1.284  0.00  0.00     0.173 HD
BRANCH  14  16
ATOM     16  S   UNL d   1       0.715   3.705   2.474  0.00  0.00     0.259 S 
ATOM     17  O   UNL d   1       2.078   3.440   2.867  0.00  0.00    -0.201 OA
ATOM     18  O   UNL d   1      -0.366   3.664   3.437  0.00  0.00    -0.201 OA
BRANCH  16  19
ATOM     19  C   UNL d   1       0.648   5.287   1.679  0.00  0.00     0.079 A 
ATOM     20  C   UNL d   1      -0.563   5.730   1.143  0.00  0.00     0.026 A 
ATOM     21  C   UNL d   1      -0.635   6.999   0.566  0.00  0.00     0.008 A 
ATOM     22  C   UNL d   1       0.492   7.831   0.536  0.00  0.00    -0.062 A 
ATOM     23  C   UNL d   1       1.704   7.368   1.068  0.00  0.00     0.008 A 
ATOM     24  C   UNL d   1       0.384   9.212  -0.042  0.00  0.00     0.048 C 
ATOM     25  C   UNL d   1       1.786   6.097   1.639  0.00  0.00     0.026 A 
ENDBRANCH  16  19
ENDBRANCH  14  16
ENDBRANCH   1  14
TORSDOF 8
