REMARK  4 active torsions:
REMARK  status: ('A' for Active; 'I' for Inactive)
REMARK    1  A    between atoms: C_6  and  C_1 
REMARK       I    between atoms: C_2  and  N_5 
REMARK    2  A    between atoms: C_3  and  C_2 
REMARK    3  A    between atoms: N_4  and  C_6 
REMARK    4  A    between atoms: N_5  and  C_14 
ROOT
ATOM      1  N   UNL d   1      -1.223   3.069   0.181  0.00  0.00     0.092 N 
ATOM      2  C   UNL d   1      -4.163   3.376   0.101  0.00  0.00     0.088 C 
ATOM      3  C   UNL d   1      -3.264   3.833  -1.044  0.00  0.00     0.055 C 
ATOM      4  C   UNL d   1      -3.390   3.512   1.411  0.00  0.00     0.055 C 
ATOM      5  C   UNL d   1      -1.969   3.021  -1.085  0.00  0.00     0.275 C 
ATOM      6  C   UNL d   1      -2.047   2.779   1.365  0.00  0.00     0.275 C 
ENDROOT
BRANCH   1   7
ATOM      7  C   UNL d   1      -0.073   2.135   0.160  0.00  0.00     0.315 C 
BRANCH   7   8
ATOM      8  C   UNL d   1       1.030   2.482  -0.811  0.00  0.00     0.030 A 
ATOM      9  C   UNL d   1       1.782   3.662  -0.732  0.00  0.00     0.045 A 
ATOM     10 CL   UNL d   1       1.497   4.855   0.486  0.00  0.00    -0.084 Cl
ATOM     11  C   UNL d   1       2.833   3.904  -1.627  0.00  0.00     0.024 A 
ATOM     12  C   UNL d   1       3.160   2.966  -2.606  0.00  0.00     0.005 A 
ATOM     13  C   UNL d   1       2.433   1.786  -2.692  0.00  0.00     0.043 A 
ATOM     14  C   UNL d   1       1.382   1.555  -1.805  0.00  0.00     0.126 A 
ATOM     15  F   UNL d   1       0.714   0.397  -1.907  0.00  0.00    -0.205 F 
ENDBRANCH   7   8
ENDBRANCH   1   7
BRANCH   2  16
ATOM     16  N   UNL d   1      -4.641   2.008  -0.078  0.00  0.00    -0.352 N 
ATOM     17  C   UNL d   1      -5.734   1.653  -0.835  0.00  0.00     0.258 C 
ATOM     18  O   UNL d   1      -6.407   2.488  -1.438  0.00  0.00    -0.267 OA
ATOM     19  H   UNL d   1      -4.081   1.245   0.281  0.00  0.00     0.163 HD
BRANCH  17  20
ATOM     20  C   UNL d   1      -6.042   0.224  -0.846  0.00  0.00     0.072 A 
ATOM     21  S   UNL d   1      -5.078  -0.921   0.001  0.00  0.00    -0.097 SA
ATOM     22  C   UNL d   1      -6.115  -2.213  -0.413  0.00  0.00     0.050 A 
ATOM     23  C   UNL d   1      -7.158  -1.800  -1.210  0.00  0.00     0.009 A 
ATOM     24  C   UNL d   1      -7.104  -0.400  -1.475  0.00  0.00     0.025 A 
ENDBRANCH  17  20
ENDBRANCH   2  16
TORSDOF 4
