REMARK  4 active torsions:
REMARK  status: ('A' for Active; 'I' for Inactive)
REMARK    1  A    between atoms: C_10  and  N_4 
REMARK    2  A    between atoms: C_12  and  C_6 
REMARK    3  A    between atoms: C_8  and  O_11 
REMARK    4  A    between atoms: O_11  and  C_18 
ROOT
ATOM      1  C   UNL d   1       1.309  -0.605  -0.033  0.00  0.00     0.183 C 
ATOM      2  N   UNL d   1       1.228   0.772  -0.058  0.00  0.00    -0.332 N 
ATOM      3  HN  UNL d   1       2.083   1.327  -0.065  1.00  0.00     0.168 HD
ATOM      4  N   UNL d   1       0.104  -1.358   0.137  0.00  0.00    -0.299 N 
ATOM      5  C   UNL d   1      -1.110  -0.675   0.098  0.00  0.00     0.102 C 
ATOM      6  C   UNL d   1       0.078   1.370  -0.073  0.00  0.00     0.045 C 
ATOM      7  C   UNL d   1      -1.202   0.651  -0.024  0.00  0.00     0.048 C 
ATOM      8  S   UNL d   1       2.856  -1.249  -0.337  0.00  0.00    -0.040 SA
ENDROOT
BRANCH   4   9
ATOM      9  C   UNL d   1       0.097  -2.801   0.261  0.00  0.00     0.041 A 
ATOM     10  C   UNL d   1       1.017  -3.474   1.072  0.00  0.00     0.033 A 
ATOM     11  C   UNL d   1       1.039  -4.870   1.135  0.00  0.00     0.039 A 
ATOM     12  C   UNL d   1       0.106  -5.634   0.436  0.00  0.00     0.078 A 
ATOM     13  C   UNL d   1      -0.840  -4.985  -0.351  0.00  0.00     0.039 A 
ATOM     14  C   UNL d   1      -0.854  -3.580  -0.423  0.00  0.00     0.033 A 
BRANCH  12  15
ATOM     15  O   UNL d   1       0.267  -6.977   0.576  0.00  0.00    -0.255 OA
BRANCH  15  16
ATOM     16  C   UNL d   1      -0.856  -7.834   0.453  0.00  0.00     0.530 C 
ATOM     17  F   UNL d   1      -2.040  -7.198   0.581  0.00  0.00    -0.144 F 
ATOM     18  F   UNL d   1      -0.821  -8.466  -0.739  0.00  0.00    -0.144 F 
ATOM     19  F   UNL d   1      -0.783  -8.768   1.428  0.00  0.00    -0.144 F 
ENDBRANCH  15  16
ENDBRANCH  12  15
ENDBRANCH   4   9
BRANCH   6  20
ATOM     20  C   UNL d   1       0.053   2.856  -0.184  0.00  0.00    -0.009 A 
ATOM     21  C   UNL d   1       1.105   3.485  -0.871  0.00  0.00     0.013 A 
ATOM     22  C   UNL d   1       1.142   4.872  -0.997  0.00  0.00     0.001 A 
ATOM     23  C   UNL d   1       0.131   5.646  -0.429  0.00  0.00     0.000 A 
ATOM     24  C   UNL d   1      -0.908   5.035   0.267  0.00  0.00     0.001 A 
ATOM     25  C   UNL d   1      -0.951   3.640   0.394  0.00  0.00     0.013 A 
ENDBRANCH   6  20
TORSDOF 4
