REMARK  3 active torsions:
REMARK  status: ('A' for Active; 'I' for Inactive)
REMARK       I    between atoms: C_3  and  N_1 
REMARK    1  A    between atoms: C_6  and  C_3 
REMARK    2  A    between atoms: C_13  and  N_8 
REMARK    3  A    between atoms: O_21  and  C_16 
ROOT
ATOM      1  N   UNL d   1      -2.521   0.189  -0.122  0.00  0.00    -0.279 N 
ATOM      2  C   UNL d   1      -2.119  -0.710  -1.132  0.00  0.00     0.155 C 
ATOM      3  C   UNL d   1      -3.506  -0.075   0.864  0.00  0.00     0.267 C 
ATOM      4  C   UNL d   1      -1.943   1.586  -0.261  0.00  0.00     0.075 C 
ATOM      5  S   UNL d   1      -0.701  -0.125  -1.969  0.00  0.00    -0.056 SA
ATOM      6  C   UNL d   1      -0.721   1.405  -1.185  0.00  0.00     0.005 C 
ATOM      7  N   UNL d   1      -2.724  -1.824  -1.379  0.00  0.00    -0.336 N 
ATOM      8  HN  UNL d   1      -3.598  -2.011  -0.887  1.00  0.00     0.168 HD
ATOM      9  O   UNL d   1      -3.824   0.728   1.734  0.00  0.00    -0.267 OA
ATOM     10  C   UNL d   1       0.237   2.298  -1.488  0.00  0.00     0.029 C 
ATOM     11  C   UNL d   1      -2.920   2.490  -1.062  0.00  0.00     0.037 C 
ATOM     12  C   UNL d   1      -1.482   2.257   1.072  0.00  0.00     0.037 C 
ATOM     13  C   UNL d   1      -2.467   3.183   1.801  0.00  0.00     0.003 C 
ATOM     14  C   UNL d   1      -4.005   3.150  -0.229  0.00  0.00     0.003 C 
ATOM     15  C   UNL d   1      -3.405   3.973   0.899  0.00  0.00     0.000 C 
ENDROOT
BRANCH   3  16
ATOM     16  C   UNL d   1      -4.258  -1.338   0.934  0.00  0.00     0.109 A 
ATOM     17  C   UNL d   1      -3.644  -2.578   1.076  0.00  0.00     0.135 A 
ATOM     18  F   UNL d   1      -2.310  -2.673   1.189  0.00  0.00    -0.205 F 
ATOM     19  C   UNL d   1      -4.400  -3.752   1.083  0.00  0.00     0.043 A 
ATOM     20  C   UNL d   1      -5.794  -3.687   1.064  0.00  0.00     0.006 A 
ATOM     21  C   UNL d   1      -6.423  -2.444   1.049  0.00  0.00     0.043 A 
ATOM     22  C   UNL d   1      -5.654  -1.282   0.973  0.00  0.00     0.135 A 
ATOM     23  F   UNL d   1      -6.300  -0.106   0.937  0.00  0.00    -0.205 F 
ENDBRANCH   3  16
BRANCH   7  24
ATOM     24  C   UNL d   1      -2.261  -2.796  -2.283  0.00  0.00     0.036 A 
ATOM     25  C   UNL d   1      -3.174  -3.367  -3.178  0.00  0.00     0.066 A 
ATOM     26  C   UNL d   1      -2.777  -4.386  -4.049  0.00  0.00     0.070 A 
ATOM     27  C   UNL d   1      -1.447  -4.814  -4.049  0.00  0.00     0.037 A 
ATOM     28  C   UNL d   1      -0.540  -4.287  -3.136  0.00  0.00     0.005 A 
ATOM     29  C   UNL d   1      -0.961  -3.316  -2.231  0.00  0.00     0.029 A 
BRANCH  26  30
ATOM     30  O   UNL d   1      -3.581  -5.038  -4.944  0.00  0.00    -0.356 OA
ATOM     31  C   UNL d   1      -4.983  -4.870  -4.777  0.00  0.00     0.210 C 
ENDBRANCH  26  30
ENDBRANCH   7  24
TORSDOF 3
