REMARK  4 active torsions:
REMARK  status: ('A' for Active; 'I' for Inactive)
REMARK    1  A    between atoms: C_8  and  N_3 
REMARK    2  A    between atoms: C_13  and  C_6 
REMARK    3  A    between atoms: C_9  and  C_8 
REMARK       I    between atoms: N_10  and  C_9 
REMARK    4  A    between atoms: C_11  and  N_10 
ROOT
ATOM      1  N   UNL d   1      -0.454  -0.638   0.600  0.00  0.00    -0.268 N 
ATOM      2  HN  UNL d   1      -0.734  -1.528   1.013  1.00  0.00     0.190 HD
ATOM      3  N   UNL d   1       0.758  -0.225   0.188  0.00  0.00    -0.207 N 
ATOM      4  N   UNL d   1      -0.424   1.485  -0.174  0.00  0.00    -0.266 N 
ATOM      5  HN  UNL d   1      -0.757   2.409  -0.452  1.00  0.00     0.186 HD
ATOM      6  C   UNL d   1      -1.192   0.450   0.317  0.00  0.00     0.144 A 
ATOM      7  N   UNL d   1       0.828   1.054  -0.217  0.00  0.00    -0.002 NA
ENDROOT
BRANCH   3   8
ATOM      8  C   UNL d   1       1.936  -1.040   0.344  0.00  0.00     0.270 C 
BRANCH   8   9
ATOM      9  C   UNL d   1       2.705  -1.317  -0.929  0.00  0.00     0.243 C 
ATOM     10  N   UNL d   1       2.742  -0.328  -1.894  0.00  0.00    -0.323 N 
ATOM     11  H   UNL d   1       2.443   0.615  -1.635  0.00  0.00     0.169 HD
ATOM     12  O   UNL d   1       3.363  -2.360  -1.003  0.00  0.00    -0.271 OA
BRANCH  10  13
ATOM     13  C   UNL d   1       3.461  -0.428  -3.109  0.00  0.00     0.073 A 
ATOM     14  C   UNL d   1       3.958   0.745  -3.691  0.00  0.00     0.145 A 
ATOM     15  C   UNL d   1       4.725   0.712  -4.847  0.00  0.00     0.086 A 
ATOM     16  F   UNL d   1       3.742   1.924  -3.087  0.00  0.00    -0.204 F 
ATOM     17  C   UNL d   1       4.958  -0.509  -5.466  0.00  0.00     0.119 A 
ATOM     18  C   UNL d   1       4.435  -1.688  -4.942  0.00  0.00     0.044 A 
ATOM     19  F   UNL d   1       5.699  -0.560  -6.582  0.00  0.00    -0.206 F 
ATOM     20  C   UNL d   1       3.685  -1.650  -3.759  0.00  0.00     0.036 A 
ENDBRANCH  10  13
ENDBRANCH   8   9
ENDBRANCH   3   8
BRANCH   6  21
ATOM     21  C   UNL d   1      -2.646   0.493   0.378  0.00  0.00     0.010 A 
ATOM     22  C   UNL d   1      -3.350   1.467  -0.343  0.00  0.00     0.016 A 
ATOM     23  C   UNL d   1      -4.739   1.399  -0.455  0.00  0.00     0.007 A 
ATOM     24  C   UNL d   1      -5.454   0.367   0.165  0.00  0.00    -0.062 A 
ATOM     25  C   UNL d   1      -4.762  -0.558   0.955  0.00  0.00     0.007 A 
ATOM     26  C   UNL d   1      -6.924   0.223  -0.089  0.00  0.00     0.048 C 
ATOM     27  C   UNL d   1      -3.369  -0.494   1.062  0.00  0.00     0.016 A 
ENDBRANCH   6  21
TORSDOF 4
