REMARK  3 active torsions:
REMARK  status: ('A' for Active; 'I' for Inactive)
REMARK    1  A    between atoms: N_2  and  C_1 
REMARK    2  A    between atoms: N_4  and  C_3 
REMARK    3  A    between atoms: N_14  and  C_5 
ROOT
ATOM      1  C   UNL d   1      -0.139  -1.611   0.329  0.00  0.00     0.184 A 
ATOM      2  C   UNL d   1       1.148  -1.143   0.078  0.00  0.00     0.141 A 
ATOM      3  C   UNL d   1      -1.230  -0.757   0.248  0.00  0.00     0.118 A 
ATOM      4  N   UNL d   1       1.314   0.157  -0.242  0.00  0.00    -0.337 N 
ATOM      5  HN  UNL d   1       2.242   0.545  -0.411  1.00  0.00     0.168 HD
ATOM      6  N   UNL d   1      -1.050   0.525  -0.119  0.00  0.00    -0.341 N 
ATOM      7  HN  UNL d   1      -1.837   1.164  -0.231  1.00  0.00     0.167 HD
ATOM      8  C   UNL d   1       0.214   0.922  -0.332  0.00  0.00     0.183 A 
ENDROOT
BRANCH   2   9
ATOM      9  N   UNL d   1       2.290  -1.916   0.204  0.00  0.00    -0.361 N 
ATOM     10  C   UNL d   1       2.453  -3.147  -0.592  0.00  0.00     0.150 C 
ATOM     11  C   UNL d   1       3.568  -3.020  -1.642  0.00  0.00     0.187 C 
ATOM     12  O   UNL d   1       4.790  -2.531  -1.078  0.00  0.00    -0.388 OA
ATOM     13  C   UNL d   1       4.575  -1.225  -0.524  0.00  0.00     0.187 C 
ATOM     14  C   UNL d   1       3.550  -1.270   0.616  0.00  0.00     0.150 C 
ENDBRANCH   2   9
BRANCH   1  15
ATOM     15  N   UNL d   1      -0.351  -2.942   0.799  0.00  0.00    -0.108 N 
ATOM     16  O   UNL d   1      -0.303  -3.122   2.026  0.00  0.00    -0.532 OA
ATOM     17  O   UNL d   1      -0.610  -3.815  -0.041  0.00  0.00    -0.532 OA
ENDBRANCH   1  15
BRANCH   3  18
ATOM     18  N   UNL d   1      -2.535  -1.202   0.532  0.00  0.00    -0.281 NA
ATOM     19  C   UNL d   1      -3.607  -0.246   0.303  0.00  0.00     0.114 C 
ATOM     20  H   UNL d   1      -2.583  -1.601   1.469  0.00  0.00     0.128 HD
ENDBRANCH   3  18
TORSDOF 3
