REMARK  8 active torsions:
REMARK  status: ('A' for Active; 'I' for Inactive)
REMARK    1  A    between atoms: C_2  and  C_1 
REMARK    2  A    between atoms: N_6  and  C_1 
REMARK    3  A    between atoms: O_8  and  N_3 
REMARK    4  A    between atoms: C_5  and  O_12 
REMARK    5  A    between atoms: C_14  and  N_6 
REMARK    6  A    between atoms: C_7  and  O_8 
REMARK    7  A    between atoms: C_9  and  C_7 
REMARK    8  A    between atoms: O_12  and  C_20 
ROOT
ATOM      1  C   UNL d   1       0.993   0.005  -0.224  0.00  0.00     0.140 C 
ATOM      2  N   UNL d   1       0.395   1.157  -0.102  0.00  0.00    -0.240 N 
ATOM      3  HN  UNL d   1       0.892   2.046  -0.055  1.00  0.00     0.196 HD
ENDROOT
BRANCH   1   4
ATOM      4  C   UNL d   1       2.490   0.075  -0.184  0.00  0.00     0.053 A 
ATOM      5  C   UNL d   1       3.133   0.638   0.935  0.00  0.00     0.049 A 
ATOM      6 CL   UNL d   1       2.286   1.160   2.351  0.00  0.00    -0.083 Cl
ATOM      7  C   UNL d   1       4.529   0.764   0.965  0.00  0.00     0.025 A 
ATOM      8  C   UNL d   1       5.301   0.301  -0.096  0.00  0.00     0.003 A 
ATOM      9  C   UNL d   1       4.676  -0.257  -1.208  0.00  0.00     0.025 A 
ATOM     10  C   UNL d   1       3.277  -0.341  -1.271  0.00  0.00     0.049 A 
ATOM     11 CL   UNL d   1       2.612  -0.890  -2.771  0.00  0.00    -0.083 Cl
ENDBRANCH   1   4
BRANCH   1  12
ATOM     12  N   UNL d   1       0.306  -1.179  -0.422  0.00  0.00    -0.340 N 
ATOM     13  H   UNL d   1      -0.628  -1.053  -0.788  0.00  0.00     0.167 HD
BRANCH  12  14
ATOM     14  C   UNL d   1       0.787  -2.497  -0.445  0.00  0.00     0.033 A 
ATOM     15  C   UNL d   1       1.688  -2.985   0.506  0.00  0.00     0.032 A 
ATOM     16  C   UNL d   1       2.246  -4.267   0.386  0.00  0.00     0.039 A 
ATOM     17  C   UNL d   1       1.951  -5.056  -0.725  0.00  0.00     0.078 A 
ATOM     18  C   UNL d   1       1.014  -4.597  -1.650  0.00  0.00     0.039 A 
ATOM     19  C   UNL d   1       0.436  -3.332  -1.510  0.00  0.00     0.032 A 
BRANCH  17  20
ATOM     20  O   UNL d   1       2.480  -6.277  -1.007  0.00  0.00    -0.255 OA
BRANCH  20  21
ATOM     21  C   UNL d   1       3.790  -6.576  -0.545  0.00  0.00     0.530 C 
ATOM     22  F   UNL d   1       4.527  -5.482  -0.255  0.00  0.00    -0.144 F 
ATOM     23  F   UNL d   1       3.718  -7.363   0.549  0.00  0.00    -0.144 F 
ATOM     24  F   UNL d   1       4.439  -7.260  -1.515  0.00  0.00    -0.144 F 
ENDBRANCH  20  21
ENDBRANCH  17  20
ENDBRANCH  12  14
ENDBRANCH   1  12
BRANCH   2  25
ATOM     25  O   UNL d   1      -1.011   1.048  -0.042  0.00  0.00    -0.193 OA
BRANCH  25  26
ATOM     26  C   UNL d   1      -1.514   2.185   0.535  0.00  0.00     0.315 C 
ATOM     27  O   UNL d   1      -0.882   3.144   0.962  0.00  0.00    -0.257 OA
BRANCH  26  28
ATOM     28  C   UNL d   1      -3.002   2.155   0.586  0.00  0.00     0.041 A 
ATOM     29  C   UNL d   1      -3.659   3.317   1.027  0.00  0.00     0.019 A 
ATOM     30  C   UNL d   1      -5.055   3.370   1.079  0.00  0.00     0.025 A 
ATOM     31  C   UNL d   1      -5.803   2.260   0.698  0.00  0.00     0.034 A 
ATOM     32  C   UNL d   1      -5.162   1.096   0.273  0.00  0.00     0.025 A 
ATOM     33 CL   UNL d   1      -7.519   2.329   0.746  0.00  0.00    -0.084 Cl
ATOM     34  C   UNL d   1      -3.766   1.036   0.218  0.00  0.00     0.019 A 
ENDBRANCH  26  28
ENDBRANCH  25  26
ENDBRANCH   2  25
TORSDOF 8
