REMARK  3 active torsions:
REMARK  status: ('A' for Active; 'I' for Inactive)
REMARK    1  A    between atoms: C_7  and  C_5 
REMARK    2  A    between atoms: C_10  and  N_8 
REMARK    3  A    between atoms: O_18  and  C_12 
ROOT
ATOM      1  C   UNL d   1       0.300  -1.188   0.020  0.00  0.00     0.149 A 
ATOM      2  S   UNL d   1      -1.004  -0.092  -0.260  0.00  0.00    -0.052 SA
ATOM      3  N   UNL d   1       1.451  -0.600   0.271  0.00  0.00    -0.345 N 
ATOM      4  HN  UNL d   1       2.323  -1.092   0.464  1.00  0.00     0.167 HD
ATOM      5  C   UNL d   1       0.042   1.245   0.005  0.00  0.00     0.034 A 
ATOM      6  C   UNL d   1       1.316   0.766   0.237  0.00  0.00     0.110 A 
ATOM      7  N   UNL d   1       0.105  -2.522  -0.054  0.00  0.00    -0.337 N 
ATOM      8  H   UNL d   1      -0.754  -2.869  -0.462  0.00  0.00     0.168 HD
ENDROOT
BRANCH   7   9
ATOM      9  C   UNL d   1       0.944  -3.505   0.503  0.00  0.00     0.034 A 
ATOM     10  C   UNL d   1       1.738  -3.259   1.635  0.00  0.00     0.032 A 
ATOM     11  C   UNL d   1       2.607  -4.232   2.135  0.00  0.00     0.044 A 
ATOM     12  C   UNL d   1       2.710  -5.450   1.480  0.00  0.00     0.116 A 
ATOM     13  C   UNL d   1       1.955  -5.715   0.345  0.00  0.00     0.044 A 
ATOM     14  F   UNL d   1       3.554  -6.380   1.946  0.00  0.00    -0.206 F 
ATOM     15  C   UNL d   1       1.073  -4.745  -0.142  0.00  0.00     0.032 A 
ENDBRANCH   7   9
BRANCH   5  16
ATOM     16  C   UNL d   1      -0.415   2.634  -0.072  0.00  0.00    -0.015 A 
ATOM     17  C   UNL d   1       0.414   3.597  -0.676  0.00  0.00     0.049 A 
ATOM     18  C   UNL d   1       0.039   4.940  -0.732  0.00  0.00     0.069 A 
ATOM     19  C   UNL d   1      -1.180   5.330  -0.175  0.00  0.00     0.037 A 
ATOM     20  C   UNL d   1      -2.013   4.391   0.433  0.00  0.00     0.004 A 
ATOM     21  C   UNL d   1      -1.633   3.048   0.484  0.00  0.00     0.013 A 
BRANCH  18  22
ATOM     22  O   UNL d   1       0.768   5.952  -1.293  0.00  0.00    -0.356 OA
ATOM     23  C   UNL d   1       2.035   5.603  -1.840  0.00  0.00     0.210 C 
ENDBRANCH  18  22
ENDBRANCH   5  16
TORSDOF 3
