REMARK  5 active torsions:
REMARK  status: ('A' for Active; 'I' for Inactive)
REMARK    1  A    between atoms: S_10  and  C_3 
REMARK    2  A    between atoms: C_8  and  C_7 
REMARK    3  A    between atoms: C_11  and  C_8 
REMARK    4  A    between atoms: C_9  and  S_10 
REMARK    5  A    between atoms: O_18  and  C_15 
ROOT
ATOM      1  C   UNL d   1      -5.871  -1.780   0.006  0.00  0.00     0.063 C 
ATOM      2  C   UNL d   1      -4.572  -1.476  -0.152  0.00  0.00     0.057 C 
ENDROOT
BRANCH   2   3
ATOM      3  S   UNL d   1      -4.093   0.187  -0.051  0.00  0.00    -0.058 SA
BRANCH   3   4
ATOM      4  C   UNL d   1      -2.361   0.095  -0.236  0.00  0.00     0.192 A 
ATOM      5  N   UNL d   1      -1.621   1.190  -0.202  0.00  0.00    -0.328 N 
ATOM      6  C   UNL d   1      -0.344   0.738  -0.386  0.00  0.00     0.068 A 
ATOM      7  HN  UNL d   1      -1.932   2.152  -0.069  1.00  0.00     0.168 HD
ATOM      8  C   UNL d   1      -0.350  -0.640  -0.523  0.00  0.00     0.105 A 
ATOM      9  C   UNL d   1       0.875   1.426  -0.451  0.00  0.00     0.032 A 
ATOM     10  C   UNL d   1       0.786  -1.415  -0.727  0.00  0.00     0.040 A 
ATOM     11  O   UNL d   1      -1.646  -1.063  -0.425  0.00  0.00    -0.285 OA
ATOM     12  C   UNL d   1       1.998  -0.713  -0.793  0.00  0.00     0.003 A 
ATOM     13  C   UNL d   1       2.045   0.681  -0.657  0.00  0.00     0.002 A 
ENDBRANCH   3   4
ENDBRANCH   2   3
BRANCH   1  14
ATOM     14  C   UNL d   1      -6.365  -3.182  -0.053  0.00  0.00     0.182 C 
ATOM     15  O   UNL d   1      -5.722  -4.079  -0.580  0.00  0.00    -0.288 OA
BRANCH  14  16
ATOM     16  C   UNL d   1      -7.718  -3.433   0.524  0.00  0.00     0.014 A 
ATOM     17  C   UNL d   1      -8.536  -4.414  -0.050  0.00  0.00     0.018 A 
ATOM     18  C   UNL d   1      -9.823  -4.647   0.456  0.00  0.00     0.037 A 
ATOM     19  C   UNL d   1     -10.291  -3.909   1.545  0.00  0.00     0.068 A 
ATOM     20  C   UNL d   1      -9.455  -2.969   2.148  0.00  0.00     0.037 A 
ATOM     21  C   UNL d   1      -8.177  -2.725   1.641  0.00  0.00     0.018 A 
BRANCH  19  22
ATOM     22  O   UNL d   1     -11.515  -4.059   2.135  0.00  0.00    -0.356 OA
ATOM     23  C   UNL d   1     -12.574  -4.440   1.263  0.00  0.00     0.210 C 
ENDBRANCH  19  22
ENDBRANCH  14  16
ENDBRANCH   1  14
TORSDOF 5
