REMARK  2 active torsions:
REMARK  status: ('A' for Active; 'I' for Inactive)
REMARK    1  A    between atoms: O_9  and  C_5 
REMARK    2  A    between atoms: O_10  and  C_6 
ROOT
ATOM      1  N   UNL d   1       1.286  -1.378  -0.006  0.00  0.00    -0.332 N 
ATOM      2  HN  UNL d   1       1.329  -2.397  -0.000  1.00  0.00     0.168 HD
ATOM      3  N   UNL d   1       1.205   1.470  -0.011  0.00  0.00    -0.332 N 
ATOM      4  HN  UNL d   1       1.184   2.489  -0.008  1.00  0.00     0.168 HD
ATOM      5  C   UNL d   1       2.383  -0.608  -0.016  0.00  0.00     0.193 A 
ATOM      6  C   UNL d   1       2.356   0.778  -0.018  0.00  0.00     0.193 A 
ATOM      7  C   UNL d   1       0.119  -0.698  -0.004  0.00  0.00     0.061 A 
ATOM      8  C   UNL d   1       0.080   0.728  -0.009  0.00  0.00     0.061 A 
ATOM      9  C   UNL d   1      -1.079  -1.402  -0.006  0.00  0.00     0.032 A 
ATOM     10  C   UNL d   1      -1.153   1.367  -0.019  0.00  0.00     0.032 A 
ATOM     11  C   UNL d   1      -2.310  -0.745  -0.021  0.00  0.00     0.002 A 
ATOM     12  C   UNL d   1      -2.347   0.644  -0.029  0.00  0.00     0.002 A 
ENDROOT
BRANCH   5  13
ATOM     13  O   UNL d   1       3.558  -1.292  -0.038  0.00  0.00    -0.343 OA
ATOM     14  H   UNL d   1       3.220  -2.207  -0.046  0.00  0.00     0.219 HD
ENDBRANCH   5  13
BRANCH   6  15
ATOM     15  O   UNL d   1       3.508   1.512  -0.038  0.00  0.00    -0.343 OA
ATOM     16  H   UNL d   1       4.224   0.852  -0.059  0.00  0.00     0.219 HD
ENDBRANCH   6  15
TORSDOF 2
