REMARK  3 active torsions:
REMARK  status: ('A' for Active; 'I' for Inactive)
REMARK    1  A    between atoms: N_7  and  C_2 
REMARK    2  A    between atoms: S_20  and  C_3 
REMARK    3  A    between atoms: C_14  and  N_11 
ROOT
ATOM      1  C   UNL d   1       0.881   0.255  -0.013  0.00  0.00     0.086 A 
ATOM      2  C   UNL d   1      -1.060  -1.219  -0.050  0.00  0.00     0.077 A 
ATOM      3  C   UNL d   1       0.011   1.351  -0.027  0.00  0.00     0.091 A 
ATOM      4  N   UNL d   1      -1.333   1.198  -0.029  0.00  0.00    -0.351 N 
ATOM      5  HN  UNL d   1      -1.947   2.013  -0.025  1.00  0.00     0.166 HD
ATOM      6  C   UNL d   1       0.340  -1.052  -0.006  0.00  0.00    -0.008 A 
ATOM      7  C   UNL d   1      -1.853  -0.061  -0.037  0.00  0.00     0.035 A 
ATOM      8  C   UNL d   1       2.304   0.445  -0.009  0.00  0.00     0.103 C 
ATOM      9  N   UNL d   1       3.460   0.545  -0.006  0.00  0.00    -0.191 NA
ATOM     10  C   UNL d   1       1.266  -2.246   0.028  0.00  0.00     0.052 C 
ATOM     11  C   UNL d   1      -3.354  -0.119  -0.033  0.00  0.00     0.070 C 
ENDROOT
BRANCH   3  12
ATOM     12  S   UNL d   1       0.632   3.035  -0.039  0.00  0.00    -0.115 SA
ATOM     13  C   UNL d   1      -0.906   3.991  -0.026  0.00  0.00     0.097 C 
ENDBRANCH   3  12
BRANCH   2  14
ATOM     14  N   UNL d   1      -1.645  -2.506  -0.057  0.00  0.00    -0.298 N 
ATOM     15  N   UNL d   1      -1.561  -3.004  -1.202  0.00  0.00    -0.300 N 
ATOM     16  HN  UNL d   1      -1.177  -2.513  -2.009  1.00  0.00     0.187 HD
ATOM     17  HN  UNL d   1      -2.073  -2.960   0.750  1.00  0.00     0.187 HD
BRANCH  15  18
ATOM     18  C   UNL d   1      -2.058  -4.323  -1.247  0.00  0.00     0.051 A 
ATOM     19  C   UNL d   1      -3.295  -4.687  -0.699  0.00  0.00     0.054 A 
ATOM     20  C   UNL d   1      -3.773  -5.990  -0.841  0.00  0.00     0.037 A 
ATOM     21 CL   UNL d   1      -5.303  -6.412  -0.174  0.00  0.00    -0.084 Cl
ATOM     22  C   UNL d   1      -3.035  -6.949  -1.530  0.00  0.00     0.048 A 
ATOM     23  C   UNL d   1      -1.805  -6.592  -2.071  0.00  0.00     0.037 A 
ATOM     24  C   UNL d   1      -1.317  -5.292  -1.934  0.00  0.00     0.054 A 
ATOM     25 CL   UNL d   1      -0.883  -7.763  -2.932  0.00  0.00    -0.084 Cl
ENDBRANCH  15  18
ENDBRANCH   2  14
TORSDOF 3
