REMARK  4 active torsions:
REMARK  status: ('A' for Active; 'I' for Inactive)
REMARK    1  A    between atoms: C_6  and  C_1 
REMARK    2  A    between atoms: C_7  and  O_11 
REMARK       I    between atoms: N_10  and  C_7 
REMARK    3  A    between atoms: O_11  and  N_8 
REMARK    4  A    between atoms: C_17  and  N_10 
ROOT
ATOM      1  C   UNL d   1       3.753   0.006  -0.156  0.00  0.00     0.046 C 
ATOM      2  N   UNL d   1       4.510  -1.061  -0.133  0.00  0.00    -0.259 N 
ATOM      3  HN  UNL d   1       5.525  -1.063  -0.234  1.00  0.00     0.194 HD
ATOM      4  C   UNL d   1       2.237  -0.087  -0.037  0.00  0.00     0.071 C 
ENDROOT
BRANCH   1   5
ATOM      5  C   UNL d   1       4.395   1.316  -0.261  0.00  0.00     0.036 A 
ATOM      6  S   UNL d   1       3.670   2.670   0.498  0.00  0.00    -0.087 SA
ATOM      7  C   UNL d   1       4.979   3.711   0.134  0.00  0.00     0.016 A 
ATOM      8  C   UNL d   1       5.103   5.070   0.488  0.00  0.00     0.021 A 
ATOM      9  C   UNL d   1       5.973   3.037  -0.574  0.00  0.00    -0.010 A 
ATOM     10  C   UNL d   1       6.284   5.745   0.173  0.00  0.00     0.025 A 
ATOM     11  C   UNL d   1       7.306   5.086  -0.491  0.00  0.00     0.035 A 
ATOM     12  C   UNL d   1       7.159   3.753  -0.885  0.00  0.00     0.037 A 
ATOM     13 CL   UNL d   1       8.780   5.911  -0.825  0.00  0.00    -0.084 Cl
ATOM     14  C   UNL d   1       5.588   1.670  -0.881  0.00  0.00    -0.031 A 
ATOM     15  C   UNL d   1       6.423   0.786  -1.758  0.00  0.00     0.050 C 
ENDBRANCH   1   5
BRANCH   2  16
ATOM     16  O   UNL d   1       3.708  -2.210   0.053  0.00  0.00    -0.181 OA
BRANCH  16  17
ATOM     17  C   UNL d   1       4.415  -3.397   0.119  0.00  0.00     0.387 C 
ATOM     18  N   UNL d   1       5.766  -3.264  -0.113  0.00  0.00    -0.301 N 
ATOM     19  H   UNL d   1       6.031  -2.304  -0.288  0.00  0.00     0.171 HD
ATOM     20  O   UNL d   1       3.813  -4.438   0.353  0.00  0.00    -0.236 OA
BRANCH  18  21
ATOM     21  C   UNL d   1       6.741  -4.279  -0.145  0.00  0.00     0.036 A 
ATOM     22  C   UNL d   1       6.467  -5.625   0.115  0.00  0.00     0.029 A 
ATOM     23  C   UNL d   1       7.481  -6.588   0.062  0.00  0.00     0.002 A 
ATOM     24  C   UNL d   1       8.783  -6.213  -0.255  0.00  0.00     0.000 A 
ATOM     25  C   UNL d   1       9.070  -4.875  -0.516  0.00  0.00     0.002 A 
ATOM     26  C   UNL d   1       8.055  -3.913  -0.460  0.00  0.00     0.029 A 
ENDBRANCH  18  21
ENDBRANCH  16  17
ENDBRANCH   2  16
TORSDOF 4
