REMARK  5 active torsions:
REMARK  status: ('A' for Active; 'I' for Inactive)
REMARK    1  A    between atoms: N_2  and  C_1 
REMARK    2  A    between atoms: N_4  and  C_1 
REMARK    3  A    between atoms: C_8  and  N_2 
REMARK    4  A    between atoms: C_9  and  N_4 
REMARK    5  A    between atoms: C_7  and  C_9 
ROOT
ATOM      1  C   UNL d   1       1.042  -0.153  -0.147  0.00  0.00     0.172 C 
ATOM      2  S   UNL d   1       0.254  -0.144   1.326  0.00  0.00    -0.041 SA
ENDROOT
BRANCH   1   3
ATOM      3  N   UNL d   1       0.471  -0.129  -1.390  0.00  0.00    -0.333 N 
ATOM      4  H   UNL d   1       0.852  -0.804  -2.041  0.00  0.00     0.168 HD
BRANCH   3   5
ATOM      5  C   UNL d   1      -0.674   0.577  -1.813  0.00  0.00     0.034 A 
ATOM      6  C   UNL d   1      -1.050   1.794  -1.240  0.00  0.00     0.030 A 
ATOM      7  C   UNL d   1      -2.063   2.562  -1.816  0.00  0.00     0.009 A 
ATOM      8  C   UNL d   1      -2.721   2.122  -2.970  0.00  0.00    -0.062 A 
ATOM      9  C   UNL d   1      -2.395   0.869  -3.498  0.00  0.00     0.009 A 
ATOM     10  C   UNL d   1      -3.743   3.000  -3.628  0.00  0.00     0.048 C 
ATOM     11  C   UNL d   1      -1.364   0.112  -2.935  0.00  0.00     0.030 A 
ENDBRANCH   3   5
ENDBRANCH   1   3
BRANCH   1  12
ATOM     12  N   UNL d   1       2.409  -0.261  -0.141  0.00  0.00    -0.363 N 
ATOM     13  H   UNL d   1       2.781  -0.310   0.800  0.00  0.00     0.162 HD
BRANCH  12  14
ATOM     14  C   UNL d   1       3.269   0.417  -1.100  0.00  0.00     0.162 C 
BRANCH  14  15
ATOM     15  C   UNL d   1       3.892  -0.481  -2.128  0.00  0.00    -0.025 A 
ATOM     16  C   UNL d   1       4.307   0.059  -3.345  0.00  0.00     0.096 A 
ATOM     17  N   UNL d   1       4.949  -0.633  -4.311  0.00  0.00    -0.375 N 
ATOM     18  C   UNL d   1       5.211  -1.932  -4.052  0.00  0.00     0.087 A 
ATOM     19  HN  UNL d   1       5.222  -0.197  -5.192  1.00  0.00     0.164 HD
ATOM     20  C   UNL d   1       4.853  -2.564  -2.873  0.00  0.00     0.018 A 
ATOM     21  C   UNL d   1       4.189  -1.827  -1.898  0.00  0.00     0.011 A 
ENDBRANCH  14  15
ENDBRANCH  12  14
ENDBRANCH   1  12
TORSDOF 5
