REMARK  5 active torsions:
REMARK  status: ('A' for Active; 'I' for Inactive)
REMARK    1  A    between atoms: N_11  and  C_1 
REMARK    2  A    between atoms: C_7  and  C_2 
REMARK    3  A    between atoms: C_10  and  N_3 
REMARK       I    between atoms: N_12  and  C_7 
REMARK    4  A    between atoms: N_8  and  N_12 
REMARK    5  A    between atoms: C_15  and  C_14 
ROOT
ATOM      1  C   UNL d   1       1.058  -0.752  -0.283  0.00  0.00     0.118 A 
ATOM      2  C   UNL d   1      -0.225  -1.249  -0.105  0.00  0.00     0.090 A 
ATOM      3  N   UNL d   1       0.970   0.639  -0.081  0.00  0.00    -0.245 N 
ATOM      4  N   UNL d   1      -0.275   1.003   0.322  0.00  0.00    -0.303 N 
ATOM      5  HN  UNL d   1      -0.594   1.930   0.604  1.00  0.00     0.186 HD
ATOM      6  C   UNL d   1      -0.986  -0.120   0.264  0.00  0.00     0.128 A 
ENDROOT
BRANCH   2   7
ATOM      7  C   UNL d   1      -0.707  -2.618  -0.134  0.00  0.00     0.274 C 
ATOM      8  N   UNL d   1       0.037  -3.493  -0.923  0.00  0.00    -0.266 N 
ATOM      9  H   UNL d   1       0.787  -3.136  -1.506  0.00  0.00     0.190 HD
ATOM     10  O   UNL d   1      -1.707  -2.943   0.506  0.00  0.00    -0.266 OA
BRANCH   8  11
ATOM     11  N   UNL d   1      -0.238  -4.826  -0.862  0.00  0.00    -0.308 N 
ATOM     12  C   UNL d   1       0.425  -5.615  -1.641  0.00  0.00     0.118 C 
ATOM     13  HN  UNL d   1      -0.945  -5.189  -0.222  1.00  0.00     0.186 HD
BRANCH  12  14
ATOM     14  C   UNL d   1       0.226  -7.082  -1.568  0.00  0.00    -0.019 A 
ATOM     15  C   UNL d   1      -0.713  -7.625  -0.680  0.00  0.00     0.014 A 
ATOM     16  C   UNL d   1      -0.850  -9.010  -0.565  0.00  0.00     0.024 A 
ATOM     17  C   UNL d   1      -0.051  -9.850  -1.338  0.00  0.00     0.034 A 
ATOM     18  C   UNL d   1       0.873  -9.315  -2.238  0.00  0.00     0.024 A 
ATOM     19 CL   UNL d   1      -0.194 -11.556  -1.173  0.00  0.00    -0.084 Cl
ATOM     20  C   UNL d   1       1.012  -7.927  -2.357  0.00  0.00     0.014 A 
ENDBRANCH  12  14
ENDBRANCH   8  11
ENDBRANCH   2   7
BRANCH   1  21
ATOM     21  N   UNL d   1       2.232  -1.435  -0.456  0.00  0.00    -0.286 NA
ATOM     22  H   UNL d   1       2.268  -2.384  -0.075  0.00  0.00     0.125 HD
ATOM     23  H   UNL d   1       3.091  -0.957  -0.170  0.00  0.00     0.125 HD
ENDBRANCH   1  21
BRANCH   3  24
ATOM     24  C   UNL d   1       2.014   1.607  -0.136  0.00  0.00     0.058 A 
ATOM     25  C   UNL d   1       3.106   1.439  -0.997  0.00  0.00     0.031 A 
ATOM     26  C   UNL d   1       4.170   2.342  -0.959  0.00  0.00     0.002 A 
ATOM     27  C   UNL d   1       4.146   3.414  -0.068  0.00  0.00     0.000 A 
ATOM     28  C   UNL d   1       3.037   3.614   0.754  0.00  0.00     0.002 A 
ATOM     29  C   UNL d   1       1.961   2.724   0.707  0.00  0.00     0.031 A 
ENDBRANCH   3  24
TORSDOF 5
