REMARK  6 active torsions:
REMARK  status: ('A' for Active; 'I' for Inactive)
REMARK    1  A    between atoms: C_7  and  C_3 
REMARK    2  A    between atoms: C_11  and  N_4 
REMARK    3  A    between atoms: O_12  and  C_7 
REMARK    4  A    between atoms: N_8  and  O_12 
REMARK    5  A    between atoms: C_14  and  C_10 
REMARK    6  A    between atoms: N_15  and  C_10 
ROOT
ATOM      1  C   UNL d   1       0.994  -0.929   0.025  0.00  0.00     0.333 C 
ATOM      2  O   UNL d   1       1.355   0.249   0.030  0.00  0.00    -0.256 OA
ENDROOT
BRANCH   1   3
ATOM      3  C   UNL d   1      -0.444  -1.273   0.004  0.00  0.00     0.127 A 
ATOM      4  N   UNL d   1      -0.970  -2.514   0.014  0.00  0.00    -0.292 N 
ATOM      5  N   UNL d   1      -2.327  -2.337  -0.013  0.00  0.00    -0.287 N 
ATOM      6  HN  UNL d   1      -0.463  -3.399   0.038  1.00  0.00     0.187 HD
ATOM      7  C   UNL d   1      -2.674  -0.999  -0.028  0.00  0.00     0.028 A 
ATOM      8  C   UNL d   1      -4.037  -0.406  -0.042  0.00  0.00     0.070 C 
ATOM      9  C   UNL d   1      -1.482  -0.310  -0.021  0.00  0.00     0.063 A 
BRANCH   5  10
ATOM     10  C   UNL d   1      -3.213  -3.527  -0.012  0.00  0.00     0.043 C 
ATOM     11  C   UNL d   1      -2.396  -4.845   0.021  0.00  0.00     0.039 C 
ATOM     12  C   UNL d   1      -4.118  -3.540   1.239  0.00  0.00     0.039 C 
ATOM     13  C   UNL d   1      -4.073  -3.581  -1.293  0.00  0.00     0.039 C 
ENDBRANCH   5  10
ENDBRANCH   1   3
BRANCH   1  14
ATOM     14  O   UNL d   1       1.854  -2.014   0.048  0.00  0.00    -0.192 OA
BRANCH  14  15
ATOM     15  N   UNL d   1       3.200  -1.536   0.054  0.00  0.00    -0.246 N 
ATOM     16  C   UNL d   1       4.077  -2.494   0.036  0.00  0.00     0.109 C 
ATOM     17  HN  UNL d   1       3.446  -0.546   0.071  1.00  0.00     0.196 HD
BRANCH  16  18
ATOM     18  C   UNL d   1       5.535  -2.117   0.030  0.00  0.00     0.004 A 
ATOM     19  C   UNL d   1       5.954  -0.906   0.600  0.00  0.00     0.015 A 
ATOM     20  C   UNL d   1       7.313  -0.571   0.625  0.00  0.00     0.001 A 
ATOM     21  C   UNL d   1       8.255  -1.436   0.070  0.00  0.00     0.000 A 
ATOM     22  C   UNL d   1       7.845  -2.632  -0.515  0.00  0.00     0.001 A 
ATOM     23  C   UNL d   1       6.489  -2.974  -0.535  0.00  0.00     0.015 A 
ENDBRANCH  16  18
BRANCH  16  24
ATOM     24  N   UNL d   1       3.750  -3.829   0.047  0.00  0.00    -0.286 NA
ATOM     25  H   UNL d   1       2.783  -3.983   0.318  0.00  0.00     0.125 HD
ATOM     26  H   UNL d   1       4.392  -4.427   0.555  0.00  0.00     0.125 HD
ENDBRANCH  16  24
ENDBRANCH  14  15
ENDBRANCH   1  14
TORSDOF 6
