REMARK  3 active torsions:
REMARK  status: ('A' for Active; 'I' for Inactive)
REMARK    1  A    between atoms: C_2  and  C_1 
REMARK       I    between atoms: N_3  and  C_2 
REMARK    2  A    between atoms: N_4  and  N_3 
REMARK    3  A    between atoms: C_7  and  N_4 
ROOT
ATOM      1  C   UNL d   1       0.214   2.117   0.384  0.00  0.00     0.271 C 
ATOM      2  N   UNL d   1       1.413   2.822   0.384  0.00  0.00    -0.282 N 
ATOM      3  O   UNL d   1       0.122   1.058  -0.232  0.00  0.00    -0.266 OA
ATOM      4  H   UNL d   1       1.471   3.787   0.697  0.00  0.00     0.184 HD
ENDROOT
BRANCH   2   5
ATOM      5  N   UNL d   1       2.406   2.377  -0.509  0.00  0.00    -0.203 NA
ATOM      6  H   UNL d   1       2.115   1.478  -0.919  0.00  0.00     0.153 HD
BRANCH   5   7
ATOM      7  C   UNL d   1       3.706   2.295   0.052  0.00  0.00     0.030 A 
ATOM      8  C   UNL d   1       4.598   1.336  -0.450  0.00  0.00     0.049 A 
ATOM      9  C   UNL d   1       5.924   1.290  -0.009  0.00  0.00     0.037 A 
ATOM     10 CL   UNL d   1       6.990   0.091  -0.633  0.00  0.00    -0.084 Cl
ATOM     11  C   UNL d   1       6.396   2.213   0.917  0.00  0.00     0.047 A 
ATOM     12  C   UNL d   1       5.528   3.188   1.395  0.00  0.00     0.037 A 
ATOM     13  C   UNL d   1       4.199   3.239   0.964  0.00  0.00     0.049 A 
ATOM     14 CL   UNL d   1       6.104   4.364   2.514  0.00  0.00    -0.084 Cl
ENDBRANCH   5   7
ENDBRANCH   2   5
BRANCH   1  15
ATOM     15  C   UNL d   1      -0.926   2.700   1.161  0.00  0.00     0.093 A 
ATOM     16  C   UNL d   1      -0.705   3.787   2.022  0.00  0.00     0.133 A 
ATOM     17  F   UNL d   1       0.507   4.356   2.125  0.00  0.00    -0.205 F 
ATOM     18  C   UNL d   1      -1.723   4.332   2.806  0.00  0.00     0.043 A 
ATOM     19  C   UNL d   1      -3.004   3.802   2.745  0.00  0.00     0.005 A 
ATOM     20  C   UNL d   1      -3.258   2.735   1.886  0.00  0.00     0.025 A 
ATOM     21  C   UNL d   1      -2.233   2.185   1.094  0.00  0.00     0.052 A 
ATOM     22 CL   UNL d   1      -2.726   0.893   0.053  0.00  0.00    -0.083 Cl
ENDBRANCH   1  15
TORSDOF 3
