REMARK  4 active torsions:
REMARK  status: ('A' for Active; 'I' for Inactive)
REMARK    1  A    between atoms: C_2  and  S_1 
REMARK    2  A    between atoms: N_6  and  S_1 
REMARK    3  A    between atoms: C_8  and  N_6 
REMARK    4  A    between atoms: O_18  and  C_12 
ROOT
ATOM      1  S   UNL d   1       1.219  -0.051   0.158  0.00  0.00     0.253 S 
ATOM      2  O   UNL d   1       0.674   1.281   0.318  0.00  0.00    -0.205 OA
ATOM      3  O   UNL d   1       2.645  -0.279   0.081  0.00  0.00    -0.205 OA
ENDROOT
BRANCH   1   4
ATOM      4  C   UNL d   1       0.558  -0.607  -1.410  0.00  0.00     0.122 A 
ATOM      5  S   UNL d   1      -1.140  -0.784  -1.446  0.00  0.00    -0.076 SA
ATOM      6  C   UNL d   1      -1.158  -1.170  -3.118  0.00  0.00     0.017 A 
ATOM      7  C   UNL d   1      -2.292  -1.414  -3.921  0.00  0.00     0.021 A 
ATOM      8  C   UNL d   1       0.136  -1.219  -3.641  0.00  0.00    -0.009 A 
ATOM      9  C   UNL d   1      -2.115  -1.728  -5.271  0.00  0.00     0.025 A 
ATOM     10  C   UNL d   1      -0.839  -1.807  -5.806  0.00  0.00     0.035 A 
ATOM     11  C   UNL d   1       0.283  -1.560  -5.011  0.00  0.00     0.037 A 
ATOM     12 CL   UNL d   1      -0.629  -2.205  -7.467  0.00  0.00    -0.084 Cl
ATOM     13  C   UNL d   1       1.133  -0.867  -2.648  0.00  0.00    -0.021 A 
ATOM     14  C   UNL d   1       2.595  -0.773  -2.954  0.00  0.00     0.051 C 
ENDBRANCH   1   4
BRANCH   1  15
ATOM     15  N   UNL d   1       0.550  -0.972   1.405  0.00  0.00    -0.178 NA
ATOM     16  H   UNL d   1       0.098  -0.356   2.078  0.00  0.00     0.146 HD
BRANCH  15  17
ATOM     17  C   UNL d   1       1.338  -2.015   1.988  0.00  0.00     0.056 A 
ATOM     18  C   UNL d   1       2.384  -1.814   2.906  0.00  0.00     0.090 A 
ATOM     19  C   UNL d   1       3.031  -2.932   3.456  0.00  0.00     0.038 A 
ATOM     20  C   UNL d   1       2.645  -4.228   3.116  0.00  0.00     0.003 A 
ATOM     21  C   UNL d   1       1.628  -4.422   2.187  0.00  0.00     0.002 A 
ATOM     22  C   UNL d   1       0.982  -3.320   1.623  0.00  0.00     0.027 A 
BRANCH  18  23
ATOM     23  O   UNL d   1       2.946  -0.632   3.302  0.00  0.00    -0.354 OA
ATOM     24  C   UNL d   1       2.080   0.446   3.610  0.00  0.00     0.210 C 
ENDBRANCH  18  23
ENDBRANCH  15  17
ENDBRANCH   1  15
TORSDOF 4
