REMARK  2 active torsions:
REMARK  status: ('A' for Active; 'I' for Inactive)
REMARK    1  A    between atoms: N_11  and  C_7 
REMARK    2  A    between atoms: C_14  and  N_11 
ROOT
ATOM      1  N   UNL d   1       1.047   0.968  -0.024  0.00  0.00    -0.270 N 
ATOM      2  N   UNL d   1      -1.254   0.429   0.044  0.00  0.00    -0.270 N 
ATOM      3  C   UNL d   1      -0.268   1.407   0.023  0.00  0.00     0.333 C 
ATOM      4  C   UNL d   1       0.377  -1.352   0.106  0.00  0.00     0.116 C 
ATOM      5  C   UNL d   1      -1.036  -0.940   0.027  0.00  0.00     0.268 C 
ATOM      6  C   UNL d   1       1.457  -0.350   0.025  0.00  0.00     0.268 C 
ATOM      7  C   UNL d   1       0.669  -2.653   0.296  0.00  0.00     0.111 C 
ATOM      8  O   UNL d   1      -0.547   2.608   0.045  0.00  0.00    -0.246 OA
ATOM      9  O   UNL d   1       2.644  -0.681   0.014  0.00  0.00    -0.267 OA
ATOM     10  O   UNL d   1      -1.946  -1.766  -0.036  0.00  0.00    -0.267 OA
ATOM     11  C   UNL d   1      -2.644   0.853   0.065  0.00  0.00     0.164 C 
ATOM     12  C   UNL d   1       2.112   1.958  -0.072  0.00  0.00     0.164 C 
ENDROOT
BRANCH   7  13
ATOM     13  N   UNL d   1       1.920  -3.207   0.446  0.00  0.00    -0.365 N 
ATOM     14  H   UNL d   1       2.692  -2.537   0.367  0.00  0.00     0.165 HD
BRANCH  13  15
ATOM     15  C   UNL d   1       2.313  -4.534   0.679  0.00  0.00     0.031 A 
ATOM     16  C   UNL d   1       1.434  -5.621   0.680  0.00  0.00     0.029 A 
ATOM     17  C   UNL d   1       1.898  -6.917   0.937  0.00  0.00     0.002 A 
ATOM     18  C   UNL d   1       3.245  -7.143   1.206  0.00  0.00     0.000 A 
ATOM     19  C   UNL d   1       4.132  -6.072   1.224  0.00  0.00     0.002 A 
ATOM     20  C   UNL d   1       3.666  -4.780   0.964  0.00  0.00     0.029 A 
ENDBRANCH  13  15
ENDBRANCH   7  13
TORSDOF 2
