REMARK  6 active torsions:
REMARK  status: ('A' for Active; 'I' for Inactive)
REMARK    1  A    between atoms: C_2  and  C_1 
REMARK    2  A    between atoms: O_9  and  C_2 
REMARK    3  A    between atoms: N_4  and  C_3 
REMARK    4  A    between atoms: C_8  and  N_4 
REMARK    5  A    between atoms: C_5  and  C_8 
REMARK    6  A    between atoms: O_10  and  C_5 
ROOT
ATOM      1  C   UNL d   1       1.399  -0.132   0.116  0.00  0.00     0.064 A 
ATOM      2  C   UNL d   1       0.608  -1.304   0.032  0.00  0.00     0.045 A 
ATOM      3  C   UNL d   1       0.803   1.140   0.113  0.00  0.00     0.020 A 
ATOM      4  C   UNL d   1      -0.780  -1.134  -0.112  0.00  0.00     0.030 A 
ATOM      5  C   UNL d   1      -0.578   1.272   0.015  0.00  0.00     0.001 A 
ATOM      6  C   UNL d   1      -1.367   0.136  -0.101  0.00  0.00     0.002 A 
ENDROOT
BRANCH   2   7
ATOM      7  N   UNL d   1       1.189  -2.574   0.049  0.00  0.00    -0.379 N 
ATOM      8  H   UNL d   1       1.888  -2.750   0.778  0.00  0.00     0.160 HD
BRANCH   7   9
ATOM      9  C   UNL d   1       0.550  -3.774  -0.539  0.00  0.00     0.229 C 
BRANCH   9  10
ATOM     10  C   UNL d   1      -0.398  -4.511   0.401  0.00  0.00     0.158 C 
ATOM     11  O   UNL d   1      -0.989  -5.536   0.093  0.00  0.00    -0.649 OA
BRANCH  10  12
ATOM     12  O   UNL d   1      -0.536  -3.934   1.617  0.00  0.00    -0.775 OA
ATOM     13  H   UNL d   1      -0.036  -3.094   1.658  0.00  0.00     0.167 HD
ENDBRANCH  10  12
ENDBRANCH   9  10
ENDBRANCH   7   9
ENDBRANCH   2   7
BRANCH   1  14
ATOM     14  C   UNL d   1       2.893  -0.150   0.172  0.00  0.00     0.178 C 
ATOM     15  O   UNL d   1       3.554   0.762   0.635  0.00  0.00    -0.646 OA
BRANCH  14  16
ATOM     16  O   UNL d   1       3.448  -1.252  -0.378  0.00  0.00    -0.773 OA
ATOM     17  H   UNL d   1       2.772  -1.844  -0.774  0.00  0.00     0.167 HD
ENDBRANCH  14  16
ENDBRANCH   1  14
TORSDOF 6
