REMARK  6 active torsions:
REMARK  status: ('A' for Active; 'I' for Inactive)
REMARK    1  A    between atoms: N_4  and  C_1 
REMARK    2  A    between atoms: N_5  and  C_1 
REMARK    3  A    between atoms: C_3  and  N_4 
REMARK    4  A    between atoms: C_6  and  N_5 
REMARK    5  A    between atoms: C_20  and  C_9 
REMARK    6  A    between atoms: C_19  and  C_10 
ROOT
ATOM      1  C   UNL d   1       0.774  -0.117   0.108  0.00  0.00     0.176 C 
ATOM      2  S   UNL d   1      -0.537  -1.165   0.156  0.00  0.00    -0.041 SA
ENDROOT
BRANCH   1   3
ATOM      3  N   UNL d   1       0.466   1.143  -0.315  0.00  0.00    -0.332 N 
ATOM      4  H   UNL d   1      -0.529   1.321  -0.234  0.00  0.00     0.168 HD
BRANCH   3   5
ATOM      5  C   UNL d   1       1.211   2.228  -0.820  0.00  0.00     0.046 A 
ATOM      6  C   UNL d   1       2.207   2.095  -1.819  0.00  0.00    -0.031 A 
ATOM      7  C   UNL d   1       2.808   3.270  -2.317  0.00  0.00     0.009 A 
ATOM      8  C   UNL d   1       2.389   4.536  -1.915  0.00  0.00     0.001 A 
ATOM      9  C   UNL d   1       1.378   4.661  -0.975  0.00  0.00     0.009 A 
ATOM     10  C   UNL d   1       0.787   3.521  -0.409  0.00  0.00    -0.031 A 
BRANCH   6  11
ATOM     11  C   UNL d   1       2.612   0.762  -2.420  0.00  0.00     0.036 C 
ATOM     12  C   UNL d   1       3.037   0.756  -3.887  0.00  0.00     0.010 C 
ENDBRANCH   6  11
BRANCH  10  13
ATOM     13  C   UNL d   1      -0.264   3.744   0.663  0.00  0.00     0.036 C 
ATOM     14  C   UNL d   1      -1.667   3.889   0.095  0.00  0.00     0.010 C 
ENDBRANCH  10  13
ENDBRANCH   3   5
ENDBRANCH   1   3
BRANCH   1  15
ATOM     15  N   UNL d   1       2.068  -0.353   0.510  0.00  0.00    -0.332 N 
ATOM     16  H   UNL d   1       2.762   0.284   0.131  0.00  0.00     0.168 HD
BRANCH  15  17
ATOM     17  C   UNL d   1       2.610  -1.466   1.222  0.00  0.00     0.058 A 
ATOM     18  C   UNL d   1       3.962  -1.831   1.050  0.00  0.00     0.082 A 
ATOM     19  C   UNL d   1       4.479  -2.966   1.701  0.00  0.00     0.058 A 
ATOM     20 CL   UNL d   1       4.987  -0.883   0.018  0.00  0.00    -0.080 Cl
ATOM     21 CL   UNL d   1       6.102  -3.519   1.466  0.00  0.00    -0.082 Cl
ATOM     22  C   UNL d   1       3.677  -3.707   2.571  0.00  0.00     0.026 A 
ATOM     23  C   UNL d   1       2.369  -3.307   2.810  0.00  0.00     0.004 A 
ATOM     24  C   UNL d   1       1.846  -2.194   2.148  0.00  0.00     0.031 A 
ENDBRANCH  15  17
ENDBRANCH   1  15
TORSDOF 6
