REMARK  3 active torsions:
REMARK  status: ('A' for Active; 'I' for Inactive)
REMARK    1  A    between atoms: C_5  and  C_1 
REMARK    2  A    between atoms: C_8  and  C_4 
REMARK       I    between atoms: N_10  and  C_5 
REMARK    3  A    between atoms: O_14  and  N_10 
ROOT
ATOM      1  C   UNL d   1       1.344   0.812   0.021  0.00  0.00     0.110 A 
ATOM      2  N   UNL d   1       1.462  -0.583   0.026  0.00  0.00    -0.345 N 
ATOM      3  HN  UNL d   1       2.344  -1.093   0.071  1.00  0.00     0.167 HD
ATOM      4  C   UNL d   1       0.268  -1.147  -0.036  0.00  0.00     0.086 A 
ATOM      5  S   UNL d   1      -1.051  -0.035  -0.053  0.00  0.00    -0.081 SA
ATOM      6  C   UNL d   1       0.043   1.275  -0.015  0.00  0.00     0.087 A 
ENDROOT
BRANCH   4   7
ATOM      7  C   UNL d   1       0.030  -2.596  -0.043  0.00  0.00     0.013 A 
ATOM      8  C   UNL d   1      -1.061  -3.186  -0.680  0.00  0.00     0.101 A 
ATOM      9  N   UNL d   1      -1.316  -4.518  -0.704  0.00  0.00    -0.374 N 
ATOM     10  C   UNL d   1      -0.437  -5.315  -0.064  0.00  0.00     0.087 A 
ATOM     11  HN  UNL d   1      -2.133  -4.898  -1.183  1.00  0.00     0.164 HD
ATOM     12  C   UNL d   1       0.686  -4.841   0.592  0.00  0.00     0.018 A 
ATOM     13  C   UNL d   1       0.922  -3.466   0.596  0.00  0.00     0.017 A 
ENDBRANCH   4   7
BRANCH   1  14
ATOM     14  C   UNL d   1       2.512   1.691   0.051  0.00  0.00     0.292 C 
ATOM     15  O   UNL d   1       2.447   2.919   0.047  0.00  0.00    -0.264 OA
ATOM     16  N   UNL d   1       3.707   1.019   0.064  0.00  0.00    -0.232 N 
ATOM     17  H   UNL d   1       3.762   0.010  -0.041  0.00  0.00     0.197 HD
BRANCH  16  18
ATOM     18  O   UNL d   1       4.894   1.778  -0.002  0.00  0.00    -0.287 OA
ATOM     19  H   UNL d   1       4.558   2.700  -0.018  0.00  0.00     0.244 HD
ENDBRANCH  16  18
ENDBRANCH   1  14
TORSDOF 3
