REMARK  10 active torsions:
REMARK  status: ('A' for Active; 'I' for Inactive)
REMARK    1  A    between atoms: C_13  and  N_1 
REMARK    2  A    between atoms: S_14  and  C_5 
REMARK    3  A    between atoms: C_8  and  C_11 
REMARK    4  A    between atoms: C_9  and  C_12 
REMARK    5  A    between atoms: C_34  and  S_14 
REMARK    6  A    between atoms: C_16  and  N_18 
REMARK    7  A    between atoms: C_17  and  C_34 
REMARK       I    between atoms: N_18  and  C_17 
REMARK    8  A    between atoms: O_35  and  C_36 
REMARK    9  A    between atoms: C_37  and  O_35 
REMARK   10  A    between atoms: C_40  and  C_37 
ROOT
ATOM      1  N   UNL d   1      -0.197  -1.394   0.209  0.00  0.00    -0.273 N 
ATOM      2  C   UNL d   1       1.016  -0.716   0.102  0.00  0.00     0.163 A 
ATOM      3  N   UNL d   1       0.821   0.580   0.267  0.00  0.00    -0.281 N 
ATOM      4  HN  UNL d   1       1.542   1.301   0.229  1.00  0.00     0.188 HD
ATOM      5  C   UNL d   1      -1.100  -0.382   0.501  0.00  0.00     0.168 A 
ATOM      6  N   UNL d   1      -0.506   0.789   0.499  0.00  0.00    -0.278 N 
ATOM      7  HN  UNL d   1      -0.957   1.693   0.644  1.00  0.00     0.189 HD
ATOM      8  C   UNL d   1       2.312  -1.271  -0.148  0.00  0.00     0.120 A 
ATOM      9  O   UNL d   1       2.535  -2.419  -0.866  0.00  0.00    -0.319 OA
ATOM     10  C   UNL d   1       3.534  -0.796   0.303  0.00  0.00     0.043 A 
ATOM     11  C   UNL d   1       3.860  -2.699  -0.804  0.00  0.00     0.142 A 
ATOM     12  C   UNL d   1       4.521  -1.731  -0.089  0.00  0.00     0.027 A 
ENDROOT
BRANCH   5  13
ATOM     13  S   UNL d   1      -2.711  -0.553   1.125  0.00  0.00    -0.083 SA
BRANCH  13  14
ATOM     14  C   UNL d   1      -2.430  -1.445   2.671  0.00  0.00     0.185 C 
BRANCH  14  15
ATOM     15  C   UNL d   1      -1.649  -0.746   3.770  0.00  0.00     0.231 C 
ATOM     16  N   UNL d   1      -1.198   0.541   3.540  0.00  0.00    -0.326 N 
ATOM     17  H   UNL d   1      -1.526   1.000   2.694  0.00  0.00     0.169 HD
ATOM     18  O   UNL d   1      -1.450  -1.373   4.812  0.00  0.00    -0.272 OA
BRANCH  16  19
ATOM     19  C   UNL d   1      -0.277   1.270   4.330  0.00  0.00     0.036 A 
ATOM     20  C   UNL d   1       0.418   0.714   5.407  0.00  0.00     0.045 A 
ATOM     21  C   UNL d   1       1.388   1.446   6.113  0.00  0.00     0.050 A 
ATOM     22  C   UNL d   1       1.635   2.774   5.747  0.00  0.00     0.032 A 
ATOM     23  C   UNL d   1       0.950   3.361   4.673  0.00  0.00     0.050 A 
ATOM     24  C   UNL d   1      -0.004   2.595   3.969  0.00  0.00     0.045 A 
BRANCH  21  25
ATOM     25  C   UNL d   1       2.164   0.769   7.217  0.00  0.00     0.417 C 
ATOM     26  F   UNL d   1       3.143   1.555   7.748  0.00  0.00    -0.166 F 
ATOM     27  F   UNL d   1       1.379   0.392   8.262  0.00  0.00    -0.166 F 
ATOM     28  F   UNL d   1       2.792  -0.361   6.788  0.00  0.00    -0.166 F 
ENDBRANCH  21  25
BRANCH  23  29
ATOM     29  C   UNL d   1       1.245   4.783   4.256  0.00  0.00     0.417 C 
ATOM     30  F   UNL d   1       2.258   5.354   4.966  0.00  0.00    -0.166 F 
ATOM     31  F   UNL d   1       1.611   4.878   2.948  0.00  0.00    -0.166 F 
ATOM     32  F   UNL d   1       0.173   5.606   4.409  0.00  0.00    -0.166 F 
ENDBRANCH  23  29
ENDBRANCH  16  19
ENDBRANCH  14  15
ENDBRANCH  13  14
ENDBRANCH   5  13
BRANCH   1  33
ATOM     33  C   UNL d   1      -0.432  -2.797   0.157  0.00  0.00     0.043 A 
ATOM     34  C   UNL d   1       0.492  -3.677   0.730  0.00  0.00     0.033 A 
ATOM     35  C   UNL d   1       0.290  -5.058   0.679  0.00  0.00     0.039 A 
ATOM     36  C   UNL d   1      -0.849  -5.578   0.071  0.00  0.00     0.069 A 
ATOM     37  C   UNL d   1      -1.795  -4.703  -0.465  0.00  0.00     0.039 A 
ATOM     38  C   UNL d   1      -1.590  -3.316  -0.435  0.00  0.00     0.033 A 
BRANCH  36  39
ATOM     39  O   UNL d   1      -1.155  -6.910  -0.011  0.00  0.00    -0.347 OA
BRANCH  39  40
ATOM     40  C   UNL d   1      -0.040  -7.807   0.010  0.00  0.00     0.214 C 
BRANCH  40  41
ATOM     41  C   UNL d   1      -0.509  -9.243   0.009  0.00  0.00    -0.034 A 
ATOM     42  C   UNL d   1       0.235 -10.223  -0.665  0.00  0.00     0.009 A 
ATOM     43  C   UNL d   1      -0.138 -11.567  -0.597  0.00  0.00     0.001 A 
ATOM     44  C   UNL d   1      -1.250 -11.946   0.151  0.00  0.00     0.000 A 
ATOM     45  C   UNL d   1      -1.992 -10.983   0.832  0.00  0.00     0.001 A 
ATOM     46  C   UNL d   1      -1.621  -9.639   0.766  0.00  0.00     0.009 A 
ENDBRANCH  40  41
ENDBRANCH  39  40
ENDBRANCH  36  39
ENDBRANCH   1  33
TORSDOF 10
