REMARK  3 active torsions:
REMARK  status: ('A' for Active; 'I' for Inactive)
REMARK    1  A    between atoms: C_6  and  C_1 
REMARK    2  A    between atoms: C_7  and  C_3 
REMARK    3  A    between atoms: O_11  and  C_6 
ROOT
ATOM      1  C   UNL d   1      -0.157  -1.309  -0.017  0.00  0.00     0.069 A 
ATOM      2  C   UNL d   1      -1.484  -0.783   0.029  0.00  0.00     0.059 A 
ATOM      3  C   UNL d   1      -1.390   0.592   0.009  0.00  0.00     0.087 A 
ATOM      4  C   UNL d   1       0.673  -0.200  -0.052  0.00  0.00     0.067 A 
ATOM      5  O   UNL d   1      -0.074   0.943  -0.062  0.00  0.00    -0.314 OA
ATOM      6  C   UNL d   1       2.134   0.039  -0.017  0.00  0.00     0.078 C 
ENDROOT
BRANCH   3   7
ATOM      7  C   UNL d   1      -2.359   1.681   0.089  0.00  0.00    -0.002 A 
ATOM      8  C   UNL d   1      -3.734   1.402   0.161  0.00  0.00     0.016 A 
ATOM      9  C   UNL d   1      -4.671   2.432   0.298  0.00  0.00     0.024 A 
ATOM     10  C   UNL d   1      -4.242   3.754   0.360  0.00  0.00     0.034 A 
ATOM     11  C   UNL d   1      -2.886   4.056   0.273  0.00  0.00     0.024 A 
ATOM     12 CL   UNL d   1      -5.391   5.018   0.558  0.00  0.00    -0.084 Cl
ATOM     13  C   UNL d   1      -1.951   3.024   0.136  0.00  0.00     0.016 A 
ENDBRANCH   3   7
BRANCH   1  14
ATOM     14  C   UNL d   1       0.181  -2.721   0.043  0.00  0.00     0.178 C 
ATOM     15  O   UNL d   1      -0.551  -3.555   0.554  0.00  0.00    -0.646 OA
BRANCH  14  16
ATOM     16  O   UNL d   1       1.345  -3.073  -0.556  0.00  0.00    -0.773 OA
ATOM     17  H   UNL d   1       1.724  -2.356  -1.091  0.00  0.00     0.167 HD
ENDBRANCH  14  16
ENDBRANCH   1  14
TORSDOF 3
