REMARK  3 active torsions:
REMARK  status: ('A' for Active; 'I' for Inactive)
REMARK    1  A    between atoms: C_2  and  C_1 
REMARK    2  A    between atoms: O_8  and  C_2 
REMARK    3  A    between atoms: C_7  and  C_3 
ROOT
ATOM      1  C   UNL d   1       1.043   0.090   0.800  0.00  0.00     0.118 C 
ATOM      2  C   UNL d   1       0.363  -0.989   0.366  0.00  0.00     0.041 C 
ATOM      3  C   UNL d   1       0.408   1.243   1.327  0.00  0.00     0.106 C 
ATOM      4  N   UNL d   1      -0.006   2.230   1.773  0.00  0.00    -0.191 NA
ENDROOT
BRANCH   1   5
ATOM      5  C   UNL d   1       2.525   0.036   0.700  0.00  0.00     0.187 C 
ATOM      6  O   UNL d   1       3.130  -0.930   0.258  0.00  0.00    -0.645 OA
BRANCH   5   7
ATOM      7  O   UNL d   1       3.186   1.135   1.127  0.00  0.00    -0.772 OA
ATOM      8  H   UNL d   1       2.677   1.894   1.473  0.00  0.00     0.167 HD
ENDBRANCH   5   7
ENDBRANCH   1   5
BRANCH   2   9
ATOM      9  C   UNL d   1      -1.096  -1.118   0.358  0.00  0.00    -0.035 A 
ATOM     10  C   UNL d   1      -1.829  -0.695  -0.756  0.00  0.00     0.011 A 
ATOM     11  C   UNL d   1      -3.217  -0.837  -0.777  0.00  0.00     0.001 A 
ATOM     12  C   UNL d   1      -3.878  -1.401   0.314  0.00  0.00     0.000 A 
ATOM     13  C   UNL d   1      -3.152  -1.821   1.428  0.00  0.00     0.001 A 
ATOM     14  C   UNL d   1      -1.763  -1.679   1.452  0.00  0.00     0.011 A 
ENDBRANCH   2   9
TORSDOF 3
