REMARK  5 active torsions:
REMARK  status: ('A' for Active; 'I' for Inactive)
REMARK    1  A    between atoms: N_7  and  C_2 
REMARK    2  A    between atoms: C_11  and  C_5 
REMARK    3  A    between atoms: C_6  and  O_10 
REMARK    4  A    between atoms: O_10  and  C_16 
REMARK    5  A    between atoms: C_15  and  C_11 
ROOT
ATOM      1  C   UNL d   1      -2.655  -1.871  -1.619  0.00  0.00    -0.056 A 
ATOM      2  C   UNL d   1      -5.408  -2.130  -2.151  0.00  0.00     0.078 A 
ATOM      3  C   UNL d   1      -3.484  -0.742  -1.690  0.00  0.00     0.010 A 
ATOM      4  C   UNL d   1      -3.225  -3.136  -1.773  0.00  0.00     0.010 A 
ATOM      5  C   UNL d   1      -4.854  -0.871  -1.936  0.00  0.00     0.037 A 
ATOM      6  C   UNL d   1      -4.591  -3.260  -2.038  0.00  0.00     0.037 A 
ENDROOT
BRANCH   1   7
ATOM      7  C   UNL d   1      -1.172  -1.709  -1.378  0.00  0.00     0.063 C 
BRANCH   7   8
ATOM      8  C   UNL d   1      -0.767  -1.753   0.098  0.00  0.00     0.151 C 
ATOM      9  C   UNL d   1      -1.336  -0.584   0.894  0.00  0.00     0.238 C 
ATOM     10  N   UNL d   1      -0.421   0.412   1.061  0.00  0.00    -0.307 N 
ATOM     11  O   UNL d   1      -2.471  -0.510   1.336  0.00  0.00    -0.272 OA
ATOM     12  C   UNL d   1       0.861   0.123   0.782  0.00  0.00     0.141 C 
ATOM     13  H   UNL d   1      -0.692   1.248   1.553  0.00  0.00     0.171 HD
ATOM     14  S   UNL d   1       1.049  -1.496   0.204  0.00  0.00    -0.080 SA
BRANCH  12  15
ATOM     15  N   UNL d   1       1.828   0.941   0.935  0.00  0.00    -0.380 N 
ATOM     16  H   UNL d   1       1.493   1.838   1.285  0.00  0.00     0.158 HD
ATOM     17  HN  UNL d   1       2.805   0.727   0.734  1.00  0.00     0.158 HD
ENDBRANCH  12  15
ENDBRANCH   7   8
ENDBRANCH   1   7
BRANCH   2  18
ATOM     18  O   UNL d   1      -6.705  -2.401  -2.478  0.00  0.00    -0.255 OA
BRANCH  18  19
ATOM     19  C   UNL d   1      -7.517  -1.329  -2.928  0.00  0.00     0.530 C 
ATOM     20  F   UNL d   1      -6.861  -0.501  -3.771  0.00  0.00    -0.144 F 
ATOM     21  F   UNL d   1      -8.571  -1.845  -3.600  0.00  0.00    -0.144 F 
ATOM     22  F   UNL d   1      -7.990  -0.622  -1.880  0.00  0.00    -0.144 F 
ENDBRANCH  18  19
ENDBRANCH   2  18
TORSDOF 5
