REMARK  8 active torsions:
REMARK  status: ('A' for Active; 'I' for Inactive)
REMARK    1  A    between atoms: N_2  and  C_1 
REMARK    2  A    between atoms: C_3  and  C_1 
REMARK    3  A    between atoms: N_4  and  C_1 
REMARK    4  A    between atoms: C_6  and  C_1 
REMARK       I    between atoms: C_5  and  N_2 
REMARK    5  A    between atoms: C_7  and  N_4 
REMARK    6  A    between atoms: C_8  and  C_5 
REMARK    7  A    between atoms: O_19  and  C_6 
REMARK    8  A    between atoms: C_26  and  O_19 
ROOT
ATOM      1  C   UNL d   1       1.132  -0.079  -0.009  0.00  0.00     0.281 C 
ENDROOT
BRANCH   1   2
ATOM      2  N   UNL d   1       0.783   0.044  -1.429  0.00  0.00    -0.319 N 
ATOM      3  C   UNL d   1      -0.384  -0.372  -1.999  0.00  0.00     0.255 C 
ATOM      4  O   UNL d   1      -1.267  -0.967  -1.398  0.00  0.00    -0.268 OA
ATOM      5  H   UNL d   1       1.443   0.606  -1.952  0.00  0.00     0.165 HD
BRANCH   3   6
ATOM      6  C   UNL d   1      -0.495  -0.125  -3.456  0.00  0.00     0.047 A 
ATOM      7  C   UNL d   1      -0.020   1.038  -4.045  0.00  0.00     0.104 A 
ATOM      8  N   UNL d   1      -0.034   1.271  -5.381  0.00  0.00    -0.374 N 
ATOM      9  C   UNL d   1      -0.559   0.296  -6.158  0.00  0.00     0.087 A 
ATOM     10  HN  UNL d   1       0.333   2.135  -5.780  1.00  0.00     0.164 HD
ATOM     11  C   UNL d   1      -1.080  -0.889  -5.662  0.00  0.00     0.018 A 
ATOM     12  C   UNL d   1      -1.052  -1.101  -4.285  0.00  0.00     0.020 A 
ENDBRANCH   3   6
ENDBRANCH   1   2
BRANCH   1  13
ATOM     13  C   UNL d   1       0.754  -1.430   0.700  0.00  0.00     0.436 C 
ATOM     14  F   UNL d   1       0.567  -2.464  -0.152  0.00  0.00    -0.166 F 
ATOM     15  F   UNL d   1       1.718  -1.837   1.574  0.00  0.00    -0.166 F 
ATOM     16  F   UNL d   1      -0.369  -1.303   1.455  0.00  0.00    -0.166 F 
ENDBRANCH   1  13
BRANCH   1  17
ATOM     17  N   UNL d   1       0.548   1.117   0.669  0.00  0.00    -0.236 NA
ATOM     18  H   UNL d   1       0.609   1.022   1.679  0.00  0.00     0.132 HD
BRANCH  17  19
ATOM     19  C   UNL d   1       0.972   2.391   0.289  0.00  0.00     0.082 A 
ATOM     20  N   UNL d   1       1.830   2.541  -0.742  0.00  0.00    -0.351 N 
ATOM     21  C   UNL d   1       2.205   3.794  -1.091  0.00  0.00     0.006 A 
ATOM     22  HN  UNL d   1       2.186   1.730  -1.246  1.00  0.00     0.167 HD
ATOM     23  C   UNL d   1       3.190   3.925  -2.217  0.00  0.00     0.068 C 
ATOM     24  C   UNL d   1       1.725   4.933  -0.456  0.00  0.00     0.024 A 
ATOM     25  C   UNL d   1       0.822   4.773   0.585  0.00  0.00     0.005 A 
ATOM     26  C   UNL d   1       0.440   3.489   0.959  0.00  0.00     0.042 A 
ENDBRANCH  17  19
ENDBRANCH   1  17
BRANCH   1  27
ATOM     27  C   UNL d   1       2.680  -0.113   0.045  0.00  0.00     0.312 C 
ATOM     28  O   UNL d   1       3.382  -0.620  -0.826  0.00  0.00    -0.260 OA
BRANCH  27  29
ATOM     29  O   UNL d   1       3.175   0.458   1.185  0.00  0.00    -0.319 OA
BRANCH  29  30
ATOM     30  C   UNL d   1       4.606   0.498   1.278  0.00  0.00     0.174 C 
ATOM     31  C   UNL d   1       5.177   1.630   0.439  0.00  0.00     0.034 C 
ENDBRANCH  29  30
ENDBRANCH  27  29
ENDBRANCH   1  27
TORSDOF 8
