REMARK  3 active torsions:
REMARK  status: ('A' for Active; 'I' for Inactive)
REMARK    1  A    between atoms: N_7  and  C_2 
REMARK    2  A    between atoms: C_12  and  C_3 
REMARK       I    between atoms: C_4  and  N_7 
REMARK       I    between atoms: N_9  and  C_4 
REMARK    3  A    between atoms: C_10  and  N_9 
ROOT
ATOM      1  C   UNL d   1       0.288  -3.364  -0.563  0.00  0.00     0.326 C 
ATOM      2  N   UNL d   1      -0.288  -2.284   0.041  0.00  0.00    -0.293 N 
ATOM      3  N   UNL d   1       1.542  -3.204  -1.074  0.00  0.00    -0.307 N 
ATOM      4  O   UNL d   1      -0.343  -4.422  -0.581  0.00  0.00    -0.247 OA
ATOM      5  H   UNL d   1      -1.169  -2.503   0.485  0.00  0.00     0.172 HD
ATOM      6  H   UNL d   1       2.119  -2.507  -0.612  0.00  0.00     0.170 HD
ENDROOT
BRANCH   2   7
ATOM      7  C   UNL d   1      -0.041  -0.949  -0.209  0.00  0.00     0.132 A 
ATOM      8  C   UNL d   1      -0.885   0.095   0.243  0.00  0.00     0.086 A 
ATOM      9  C   UNL d   1      -0.405   1.230  -0.369  0.00  0.00     0.087 A 
ATOM     10  O   UNL d   1       0.729   0.900  -1.051  0.00  0.00    -0.240 OA
ATOM     11  N   UNL d   1       0.959  -0.460  -0.945  0.00  0.00    -0.245 N 
ATOM     12  HN  UNL d   1       1.736  -0.983  -1.348  1.00  0.00     0.196 HD
BRANCH   9  13
ATOM     13  C   UNL d   1      -0.850   2.666  -0.434  0.00  0.00     0.000 C 
ATOM     14  C   UNL d   1      -0.060   3.500   0.586  0.00  0.00     0.021 C 
ATOM     15  C   UNL d   1      -0.624   3.243  -1.848  0.00  0.00     0.021 C 
ATOM     16  C   UNL d   1      -2.356   2.787  -0.116  0.00  0.00     0.021 C 
ENDBRANCH   9  13
ENDBRANCH   2   7
BRANCH   3  17
ATOM     17  C   UNL d   1       2.194  -4.099  -1.950  0.00  0.00     0.058 A 
ATOM     18  C   UNL d   1       3.595  -4.207  -1.934  0.00  0.00     0.062 A 
ATOM     19  C   UNL d   1       4.261  -5.016  -2.858  0.00  0.00     0.050 A 
ATOM     20 CL   UNL d   1       4.537  -3.388  -0.737  0.00  0.00    -0.082 Cl
ATOM     21  C   UNL d   1       3.527  -5.697  -3.826  0.00  0.00     0.035 A 
ATOM     22  C   UNL d   1       2.137  -5.606  -3.853  0.00  0.00     0.026 A 
ATOM     23 CL   UNL d   1       4.343  -6.643  -5.009  0.00  0.00    -0.084 Cl
ATOM     24  C   UNL d   1       1.471  -4.822  -2.907  0.00  0.00     0.033 A 
ENDBRANCH   3  17
TORSDOF 3
