REMARK  4 active torsions:
REMARK  status: ('A' for Active; 'I' for Inactive)
REMARK       I    between atoms: N_3  and  C_1 
REMARK       I    between atoms: N_5  and  C_1 
REMARK    1  A    between atoms: C_6  and  N_3 
REMARK    2  A    between atoms: C_8  and  N_5 
REMARK    3  A    between atoms: C_9  and  C_6 
REMARK    4  A    between atoms: C_10  and  C_6 
ROOT
ATOM      1  C   UNL d   1       1.949   2.582   1.156  0.00  0.00    -0.086 C 
ATOM      2  C   UNL d   1       2.636   2.643   2.142  0.00  0.00     0.015 C 
ATOM      3  C   UNL d   1       1.094   2.505  -0.064  0.00  0.00     0.096 C 
ENDROOT
BRANCH   3   4
ATOM      4  N   UNL d   1       0.431   1.201  -0.040  0.00  0.00    -0.323 N 
ATOM      5  C   UNL d   1      -0.505   0.793  -0.939  0.00  0.00     0.322 C 
ATOM      6  N   UNL d   1      -0.968  -0.484  -0.816  0.00  0.00    -0.309 N 
ATOM      7  O   UNL d   1      -0.906   1.482  -1.873  0.00  0.00    -0.247 OA
ATOM      8  H   UNL d   1      -1.491  -0.761  -1.639  0.00  0.00     0.170 HD
ATOM      9  H   UNL d   1       1.014   0.446   0.288  0.00  0.00     0.166 HD
BRANCH   6  10
ATOM     10  C   UNL d   1      -0.831  -1.446   0.202  0.00  0.00     0.036 A 
ATOM     11  C   UNL d   1      -0.449  -1.148   1.512  0.00  0.00     0.029 A 
ATOM     12  C   UNL d   1      -0.261  -2.169   2.447  0.00  0.00     0.002 A 
ATOM     13  C   UNL d   1      -0.490  -3.494   2.089  0.00  0.00     0.000 A 
ATOM     14  C   UNL d   1      -0.938  -3.796   0.805  0.00  0.00     0.002 A 
ATOM     15  C   UNL d   1      -1.118  -2.775  -0.131  0.00  0.00     0.029 A 
ENDBRANCH   6  10
ENDBRANCH   3   4
BRANCH   3  16
ATOM     16  C   UNL d   1       1.994   2.650  -1.323  0.00  0.00     0.040 C 
ATOM     17  C   UNL d   1       3.024   1.538  -1.512  0.00  0.00     0.009 C 
ENDBRANCH   3  16
BRANCH   3  18
ATOM     18  C   UNL d   1       0.083   3.688  -0.037  0.00  0.00     0.040 C 
ATOM     19  C   UNL d   1      -0.888   3.686   1.141  0.00  0.00     0.009 C 
ENDBRANCH   3  18
TORSDOF 4
