REMARK  7 active torsions:
REMARK  status: ('A' for Active; 'I' for Inactive)
REMARK    1  A    between atoms: N_6  and  C_1 
REMARK       I    between atoms: C_3  and  N_5 
REMARK    2  A    between atoms: C_10  and  C_3 
REMARK    3  A    between atoms: N_5  and  C_4 
REMARK    4  A    between atoms: O_13  and  C_7 
REMARK    5  A    between atoms: O_14  and  C_9 
REMARK    6  A    between atoms: C_22  and  O_13 
REMARK    7  A    between atoms: C_23  and  O_14 
ROOT
ATOM      1  C   UNL d   1       1.623  -0.041   0.365  0.00  0.00     0.067 A 
ATOM      2  C   UNL d   1       0.883  -1.211   0.650  0.00  0.00     0.071 A 
ATOM      3  C   UNL d   1      -1.216  -0.023   0.574  0.00  0.00     0.071 A 
ATOM      4  C   UNL d   1       0.896   1.155   0.204  0.00  0.00     0.097 A 
ATOM      5  C   UNL d   1      -0.503   1.141   0.291  0.00  0.00     0.071 A 
ATOM      6  C   UNL d   1      -0.514  -1.228   0.723  0.00  0.00     0.097 A 
ENDROOT
BRANCH   3   7
ATOM      7  N   UNL d   1      -2.635  -0.013   0.651  0.00  0.00    -0.324 N 
ATOM      8  C   UNL d   1      -3.396   1.092   1.011  0.00  0.00     0.229 C 
ATOM      9  O   UNL d   1      -2.918   2.123   1.489  0.00  0.00    -0.272 OA
ATOM     10  H   UNL d   1      -3.059  -0.930   0.667  0.00  0.00     0.169 HD
BRANCH   8  11
ATOM     11  C   UNL d   1      -4.902   1.016   0.670  0.00  0.00     0.030 C 
ATOM     12  C   UNL d   1      -5.546  -0.315   1.075  0.00  0.00     0.025 C 
ATOM     13  C   UNL d   1      -5.647   2.149   1.408  0.00  0.00     0.025 C 
ATOM     14  C   UNL d   1      -5.052   1.242  -0.842  0.00  0.00     0.025 C 
ENDBRANCH   8  11
ENDBRANCH   3   7
BRANCH   6  15
ATOM     15  O   UNL d   1      -1.266  -2.365   0.934  0.00  0.00    -0.349 OA
BRANCH  15  16
ATOM     16  C   UNL d   1      -0.538  -3.597   0.968  0.00  0.00     0.171 C 
ATOM     17  C   UNL d   1      -1.512  -4.758   1.026  0.00  0.00     0.034 C 
ENDBRANCH  15  16
ENDBRANCH   6  15
BRANCH   4  18
ATOM     18  O   UNL d   1       1.597   2.316  -0.033  0.00  0.00    -0.349 OA
BRANCH  18  19
ATOM     19  C   UNL d   1       0.920   3.536   0.285  0.00  0.00     0.171 C 
ATOM     20  C   UNL d   1       1.948   4.644   0.409  0.00  0.00     0.034 C 
ENDBRANCH  18  19
ENDBRANCH   4  18
BRANCH   1  21
ATOM     21  N   UNL d   1       2.999  -0.176   0.222  0.00  0.00    -0.374 N 
ATOM     22  C   UNL d   1       3.750   0.570  -0.801  0.00  0.00     0.149 C 
ATOM     23  C   UNL d   1       4.620   1.671  -0.178  0.00  0.00     0.187 C 
ATOM     24  O   UNL d   1       5.462   1.152   0.867  0.00  0.00    -0.388 OA
ATOM     25  C   UNL d   1       4.648   0.583   1.907  0.00  0.00     0.187 C 
ATOM     26  C   UNL d   1       3.803  -0.590   1.385  0.00  0.00     0.149 C 
ENDBRANCH   1  21
TORSDOF 7
