REMARK  2 active torsions:
REMARK  status: ('A' for Active; 'I' for Inactive)
REMARK    1  A    between atoms: C_5  and  C_1 
REMARK    2  A    between atoms: O_11  and  C_9 
ROOT
ATOM      1  C   UNL d   1      -2.284  -0.328   0.168  0.00  0.00     0.050 C 
ATOM      2  C   UNL d   1      -1.332   0.788   0.410  0.00  0.00     0.198 C 
ATOM      3  C   UNL d   1      -1.781  -1.569   0.098  0.00  0.00     0.159 C 
ATOM      4  C   UNL d   1       0.097   0.449   0.289  0.00  0.00     0.049 A 
ATOM      5  O   UNL d   1      -0.451  -1.913   0.167  0.00  0.00    -0.321 OA
ATOM      6  C   UNL d   1       0.464  -0.889   0.162  0.00  0.00     0.089 A 
ATOM      7  O   UNL d   1      -1.696   1.931   0.654  0.00  0.00    -0.286 OA
ATOM      8  C   UNL d   1       1.066   1.454   0.258  0.00  0.00     0.018 A 
ATOM      9  C   UNL d   1       1.806  -1.232   0.009  0.00  0.00     0.038 A 
ATOM     10  C   UNL d   1       2.410   1.111   0.088  0.00  0.00     0.001 A 
ATOM     11  C   UNL d   1       2.779  -0.230  -0.035  0.00  0.00     0.003 A 
ENDROOT
BRANCH   1  12
ATOM     12  C   UNL d   1      -3.726  -0.098   0.013  0.00  0.00     0.013 A 
ATOM     13  C   UNL d   1      -4.379   0.223  -1.192  0.00  0.00     0.079 A 
ATOM     14  C   UNL d   1      -5.775   0.397  -1.179  0.00  0.00     0.037 A 
ATOM     15  C   UNL d   1      -6.523   0.250  -0.013  0.00  0.00     0.003 A 
ATOM     16  C   UNL d   1      -5.882  -0.072   1.175  0.00  0.00     0.001 A 
ATOM     17  C   UNL d   1      -4.497  -0.241   1.187  0.00  0.00     0.015 A 
BRANCH  13  18
ATOM     18  O   UNL d   1      -3.881   0.396  -2.454  0.00  0.00    -0.355 OA
ATOM     19  C   UNL d   1      -2.496   0.291  -2.721  0.00  0.00     0.210 C 
ENDBRANCH  13  18
ENDBRANCH   1  12
TORSDOF 2
