REMARK  5 active torsions:
REMARK  status: ('A' for Active; 'I' for Inactive)
REMARK    1  A    between atoms: N_2  and  S_1 
REMARK    2  A    between atoms: C_3  and  S_1 
REMARK    3  A    between atoms: C_4  and  C_11 
REMARK    4  A    between atoms: O_18  and  C_4 
REMARK    5  A    between atoms: C_21  and  O_18 
ROOT
ATOM      1  S   UNL d   1       0.896  -0.027  -0.139  0.00  0.00     0.243 S 
ATOM      2  O   UNL d   1      -0.003  -0.183  -1.269  0.00  0.00    -0.206 OA
ATOM      3  O   UNL d   1       2.324  -0.163  -0.306  0.00  0.00    -0.206 OA
ENDROOT
BRANCH   1   4
ATOM      4  N   UNL d   1       0.391  -1.188   1.060  0.00  0.00    -0.206 NA
ATOM      5  C   UNL d   1      -1.079  -1.196   1.325  0.00  0.00     0.108 C 
ATOM      6  C   UNL d   1      -1.437  -2.247   2.383  0.00  0.00     0.030 C 
ATOM      7  C   UNL d   1      -0.974  -3.658   1.987  0.00  0.00     0.088 C 
ATOM      8  C   UNL d   1       0.529  -3.609   1.704  0.00  0.00     0.030 C 
ATOM      9  C   UNL d   1       0.886  -2.551   0.663  0.00  0.00     0.108 C 
BRANCH   7  10
ATOM     10  C   UNL d   1      -1.757  -4.208   0.800  0.00  0.00     0.263 C 
ATOM     11  O   UNL d   1      -1.251  -4.654  -0.219  0.00  0.00    -0.265 OA
BRANCH  10  12
ATOM     12  O   UNL d   1      -3.098  -4.109   1.022  0.00  0.00    -0.322 OA
BRANCH  12  13
ATOM     13  C   UNL d   1      -3.934  -4.170  -0.144  0.00  0.00     0.174 C 
ATOM     14  C   UNL d   1      -4.698  -5.477  -0.230  0.00  0.00     0.034 C 
ENDBRANCH  12  13
ENDBRANCH  10  12
ENDBRANCH   7  10
ENDBRANCH   1   4
BRANCH   1  15
ATOM     15  C   UNL d   1       0.622   1.586   0.559  0.00  0.00     0.075 A 
ATOM     16  C   UNL d   1      -0.248   2.477  -0.081  0.00  0.00     0.037 A 
ATOM     17  C   UNL d   1      -0.347   3.814   0.345  0.00  0.00    -0.025 A 
ATOM     18  C   UNL d   1      -1.224   4.719  -0.281  0.00  0.00     0.012 A 
ATOM     19  C   UNL d   1       0.459   4.263   1.416  0.00  0.00    -0.026 A 
ATOM     20  C   UNL d   1      -1.307   6.046   0.146  0.00  0.00     0.001 A 
ATOM     21  C   UNL d   1      -0.509   6.490   1.195  0.00  0.00     0.001 A 
ATOM     22  C   UNL d   1       0.373   5.607   1.823  0.00  0.00     0.012 A 
ATOM     23  C   UNL d   1       1.341   3.356   2.037  0.00  0.00     0.014 A 
ATOM     24  C   UNL d   1       1.424   2.023   1.613  0.00  0.00     0.026 A 
ENDBRANCH   1  15
TORSDOF 5
