REMARK  1 active torsions:
REMARK  status: ('A' for Active; 'I' for Inactive)
REMARK    1  A    between atoms: O_11  and  C_2 
ROOT
ATOM      1  C   UNL d   1       0.098  -0.675  -0.046  0.00  0.00     0.079 A 
ATOM      2  C   UNL d   1       1.373  -1.311  -0.062  0.00  0.00     0.112 A 
ATOM      3  C   UNL d   1       0.009   0.736   0.008  0.00  0.00     0.015 A 
ATOM      4  C   UNL d   1       2.541  -0.530  -0.034  0.00  0.00     0.043 A 
ATOM      5  C   UNL d   1       1.195   1.490   0.055  0.00  0.00     0.048 A 
ATOM      6  C   UNL d   1       2.437   0.866   0.031  0.00  0.00     0.046 A 
ATOM      7  N   UNL d   1      -1.034  -1.422  -0.091  0.00  0.00    -0.363 N 
ATOM      8  HN  UNL d   1      -0.969  -2.439  -0.121  1.00  0.00     0.165 HD
ATOM      9  I   UNL d   1       4.552  -1.169  -0.114  0.00  0.00    -0.042 I 
ATOM     10 CL   UNL d   1       1.194   3.222   0.135  0.00  0.00    -0.083 Cl
ATOM     11  C   UNL d   1      -1.279   1.320   0.006  0.00  0.00     0.017 A 
ATOM     12  C   UNL d   1      -2.244  -0.827  -0.095  0.00  0.00     0.088 A 
ATOM     13  C   UNL d   1      -2.419   0.535  -0.050  0.00  0.00     0.018 A 
ENDROOT
BRANCH   2  14
ATOM     14  O   UNL d   1       1.237  -2.676  -0.119  0.00  0.00    -0.352 OA
ATOM     15  C   UNL d   1       2.313  -3.585  -0.081  0.00  0.00     0.210 C 
ENDBRANCH   2  14
TORSDOF 1
