REMARK  4 active torsions:
REMARK  status: ('A' for Active; 'I' for Inactive)
REMARK    1  A    between atoms: C_2  and  N_1 
REMARK    2  A    between atoms: N_3  and  C_9 
REMARK    3  A    between atoms: N_8  and  C_4 
REMARK       I    between atoms: C_6  and  N_7 
REMARK    4  A    between atoms: C_16  and  C_6 
ROOT
ATOM      1  C   UNL d   1       2.197  -1.116  -0.156  0.00  0.00     0.063 A 
ATOM      2  C   UNL d   1       2.065  -2.213  -1.065  0.00  0.00     0.038 A 
ATOM      3  C   UNL d   1       3.410  -1.009   0.566  0.00  0.00     0.068 A 
ATOM      4  C   UNL d   1       4.401  -1.999   0.524  0.00  0.00     0.105 A 
ATOM      5  C   UNL d   1       3.127  -3.160  -1.123  0.00  0.00     0.028 A 
ATOM      6  C   UNL d   1       4.265  -3.083  -0.323  0.00  0.00     0.038 A 
ENDROOT
BRANCH   2   7
ATOM      7  N   UNL d   1       0.963  -2.409  -1.921  0.00  0.00    -0.278 NA
ATOM      8  C   UNL d   1       0.572  -3.811  -2.188  0.00  0.00     0.115 C 
ATOM      9  C   UNL d   1      -0.848  -3.854  -2.758  0.00  0.00     0.141 C 
ATOM     10  N   UNL d   1      -1.009  -3.021  -3.961  0.00  0.00    -0.346 N 
ATOM     11  C   UNL d   1      -2.214  -3.084  -4.681  0.00  0.00     0.253 C 
ATOM     12  C   UNL d   1      -0.381  -1.685  -3.898  0.00  0.00     0.141 C 
ATOM     13  O   UNL d   1      -2.731  -2.106  -5.217  0.00  0.00    -0.267 OA
ATOM     14  C   UNL d   1       0.993  -1.620  -3.178  0.00  0.00     0.115 C 
BRANCH  11  15
ATOM     15  C   UNL d   1      -2.903  -4.396  -4.827  0.00  0.00     0.032 A 
ATOM     16  C   UNL d   1      -4.296  -4.468  -4.667  0.00  0.00     0.020 A 
ATOM     17  C   UNL d   1      -4.954  -5.686  -4.839  0.00  0.00     0.043 A 
ATOM     18  C   UNL d   1      -4.224  -6.817  -5.183  0.00  0.00     0.116 A 
ATOM     19  C   UNL d   1      -2.848  -6.757  -5.368  0.00  0.00     0.043 A 
ATOM     20  F   UNL d   1      -4.858  -7.987  -5.348  0.00  0.00    -0.206 F 
ATOM     21  C   UNL d   1      -2.183  -5.538  -5.205  0.00  0.00     0.020 A 
ENDBRANCH  11  15
ENDBRANCH   2   7
BRANCH   1  22
ATOM     22  N   UNL d   1       1.194  -0.079   0.055  0.00  0.00    -0.318 N 
ATOM     23  C   UNL d   1       1.324   1.139   0.753  0.00  0.00     0.013 C 
ATOM     24  C   UNL d   1       0.506   2.049   0.101  0.00  0.00     0.027 C 
ATOM     25  C   UNL d   1       2.093   1.399   2.002  0.00  0.00     0.068 C 
ATOM     26  C   UNL d   1      -0.434   1.293  -0.623  0.00  0.00     0.027 C 
ATOM     27  C   UNL d   1      -0.138  -0.033  -0.362  0.00  0.00     0.013 C 
ATOM     28  C   UNL d   1      -1.089  -1.171  -0.339  0.00  0.00     0.068 C 
ENDBRANCH   1  22
BRANCH   4  29
ATOM     29  N   UNL d   1       5.574  -1.900   1.404  0.00  0.00    -0.116 N 
ATOM     30  O   UNL d   1       5.626  -0.946   2.194  0.00  0.00    -0.532 OA
ATOM     31  O   UNL d   1       6.436  -2.787   1.317  0.00  0.00    -0.532 OA
ENDBRANCH   4  29
TORSDOF 4
