REMARK  5 active torsions:
REMARK  status: ('A' for Active; 'I' for Inactive)
REMARK    1  A    between atoms: C_4  and  C_1 
REMARK    2  A    between atoms: C_9  and  C_2 
REMARK    3  A    between atoms: C_8  and  C_6 
REMARK    4  A    between atoms: C_10  and  C_8 
REMARK    5  A    between atoms: O_19  and  C_9 
ROOT
ATOM      1  C   UNL d   1       1.864  -2.720  -0.049  0.00  0.00     0.041 C 
ATOM      2  C   UNL d   1       1.145  -2.561  -1.187  0.00  0.00     0.097 C 
ATOM      3  C   UNL d   1       1.791  -2.167  -2.393  0.00  0.00     0.103 C 
ATOM      4  N   UNL d   1       2.316  -1.869  -3.384  0.00  0.00    -0.191 NA
ENDROOT
BRANCH   2   5
ATOM      5  C   UNL d   1      -0.352  -2.724  -1.187  0.00  0.00     0.209 C 
ATOM      6  O   UNL d   1      -0.968  -2.589  -0.126  0.00  0.00    -0.285 OA
BRANCH   5   7
ATOM      7  C   UNL d   1      -1.018  -3.005  -2.464  0.00  0.00     0.056 A 
ATOM      8  S   UNL d   1      -2.606  -2.415  -2.757  0.00  0.00    -0.098 SA
ATOM      9  C   UNL d   1      -2.613  -3.017  -4.361  0.00  0.00     0.050 A 
ATOM     10  C   UNL d   1      -1.454  -3.694  -4.660  0.00  0.00     0.009 A 
ATOM     11  C   UNL d   1      -0.555  -3.716  -3.557  0.00  0.00     0.023 A 
ENDBRANCH   5   7
ENDBRANCH   2   5
BRANCH   1  12
ATOM     12  C   UNL d   1       3.275  -2.450   0.044  0.00  0.00     0.006 A 
ATOM     13  C   UNL d   1       4.386  -3.362  -0.010  0.00  0.00     0.073 A 
ATOM     14  C   UNL d   1       5.528  -2.581   0.159  0.00  0.00     0.022 A 
ATOM     15  C   UNL d   1       6.979  -2.927   0.168  0.00  0.00     0.069 C 
ATOM     16  N   UNL d   1       5.147  -1.272   0.269  0.00  0.00    -0.362 N 
ATOM     17  C   UNL d   1       3.783  -1.170   0.165  0.00  0.00     0.017 A 
ATOM     18  H   UNL d   1       5.779  -0.494   0.368  0.00  0.00     0.165 HD
ATOM     19  C   UNL d   1       3.141   0.178   0.173  0.00  0.00     0.069 C 
BRANCH  13  20
ATOM     20  C   UNL d   1       4.452  -4.808  -0.230  0.00  0.00     0.295 C 
ATOM     21  O   UNL d   1       5.240  -5.533   0.367  0.00  0.00    -0.259 OA
BRANCH  20  22
ATOM     22  O   UNL d   1       3.649  -5.232  -1.251  0.00  0.00    -0.322 OA
ATOM     23  C   UNL d   1       3.933  -6.555  -1.732  0.00  0.00     0.213 C 
ENDBRANCH  20  22
ENDBRANCH  13  20
ENDBRANCH   1  12
TORSDOF 5
