REMARK  4 active torsions:
REMARK  status: ('A' for Active; 'I' for Inactive)
REMARK    1  A    between atoms: C_5  and  N_1 
REMARK    2  A    between atoms: C_6  and  N_2 
REMARK    3  A    between atoms: N_3  and  C_7 
REMARK    4  A    between atoms: C_7  and  N_4 
ROOT
ATOM      1  C   UNL d   1       1.509  -0.221  -1.753  0.00  0.00     0.542 C 
ENDROOT
BRANCH   1   2
ATOM      2  N   UNL d   1       2.535  -1.240  -1.945  0.00  0.00     0.119 N 
ATOM      3  C   UNL d   1       2.110  -2.576  -1.462  0.00  0.00     0.294 C 
ATOM      4  C   UNL d   1       1.134  -3.336  -2.387  0.00  0.00     0.153 C 
ATOM      5  N   UNL d   1       1.732  -3.446  -3.722  0.00  0.00    -0.377 N 
ATOM      6  C   UNL d   1       2.124  -2.167  -4.327  0.00  0.00     0.153 C 
ATOM      7  C   UNL d   1       2.997  -1.340  -3.347  0.00  0.00     0.294 C 
BRANCH   5   8
ATOM      8  C   UNL d   1       1.707  -4.630  -4.428  0.00  0.00     0.031 A 
ATOM      9  C   UNL d   1       2.770  -4.995  -5.269  0.00  0.00     0.053 A 
ATOM     10  C   UNL d   1       2.789  -6.235  -5.917  0.00  0.00     0.036 A 
ATOM     11 CL   UNL d   1       4.140  -6.666  -6.896  0.00  0.00    -0.084 Cl
ATOM     12  C   UNL d   1       1.743  -7.136  -5.758  0.00  0.00     0.024 A 
ATOM     13  C   UNL d   1       0.667  -6.791  -4.948  0.00  0.00     0.004 A 
ATOM     14  C   UNL d   1       0.660  -5.553  -4.293  0.00  0.00     0.029 A 
ENDBRANCH   5   8
ENDBRANCH   1   2
BRANCH   1  15
ATOM     15  N   UNL d   1       1.290  -0.006  -0.318  0.00  0.00     0.119 N 
ATOM     16  C   UNL d   1       2.516   0.457   0.384  0.00  0.00     0.294 C 
ATOM     17  C   UNL d   1       2.977   1.894   0.043  0.00  0.00     0.153 C 
ATOM     18  N   UNL d   1       1.862   2.841   0.210  0.00  0.00    -0.377 N 
ATOM     19  C   UNL d   1       0.589   2.452  -0.411  0.00  0.00     0.153 C 
ATOM     20  C   UNL d   1       0.222   0.990  -0.070  0.00  0.00     0.294 C 
BRANCH  18  21
ATOM     21  C   UNL d   1       1.981   3.931   1.046  0.00  0.00     0.031 A 
ATOM     22  C   UNL d   1       0.954   4.316   1.920  0.00  0.00     0.053 A 
ATOM     23  C   UNL d   1       1.088   5.428   2.754  0.00  0.00     0.036 A 
ATOM     24 CL   UNL d   1      -0.195   5.853   3.821  0.00  0.00    -0.084 Cl
ATOM     25  C   UNL d   1       2.249   6.193   2.736  0.00  0.00     0.024 A 
ATOM     26  C   UNL d   1       3.285   5.832   1.882  0.00  0.00     0.004 A 
ATOM     27  C   UNL d   1       3.150   4.712   1.055  0.00  0.00     0.029 A 
ENDBRANCH  18  21
ENDBRANCH   1  15
TORSDOF 4
