REMARK  4 active torsions:
REMARK  status: ('A' for Active; 'I' for Inactive)
REMARK    1  A    between atoms: N_7  and  C_3 
REMARK    2  A    between atoms: N_8  and  C_4 
REMARK    3  A    between atoms: C_16  and  C_10 
REMARK    4  A    between atoms: C_17  and  C_11 
REMARK       I    between atoms: N_25  and  C_16 
REMARK       I    between atoms: N_26  and  C_17 
ROOT
ATOM      1  C   UNL d   1      -0.742   0.837   0.009  0.00  0.00     0.025 A 
ATOM      2  C   UNL d   1       0.731   0.825   0.010  0.00  0.00     0.025 A 
ATOM      3  C   UNL d   1      -1.749   1.794  -0.071  0.00  0.00     0.116 A 
ATOM      4  C   UNL d   1       1.745   1.765   0.135  0.00  0.00     0.116 A 
ATOM      5  C   UNL d   1       1.171  -0.511  -0.087  0.00  0.00     0.029 A 
ATOM      6  C   UNL d   1      -1.188  -0.502   0.014  0.00  0.00     0.029 A 
ATOM      7  C   UNL d   1      -0.012  -1.384  -0.054  0.00  0.00     0.194 A 
ATOM      8  C   UNL d   1      -3.498   0.070  -0.033  0.00  0.00     0.035 A 
ATOM      9  C   UNL d   1       3.484   0.055  -0.144  0.00  0.00     0.035 A 
ATOM     10  C   UNL d   1       2.497  -0.930  -0.152  0.00  0.00     0.033 A 
ATOM     11  C   UNL d   1      -2.515  -0.917   0.002  0.00  0.00     0.033 A 
ATOM     12  C   UNL d   1       3.103   1.403   0.016  0.00  0.00     0.054 A 
ATOM     13  C   UNL d   1      -3.112   1.424  -0.071  0.00  0.00     0.054 A 
ATOM     14  O   UNL d   1      -0.016  -2.595  -0.081  0.00  0.00    -0.287 OA
ENDROOT
BRANCH   8  15
ATOM     15  C   UNL d   1      -4.956  -0.227  -0.090  0.00  0.00     0.249 C 
ATOM     16  O   UNL d   1      -5.779   0.680  -0.114  0.00  0.00    -0.268 OA
ATOM     17  N   UNL d   1      -5.364  -1.528  -0.131  0.00  0.00    -0.366 N 
ATOM     18  H   UNL d   1      -4.766  -2.339  -0.138  0.00  0.00     0.159 HD
ATOM     19  H   UNL d   1      -6.363  -1.684  -0.193  0.00  0.00     0.159 HD
ENDBRANCH   8  15
BRANCH   3  20
ATOM     20  N   UNL d   1      -1.486   3.188  -0.346  0.00  0.00    -0.115 N 
ATOM     21  O   UNL d   1      -0.888   3.433  -1.400  0.00  0.00    -0.532 OA
ATOM     22  O   UNL d   1      -1.921   4.016   0.462  0.00  0.00    -0.532 OA
ENDBRANCH   3  20
BRANCH   4  23
ATOM     23  N   UNL d   1       1.480   3.089   0.649  0.00  0.00    -0.115 N 
ATOM     24  O   UNL d   1       1.003   3.146   1.785  0.00  0.00    -0.532 OA
ATOM     25  O   UNL d   1       1.778   4.048  -0.075  0.00  0.00    -0.532 OA
ENDBRANCH   4  23
BRANCH   9  26
ATOM     26  C   UNL d   1       4.940  -0.242  -0.254  0.00  0.00     0.249 C 
ATOM     27  O   UNL d   1       5.764   0.664  -0.257  0.00  0.00    -0.268 OA
ATOM     28  N   UNL d   1       5.347  -1.540  -0.358  0.00  0.00    -0.366 N 
ATOM     29  H   UNL d   1       4.754  -2.356  -0.365  0.00  0.00     0.159 HD
ATOM     30  H   UNL d   1       6.346  -1.694  -0.438  0.00  0.00     0.159 HD
ENDBRANCH   9  26
TORSDOF 4
