REMARK  4 active torsions:
REMARK  status: ('A' for Active; 'I' for Inactive)
REMARK    1  A    between atoms: N_2  and  C_1 
REMARK    2  A    between atoms: C_5  and  C_4 
REMARK       I    between atoms: N_8  and  C_5 
REMARK    3  A    between atoms: C_17  and  N_8 
REMARK    4  A    between atoms: C_10  and  C_17 
ROOT
ATOM      1  C   UNL d   1      -0.926  -2.324   0.030  0.00  0.00     0.275 C 
ATOM      2  N   UNL d   1      -2.261  -2.652   0.037  0.00  0.00    -0.349 N 
ATOM      3  O   UNL d   1      -0.544  -1.157   0.053  0.00  0.00    -0.265 OA
ATOM      4  H   UNL d   1      -2.534  -3.620  -0.093  0.00  0.00     0.163 HD
ENDROOT
BRANCH   1   5
ATOM      5  C   UNL d   1      -0.013  -3.449  -0.005  0.00  0.00     0.145 A 
ATOM      6  O   UNL d   1      -0.494  -4.737  -0.019  0.00  0.00    -0.283 OA
ATOM      7  C   UNL d   1       0.600  -5.550  -0.034  0.00  0.00     0.215 A 
ATOM      8  C   UNL d   1       1.771  -4.831  -0.035  0.00  0.00     0.066 A 
ATOM      9  C   UNL d   1       1.373  -3.472  -0.019  0.00  0.00     0.047 A 
BRANCH   7  10
ATOM     10  N   UNL d   1       0.357  -6.958  -0.041  0.00  0.00    -0.090 N 
ATOM     11  O   UNL d   1       1.358  -7.686  -0.044  0.00  0.00    -0.530 OA
ATOM     12  O   UNL d   1      -0.819  -7.340  -0.043  0.00  0.00    -0.530 OA
ENDBRANCH   7  10
ENDBRANCH   1   5
BRANCH   2  13
ATOM     13  C   UNL d   1      -3.268  -1.620  -0.009  0.00  0.00     0.187 C 
BRANCH  13  14
ATOM     14  C   UNL d   1      -4.613  -2.240  -0.032  0.00  0.00     0.070 A 
ATOM     15  O   UNL d   1      -4.898  -3.038  -1.103  0.00  0.00    -0.325 OA
ATOM     16  C   UNL d   1      -6.167  -3.490  -0.934  0.00  0.00     0.142 A 
ATOM     17  C   UNL d   1      -6.703  -2.997   0.232  0.00  0.00     0.027 A 
ATOM     18  C   UNL d   1      -5.700  -2.186   0.816  0.00  0.00     0.036 A 
ENDBRANCH  13  14
ENDBRANCH   2  13
TORSDOF 4
