REMARK  9 active torsions:
REMARK  status: ('A' for Active; 'I' for Inactive)
REMARK    1  A    between atoms: C_2  and  N_1 
REMARK    2  A    between atoms: C_3  and  N_9 
REMARK    3  A    between atoms: N_4  and  C_3 
REMARK    4  A    between atoms: C_6  and  N_4 
REMARK    5  A    between atoms: C_5  and  C_16 
REMARK       I    between atoms: N_10  and  C_5 
REMARK    6  A    between atoms: S_11  and  C_8 
REMARK    7  A    between atoms: N_9  and  N_10 
REMARK    8  A    between atoms: C_16  and  S_11 
REMARK    9  A    between atoms: O_18  and  C_15 
ROOT
ATOM      1  C   UNL d   1       4.649   1.579  -0.443  0.00  0.00     0.245 C 
ATOM      2  N   UNL d   1       4.740   2.695  -1.252  0.00  0.00    -0.267 N 
ATOM      3  O   UNL d   1       5.304   0.579  -0.729  0.00  0.00    -0.271 OA
ATOM      4  H   UNL d   1       5.410   2.628  -2.019  0.00  0.00     0.190 HD
ENDROOT
BRANCH   2   5
ATOM      5  N   UNL d   1       4.408   3.995  -0.838  0.00  0.00    -0.274 N 
ATOM      6  H   UNL d   1       3.619   4.108  -0.207  0.00  0.00     0.189 HD
BRANCH   5   7
ATOM      7  C   UNL d   1       4.577   5.081  -1.681  0.00  0.00     0.191 C 
ATOM      8  S   UNL d   1       5.147   5.017  -3.248  0.00  0.00    -0.039 SA
BRANCH   7   9
ATOM      9  N   UNL d   1       4.182   6.284  -1.145  0.00  0.00    -0.330 N 
ATOM     10  H   UNL d   1       4.038   7.035  -1.813  0.00  0.00     0.168 HD
BRANCH   9  11
ATOM     11  C   UNL d   1       4.353   6.718   0.195  0.00  0.00     0.068 A 
ATOM     12  C   UNL d   1       3.660   7.836   0.691  0.00  0.00     0.095 A 
ATOM     13  C   UNL d   1       3.985   8.340   1.960  0.00  0.00     0.039 A 
ATOM     14  C   UNL d   1       4.988   7.756   2.734  0.00  0.00     0.003 A 
ATOM     15  C   UNL d   1       5.677   6.655   2.246  0.00  0.00     0.002 A 
ATOM     16  C   UNL d   1       5.356   6.135   0.991  0.00  0.00     0.032 A 
BRANCH  12  17
ATOM     17  O   UNL d   1       2.709   8.574   0.038  0.00  0.00    -0.354 OA
ATOM     18  C   UNL d   1       1.741   7.863  -0.725  0.00  0.00     0.210 C 
ENDBRANCH  12  17
ENDBRANCH   9  11
ENDBRANCH   7   9
ENDBRANCH   5   7
ENDBRANCH   2   5
BRANCH   1  19
ATOM     19  C   UNL d   1       3.744   1.658   0.784  0.00  0.00     0.184 C 
BRANCH  19  20
ATOM     20  S   UNL d   1       2.746   0.134   0.957  0.00  0.00    -0.118 SA
BRANCH  20  21
ATOM     21  C   UNL d   1       1.879   0.471   2.486  0.00  0.00     0.034 A 
ATOM     22  C   UNL d   1       0.871   1.430   2.681  0.00  0.00     0.119 A 
ATOM     23  C   UNL d   1       0.247   1.618   3.925  0.00  0.00     0.037 A 
ATOM     24  C   UNL d   1       0.619   0.819   5.003  0.00  0.00     0.003 A 
ATOM     25  C   UNL d   1       1.599  -0.156   4.832  0.00  0.00     0.002 A 
ATOM     26  C   UNL d   1       2.219  -0.330   3.587  0.00  0.00     0.021 A 
BRANCH  22  27
ATOM     27  N   UNL d   1       0.428   2.280   1.595  0.00  0.00    -0.114 N 
ATOM     28  O   UNL d   1      -0.131   1.745   0.634  0.00  0.00    -0.532 OA
ATOM     29  O   UNL d   1       0.636   3.496   1.724  0.00  0.00    -0.532 OA
ENDBRANCH  22  27
ENDBRANCH  20  21
ENDBRANCH  19  20
ENDBRANCH   1  19
TORSDOF 9
