REMARK  4 active torsions:
REMARK  status: ('A' for Active; 'I' for Inactive)
REMARK    1  A    between atoms: S_5  and  C_1 
REMARK       I    between atoms: C_2  and  N_4 
REMARK       I    between atoms: N_6  and  C_2 
REMARK    2  A    between atoms: N_4  and  C_3 
REMARK    3  A    between atoms: C_17  and  S_5 
REMARK    4  A    between atoms: C_7  and  N_6 
ROOT
ATOM      1  C   UNL d   1       1.607   3.279   0.516  0.00  0.00     0.325 C 
ATOM      2  N   UNL d   1       2.510   2.413  -0.111  0.00  0.00    -0.307 N 
ATOM      3  N   UNL d   1       2.277   4.296   1.174  0.00  0.00    -0.309 N 
ATOM      4  O   UNL d   1       0.394   3.139   0.496  0.00  0.00    -0.247 OA
ATOM      5  H   UNL d   1       3.318   2.182   0.457  0.00  0.00     0.170 HD
ATOM      6  H   UNL d   1       3.136   4.596   0.737  0.00  0.00     0.170 HD
ENDROOT
BRANCH   2   7
ATOM      7  C   UNL d   1       2.087   1.376  -1.002  0.00  0.00     0.054 A 
ATOM      8  C   UNL d   1       2.685   0.067  -0.972  0.00  0.00     0.049 A 
ATOM      9  C   UNL d   1       2.110  -0.888  -1.830  0.00  0.00     0.053 A 
ATOM     10 CL   UNL d   1       2.447  -2.574  -1.802  0.00  0.00    -0.083 Cl
ATOM     11  C   UNL d   1       1.093  -0.538  -2.746  0.00  0.00     0.025 A 
ATOM     12  C   UNL d   1       0.583   0.749  -2.800  0.00  0.00     0.004 A 
ATOM     13  C   UNL d   1       1.069   1.699  -1.920  0.00  0.00     0.031 A 
BRANCH   8  14
ATOM     14  S   UNL d   1       3.974  -0.158   0.280  0.00  0.00    -0.122 SA
BRANCH  14  15
ATOM     15  C   UNL d   1       5.046  -1.676   0.111  0.00  0.00     0.044 C 
ATOM     16  C   UNL d   1       4.538  -2.891   0.888  0.00  0.00     0.021 C 
ATOM     17  C   UNL d   1       5.675  -2.041  -1.229  0.00  0.00     0.021 C 
ENDBRANCH  14  15
ENDBRANCH   8  14
ENDBRANCH   2   7
BRANCH   3  18
ATOM     18  C   UNL d   1       1.777   5.099   2.227  0.00  0.00     0.037 A 
ATOM     19  C   UNL d   1       0.630   4.764   2.957  0.00  0.00     0.036 A 
ATOM     20  C   UNL d   1       0.239   5.517   4.077  0.00  0.00    -0.059 A 
ATOM     21  C   UNL d   1      -0.966   5.130   4.883  0.00  0.00     0.048 C 
ATOM     22  C   UNL d   1       1.012   6.616   4.468  0.00  0.00     0.013 A 
ATOM     23  C   UNL d   1       2.151   6.983   3.738  0.00  0.00    -0.059 A 
ATOM     24  C   UNL d   1       2.520   6.221   2.617  0.00  0.00     0.036 A 
ATOM     25  C   UNL d   1       2.982   8.143   4.204  0.00  0.00     0.048 C 
ENDBRANCH   3  18
TORSDOF 4
