REMARK  6 active torsions:
REMARK  status: ('A' for Active; 'I' for Inactive)
REMARK    1  A    between atoms: C_17  and  N_1 
REMARK    2  A    between atoms: S_15  and  C_2 
REMARK    3  A    between atoms: O_20  and  C_3 
REMARK    4  A    between atoms: C_16  and  C_10 
REMARK    5  A    between atoms: C_14  and  C_19 
REMARK    6  A    between atoms: C_19  and  S_15 
ROOT
ATOM      1  S   UNL d   1       2.729  -1.505  -0.530  0.00  0.00    -0.084 SA
ENDROOT
BRANCH   1   2
ATOM      2  C   UNL d   1       1.207  -0.766  -0.192  0.00  0.00     0.165 A 
ATOM      3  N   UNL d   1       0.006  -1.420  -0.052  0.00  0.00    -0.286 N 
ATOM      4  C   UNL d   1      -0.915  -0.399   0.094  0.00  0.00     0.240 A 
ATOM      5  N   UNL d   1      -0.308   0.760   0.116  0.00  0.00    -0.263 N 
ATOM      6  N   UNL d   1       1.029   0.531  -0.070  0.00  0.00    -0.277 N 
ATOM      7  HN  UNL d   1      -0.751   1.670   0.249  1.00  0.00     0.190 HD
ATOM      8  HN  UNL d   1       1.760   1.242  -0.108  1.00  0.00     0.189 HD
BRANCH   3   9
ATOM      9  C   UNL d   1      -0.335  -2.830  -0.044  0.00  0.00     0.095 C 
ATOM     10  C   UNL d   1      -0.554  -3.402  -1.451  0.00  0.00     0.026 C 
ATOM     11  C   UNL d   1      -1.275  -4.748  -1.356  0.00  0.00     0.002 C 
ATOM     12  C   UNL d   1      -0.542  -5.737  -0.449  0.00  0.00     0.000 C 
ATOM     13  C   UNL d   1      -0.162  -5.142   0.910  0.00  0.00     0.002 C 
ATOM     14  C   UNL d   1       0.543  -3.786   0.777  0.00  0.00     0.026 C 
ENDBRANCH   3   9
BRANCH   4  15
ATOM     15  O   UNL d   1      -2.231  -0.521   0.191  0.00  0.00    -0.331 OA
ATOM     16  H   UNL d   1      -2.513  -1.400  -0.090  0.00  0.00     0.221 HD
ENDBRANCH   4  15
ENDBRANCH   1   2
BRANCH   1  17
ATOM     17  C   UNL d   1       3.841  -0.044  -0.521  0.00  0.00     0.168 C 
BRANCH  17  18
ATOM     18  C   UNL d   1       5.250  -0.422  -0.824  0.00  0.00     0.150 A 
ATOM     19  O   UNL d   1       6.059   0.522  -1.427  0.00  0.00    -0.277 OA
ATOM     20  C   UNL d   1       7.248  -0.162  -1.540  0.00  0.00     0.174 A 
ATOM     21  N   UNL d   1       7.172  -1.383  -1.053  0.00  0.00    -0.277 N 
ATOM     22  N   UNL d   1       5.892  -1.545  -0.578  0.00  0.00    -0.281 N 
ATOM     23  HN  UNL d   1       7.921  -2.076  -1.032  1.00  0.00     0.189 HD
ATOM     24  HN  UNL d   1       5.513  -2.376  -0.123  1.00  0.00     0.189 HD
BRANCH  20  25
ATOM     25  C   UNL d   1       8.396   0.509  -2.147  0.00  0.00     0.018 A 
ATOM     26  C   UNL d   1       9.567  -0.233  -2.383  0.00  0.00     0.039 A 
ATOM     27  C   UNL d   1      10.701   0.372  -2.928  0.00  0.00     0.035 A 
ATOM     28 CL   UNL d   1      12.122  -0.560  -3.197  0.00  0.00    -0.084 Cl
ATOM     29  C   UNL d   1      10.691   1.726  -3.248  0.00  0.00     0.024 A 
ATOM     30  C   UNL d   1       9.534   2.476  -3.030  0.00  0.00     0.003 A 
ATOM     31  C   UNL d   1       8.394   1.871  -2.486  0.00  0.00     0.016 A 
ENDBRANCH  20  25
ENDBRANCH  17  18
ENDBRANCH   1  17
TORSDOF 6
