REMARK  2 active torsions:
REMARK  status: ('A' for Active; 'I' for Inactive)
REMARK    1  A    between atoms: C_4  and  C_1 
REMARK       I    between atoms: N_7  and  C_4 
REMARK    2  A    between atoms: N_9  and  C_10 
ROOT
ATOM      1  C   UNL d   1      -3.978   0.185  -0.412  0.00  0.00     0.270 C 
ATOM      2  N   UNL d   1      -4.807  -0.873  -0.797  0.00  0.00    -0.347 N 
ATOM      3  C   UNL d   1      -6.766  -2.883  -1.773  0.00  0.00     0.226 C 
ATOM      4  C   UNL d   1      -6.469  -1.565  -2.510  0.00  0.00     0.055 C 
ATOM      5  C   UNL d   1      -6.447  -2.693  -0.279  0.00  0.00     0.055 C 
ATOM      6  C   UNL d   1      -5.097  -0.982  -2.224  0.00  0.00     0.128 C 
ATOM      7  C   UNL d   1      -5.103  -2.038   0.030  0.00  0.00     0.128 C 
ATOM      8  O   UNL d   1      -3.794   1.142  -1.167  0.00  0.00    -0.266 OA
ENDROOT
BRANCH   1   9
ATOM      9  C   UNL d   1      -3.332   0.196   0.886  0.00  0.00     0.102 A 
ATOM     10  N   UNL d   1      -3.053   1.403   1.492  0.00  0.00    -0.351 N 
ATOM     11  C   UNL d   1      -2.290   1.236   2.619  0.00  0.00     0.044 A 
ATOM     12  H   UNL d   1      -3.312   2.295   1.092  0.00  0.00     0.166 HD
ATOM     13  C   UNL d   1      -1.729   2.199   3.460  0.00  0.00     0.037 A 
ATOM     14  C   UNL d   1      -2.108  -0.135   2.792  0.00  0.00    -0.001 A 
ATOM     15  C   UNL d   1      -0.922   1.755   4.510  0.00  0.00    -0.059 A 
ATOM     16  C   UNL d   1      -0.213   2.743   5.390  0.00  0.00     0.048 C 
ATOM     17  C   UNL d   1      -0.736   0.382   4.716  0.00  0.00     0.014 A 
ATOM     18  C   UNL d   1      -1.328  -0.590   3.879  0.00  0.00    -0.049 A 
ATOM     19  C   UNL d   1      -1.049  -2.042   4.160  0.00  0.00     0.049 C 
ATOM     20  C   UNL d   1      -2.780  -0.774   1.702  0.00  0.00     0.049 A 
ENDBRANCH   1   9
BRANCH   3  21
ATOM     21  N   UNL d   1      -6.267  -4.151  -2.367  0.00  0.00     0.093 N 
ATOM     22  C   UNL d   1      -4.820  -4.365  -2.342  0.00  0.00     0.273 C 
ATOM     23  C   UNL d   1      -4.391  -5.711  -2.933  0.00  0.00     0.030 C 
ATOM     24  C   UNL d   1      -4.946  -5.894  -4.335  0.00  0.00     0.003 C 
ATOM     25  C   UNL d   1      -6.458  -5.743  -4.294  0.00  0.00     0.030 C 
ATOM     26  C   UNL d   1      -6.849  -4.388  -3.701  0.00  0.00     0.273 C 
ENDBRANCH   3  21
TORSDOF 2
