REMARK  9 active torsions:
REMARK  status: ('A' for Active; 'I' for Inactive)
REMARK    1  A    between atoms: N_3  and  C_1 
REMARK    2  A    between atoms: N_5  and  C_1 
REMARK    3  A    between atoms: C_2  and  N_16 
REMARK    4  A    between atoms: N_4  and  C_2 
REMARK    5  A    between atoms: C_6  and  N_3 
REMARK    6  A    between atoms: C_7  and  N_4 
REMARK    7  A    between atoms: C_12  and  N_5 
REMARK    8  A    between atoms: N_16  and  C_25 
REMARK    9  A    between atoms: C_25  and  C_18 
ROOT
ATOM      1  C   UNL d   1      -0.794   0.549   1.136  0.00  0.00     0.089 C 
ATOM      2  C   UNL d   1      -1.126   1.004   2.581  0.00  0.00     0.026 C 
ATOM      3  C   UNL d   1      -2.299   0.085   3.001  0.00  0.00     0.008 C 
ATOM      4  C   UNL d   1      -1.711  -0.639   0.818  0.00  0.00     0.026 C 
ATOM      5  C   UNL d   1      -2.919  -0.407   1.701  0.00  0.00     0.002 C 
ENDROOT
BRANCH   2   6
ATOM      6  C   UNL d   1      -1.593   2.474   2.655  0.00  0.00     0.128 C 
BRANCH   6   7
ATOM      7  N   UNL d   1      -0.529   3.479   2.685  0.00  0.00    -0.367 N 
ATOM      8  H   UNL d   1       0.179   3.417   1.965  0.00  0.00     0.161 HD
BRANCH   7   9
ATOM      9  C   UNL d   1      -0.567   4.632   3.420  0.00  0.00     0.167 C 
ATOM     10  S   UNL d   1      -1.639   4.993   4.654  0.00  0.00    -0.041 SA
BRANCH   9  11
ATOM     11  N   UNL d   1       0.341   5.596   3.132  0.00  0.00    -0.362 N 
ATOM     12  H   UNL d   1       0.272   6.388   3.761  0.00  0.00     0.162 HD
BRANCH  11  13
ATOM     13  C   UNL d   1       1.341   5.697   2.083  0.00  0.00     0.092 C 
ATOM     14  C   UNL d   1       1.928   7.136   1.937  0.00  0.00     0.031 C 
ATOM     15  C   UNL d   1       2.569   7.565   3.243  0.00  0.00    -0.024 C 
ATOM     16  C   UNL d   1       3.204   6.831   1.149  0.00  0.00     0.019 C 
ATOM     17  C   UNL d   1       3.662   6.807   3.413  0.00  0.00    -0.026 C 
ATOM     18  C   UNL d   1       3.754   5.884   2.222  0.00  0.00     0.010 C 
ATOM     19  C   UNL d   1       2.616   4.843   2.339  0.00  0.00     0.034 C 
ENDBRANCH  11  13
ENDBRANCH   9  11
ENDBRANCH   7   9
ENDBRANCH   6   7
ENDBRANCH   2   6
BRANCH   1  20
ATOM     20  N   UNL d   1       0.619   0.316   0.821  0.00  0.00    -0.362 N 
ATOM     21  H   UNL d   1       0.913   0.767  -0.029  0.00  0.00     0.162 HD
BRANCH  20  22
ATOM     22  C   UNL d   1       1.460  -0.682   1.224  0.00  0.00     0.168 C 
ATOM     23  S   UNL d   1       1.213  -1.809   2.426  0.00  0.00    -0.041 SA
BRANCH  22  24
ATOM     24  N   UNL d   1       2.648  -0.751   0.553  0.00  0.00    -0.362 N 
ATOM     25  H   UNL d   1       3.219  -1.538   0.845  0.00  0.00     0.162 HD
BRANCH  24  26
ATOM     26  C   UNL d   1       3.319   0.282  -0.221  0.00  0.00     0.092 C 
ATOM     27  C   UNL d   1       4.828  -0.001  -0.466  0.00  0.00     0.031 C 
ATOM     28  C   UNL d   1       4.995  -1.270  -1.280  0.00  0.00    -0.024 C 
ATOM     29  C   UNL d   1       5.110   1.022  -1.570  0.00  0.00     0.019 C 
ATOM     30  C   UNL d   1       4.546  -1.009  -2.517  0.00  0.00    -0.026 C 
ATOM     31  C   UNL d   1       4.071   0.423  -2.524  0.00  0.00     0.010 C 
ATOM     32  C   UNL d   1       2.782   0.485  -1.672  0.00  0.00     0.034 C 
ENDBRANCH  24  26
ENDBRANCH  22  24
ENDBRANCH  20  22
ENDBRANCH   1  20
TORSDOF 9
