REMARK  0 active torsions:
REMARK  status: ('A' for Active; 'I' for Inactive)
ROOT
ATOM      1  C   UNL d   1       0.037   1.305  -0.023  0.00  0.00    -0.002 C 
ATOM      2  C   UNL d   1       0.044   2.702  -0.021  0.00  0.00    -0.002 C 
ATOM      3  C   UNL d   1       1.290   0.457  -0.322  0.00  0.00    -0.010 C 
ATOM      4  C   UNL d   1      -1.228   0.478   0.280  0.00  0.00    -0.010 C 
ATOM      5  C   UNL d   1       1.311   3.525   0.293  0.00  0.00    -0.010 C 
ATOM      6  C   UNL d   1      -1.204   3.550  -0.320  0.00  0.00    -0.010 C 
ATOM      7  C   UNL d   1       0.003  -1.648  -0.051  0.00  0.00     0.194 C 
ATOM      8  C   UNL d   1       0.076   5.653  -0.030  0.00  0.00     0.194 C 
ATOM      9  C   UNL d   1       1.335   4.899   0.016  0.00  0.00     0.026 C 
ATOM     10  C   UNL d   1      -1.199   4.924  -0.049  0.00  0.00     0.026 C 
ATOM     11  C   UNL d   1       1.281  -0.918  -0.055  0.00  0.00     0.026 C 
ATOM     12  C   UNL d   1      -1.255  -0.892  -0.005  0.00  0.00     0.026 C 
ATOM     13  O   UNL d   1      -0.008  -2.874  -0.079  0.00  0.00    -0.287 OA
ATOM     14  O   UNL d   1       0.088   6.886  -0.049  0.00  0.00    -0.287 OA
ATOM     15  C   UNL d   1       2.475   0.914  -0.916  0.00  0.00     0.013 C 
ATOM     16  C   UNL d   1       2.467   3.046   0.921  0.00  0.00     0.013 C 
ATOM     17  C   UNL d   1      -2.386   0.951   0.914  0.00  0.00     0.013 C 
ATOM     18  C   UNL d   1      -2.389   3.092  -0.919  0.00  0.00     0.013 C 
ATOM     19  C   UNL d   1       2.534   5.633  -0.034  0.00  0.00     0.016 C 
ATOM     20  C   UNL d   1      -2.381   5.681   0.035  0.00  0.00     0.016 C 
ATOM     21  C   UNL d   1      -2.452  -1.629  -0.058  0.00  0.00     0.016 C 
ATOM     22  C   UNL d   1       2.461  -1.678   0.030  0.00  0.00     0.016 C 
ATOM     23  C   UNL d   1       3.672   0.179  -0.831  0.00  0.00     0.001 C 
ATOM     24  C   UNL d   1      -3.585   3.822  -0.837  0.00  0.00     0.001 C 
ATOM     25  C   UNL d   1      -3.602   0.242   0.862  0.00  0.00     0.001 C 
ATOM     26  C   UNL d   1       3.679   3.754   0.872  0.00  0.00     0.001 C 
ATOM     27  C   UNL d   1      -3.646  -1.029   0.307  0.00  0.00     0.001 C 
ATOM     28  C   UNL d   1       3.677  -1.098  -0.286  0.00  0.00     0.001 C 
ATOM     29  C   UNL d   1       3.727   5.027   0.323  0.00  0.00     0.001 C 
ATOM     30  C   UNL d   1      -3.595   5.096  -0.286  0.00  0.00     0.001 C 
ENDROOT
TORSDOF 0
