REMARK  3 active torsions:
REMARK  status: ('A' for Active; 'I' for Inactive)
REMARK    1  A    between atoms: C_6  and  C_1 
REMARK    2  A    between atoms: C_9  and  N_2 
REMARK       I    between atoms: N_8  and  C_6 
REMARK    3  A    between atoms: O_20  and  C_15 
ROOT
ATOM      1  C   UNL d   1      -0.279   1.119   0.006  0.00  0.00     0.073 C 
ATOM      2  N   UNL d   1       0.931  -0.752  -0.029  0.00  0.00    -0.260 N 
ATOM      3  C   UNL d   1       1.025   0.633   0.037  0.00  0.00     0.048 C 
ATOM      4  N   UNL d   1      -0.366  -1.157   0.017  0.00  0.00    -0.304 N 
ATOM      5  HN  UNL d   1      -0.719  -2.110   0.110  1.00  0.00     0.186 HD
ATOM      6  C   UNL d   1      -1.073  -0.039  -0.087  0.00  0.00     0.126 C 
ATOM      7  C   UNL d   1       2.289   1.406   0.193  0.00  0.00     0.071 C 
ENDROOT
BRANCH   1   8
ATOM      8  C   UNL d   1      -0.705   2.514   0.007  0.00  0.00     0.257 C 
ATOM      9  N   UNL d   1      -1.944   2.804   0.568  0.00  0.00    -0.344 N 
ATOM     10  C   UNL d   1      -2.530   4.125   0.345  0.00  0.00     0.152 C 
ATOM     11  C   UNL d   1      -2.527   2.111   1.727  0.00  0.00     0.152 C 
ATOM     12  C   UNL d   1      -4.056   4.013   0.260  0.00  0.00     0.187 C 
ATOM     13  O   UNL d   1      -4.601   3.366   1.424  0.00  0.00    -0.388 OA
ATOM     14  C   UNL d   1      -4.050   2.049   1.586  0.00  0.00     0.187 C 
ATOM     15  O   UNL d   1      -0.016   3.378  -0.532  0.00  0.00    -0.267 OA
ENDBRANCH   1   8
BRANCH   2  16
ATOM     16  C   UNL d   1       1.941  -1.747  -0.142  0.00  0.00     0.056 A 
ATOM     17  C   UNL d   1       1.667  -3.035   0.346  0.00  0.00     0.034 A 
ATOM     18  C   UNL d   1       2.615  -4.056   0.237  0.00  0.00     0.039 A 
ATOM     19  C   UNL d   1       3.832  -3.813  -0.393  0.00  0.00     0.068 A 
ATOM     20  C   UNL d   1       4.100  -2.534  -0.892  0.00  0.00     0.039 A 
ATOM     21  C   UNL d   1       3.164  -1.500  -0.769  0.00  0.00     0.034 A 
BRANCH  19  22
ATOM     22  O   UNL d   1       4.829  -4.730  -0.587  0.00  0.00    -0.356 OA
ATOM     23  C   UNL d   1       4.532  -6.075  -0.229  0.00  0.00     0.210 C 
ENDBRANCH  19  22
ENDBRANCH   2  16
TORSDOF 3
