REMARK  5 active torsions:
REMARK  status: ('A' for Active; 'I' for Inactive)
REMARK    1  A    between atoms: C_11  and  N_2 
REMARK    2  A    between atoms: C_10  and  N_3 
REMARK    3  A    between atoms: C_8  and  C_6 
REMARK    4  A    between atoms: N_7  and  C_12 
REMARK    5  A    between atoms: C_16  and  C_8 
ROOT
ATOM      1  C   UNL d   1      -0.009   1.388  -0.105  0.00  0.00     0.343 C 
ATOM      2  N   UNL d   1      -1.192   0.637  -0.050  0.00  0.00    -0.232 N 
ATOM      3  N   UNL d   1       1.183   0.658  -0.110  0.00  0.00    -0.232 N 
ATOM      4  C   UNL d   1      -1.249  -0.748   0.048  0.00  0.00     0.253 C 
ATOM      5  C   UNL d   1       1.267  -0.714   0.080  0.00  0.00     0.253 C 
ATOM      6  C   UNL d   1       0.022  -1.502  -0.135  0.00  0.00     0.246 C 
ATOM      7  O   UNL d   1      -0.020   2.623  -0.096  0.00  0.00    -0.245 OA
ATOM      8  O   UNL d   1      -2.285  -1.397   0.228  0.00  0.00    -0.271 OA
ATOM      9  O   UNL d   1       2.282  -1.308   0.459  0.00  0.00    -0.271 OA
ENDROOT
BRANCH   6  10
ATOM     10  C   UNL d   1       0.050  -2.246  -1.453  0.00  0.00     0.181 C 
ATOM     11  O   UNL d   1       0.659  -1.810  -2.430  0.00  0.00    -0.291 OA
BRANCH  10  12
ATOM     12  C   UNL d   1      -0.734  -3.512  -1.606  0.00  0.00     0.011 A 
ATOM     13  C   UNL d   1      -1.214  -3.855  -2.881  0.00  0.00     0.017 A 
ATOM     14  C   UNL d   1      -1.953  -5.030  -3.070  0.00  0.00     0.037 A 
ATOM     15  C   UNL d   1      -2.186  -5.883  -1.984  0.00  0.00     0.102 A 
ATOM     16  C   UNL d   1      -1.703  -5.556  -0.712  0.00  0.00     0.037 A 
ATOM     17  C   UNL d   1      -0.989  -4.368  -0.524  0.00  0.00     0.017 A 
BRANCH  15  18
ATOM     18  N   UNL d   1      -2.932  -7.131  -2.175  0.00  0.00    -0.116 N 
ATOM     19  O   UNL d   1      -3.342  -7.389  -3.320  0.00  0.00    -0.532 OA
ATOM     20  O   UNL d   1      -3.112  -7.867  -1.193  0.00  0.00    -0.532 OA
ENDBRANCH  15  18
ENDBRANCH  10  12
ENDBRANCH   6  10
BRANCH   3  21
ATOM     21  C   UNL d   1       2.413   1.383  -0.063  0.00  0.00     0.047 A 
ATOM     22  C   UNL d   1       2.671   2.297   0.967  0.00  0.00     0.030 A 
ATOM     23  C   UNL d   1       3.909   2.937   1.040  0.00  0.00     0.002 A 
ATOM     24  C   UNL d   1       4.881   2.687   0.073  0.00  0.00     0.000 A 
ATOM     25  C   UNL d   1       4.617   1.804  -0.974  0.00  0.00     0.002 A 
ATOM     26  C   UNL d   1       3.388   1.146  -1.040  0.00  0.00     0.030 A 
ENDBRANCH   3  21
BRANCH   2  27
ATOM     27  C   UNL d   1      -2.431   1.361  -0.026  0.00  0.00     0.047 A 
ATOM     28  C   UNL d   1      -2.741   2.275  -1.046  0.00  0.00     0.030 A 
ATOM     29  C   UNL d   1      -3.982   2.916  -1.064  0.00  0.00     0.002 A 
ATOM     30  C   UNL d   1      -4.910   2.671  -0.053  0.00  0.00     0.000 A 
ATOM     31  C   UNL d   1      -4.597   1.793   0.982  0.00  0.00     0.002 A 
ATOM     32  C   UNL d   1      -3.364   1.139   0.995  0.00  0.00     0.030 A 
ENDBRANCH   2  27
TORSDOF 5
