REMARK  4 active torsions:
REMARK  status: ('A' for Active; 'I' for Inactive)
REMARK    1  A    between atoms: N_4  and  C_1 
REMARK    2  A    between atoms: N_5  and  C_2 
REMARK    3  A    between atoms: N_13  and  C_3 
REMARK    4  A    between atoms: C_15  and  N_13 
ROOT
ATOM      1  C   UNL d   1       1.827  -1.129  -0.035  0.00  0.00     0.133 A 
ATOM      2  C   UNL d   1       1.672   1.255   0.041  0.00  0.00     0.133 A 
ATOM      3  C   UNL d   1       2.516   0.119   0.006  0.00  0.00     0.095 A 
ATOM      4  C   UNL d   1       0.267   1.185   0.041  0.00  0.00     0.062 A 
ATOM      5  C   UNL d   1       0.416  -1.210  -0.040  0.00  0.00     0.062 A 
ATOM      6  C   UNL d   1      -0.350  -0.054  -0.002  0.00  0.00     0.038 A 
ATOM      7 CL   UNL d   1      -2.064  -0.158  -0.026  0.00  0.00    -0.084 Cl
ENDROOT
BRANCH   3   8
ATOM      8  N   UNL d   1       3.909   0.173  -0.002  0.00  0.00    -0.386 N 
ATOM      9  H   UNL d   1       4.378  -0.726  -0.169  0.00  0.00     0.159 HD
BRANCH   8  10
ATOM     10  C   UNL d   1       4.716   1.106   0.781  0.00  0.00     0.115 C 
ATOM     11  C   UNL d   1       5.968   0.401   1.286  0.00  0.00     0.026 C 
ENDBRANCH   8  10
ENDBRANCH   3   8
BRANCH   2  12
ATOM     12  N   UNL d   1       2.206   2.604   0.012  0.00  0.00    -0.113 N 
ATOM     13  O   UNL d   1       2.787   2.969  -1.018  0.00  0.00    -0.532 OA
ATOM     14  O   UNL d   1       1.984   3.309   1.005  0.00  0.00    -0.532 OA
ENDBRANCH   2  12
BRANCH   1  15
ATOM     15  N   UNL d   1       2.552  -2.420  -0.047  0.00  0.00    -0.113 N 
ATOM     16  O   UNL d   1       3.782  -2.410  -0.201  0.00  0.00    -0.532 OA
ATOM     17  O   UNL d   1       1.884  -3.454   0.102  0.00  0.00    -0.532 OA
ENDBRANCH   1  15
TORSDOF 4
