REMARK  2 active torsions:
REMARK  status: ('A' for Active; 'I' for Inactive)
REMARK    1  A    between atoms: C_11  and  N_1 
REMARK    2  A    between atoms: N_3  and  C_4 
ROOT
ATOM      1  N   UNL d   1      -0.006   0.863  -0.051  0.00  0.00    -0.251 N 
ATOM      2  C   UNL d   1      -1.130   0.075   0.085  0.00  0.00     0.255 A 
ATOM      3  C   UNL d   1      -0.729  -1.371   0.033  0.00  0.00     0.192 A 
ATOM      4  C   UNL d   1       1.136   0.099  -0.132  0.00  0.00     0.233 A 
ATOM      5  C   UNL d   1       0.782  -1.353  -0.046  0.00  0.00     0.139 A 
ATOM      6  O   UNL d   1      -2.302   0.420   0.172  0.00  0.00    -0.270 OA
ATOM      7  O   UNL d   1       2.302   0.461  -0.203  0.00  0.00    -0.273 OA
ENDROOT
BRANCH   3   8
ATOM      8  N   UNL d   1      -1.327  -2.093  -1.080  0.00  0.00    -0.327 N 
ATOM      9  C   UNL d   1      -1.689  -1.578  -2.295  0.00  0.00     0.184 A 
ATOM     10  N   UNL d   1      -2.064  -2.518  -3.129  0.00  0.00    -0.350 N 
ATOM     11  C   UNL d   1      -1.974  -3.689  -2.421  0.00  0.00     0.060 A 
ATOM     12  HN  UNL d   1      -2.360  -2.403  -4.099  1.00  0.00     0.166 HD
ATOM     13  C   UNL d   1      -1.528  -3.455  -1.122  0.00  0.00     0.063 A 
ATOM     14  C   UNL d   1      -2.251  -5.001  -2.830  0.00  0.00     0.032 A 
ATOM     15  C   UNL d   1      -1.355  -4.482  -0.186  0.00  0.00     0.032 A 
ATOM     16  C   UNL d   1      -1.645  -5.784  -0.611  0.00  0.00     0.002 A 
ATOM     17  C   UNL d   1      -2.080  -6.043  -1.912  0.00  0.00     0.002 A 
ENDBRANCH   3   8
BRANCH   1  18
ATOM     18  C   UNL d   1      -0.035   2.289  -0.143  0.00  0.00     0.045 A 
ATOM     19  C   UNL d   1      -1.145   3.030   0.302  0.00  0.00     0.033 A 
ATOM     20  C   UNL d   1      -1.198   4.421   0.159  0.00  0.00     0.044 A 
ATOM     21  C   UNL d   1      -0.140   5.089  -0.435  0.00  0.00     0.116 A 
ATOM     22  C   UNL d   1       0.976   4.394  -0.871  0.00  0.00     0.044 A 
ATOM     23  F   UNL d   1      -0.198   6.417  -0.592  0.00  0.00    -0.206 F 
ATOM     24  C   UNL d   1       1.032   3.004  -0.716  0.00  0.00     0.033 A 
ENDBRANCH   1  18
TORSDOF 2
