REMARK  4 active torsions:
REMARK  status: ('A' for Active; 'I' for Inactive)
REMARK       I    between atoms: N_2  and  C_1 
REMARK    1  A    between atoms: C_3  and  C_1 
REMARK    2  A    between atoms: C_4  and  N_2 
REMARK    3  A    between atoms: O_13  and  C_8 
REMARK    4  A    between atoms: O_14  and  C_9 
ROOT
ATOM      1  C   UNL d   1       1.020  -0.289   0.171  0.00  0.00     0.261 C 
ATOM      2  N   UNL d   1       0.481  -0.591  -1.076  0.00  0.00    -0.322 N 
ATOM      3  O   UNL d   1       2.090  -0.734   0.572  0.00  0.00    -0.267 OA
ATOM      4  H   UNL d   1      -0.357  -0.102  -1.365  0.00  0.00     0.169 HD
ENDROOT
BRANCH   1   5
ATOM      5  C   UNL d   1       0.200   0.642   1.030  0.00  0.00     0.098 A 
ATOM      6  C   UNL d   1      -1.213   0.581   1.030  0.00  0.00     0.086 A 
ATOM      7  C   UNL d   1      -1.954   1.452   1.845  0.00  0.00     0.038 A 
ATOM      8  C   UNL d   1      -1.310   2.368   2.666  0.00  0.00     0.005 A 
ATOM      9  C   UNL d   1       0.076   2.431   2.686  0.00  0.00     0.038 A 
ATOM     10  C   UNL d   1       0.844   1.565   1.891  0.00  0.00     0.086 A 
BRANCH   6  11
ATOM     11  O   UNL d   1      -1.830  -0.312   0.186  0.00  0.00    -0.355 OA
ATOM     12  C   UNL d   1      -3.089  -0.819   0.620  0.00  0.00     0.210 C 
ENDBRANCH   6  11
BRANCH  10  13
ATOM     13  O   UNL d   1       2.214   1.638   1.878  0.00  0.00    -0.355 OA
ATOM     14  C   UNL d   1       2.838   2.122   3.064  0.00  0.00     0.210 C 
ENDBRANCH  10  13
ENDBRANCH   1   5
BRANCH   2  15
ATOM     15  C   UNL d   1       1.185  -1.304  -2.064  0.00  0.00     0.047 A 
ATOM     16  C   UNL d   1       1.056  -2.703  -2.136  0.00  0.00    -0.034 A 
ATOM     17  C   UNL d   1       1.763  -3.406  -3.130  0.00  0.00     0.015 A 
ATOM     18  C   UNL d   1       0.221  -3.495  -1.170  0.00  0.00     0.050 C 
ATOM     19  C   UNL d   1       2.551  -2.737  -4.070  0.00  0.00    -0.061 A 
ATOM     20  C   UNL d   1       2.624  -1.343  -4.018  0.00  0.00     0.015 A 
ATOM     21  C   UNL d   1       3.324  -3.515  -5.095  0.00  0.00     0.048 C 
ATOM     22  C   UNL d   1       1.938  -0.610  -3.029  0.00  0.00    -0.034 A 
ATOM     23  C   UNL d   1       2.079   0.886  -3.049  0.00  0.00     0.050 C 
ENDBRANCH   2  15
TORSDOF 4
