REMARK  5 active torsions:
REMARK  status: ('A' for Active; 'I' for Inactive)
REMARK    1  A    between atoms: C_13  and  N_1 
REMARK    2  A    between atoms: C_6  and  C_3 
REMARK    3  A    between atoms: C_17  and  N_5 
REMARK    4  A    between atoms: C_16  and  C_10 
REMARK    5  A    between atoms: C_21  and  C_13 
ROOT
ATOM      1  N   UNL d   1      -0.707   1.194  -0.050  0.00  0.00    -0.261 N 
ATOM      2  C   UNL d   1      -1.376  -0.015  -0.228  0.00  0.00     0.332 C 
ATOM      3  C   UNL d   1       1.454   0.058   0.043  0.00  0.00     0.082 C 
ATOM      4  C   UNL d   1       0.670   1.322   0.067  0.00  0.00     0.266 C 
ATOM      5  N   UNL d   1      -0.603  -1.165  -0.045  0.00  0.00    -0.304 N 
ATOM      6  C   UNL d   1       0.775  -1.096   0.010  0.00  0.00     0.116 C 
ATOM      7  O   UNL d   1      -2.569  -0.074  -0.534  0.00  0.00    -0.246 OA
ATOM      8  O   UNL d   1       1.225   2.415   0.151  0.00  0.00    -0.267 OA
ENDROOT
BRANCH   3   9
ATOM      9  C   UNL d   1       2.885   0.021  -0.007  0.00  0.00     0.091 A 
ATOM     10  N   UNL d   1       3.595  -0.909  -0.633  0.00  0.00    -0.349 N 
ATOM     11  C   UNL d   1       4.956  -0.681  -0.509  0.00  0.00     0.050 A 
ATOM     12  HN  UNL d   1       3.189  -1.694  -1.143  1.00  0.00     0.166 HD
ATOM     13  C   UNL d   1       5.285   0.443   0.217  0.00  0.00     0.082 A 
ATOM     14  S   UNL d   1       3.871   1.179   0.826  0.00  0.00    -0.081 SA
BRANCH  11  15
ATOM     15  C   UNL d   1       5.930  -1.585  -1.109  0.00  0.00    -0.009 A 
ATOM     16  C   UNL d   1       5.598  -2.296  -2.272  0.00  0.00     0.015 A 
ATOM     17  C   UNL d   1       6.501  -3.203  -2.836  0.00  0.00     0.024 A 
ATOM     18  C   UNL d   1       7.741  -3.408  -2.235  0.00  0.00     0.034 A 
ATOM     19  C   UNL d   1       8.090  -2.706  -1.085  0.00  0.00     0.024 A 
ATOM     20 CL   UNL d   1       8.842  -4.545  -2.907  0.00  0.00    -0.084 Cl
ATOM     21  C   UNL d   1       7.188  -1.796  -0.524  0.00  0.00     0.015 A 
ENDBRANCH  11  15
ENDBRANCH   3   9
BRANCH   1  22
ATOM     22  C   UNL d   1      -1.507   2.415  -0.037  0.00  0.00     0.175 C 
BRANCH  22  23
ATOM     23  C   UNL d   1      -2.173   2.635   1.306  0.00  0.00    -0.040 A 
ATOM     24  C   UNL d   1      -1.516   3.325   2.335  0.00  0.00     0.009 A 
ATOM     25  C   UNL d   1      -2.120   3.468   3.587  0.00  0.00     0.001 A 
ATOM     26  C   UNL d   1      -3.379   2.917   3.826  0.00  0.00     0.000 A 
ATOM     27  C   UNL d   1      -4.043   2.236   2.810  0.00  0.00     0.001 A 
ATOM     28  C   UNL d   1      -3.446   2.100   1.557  0.00  0.00     0.009 A 
ENDBRANCH  22  23
ENDBRANCH   1  22
BRANCH   5  29
ATOM     29  C   UNL d   1      -1.287  -2.478  -0.077  0.00  0.00     0.086 C 
ATOM     30  C   UNL d   1      -1.187  -3.132  -1.455  0.00  0.00     0.032 C 
ATOM     31  C   UNL d   1      -0.826  -3.437   1.028  0.00  0.00     0.032 C 
ENDBRANCH   5  29
TORSDOF 5
