REMARK  7 active torsions:
REMARK  status: ('A' for Active; 'I' for Inactive)
REMARK    1  A    between atoms: S_11  and  C_2 
REMARK    2  A    between atoms: S_14  and  C_3 
REMARK    3  A    between atoms: C_8  and  C_12 
REMARK       I    between atoms: N_9  and  C_10 
REMARK    4  A    between atoms: C_10  and  C_19 
REMARK    5  A    between atoms: C_19  and  S_11 
REMARK    6  A    between atoms: C_13  and  C_26 
REMARK    7  A    between atoms: C_26  and  S_14 
ROOT
ATOM      1  S   UNL d   1       0.935   2.406  -1.543  0.00  0.00    -0.094 SA
ENDROOT
BRANCH   1   2
ATOM      2  C   UNL d   1       0.672   0.778  -0.954  0.00  0.00     0.129 A 
ATOM      3  S   UNL d   1      -0.098  -0.443  -1.886  0.00  0.00    -0.038 SA
ATOM      4  C   UNL d   1      -0.014  -1.450  -0.499  0.00  0.00     0.129 A 
ATOM      5  N   UNL d   1       0.603  -0.897   0.525  0.00  0.00    -0.287 N 
ATOM      6  N   UNL d   1       1.003   0.400   0.261  0.00  0.00    -0.287 N 
ATOM      7  HN  UNL d   1       0.768  -1.372   1.413  1.00  0.00     0.188 HD
ATOM      8  HN  UNL d   1       1.495   0.993   0.930  1.00  0.00     0.188 HD
BRANCH   4   9
ATOM      9  S   UNL d   1      -0.706  -3.056  -0.414  0.00  0.00    -0.103 SA
BRANCH   9  10
ATOM     10  C   UNL d   1      -1.152  -3.087   1.341  0.00  0.00     0.086 C 
BRANCH  10  11
ATOM     11  C   UNL d   1      -1.741  -4.407   1.739  0.00  0.00    -0.005 A 
ATOM     12  C   UNL d   1      -3.114  -4.865   1.315  0.00  0.00     0.006 A 
ATOM     13  C   UNL d   1      -2.884  -4.421   2.729  0.00  0.00     0.006 A 
ENDBRANCH  10  11
ENDBRANCH   9  10
ENDBRANCH   4   9
ENDBRANCH   1   2
BRANCH   1  14
ATOM     14  C   UNL d   1       1.790   3.153  -0.123  0.00  0.00     0.184 C 
BRANCH  14  15
ATOM     15  C   UNL d   1       2.071   4.626  -0.398  0.00  0.00     0.229 C 
ATOM     16  N   UNL d   1       1.168   5.592   0.061  0.00  0.00    -0.351 N 
ATOM     17  C   UNL d   1       1.466   6.991  -0.254  0.00  0.00     0.126 C 
ATOM     18  C   UNL d   1      -0.227   5.310   0.399  0.00  0.00     0.126 C 
ATOM     19  C   UNL d   1       0.983   7.934   0.846  0.00  0.00     0.033 C 
ATOM     20  C   UNL d   1      -0.493   7.718   1.205  0.00  0.00     0.096 C 
ATOM     21  C   UNL d   1      -0.729   6.231   1.514  0.00  0.00     0.033 C 
ATOM     22  O   UNL d   1       3.108   4.944  -0.988  0.00  0.00    -0.273 OA
BRANCH  20  23
ATOM     23  C   UNL d   1      -1.454   8.259   0.144  0.00  0.00     0.391 C 
ATOM     24  F   UNL d   1      -0.810   8.884  -0.864  0.00  0.00    -0.171 F 
ATOM     25  F   UNL d   1      -2.222   7.293  -0.402  0.00  0.00    -0.171 F 
ATOM     26  F   UNL d   1      -2.294   9.164   0.700  0.00  0.00    -0.171 F 
ENDBRANCH  20  23
ENDBRANCH  14  15
ENDBRANCH   1  14
TORSDOF 7
