REMARK  5 active torsions:
REMARK  status: ('A' for Active; 'I' for Inactive)
REMARK    1  A    between atoms: N_2  and  C_1 
REMARK    2  A    between atoms: C_7  and  C_3 
REMARK    3  A    between atoms: C_5  and  C_6 
REMARK    4  A    between atoms: O_15  and  C_7 
REMARK    5  A    between atoms: C_16  and  O_15 
ROOT
ATOM      1  C   UNL d   1      -0.050  -3.586  -0.043  0.00  0.00     0.122 C 
ATOM      2  C   UNL d   1      -0.828  -2.484   0.010  0.00  0.00     0.066 C 
ATOM      3  C   UNL d   1      -0.684  -4.869  -0.070  0.00  0.00     0.105 C 
ATOM      4  N   UNL d   1      -1.224  -5.895  -0.087  0.00  0.00    -0.191 NA
ENDROOT
BRANCH   1   5
ATOM      5  C   UNL d   1       1.437  -3.563  -0.111  0.00  0.00     0.304 C 
ATOM      6  O   UNL d   1       2.103  -2.635  -0.541  0.00  0.00    -0.258 OA
BRANCH   5   7
ATOM      7  O   UNL d   1       1.949  -4.719   0.383  0.00  0.00    -0.317 OA
BRANCH   7   8
ATOM      8  C   UNL d   1       3.384  -4.808   0.440  0.00  0.00     0.174 C 
ATOM      9  C   UNL d   1       3.981  -5.095  -0.926  0.00  0.00     0.034 C 
ENDBRANCH   7   8
ENDBRANCH   5   7
ENDBRANCH   1   5
BRANCH   2  10
ATOM     10  C   UNL d   1      -0.391  -1.130   0.107  0.00  0.00     0.079 A 
ATOM     11  O   UNL d   1      -1.101  -0.091  -0.475  0.00  0.00    -0.289 OA
ATOM     12  C   UNL d   1      -0.432   1.064  -0.220  0.00  0.00     0.215 A 
ATOM     13  C   UNL d   1       0.687   0.840   0.536  0.00  0.00     0.065 A 
ATOM     14  C   UNL d   1       0.686  -0.554   0.784  0.00  0.00     0.042 A 
BRANCH  12  15
ATOM     15  N   UNL d   1      -0.981   2.272  -0.750  0.00  0.00    -0.090 N 
ATOM     16  O   UNL d   1      -0.327   3.304  -0.546  0.00  0.00    -0.530 OA
ATOM     17  O   UNL d   1      -2.059   2.203  -1.354  0.00  0.00    -0.530 OA
ENDBRANCH  12  15
ENDBRANCH   2  10
TORSDOF 5
