REMARK  1 active torsions:
REMARK  status: ('A' for Active; 'I' for Inactive)
REMARK    1  A    between atoms: C_11  and  N_3 
ROOT
ATOM      1  C   UNL d   1      -1.389  -0.231   0.436  0.00  0.00     0.329 C 
ATOM      2  N   UNL d   1      -0.750   0.959   0.680  0.00  0.00    -0.274 N 
ATOM      3  N   UNL d   1      -0.574  -1.266  -0.013  0.00  0.00    -0.303 N 
ATOM      4  C   UNL d   1       1.407   0.093   0.065  0.00  0.00     0.128 C 
ATOM      5  C   UNL d   1       0.804  -1.088  -0.124  0.00  0.00     0.124 C 
ATOM      6  C   UNL d   1       0.547   1.252   0.364  0.00  0.00     0.271 C 
ATOM      7  C   UNL d   1       2.808   0.255  -0.093  0.00  0.00     0.106 C 
ATOM      8  N   UNL d   1       3.958   0.319  -0.231  0.00  0.00    -0.191 NA
ATOM      9  O   UNL d   1      -2.602  -0.296   0.588  0.00  0.00    -0.246 OA
ATOM     10  O   UNL d   1       0.956   2.406   0.311  0.00  0.00    -0.266 OA
ATOM     11  H   UNL d   1      -1.356   1.743   0.874  0.00  0.00     0.173 HD
ENDROOT
BRANCH   3  12
ATOM     12  C   UNL d   1      -1.151  -2.518  -0.575  0.00  0.00     0.094 C 
ATOM     13  C   UNL d   1      -1.857  -2.257  -1.920  0.00  0.00     0.026 C 
ATOM     14  C   UNL d   1      -3.369  -2.089  -1.839  0.00  0.00     0.002 C 
ATOM     15  C   UNL d   1      -4.003  -3.228  -1.056  0.00  0.00     0.000 C 
ATOM     16  C   UNL d   1      -3.462  -3.287   0.365  0.00  0.00     0.002 C 
ATOM     17  C   UNL d   1      -1.939  -3.393   0.416  0.00  0.00     0.026 C 
ENDBRANCH   3  12
TORSDOF 1
