REMARK  7 active torsions:
REMARK  status: ('A' for Active; 'I' for Inactive)
REMARK    1  A    between atoms: C_3  and  N_1 
REMARK    2  A    between atoms: C_5  and  C_2 
REMARK    3  A    between atoms: O_18  and  C_4 
REMARK       I    between atoms: N_14  and  C_5 
REMARK    4  A    between atoms: O_20  and  C_6 
REMARK    5  A    between atoms: O_19  and  C_7 
REMARK    6  A    between atoms: N_8  and  N_14 
REMARK    7  A    between atoms: C_15  and  C_17 
ROOT
ATOM      1  N   UNL d   1       2.475   6.502   2.004  0.00  0.00    -0.308 N 
ATOM      2  HN  UNL d   1       2.230   7.490   1.945  1.00  0.00     0.186 HD
ATOM      3  C   UNL d   1       2.131   5.766   3.012  0.00  0.00     0.118 C 
ENDROOT
BRANCH   1   4
ATOM      4  N   UNL d   1       3.185   5.871   1.027  0.00  0.00    -0.266 N 
ATOM      5  C   UNL d   1       3.468   6.547  -0.147  0.00  0.00     0.272 C 
ATOM      6  O   UNL d   1       3.136   7.706  -0.385  0.00  0.00    -0.266 OA
ATOM      7  H   UNL d   1       3.497   4.916   1.197  0.00  0.00     0.190 HD
BRANCH   5   8
ATOM      8  C   UNL d   1       4.273   5.838  -1.180  0.00  0.00     0.066 A 
ATOM      9  C   UNL d   1       4.158   4.496  -1.550  0.00  0.00     0.118 A 
ATOM     10  C   UNL d   1       4.923   3.945  -2.592  0.00  0.00     0.037 A 
ATOM     11  C   UNL d   1       5.823   4.753  -3.284  0.00  0.00     0.002 A 
ATOM     12  C   UNL d   1       5.950   6.098  -2.941  0.00  0.00     0.001 A 
ATOM     13  C   UNL d   1       5.179   6.635  -1.905  0.00  0.00     0.020 A 
BRANCH   9  14
ATOM     14  N   UNL d   1       3.228   3.604  -0.895  0.00  0.00    -0.115 N 
ATOM     15  O   UNL d   1       3.464   3.330   0.290  0.00  0.00    -0.532 OA
ATOM     16  O   UNL d   1       2.303   3.148  -1.575  0.00  0.00    -0.532 OA
ENDBRANCH   9  14
ENDBRANCH   5   8
ENDBRANCH   1   4
BRANCH   3  17
ATOM     17  C   UNL d   1       1.381   6.324   4.155  0.00  0.00    -0.014 A 
ATOM     18  C   UNL d   1       1.058   7.680   4.199  0.00  0.00     0.052 A 
ATOM     19  C   UNL d   1       0.376   8.211   5.298  0.00  0.00     0.105 A 
ATOM     20  C   UNL d   1      -0.009   7.365   6.354  0.00  0.00     0.135 A 
ATOM     21  C   UNL d   1       0.245   5.976   6.262  0.00  0.00     0.105 A 
ATOM     22  C   UNL d   1       0.981   5.471   5.183  0.00  0.00     0.052 A 
BRANCH  19  23
ATOM     23  O   UNL d   1       0.092   9.544   5.158  0.00  0.00    -0.353 OA
ATOM     24  C   UNL d   1       0.113  10.332   6.339  0.00  0.00     0.210 C 
ENDBRANCH  19  23
BRANCH  20  25
ATOM     25  O   UNL d   1      -0.773   7.879   7.372  0.00  0.00    -0.351 OA
ATOM     26  C   UNL d   1      -0.226   7.679   8.677  0.00  0.00     0.210 C 
ENDBRANCH  20  25
BRANCH  21  27
ATOM     27  O   UNL d   1      -0.273   5.180   7.255  0.00  0.00    -0.353 OA
ATOM     28  C   UNL d   1      -0.438   3.799   6.958  0.00  0.00     0.210 C 
ENDBRANCH  21  27
ENDBRANCH   3  17
TORSDOF 7
