REMARK  7 active torsions:
REMARK  status: ('A' for Active; 'I' for Inactive)
REMARK    1  A    between atoms: C_7  and  C_2 
REMARK    2  A    between atoms: C_10  and  N_3 
REMARK       I    between atoms: N_12  and  C_7 
REMARK    3  A    between atoms: N_8  and  N_12 
REMARK    4  A    between atoms: C_17  and  C_14 
REMARK    5  A    between atoms: O_15  and  C_16 
REMARK    6  A    between atoms: C_18  and  O_15 
REMARK    7  A    between atoms: C_23  and  C_18 
ROOT
ATOM      1  C   UNL d   1      -0.630  -2.665   0.234  0.00  0.00     0.275 C 
ATOM      2  N   UNL d   1       0.306  -3.665  -0.020  0.00  0.00    -0.266 N 
ATOM      3  O   UNL d   1      -0.329  -1.564   0.694  0.00  0.00    -0.266 OA
ATOM      4  H   UNL d   1       0.042  -4.575  -0.369  0.00  0.00     0.190 HD
ENDROOT
BRANCH   2   5
ATOM      5  N   UNL d   1       1.622  -3.392   0.220  0.00  0.00    -0.308 N 
ATOM      6  C   UNL d   1       2.478  -4.344   0.034  0.00  0.00     0.118 C 
ATOM      7  HN  UNL d   1       1.921  -2.469   0.535  1.00  0.00     0.186 HD
BRANCH   6   8
ATOM      8  C   UNL d   1       3.923  -4.107   0.260  0.00  0.00    -0.019 A 
ATOM      9  C   UNL d   1       4.383  -2.832   0.602  0.00  0.00     0.015 A 
ATOM     10  C   UNL d   1       5.748  -2.611   0.795  0.00  0.00     0.037 A 
ATOM     11  C   UNL d   1       6.662  -3.660   0.669  0.00  0.00     0.069 A 
ATOM     12  C   UNL d   1       6.201  -4.933   0.323  0.00  0.00     0.037 A 
ATOM     13  C   UNL d   1       4.831  -5.158   0.117  0.00  0.00     0.015 A 
BRANCH  11  14
ATOM     14  O   UNL d   1       7.970  -3.308   0.858  0.00  0.00    -0.347 OA
BRANCH  14  15
ATOM     15  C   UNL d   1       8.847  -4.342   1.313  0.00  0.00     0.214 C 
BRANCH  15  16
ATOM     16  C   UNL d   1      10.241  -3.792   1.535  0.00  0.00    -0.034 A 
ATOM     17  C   UNL d   1      11.044  -4.311   2.563  0.00  0.00     0.009 A 
ATOM     18  C   UNL d   1      12.357  -3.866   2.734  0.00  0.00     0.001 A 
ATOM     19  C   UNL d   1      12.888  -2.906   1.875  0.00  0.00     0.000 A 
ATOM     20  C   UNL d   1      12.105  -2.388   0.846  0.00  0.00     0.001 A 
ATOM     21  C   UNL d   1      10.792  -2.832   0.674  0.00  0.00     0.009 A 
ENDBRANCH  15  16
ENDBRANCH  14  15
ENDBRANCH  11  14
ENDBRANCH   6   8
ENDBRANCH   2   5
BRANCH   1  22
ATOM     22  C   UNL d   1      -2.021  -3.008  -0.045  0.00  0.00     0.095 A 
ATOM     23  C   UNL d   1      -3.102  -2.169   0.190  0.00  0.00     0.138 A 
ATOM     24  N   UNL d   1      -4.254  -2.872  -0.171  0.00  0.00    -0.240 N 
ATOM     25  N   UNL d   1      -3.097  -0.925   0.748  0.00  0.00    -0.383 N 
ATOM     26  N   UNL d   1      -3.951  -4.150  -0.534  0.00  0.00    -0.302 N 
ATOM     27  C   UNL d   1      -2.617  -4.192  -0.521  0.00  0.00     0.128 A 
ATOM     28  HN  UNL d   1      -4.598  -4.905  -0.764  1.00  0.00     0.186 HD
ATOM     29  H   UNL d   1      -2.197  -0.593   1.116  0.00  0.00     0.157 HD
ATOM     30  H   UNL d   1      -3.873  -0.634   1.340  0.00  0.00     0.157 HD
BRANCH  24  31
ATOM     31  C   UNL d   1      -5.608  -2.429  -0.139  0.00  0.00     0.058 A 
ATOM     32  C   UNL d   1      -5.928  -1.071  -0.285  0.00  0.00     0.031 A 
ATOM     33  C   UNL d   1      -7.251  -0.644  -0.160  0.00  0.00     0.002 A 
ATOM     34  C   UNL d   1      -8.259  -1.567   0.110  0.00  0.00     0.000 A 
ATOM     35  C   UNL d   1      -7.954  -2.923   0.214  0.00  0.00     0.002 A 
ATOM     36  C   UNL d   1      -6.635  -3.361   0.068  0.00  0.00     0.031 A 
ENDBRANCH  24  31
ENDBRANCH   1  22
TORSDOF 7
