REMARK  5 active torsions:
REMARK  status: ('A' for Active; 'I' for Inactive)
REMARK    1  A    between atoms: C_2  and  S_1 
REMARK    2  A    between atoms: N_3  and  S_1 
REMARK    3  A    between atoms: N_5  and  N_3 
REMARK    4  A    between atoms: C_4  and  N_5 
REMARK    5  A    between atoms: C_13  and  C_8 
ROOT
ATOM      1  C   UNL d   1       0.644   2.414   3.014  0.00  0.00     0.697 A 
ATOM      2  N   UNL d   1       1.544   2.972   3.835  0.00  0.00    -0.190 N 
ATOM      3  HN  UNL d   1       2.510   2.646   3.858  1.00  0.00     0.184 HD
ATOM      4  C   UNL d   1       1.129   3.983   4.632  0.00  0.00     0.062 A 
ATOM      5  N   UNL d   1      -0.647   2.780   2.953  0.00  0.00    -0.200 N 
ATOM      6  HN  UNL d   1      -1.299   2.333   2.309  1.00  0.00     0.183 HD
ATOM      7  C   UNL d   1      -0.186   4.406   4.640  0.00  0.00     0.048 A 
ATOM      8  C   UNL d   1      -1.039   3.760   3.780  0.00  0.00     0.108 A 
ENDROOT
BRANCH   1   9
ATOM      9  N   UNL d   1       1.092   1.423   2.147  0.00  0.00    -0.122 N 
ATOM     10  H   UNL d   1       2.081   1.201   2.227  0.00  0.00     0.206 HD
BRANCH   9  11
ATOM     11  N   UNL d   1       0.374   1.034   0.941  0.00  0.00    -0.208 N 
ATOM     12  H   UNL d   1      -0.549   1.436   0.745  0.00  0.00     0.201 HD
BRANCH  11  13
ATOM     13  S   UNL d   1       0.998  -0.065  -0.163  0.00  0.00     0.278 S 
ATOM     14  O   UNL d   1       0.117  -0.134  -1.303  0.00  0.00    -0.199 OA
ATOM     15  O   UNL d   1       2.405   0.256  -0.316  0.00  0.00    -0.199 OA
BRANCH  13  16
ATOM     16  C   UNL d   1       0.894  -1.595   0.725  0.00  0.00     0.102 A 
ATOM     17  C   UNL d   1      -0.321  -2.080   1.215  0.00  0.00     0.057 A 
ATOM     18 CL   UNL d   1      -1.847  -1.313   0.957  0.00  0.00    -0.083 Cl
ATOM     19  C   UNL d   1      -0.333  -3.261   1.966  0.00  0.00     0.025 A 
ATOM     20  C   UNL d   1       0.854  -3.964   2.208  0.00  0.00     0.002 A 
ATOM     21  C   UNL d   1       2.060  -3.488   1.695  0.00  0.00     0.002 A 
ATOM     22  C   UNL d   1       2.080  -2.303   0.957  0.00  0.00     0.027 A 
ENDBRANCH  13  16
ENDBRANCH  11  13
ENDBRANCH   9  11
ENDBRANCH   1   9
BRANCH   4  23
ATOM     23  C   UNL d   1       2.177   4.626   5.442  0.00  0.00     0.007 A 
ATOM     24  C   UNL d   1       3.501   4.683   4.999  0.00  0.00     0.101 A 
ATOM     25  N   UNL d   1       4.522   5.286   5.659  0.00  0.00    -0.374 N 
ATOM     26  C   UNL d   1       4.222   5.861   6.840  0.00  0.00     0.087 A 
ATOM     27  HN  UNL d   1       5.469   5.302   5.281  1.00  0.00     0.164 HD
ATOM     28  C   UNL d   1       2.953   5.859   7.388  0.00  0.00     0.018 A 
ATOM     29  C   UNL d   1       1.925   5.233   6.681  0.00  0.00     0.016 A 
ENDBRANCH   4  23
TORSDOF 5
