REMARK  5 active torsions:
REMARK  status: ('A' for Active; 'I' for Inactive)
REMARK    1  A    between atoms: C_13  and  C_2 
REMARK    2  A    between atoms: N_11  and  C_6 
REMARK    3  A    between atoms: C_14  and  N_11 
REMARK    4  A    between atoms: C_16  and  C_14 
REMARK    5  A    between atoms: O_15  and  C_16 
ROOT
ATOM      1  C   UNL d   1       0.246   0.954   0.030  0.00  0.00     0.053 A 
ATOM      2  C   UNL d   1      -0.998   1.728  -0.016  0.00  0.00    -0.003 A 
ATOM      3  C   UNL d   1      -2.101   0.893  -0.077  0.00  0.00     0.065 A 
ATOM      4  C   UNL d   1      -0.029  -0.404  -0.069  0.00  0.00     0.089 A 
ATOM      5  S   UNL d   1      -1.692  -0.759  -0.116  0.00  0.00    -0.082 SA
ATOM      6  C   UNL d   1       1.622   1.279   0.144  0.00  0.00     0.116 A 
ATOM      7  N   UNL d   1       0.858  -1.413  -0.113  0.00  0.00    -0.346 N 
ATOM      8  HN  UNL d   1       0.597  -2.396  -0.182  1.00  0.00     0.167 HD
ATOM      9  N   UNL d   1       2.533   0.282   0.064  0.00  0.00    -0.338 N 
ATOM     10  HN  UNL d   1       3.531   0.493   0.094  1.00  0.00     0.168 HD
ATOM     11  C   UNL d   1       2.115  -0.983  -0.056  0.00  0.00     0.182 A 
ENDROOT
BRANCH   6  12
ATOM     12  N   UNL d   1       2.105   2.546   0.439  0.00  0.00    -0.373 N 
ATOM     13  H   UNL d   1       1.393   3.243   0.618  0.00  0.00     0.161 HD
BRANCH  12  14
ATOM     14  C   UNL d   1       3.258   3.028  -0.330  0.00  0.00     0.152 C 
BRANCH  14  15
ATOM     15  C   UNL d   1       4.187   3.777   0.642  0.00  0.00     0.132 C 
ATOM     16  C   UNL d   1       5.466   4.247  -0.027  0.00  0.00     0.041 C 
BRANCH  15  17
ATOM     17  O   UNL d   1       4.533   2.905   1.723  0.00  0.00    -0.394 OA
ATOM     18  H   UNL d   1       3.758   2.312   1.825  0.00  0.00     0.210 HD
ENDBRANCH  15  17
ENDBRANCH  14  15
ENDBRANCH  12  14
ENDBRANCH   6  12
BRANCH   2  19
ATOM     19  C   UNL d   1      -1.179   3.182  -0.024  0.00  0.00    -0.024 A 
ATOM     20  C   UNL d   1      -0.351   4.001  -0.805  0.00  0.00     0.012 A 
ATOM     21  C   UNL d   1      -0.430   5.393  -0.715  0.00  0.00     0.001 A 
ATOM     22  C   UNL d   1      -1.398   5.985   0.091  0.00  0.00     0.000 A 
ATOM     23  C   UNL d   1      -2.291   5.184   0.800  0.00  0.00     0.001 A 
ATOM     24  C   UNL d   1      -2.174   3.792   0.753  0.00  0.00     0.012 A 
ENDBRANCH   2  19
TORSDOF 5
