REMARK  5 active torsions:
REMARK  status: ('A' for Active; 'I' for Inactive)
REMARK    1  A    between atoms: N_8  and  S_1 
REMARK    2  A    between atoms: C_10  and  S_1 
REMARK    3  A    between atoms: C_7  and  C_2 
REMARK    4  A    between atoms: C_6  and  C_14 
REMARK    5  A    between atoms: C_14  and  N_8 
ROOT
ATOM      1  N   UNL d   1       0.301   0.072   1.545  0.00  0.00    -0.310 N 
ATOM      2  H   UNL d   1      -0.699   0.263   1.599  0.00  0.00     0.172 HD
ENDROOT
BRANCH   1   3
ATOM      3  S   UNL d   1       0.903  -0.035  -0.017  0.00  0.00     0.259 S 
ATOM      4  O   UNL d   1       2.328  -0.261   0.076  0.00  0.00    -0.201 OA
ATOM      5  O   UNL d   1       0.350   1.072  -0.766  0.00  0.00    -0.201 OA
BRANCH   3   6
ATOM      6  C   UNL d   1       0.148  -1.512  -0.652  0.00  0.00     0.079 A 
ATOM      7  C   UNL d   1      -1.241  -1.558  -0.791  0.00  0.00     0.026 A 
ATOM      8  C   UNL d   1      -1.839  -2.677  -1.373  0.00  0.00     0.008 A 
ATOM      9  C   UNL d   1      -1.054  -3.745  -1.831  0.00  0.00    -0.062 A 
ATOM     10  C   UNL d   1       0.337  -3.694  -1.669  0.00  0.00     0.008 A 
ATOM     11  C   UNL d   1      -1.709  -4.905  -2.524  0.00  0.00     0.048 C 
ATOM     12  C   UNL d   1       0.942  -2.581  -1.080  0.00  0.00     0.026 A 
ENDBRANCH   3   6
ENDBRANCH   1   3
BRANCH   1  13
ATOM     13  C   UNL d   1       0.784  -0.925   2.498  0.00  0.00     0.189 C 
BRANCH  13  14
ATOM     14  C   UNL d   1       0.209  -0.627   3.850  0.00  0.00     0.035 A 
ATOM     15  N   UNL d   1      -1.175  -0.641   4.037  0.00  0.00    -0.351 N 
ATOM     16  C   UNL d   1      -1.469  -0.431   5.311  0.00  0.00     0.091 A 
ATOM     17  HN  UNL d   1      -1.861  -0.790   3.298  1.00  0.00     0.166 HD
ATOM     18  S   UNL d   1      -0.103  -0.157   6.328  0.00  0.00    -0.081 SA
ATOM     19  C   UNL d   1       0.939  -0.369   4.994  0.00  0.00     0.078 A 
BRANCH  16  20
ATOM     20  C   UNL d   1      -2.832  -0.474   5.803  0.00  0.00     0.038 A 
ATOM     21  S   UNL d   1      -3.254  -0.211   7.451  0.00  0.00    -0.099 SA
ATOM     22  C   UNL d   1      -4.912  -0.488   7.158  0.00  0.00     0.050 A 
ATOM     23  C   UNL d   1      -5.161  -0.761   5.834  0.00  0.00     0.008 A 
ATOM     24  C   UNL d   1      -3.965  -0.746   5.054  0.00  0.00     0.022 A 
ENDBRANCH  16  20
ENDBRANCH  13  14
ENDBRANCH   1  13
TORSDOF 5
