REMARK  4 active torsions:
REMARK  status: ('A' for Active; 'I' for Inactive)
REMARK    1  A    between atoms: N_2  and  S_1 
REMARK    2  A    between atoms: C_6  and  S_1 
REMARK    3  A    between atoms: C_3  and  N_2 
REMARK    4  A    between atoms: N_4  and  C_5 
ROOT
ATOM      1  C   UNL d   1       0.881   2.195   1.473  0.00  0.00     0.049 A 
ATOM      2  C   UNL d   1       2.190   1.950   1.970  0.00  0.00     0.052 A 
ATOM      3  C   UNL d   1      -0.011   3.046   2.146  0.00  0.00     0.027 A 
ATOM      4  C   UNL d   1       2.558   2.674   3.121  0.00  0.00     0.031 A 
ATOM      5  C   UNL d   1       0.387   3.714   3.300  0.00  0.00     0.002 A 
ATOM      6  C   UNL d   1       1.679   3.543   3.776  0.00  0.00     0.002 A 
ENDROOT
BRANCH   1   7
ATOM      7  N   UNL d   1       0.388   1.541   0.295  0.00  0.00    -0.179 NA
ATOM      8  H   UNL d   1      -0.283   2.103  -0.224  0.00  0.00     0.146 HD
BRANCH   7   9
ATOM      9  S   UNL d   1      -0.143  -0.059   0.443  0.00  0.00     0.245 S 
ATOM     10  O   UNL d   1       0.332  -0.680   1.661  0.00  0.00    -0.206 OA
ATOM     11  O   UNL d   1       0.063  -0.680  -0.849  0.00  0.00    -0.206 OA
BRANCH   9  12
ATOM     12  C   UNL d   1      -1.905   0.163   0.607  0.00  0.00     0.074 A 
ATOM     13  C   UNL d   1      -2.692   0.262  -0.545  0.00  0.00     0.025 A 
ATOM     14  C   UNL d   1      -4.082   0.294  -0.429  0.00  0.00     0.008 A 
ATOM     15  C   UNL d   1      -4.690   0.212   0.832  0.00  0.00    -0.062 A 
ATOM     16  C   UNL d   1      -3.888   0.143   1.979  0.00  0.00     0.008 A 
ATOM     17  C   UNL d   1      -6.187   0.153   0.933  0.00  0.00     0.048 C 
ATOM     18  C   UNL d   1      -2.496   0.114   1.870  0.00  0.00     0.025 A 
ENDBRANCH   9  12
ENDBRANCH   7   9
ENDBRANCH   1   7
BRANCH   2  19
ATOM     19  N   UNL d   1       3.064   1.022   1.413  0.00  0.00    -0.375 N 
ATOM     20  C   UNL d   1       4.143   0.416   2.216  0.00  0.00     0.149 C 
ATOM     21  C   UNL d   1       4.395  -1.023   1.736  0.00  0.00     0.187 C 
ATOM     22  O   UNL d   1       4.696  -1.067   0.330  0.00  0.00    -0.388 OA
ATOM     23  C   UNL d   1       3.592  -0.525  -0.419  0.00  0.00     0.187 C 
ATOM     24  C   UNL d   1       3.326   0.943  -0.036  0.00  0.00     0.149 C 
ENDBRANCH   2  19
TORSDOF 4
