REMARK  5 active torsions:
REMARK  status: ('A' for Active; 'I' for Inactive)
REMARK    1  A    between atoms: C_7  and  C_1 
REMARK    2  A    between atoms: N_11  and  C_3 
REMARK    3  A    between atoms: C_10  and  C_4 
REMARK    4  A    between atoms: O_13  and  C_7 
REMARK    5  A    between atoms: C_17  and  O_13 
ROOT
ATOM      1  C   UNL d   1      -1.529  -1.464  -0.093  0.00  0.00     0.060 A 
ATOM      2  C   UNL d   1       0.762  -0.447   0.305  0.00  0.00     0.080 A 
ATOM      3  C   UNL d   1       0.214   0.759   0.057  0.00  0.00     0.138 A 
ATOM      4  C   UNL d   1      -0.067  -1.721   0.247  0.00  0.00     0.108 A 
ATOM      5  C   UNL d   1      -1.990  -0.203  -0.250  0.00  0.00     0.064 A 
ATOM      6  O   UNL d   1      -1.135   0.893  -0.218  0.00  0.00    -0.302 OA
ATOM      7  C   UNL d   1       2.143  -0.555   0.654  0.00  0.00     0.100 C 
ATOM      8  N   UNL d   1       3.257  -0.609   0.969  0.00  0.00    -0.191 NA
ATOM      9  C   UNL d   1      -3.411   0.257  -0.417  0.00  0.00     0.077 C 
ENDROOT
BRANCH   4  10
ATOM     10  C   UNL d   1       0.607  -2.770  -0.642  0.00  0.00    -0.044 A 
ATOM     11  C   UNL d   1       1.157  -3.921  -0.046  0.00  0.00     0.008 A 
ATOM     12  C   UNL d   1       1.841  -4.865  -0.809  0.00  0.00     0.001 A 
ATOM     13  C   UNL d   1       1.986  -4.676  -2.180  0.00  0.00     0.000 A 
ATOM     14  C   UNL d   1       1.440  -3.546  -2.788  0.00  0.00     0.001 A 
ATOM     15  C   UNL d   1       0.752  -2.596  -2.027  0.00  0.00     0.008 A 
ENDBRANCH   4  10
BRANCH   3  16
ATOM     16  N   UNL d   1       0.877   1.963   0.067  0.00  0.00    -0.282 NA
ATOM     17  H   UNL d   1       0.257   2.746   0.259  0.00  0.00     0.126 HD
ATOM     18  H   UNL d   1       1.746   1.994   0.596  0.00  0.00     0.126 HD
ENDBRANCH   3  16
BRANCH   1  19
ATOM     19  C   UNL d   1      -2.372  -2.693  -0.115  0.00  0.00     0.292 C 
ATOM     20  O   UNL d   1      -2.093  -3.698   0.520  0.00  0.00    -0.259 OA
BRANCH  19  21
ATOM     21  O   UNL d   1      -3.409  -2.568  -0.976  0.00  0.00    -0.318 OA
BRANCH  21  22
ATOM     22  C   UNL d   1      -4.215  -3.731  -1.229  0.00  0.00     0.174 C 
ATOM     23  C   UNL d   1      -5.001  -4.207  -0.018  0.00  0.00     0.034 C 
ENDBRANCH  21  22
ENDBRANCH  19  21
ENDBRANCH   1  19
TORSDOF 5
