REMARK  6 active torsions:
REMARK  status: ('A' for Active; 'I' for Inactive)
REMARK    1  A    between atoms: C_4  and  C_1 
REMARK       I    between atoms: N_13  and  C_4 
REMARK    2  A    between atoms: C_5  and  C_9 
REMARK    3  A    between atoms: C_7  and  O_12 
REMARK    4  A    between atoms: N_10  and  N_13 
REMARK    5  A    between atoms: O_12  and  C_16 
REMARK    6  A    between atoms: C_27  and  C_26 
ROOT
ATOM      1  C   UNL d   1      -3.862  -0.193  -0.103  0.00  0.00     0.286 C 
ATOM      2  N   UNL d   1      -4.513  -1.418  -0.154  0.00  0.00    -0.265 N 
ATOM      3  O   UNL d   1      -4.436   0.895  -0.100  0.00  0.00    -0.264 OA
ATOM      4  H   UNL d   1      -3.992  -2.284  -0.157  0.00  0.00     0.190 HD
ENDROOT
BRANCH   1   5
ATOM      5  C   UNL d   1      -2.414  -0.266  -0.055  0.00  0.00     0.103 A 
ATOM      6  N   UNL d   1      -1.642   0.884  -0.019  0.00  0.00    -0.351 N 
ATOM      7  C   UNL d   1      -0.302   0.579  -0.015  0.00  0.00     0.043 A 
ATOM      8  H   UNL d   1      -2.038   1.814  -0.016  0.00  0.00     0.166 HD
ATOM      9  C   UNL d   1       0.823   1.411  -0.018  0.00  0.00     0.033 A 
ATOM     10  C   UNL d   1      -0.204  -0.808  -0.020  0.00  0.00    -0.004 A 
ATOM     11  C   UNL d   1       2.088   0.802  -0.029  0.00  0.00     0.039 A 
ATOM     12  C   UNL d   1       2.220  -0.585   0.004  0.00  0.00     0.079 A 
ATOM     13  C   UNL d   1       1.074  -1.394  -0.013  0.00  0.00     0.051 A 
ATOM     14  C   UNL d   1      -1.527  -1.329  -0.042  0.00  0.00     0.049 A 
BRANCH  12  15
ATOM     15  O   UNL d   1       3.387  -1.288  -0.015  0.00  0.00    -0.255 OA
BRANCH  15  16
ATOM     16  C   UNL d   1       4.558  -0.746   0.573  0.00  0.00     0.530 C 
ATOM     17  F   UNL d   1       4.358   0.386   1.278  0.00  0.00    -0.144 F 
ATOM     18  F   UNL d   1       5.077  -1.669   1.414  0.00  0.00    -0.144 F 
ATOM     19  F   UNL d   1       5.470  -0.503  -0.394  0.00  0.00    -0.144 F 
ENDBRANCH  15  16
ENDBRANCH  12  15
ENDBRANCH   1   5
BRANCH   2  20
ATOM     20  N   UNL d   1      -5.875  -1.452  -0.220  0.00  0.00    -0.308 N 
ATOM     21  C   UNL d   1      -6.439  -2.615  -0.273  0.00  0.00     0.118 C 
ATOM     22  HN  UNL d   1      -6.427  -0.594  -0.228  1.00  0.00     0.186 HD
BRANCH  21  23
ATOM     23  C   UNL d   1      -7.912  -2.720  -0.348  0.00  0.00    -0.019 A 
ATOM     24  C   UNL d   1      -8.690  -1.558  -0.366  0.00  0.00     0.013 A 
ATOM     25  C   UNL d   1     -10.080  -1.642  -0.431  0.00  0.00     0.017 A 
ATOM     26  C   UNL d   1     -10.714  -2.892  -0.479  0.00  0.00     0.048 A 
ATOM     27  C   UNL d   1      -9.924  -4.055  -0.461  0.00  0.00     0.017 A 
ATOM     28  C   UNL d   1      -8.527  -3.974  -0.396  0.00  0.00     0.013 A 
BRANCH  26  29
ATOM     29  C   UNL d   1     -12.221  -2.990  -0.547  0.00  0.00     0.417 C 
ATOM     30  F   UNL d   1     -12.846  -1.780  -0.555  0.00  0.00    -0.166 F 
ATOM     31  F   UNL d   1     -12.648  -3.637  -1.666  0.00  0.00    -0.166 F 
ATOM     32  F   UNL d   1     -12.745  -3.674   0.505  0.00  0.00    -0.166 F 
ENDBRANCH  26  29
ENDBRANCH  21  23
ENDBRANCH   2  20
TORSDOF 6
