REMARK  5 active torsions:
REMARK  status: ('A' for Active; 'I' for Inactive)
REMARK    1  A    between atoms: C_5  and  C_1 
REMARK    2  A    between atoms: N_9  and  C_8 
REMARK    3  A    between atoms: C_10  and  N_9 
REMARK    4  A    between atoms: C_11  and  C_10 
REMARK    5  A    between atoms: O_18  and  C_12 
ROOT
ATOM      1  C   UNL d   1      -3.764   0.078  -0.084  0.00  0.00     0.029 A 
ATOM      2  C   UNL d   1      -4.372  -0.602   1.004  0.00  0.00     0.022 A 
ATOM      3  C   UNL d   1      -4.584   0.680  -1.061  0.00  0.00     0.017 A 
ATOM      4  C   UNL d   1      -5.777  -0.569   1.106  0.00  0.00     0.024 A 
ATOM      5  C   UNL d   1      -5.973   0.663  -0.957  0.00  0.00     0.001 A 
ATOM      6  C   UNL d   1      -6.569   0.046   0.133  0.00  0.00     0.002 A 
ENDROOT
BRANCH   1   7
ATOM      7  C   UNL d   1      -2.309   0.231  -0.253  0.00  0.00     0.118 A 
ATOM      8  N   UNL d   1      -1.696   0.841  -1.255  0.00  0.00    -0.340 N 
ATOM      9  C   UNL d   1      -0.369   0.897  -0.912  0.00  0.00     0.060 A 
ATOM     10  HN  UNL d   1      -2.124   1.198  -2.110  1.00  0.00     0.167 HD
ATOM     11  C   UNL d   1       0.706   1.498  -1.583  0.00  0.00     0.032 A 
ATOM     12  C   UNL d   1      -0.146   0.271   0.307  0.00  0.00     0.060 A 
ATOM     13  C   UNL d   1       1.969   1.476  -0.979  0.00  0.00     0.002 A 
ATOM     14  C   UNL d   1       2.160   0.852   0.258  0.00  0.00     0.002 A 
ATOM     15  C   UNL d   1       1.104   0.220   0.926  0.00  0.00     0.032 A 
ATOM     16  N   UNL d   1      -1.380  -0.197   0.667  0.00  0.00    -0.340 N 
ATOM     17  H   UNL d   1      -1.625  -0.704   1.505  0.00  0.00     0.167 HD
ENDBRANCH   1   7
BRANCH   2  18
ATOM     18  N   UNL d   1      -3.579  -1.159   2.051  0.00  0.00    -0.288 NA
ATOM     19  H   UNL d   1      -3.474  -0.431   2.764  0.00  0.00     0.128 HD
BRANCH  18  20
ATOM     20  C   UNL d   1      -4.144  -2.359   2.693  0.00  0.00     0.131 C 
BRANCH  20  21
ATOM     21  C   UNL d   1      -3.058  -3.190   3.341  0.00  0.00    -0.045 A 
ATOM     22  C   UNL d   1      -3.303  -3.852   4.554  0.00  0.00     0.011 A 
ATOM     23  C   UNL d   1      -2.332  -4.681   5.132  0.00  0.00     0.037 A 
ATOM     24  C   UNL d   1      -1.101  -4.862   4.506  0.00  0.00     0.068 A 
ATOM     25  C   UNL d   1      -0.858  -4.221   3.291  0.00  0.00     0.037 A 
ATOM     26  C   UNL d   1      -1.830  -3.413   2.703  0.00  0.00     0.011 A 
BRANCH  24  27
ATOM     27  O   UNL d   1      -0.067  -5.632   4.959  0.00  0.00    -0.356 OA
ATOM     28  C   UNL d   1      -0.287  -6.373   6.151  0.00  0.00     0.210 C 
ENDBRANCH  24  27
ENDBRANCH  20  21
ENDBRANCH  18  20
ENDBRANCH   2  18
TORSDOF 5
