REMARK  3 active torsions:
REMARK  status: ('A' for Active; 'I' for Inactive)
REMARK       I    between atoms: N_2  and  C_1 
REMARK    1  A    between atoms: O_3  and  C_1 
REMARK    2  A    between atoms: C_6  and  N_2 
REMARK    3  A    between atoms: C_5  and  O_3 
ROOT
ATOM      1  C   UNL d   1       1.183  -0.022   0.196  0.00  0.00     0.366 C 
ATOM      2  N   UNL d   1       0.471   1.133   0.410  0.00  0.00    -0.333 N 
ATOM      3  O   UNL d   1       2.396  -0.108   0.301  0.00  0.00    -0.238 OA
ATOM      4  H   UNL d   1      -0.534   1.037   0.385  0.00  0.00     0.165 HD
ENDROOT
BRANCH   1   5
ATOM      5  O   UNL d   1       0.310  -1.060  -0.131  0.00  0.00    -0.262 OA
BRANCH   5   6
ATOM      6  C   UNL d   1       0.735  -2.391  -0.363  0.00  0.00     0.081 A 
ATOM      7  C   UNL d   1       1.905  -2.943   0.159  0.00  0.00     0.037 A 
ATOM      8  C   UNL d   1       2.241  -4.265  -0.143  0.00  0.00     0.003 A 
ATOM      9  C   UNL d   1       1.398  -5.040  -0.940  0.00  0.00     0.000 A 
ATOM     10  C   UNL d   1       0.208  -4.498  -1.427  0.00  0.00     0.003 A 
ATOM     11  C   UNL d   1      -0.127  -3.174  -1.135  0.00  0.00     0.037 A 
ENDBRANCH   5   6
ENDBRANCH   1   5
BRANCH   2  12
ATOM     12  C   UNL d   1       1.068   2.272   1.091  0.00  0.00     0.078 C 
ATOM     13  C   UNL d   1       0.479   3.587   0.592  0.00  0.00     0.032 C 
ATOM     14  C   UNL d   1       0.869   2.134   2.599  0.00  0.00     0.032 C 
ENDBRANCH   2  12
TORSDOF 3
