REMARK  3 active torsions:
REMARK  status: ('A' for Active; 'I' for Inactive)
REMARK    1  A    between atoms: N_3  and  C_1 
REMARK    2  A    between atoms: C_8  and  C_2 
REMARK    3  A    between atoms: O_15  and  C_8 
ROOT
ATOM      1  C   UNL d   1       0.605   1.345   0.010  0.00  0.00     0.075 A 
ATOM      2  C   UNL d   1      -0.786   1.371   0.024  0.00  0.00     0.108 A 
ATOM      3  S   UNL d   1      -1.431  -0.216   0.039  0.00  0.00    -0.093 SA
ATOM      4  C   UNL d   1       1.137   0.005  -0.032  0.00  0.00    -0.026 A 
ATOM      5  C   UNL d   1       0.117  -0.927  -0.019  0.00  0.00     0.059 A 
ATOM      6  C   UNL d   1       2.586  -0.370  -0.018  0.00  0.00     0.051 C 
ENDROOT
BRANCH   1   7
ATOM      7  N   UNL d   1       1.383   2.498   0.017  0.00  0.00    -0.243 N 
ATOM      8  C   UNL d   1       1.357   3.429   1.013  0.00  0.00     0.255 A 
ATOM      9  C   UNL d   1       2.276   4.501   0.603  0.00  0.00     0.080 A 
ATOM     10  O   UNL d   1       0.792   3.413   2.092  0.00  0.00    -0.268 OA
ATOM     11  C   UNL d   1       2.817   4.155  -0.565  0.00  0.00     0.080 A 
ATOM     12  C   UNL d   1       2.269   2.849  -0.954  0.00  0.00     0.255 A 
ATOM     13  O   UNL d   1       2.584   2.276  -1.985  0.00  0.00    -0.268 OA
ENDBRANCH   1   7
BRANCH   2  14
ATOM     14  C   UNL d   1      -1.640   2.549  -0.057  0.00  0.00     0.302 C 
ATOM     15  O   UNL d   1      -1.230   3.699  -0.181  0.00  0.00    -0.259 OA
BRANCH  14  16
ATOM     16  O   UNL d   1      -2.972   2.238  -0.043  0.00  0.00    -0.322 OA
ATOM     17  C   UNL d   1      -3.819   3.382  -0.174  0.00  0.00     0.213 C 
ENDBRANCH  14  16
ENDBRANCH   2  14
TORSDOF 3
