REMARK  4 active torsions:
REMARK  status: ('A' for Active; 'I' for Inactive)
REMARK    1  A    between atoms: C_19  and  N_2 
REMARK    2  A    between atoms: N_4  and  C_10 
REMARK    3  A    between atoms: C_11  and  N_6 
REMARK    4  A    between atoms: C_23  and  C_19 
ROOT
ATOM      1  C   UNL d   1       0.078   0.691  -0.038  0.00  0.00     0.036 A 
ATOM      2  N   UNL d   1      -1.129   1.380  -0.009  0.00  0.00    -0.380 N 
ATOM      3  C   UNL d   1       0.108  -0.717   0.007  0.00  0.00    -0.029 A 
ATOM      4  C   UNL d   1       1.311   1.357  -0.076  0.00  0.00     0.032 A 
ATOM      5  C   UNL d   1       1.335  -1.407   0.021  0.00  0.00     0.040 A 
ATOM      6  C   UNL d   1       2.556  -0.730  -0.028  0.00  0.00     0.048 A 
ATOM      7  C   UNL d   1       2.528   0.664  -0.067  0.00  0.00     0.033 A 
ATOM      8  C   UNL d   1      -2.327   0.647   0.398  0.00  0.00     0.123 C 
ATOM      9  C   UNL d   1      -1.166  -1.524   0.067  0.00  0.00     0.042 C 
ATOM     10  C   UNL d   1      -2.389  -0.698  -0.303  0.00  0.00     0.024 C 
ENDROOT
BRANCH   6  11
ATOM     11  N   UNL d   1       3.735  -1.500   0.010  0.00  0.00    -0.300 N 
ATOM     12  N   UNL d   1       4.704  -0.935  -0.537  0.00  0.00    -0.300 N 
ATOM     13  HN  UNL d   1       4.663  -0.001  -0.945  1.00  0.00     0.187 HD
ATOM     14  HN  UNL d   1       3.790  -2.423   0.441  1.00  0.00     0.187 HD
BRANCH  12  15
ATOM     15  C   UNL d   1       5.862  -1.740  -0.523  0.00  0.00     0.048 A 
ATOM     16  C   UNL d   1       6.770  -1.607  -1.580  0.00  0.00     0.031 A 
ATOM     17  C   UNL d   1       7.940  -2.371  -1.624  0.00  0.00     0.009 A 
ATOM     18  C   UNL d   1       8.228  -3.284  -0.604  0.00  0.00    -0.062 A 
ATOM     19  C   UNL d   1       7.337  -3.410   0.465  0.00  0.00     0.009 A 
ATOM     20  C   UNL d   1       9.479  -4.109  -0.665  0.00  0.00     0.048 C 
ATOM     21  C   UNL d   1       6.171  -2.640   0.507  0.00  0.00     0.031 A 
ENDBRANCH  12  15
ENDBRANCH   6  11
BRANCH   2  22
ATOM     22  C   UNL d   1      -1.296   2.658  -0.704  0.00  0.00     0.122 C 
BRANCH  22  23
ATOM     23  C   UNL d   1      -1.724   3.775   0.251  0.00  0.00     0.015 C 
ATOM     24  C   UNL d   1      -0.737   4.029   1.381  0.00  0.00     0.006 C 
ENDBRANCH  22  23
ENDBRANCH   2  22
TORSDOF 4
