REMARK  3 active torsions:
REMARK  status: ('A' for Active; 'I' for Inactive)
REMARK    1  A    between atoms: C_2  and  C_1 
REMARK       I    between atoms: C_6  and  N_3 
REMARK    2  A    between atoms: C_13  and  C_6 
REMARK    3  A    between atoms: C_7  and  C_14 
ROOT
ATOM      1  C   UNL d   1       3.557   0.149   0.076  0.00  0.00     0.079 A 
ATOM      2  N   UNL d   1       4.393  -0.340  -0.934  0.00  0.00    -0.219 N 
ATOM      3  C   UNL d   1       4.104  -0.855  -2.218  0.00  0.00     0.277 C 
ATOM      4  N   UNL d   1       5.719  -0.209  -0.595  0.00  0.00    -0.302 N 
ATOM      5  HN  UNL d   1       6.530  -0.543  -1.115  1.00  0.00     0.186 HD
ATOM      6  C   UNL d   1       4.414   0.638   1.048  0.00  0.00     0.052 A 
ATOM      7  C   UNL d   1       5.709   0.447   0.559  0.00  0.00     0.110 A 
ATOM      8  O   UNL d   1       3.122  -0.417  -2.809  0.00  0.00    -0.265 OA
ENDROOT
BRANCH   1   9
ATOM      9  C   UNL d   1       2.107   0.088   0.115  0.00  0.00     0.041 C 
ATOM     10  S   UNL d   1       1.264  -1.254  -0.549  0.00  0.00    -0.087 SA
ATOM     11  C   UNL d   1      -0.278  -0.583  -0.239  0.00  0.00     0.016 A 
ATOM     12  C   UNL d   1      -1.528  -1.100  -0.633  0.00  0.00     0.019 A 
ATOM     13  C   UNL d   1      -0.170   0.582   0.516  0.00  0.00    -0.012 A 
ATOM     14  C   UNL d   1      -2.692  -0.444  -0.229  0.00  0.00     0.001 A 
ATOM     15  C   UNL d   1      -2.618   0.695   0.558  0.00  0.00     0.001 A 
ATOM     16  C   UNL d   1      -1.374   1.210   0.931  0.00  0.00     0.013 A 
ATOM     17  C   UNL d   1       1.218   0.963   0.737  0.00  0.00    -0.031 C 
ATOM     18  C   UNL d   1       1.555   2.192   1.526  0.00  0.00     0.050 C 
ENDBRANCH   1   9
BRANCH   3  19
ATOM     19  C   UNL d   1       4.951  -1.878  -2.900  0.00  0.00     0.034 A 
ATOM     20  C   UNL d   1       5.723  -2.796  -2.176  0.00  0.00     0.018 A 
ATOM     21  C   UNL d   1       6.494  -3.753  -2.845  0.00  0.00     0.017 A 
ATOM     22  C   UNL d   1       6.495  -3.814  -4.246  0.00  0.00     0.048 A 
ATOM     23  C   UNL d   1       5.688  -2.916  -4.963  0.00  0.00     0.017 A 
ATOM     24  C   UNL d   1       4.917  -1.960  -4.296  0.00  0.00     0.018 A 
BRANCH  22  25
ATOM     25  C   UNL d   1       7.344  -4.820  -4.985  0.00  0.00     0.417 C 
ATOM     26  F   UNL d   1       8.085  -5.617  -4.165  0.00  0.00    -0.166 F 
ATOM     27  F   UNL d   1       6.602  -5.663  -5.754  0.00  0.00    -0.166 F 
ATOM     28  F   UNL d   1       8.233  -4.226  -5.829  0.00  0.00    -0.166 F 
ENDBRANCH  22  25
ENDBRANCH   3  19
TORSDOF 3
