REMARK  6 active torsions:
REMARK  status: ('A' for Active; 'I' for Inactive)
REMARK    1  A    between atoms: C_4  and  C_1 
REMARK    2  A    between atoms: O_17  and  C_3 
REMARK    3  A    between atoms: C_5  and  C_10 
REMARK    4  A    between atoms: O_18  and  C_5 
REMARK    5  A    between atoms: C_15  and  N_7 
REMARK    6  A    between atoms: C_22  and  O_18 
ROOT
ATOM      1  C   UNL d   1       0.482   3.629   1.101  0.00  0.00     0.102 C 
ATOM      2  N   UNL d   1       0.673   4.338   0.035  0.00  0.00    -0.365 N 
ATOM      3  HN  UNL d   1       0.967   3.890  -0.833  1.00  0.00     0.165 HD
ENDROOT
BRANCH   2   4
ATOM      4  C   UNL d   1       0.473   5.730   0.078  0.00  0.00     0.031 A 
ATOM      5  C   UNL d   1       1.260   6.524  -0.766  0.00  0.00     0.030 A 
ATOM      6  C   UNL d   1       1.127   7.915  -0.786  0.00  0.00     0.020 A 
ATOM      7  C   UNL d   1       0.176   8.532   0.030  0.00  0.00     0.039 A 
ATOM      8  C   UNL d   1      -0.624   7.752   0.874  0.00  0.00     0.020 A 
ATOM      9  C   UNL d   1      -0.482   6.361   0.884  0.00  0.00     0.030 A 
BRANCH   7  10
ATOM     10  C   UNL d   1       0.101  10.009   0.047  0.00  0.00     0.293 C 
ATOM     11  O   UNL d   1       1.053  10.737  -0.192  0.00  0.00    -0.259 OA
BRANCH  10  12
ATOM     12  O   UNL d   1      -1.138  10.397   0.436  0.00  0.00    -0.318 OA
BRANCH  12  13
ATOM     13  C   UNL d   1      -1.222  11.729   0.958  0.00  0.00     0.174 C 
ATOM     14  C   UNL d   1      -0.944  11.642   2.448  0.00  0.00     0.034 C 
ENDBRANCH  12  13
ENDBRANCH  10  12
ENDBRANCH   7  10
ENDBRANCH   2   4
BRANCH   1  15
ATOM     15  C   UNL d   1       0.714   2.169   1.115  0.00  0.00     0.016 A 
ATOM     16  C   UNL d   1       0.453   1.431   2.275  0.00  0.00     0.099 A 
ATOM     17  C   UNL d   1       0.706   0.055   2.290  0.00  0.00     0.069 A 
ATOM     18 CL   UNL d   1       0.395  -0.869   3.715  0.00  0.00    -0.081 Cl
ATOM     19  C   UNL d   1       1.213  -0.585   1.162  0.00  0.00     0.050 A 
ATOM     20  C   UNL d   1       1.467   0.158   0.011  0.00  0.00     0.036 A 
ATOM     21  C   UNL d   1       1.220   1.530  -0.022  0.00  0.00     0.039 A 
ATOM     22 CL   UNL d   1       2.098  -0.628  -1.383  0.00  0.00    -0.084 Cl
BRANCH  16  23
ATOM     23  O   UNL d   1      -0.046   2.060   3.386  0.00  0.00    -0.358 OA
ATOM     24  H   UNL d   1      -0.151   1.387   4.087  0.00  0.00     0.217 HD
ENDBRANCH  16  23
ENDBRANCH   1  15
TORSDOF 6
