REMARK  5 active torsions:
REMARK  status: ('A' for Active; 'I' for Inactive)
REMARK    1  A    between atoms: C_7  and  C_1 
REMARK    2  A    between atoms: C_6  and  S_15 
REMARK    3  A    between atoms: C_16  and  C_7 
REMARK    4  A    between atoms: C_8  and  C_9 
REMARK    5  A    between atoms: S_15  and  C_16 
ROOT
ATOM      1  N   UNL d   1      -5.996  -3.902  -0.130  0.00  0.00    -0.336 N 
ATOM      2  HN  UNL d   1      -6.324  -2.939  -0.057  1.00  0.00     0.168 HD
ATOM      3  C   UNL d   1      -4.732  -4.192  -0.477  0.00  0.00     0.144 A 
ATOM      4  C   UNL d   1      -6.812  -4.951   0.117  0.00  0.00     0.052 A 
ATOM      5  N   UNL d   1      -4.248  -5.435  -0.628  0.00  0.00    -0.347 N 
ATOM      6  HN  UNL d   1      -3.281  -5.603  -0.905  1.00  0.00     0.167 HD
ATOM      7  C   UNL d   1      -6.404  -6.263  -0.013  0.00  0.00     0.048 A 
ATOM      8  C   UNL d   1      -5.099  -6.447  -0.395  0.00  0.00     0.092 A 
ENDROOT
BRANCH   3   9
ATOM      9  S   UNL d   1      -3.565  -2.874  -0.703  0.00  0.00    -0.086 SA
BRANCH   9  10
ATOM     10  C   UNL d   1      -4.545  -1.472  -0.096  0.00  0.00     0.168 C 
BRANCH  10  11
ATOM     11  C   UNL d   1      -3.696  -0.214  -0.095  0.00  0.00     0.192 C 
ATOM     12  O   UNL d   1      -3.564   0.445  -1.129  0.00  0.00    -0.289 OA
BRANCH  11  13
ATOM     13  C   UNL d   1      -3.075   0.191   1.153  0.00  0.00     0.123 A 
ATOM     14  O   UNL d   1      -3.179  -0.591   2.273  0.00  0.00    -0.306 OA
ATOM     15  C   UNL d   1      -2.526   0.056   3.283  0.00  0.00     0.086 A 
ATOM     16  C   UNL d   1      -2.397  -0.400   4.593  0.00  0.00     0.038 A 
ATOM     17  C   UNL d   1      -2.002   1.258   2.825  0.00  0.00     0.001 A 
ATOM     18  C   UNL d   1      -1.709   0.435   5.481  0.00  0.00     0.003 A 
ATOM     19  C   UNL d   1      -1.177   1.657   5.061  0.00  0.00     0.001 A 
ATOM     20  C   UNL d   1      -1.311   2.083   3.732  0.00  0.00     0.014 A 
ATOM     21  C   UNL d   1      -2.343   1.327   1.452  0.00  0.00     0.055 A 
ENDBRANCH  11  13
ENDBRANCH  10  11
ENDBRANCH   9  10
ENDBRANCH   3   9
BRANCH   4  22
ATOM     22  C   UNL d   1      -8.157  -4.571   0.572  0.00  0.00     0.031 A 
ATOM     23  S   UNL d   1      -9.004  -5.532   1.721  0.00  0.00    -0.100 SA
ATOM     24  C   UNL d   1     -10.316  -4.441   1.783  0.00  0.00     0.050 A 
ATOM     25  C   UNL d   1     -10.138  -3.373   0.937  0.00  0.00     0.008 A 
ATOM     26  C   UNL d   1      -8.896  -3.448   0.239  0.00  0.00     0.021 A 
ENDBRANCH   4  22
TORSDOF 5
