REMARK  7 active torsions:
REMARK  status: ('A' for Active; 'I' for Inactive)
REMARK       I    between atoms: N_2  and  C_1 
REMARK       I    between atoms: N_3  and  C_1 
REMARK    1  A    between atoms: C_10  and  N_3 
REMARK    2  A    between atoms: C_14  and  N_4 
REMARK    3  A    between atoms: O_13  and  C_15 
REMARK    4  A    between atoms: C_16  and  O_13 
REMARK    5  A    between atoms: C_17  and  C_14 
REMARK    6  A    between atoms: C_22  and  C_16 
REMARK    7  A    between atoms: C_23  and  C_17 
ROOT
ATOM      1  C   UNL d   1       1.018   0.051  -0.018  0.00  0.00     0.323 C 
ATOM      2  N   UNL d   1       0.364   1.161   0.523  0.00  0.00    -0.331 N 
ATOM      3  N   UNL d   1       0.655  -1.163   0.510  0.00  0.00    -0.309 N 
ATOM      4  N   UNL d   1      -0.909   3.658   1.496  0.00  0.00     0.091 N 
ATOM      5  O   UNL d   1       1.854   0.196  -0.910  0.00  0.00    -0.247 OA
ATOM      6  C   UNL d   1       0.663   2.454  -0.108  0.00  0.00     0.158 C 
ATOM      7  C   UNL d   1      -0.890   1.127   1.288  0.00  0.00     0.158 C 
ATOM      8  C   UNL d   1      -1.055   2.363   2.191  0.00  0.00     0.292 C 
ATOM      9  C   UNL d   1       0.411   3.657   0.822  0.00  0.00     0.292 C 
ATOM     10  H   UNL d   1      -0.006  -1.161   1.262  0.00  0.00     0.170 HD
ENDROOT
BRANCH   3  11
ATOM     11  C   UNL d   1       1.096  -2.443   0.115  0.00  0.00     0.036 A 
ATOM     12  C   UNL d   1       2.072  -2.676  -0.853  0.00  0.00     0.032 A 
ATOM     13  C   UNL d   1       2.380  -3.982  -1.247  0.00  0.00     0.039 A 
ATOM     14  C   UNL d   1       1.702  -5.063  -0.691  0.00  0.00     0.069 A 
ATOM     15  C   UNL d   1       0.786  -4.844   0.335  0.00  0.00     0.039 A 
ATOM     16  C   UNL d   1       0.481  -3.540   0.732  0.00  0.00     0.032 A 
BRANCH  14  17
ATOM     17  O   UNL d   1       2.001  -6.290  -1.218  0.00  0.00    -0.347 OA
BRANCH  17  18
ATOM     18  C   UNL d   1       0.911  -7.216  -1.202  0.00  0.00     0.214 C 
BRANCH  18  19
ATOM     19  C   UNL d   1       1.056  -8.194  -2.341  0.00  0.00    -0.034 A 
ATOM     20  C   UNL d   1       1.090  -9.572  -2.098  0.00  0.00     0.009 A 
ATOM     21  C   UNL d   1       1.154 -10.476  -3.158  0.00  0.00     0.001 A 
ATOM     22  C   UNL d   1       1.183 -10.010  -4.472  0.00  0.00     0.000 A 
ATOM     23  C   UNL d   1       1.153  -8.640  -4.725  0.00  0.00     0.001 A 
ATOM     24  C   UNL d   1       1.090  -7.736  -3.667  0.00  0.00     0.009 A 
ENDBRANCH  18  19
ENDBRANCH  17  18
ENDBRANCH  14  17
ENDBRANCH   3  11
BRANCH   4  25
ATOM     25  C   UNL d   1      -1.994   3.942   0.535  0.00  0.00     0.277 C 
BRANCH  25  26
ATOM     26  C   UNL d   1      -3.374   4.086   1.200  0.00  0.00     0.069 C 
BRANCH  26  27
ATOM     27  C   UNL d   1      -4.475   4.325   0.197  0.00  0.00    -0.054 A 
ATOM     28  C   UNL d   1      -5.091   3.251  -0.452  0.00  0.00     0.024 A 
ATOM     29  C   UNL d   1      -6.118   3.513  -1.345  0.00  0.00     0.088 A 
ATOM     30  N   UNL d   1      -6.560   4.754  -1.635  0.00  0.00    -0.375 N 
ATOM     31  C   UNL d   1      -5.945   5.778  -1.006  0.00  0.00     0.088 A 
ATOM     32  HN  UNL d   1      -7.321   4.911  -2.296  1.00  0.00     0.164 HD
ATOM     33  C   UNL d   1      -4.909   5.618  -0.098  0.00  0.00     0.024 A 
ENDBRANCH  26  27
ENDBRANCH  25  26
ENDBRANCH   4  25
TORSDOF 7
