REMARK  6 active torsions:
REMARK  status: ('A' for Active; 'I' for Inactive)
REMARK    1  A    between atoms: C_5  and  C_1 
REMARK    2  A    between atoms: C_6  and  C_2 
REMARK    3  A    between atoms: N_7  and  N_3 
REMARK    4  A    between atoms: O_13  and  C_5 
REMARK    5  A    between atoms: C_9  and  N_7 
REMARK    6  A    between atoms: C_8  and  C_10 
ROOT
ATOM      1  C   UNL d   1       1.256  -0.002   0.031  0.00  0.00     0.017 A 
ATOM      2  C   UNL d   1       4.061   0.050  -0.049  0.00  0.00    -0.019 A 
ATOM      3  C   UNL d   1       1.938   1.218   0.022  0.00  0.00     0.021 A 
ATOM      4  C   UNL d   1       1.981  -1.198   0.012  0.00  0.00     0.021 A 
ATOM      5  C   UNL d   1       3.338   1.246  -0.016  0.00  0.00     0.014 A 
ATOM      6  C   UNL d   1       3.380  -1.173  -0.027  0.00  0.00     0.014 A 
ENDROOT
BRANCH   2   7
ATOM      7  C   UNL d   1       5.541   0.092  -0.119  0.00  0.00     0.118 C 
ATOM      8  N   UNL d   1       6.234  -0.999  -0.175  0.00  0.00    -0.311 N 
ATOM      9  HN  UNL d   1       5.789  -1.916  -0.187  1.00  0.00     0.186 HD
BRANCH   8  10
ATOM     10  N   UNL d   1       7.582  -0.862  -0.216  0.00  0.00    -0.301 N 
ATOM     11  H   UNL d   1       8.049   0.002   0.046  0.00  0.00     0.187 HD
BRANCH  10  12
ATOM     12  C   UNL d   1       8.370  -2.028  -0.260  0.00  0.00     0.048 A 
ATOM     13  C   UNL d   1       7.788  -3.303  -0.324  0.00  0.00     0.032 A 
ATOM     14  C   UNL d   1       8.570  -4.457  -0.413  0.00  0.00     0.020 A 
ATOM     15  C   UNL d   1       9.957  -4.348  -0.449  0.00  0.00     0.006 A 
ATOM     16  C   UNL d   1      10.561  -3.092  -0.421  0.00  0.00     0.020 A 
ATOM     17  I   UNL d   1      11.127  -6.063  -0.549  0.00  0.00    -0.045 I 
ATOM     18  C   UNL d   1       9.767  -1.939  -0.343  0.00  0.00     0.032 A 
ENDBRANCH  10  12
ENDBRANCH   8  10
ENDBRANCH   2   7
BRANCH   1  19
ATOM     19  C   UNL d   1      -0.174  -0.019   0.048  0.00  0.00    -0.064 C 
ATOM     20  C   UNL d   1      -1.382  -0.012   0.055  0.00  0.00    -0.064 C 
BRANCH  20  21
ATOM     21  C   UNL d   1      -2.853  -0.002   0.066  0.00  0.00     0.114 C 
ATOM     22  C   UNL d   1      -3.382   1.254   0.757  0.00  0.00     0.060 C 
ATOM     23  C   UNL d   1      -3.389  -1.256   0.751  0.00  0.00     0.060 C 
BRANCH  21  24
ATOM     24  O   UNL d   1      -3.331  -0.006  -1.278  0.00  0.00    -0.378 OA
ATOM     25  H   UNL d   1      -2.924   0.754  -1.728  0.00  0.00     0.211 HD
ENDBRANCH  21  24
ENDBRANCH  20  21
ENDBRANCH   1  19
TORSDOF 6
