REMARK  2 active torsions:
REMARK  status: ('A' for Active; 'I' for Inactive)
REMARK    1  A    between atoms: C_9  and  C_3 
REMARK    2  A    between atoms: C_10  and  C_7 
ROOT
ATOM      1  C   UNL d   1      -2.068   0.443   0.161  0.00  0.00     0.027 C 
ATOM      2  C   UNL d   1      -1.596   1.784   0.622  0.00  0.00     0.194 C 
ATOM      3  C   UNL d   1      -0.967  -0.579   0.013  0.00  0.00     0.199 C 
ATOM      4  O   UNL d   1      -0.091  -0.588   1.160  0.00  0.00    -0.335 OA
ATOM      5  C   UNL d   1      -0.239   1.830   1.193  0.00  0.00     0.048 A 
ATOM      6  C   UNL d   1       0.439   0.641   1.446  0.00  0.00     0.084 A 
ATOM      7  C   UNL d   1      -3.345   0.173  -0.188  0.00  0.00     0.025 C 
ATOM      8  O   UNL d   1      -2.248   2.816   0.519  0.00  0.00    -0.287 OA
ATOM      9  C   UNL d   1       0.359   3.058   1.491  0.00  0.00     0.018 A 
ATOM     10  C   UNL d   1       1.707   0.670   2.025  0.00  0.00     0.038 A 
ATOM     11  C   UNL d   1       1.641   3.090   2.041  0.00  0.00     0.001 A 
ATOM     12  C   UNL d   1       2.312   1.896   2.311  0.00  0.00     0.003 A 
ENDROOT
BRANCH   3  13
ATOM     13  C   UNL d   1      -0.153  -0.485  -1.285  0.00  0.00    -0.024 A 
ATOM     14  C   UNL d   1      -0.429   0.455  -2.296  0.00  0.00     0.010 A 
ATOM     15  C   UNL d   1       0.353   0.517  -3.450  0.00  0.00     0.001 A 
ATOM     16  C   UNL d   1       1.417  -0.363  -3.622  0.00  0.00     0.000 A 
ATOM     17  C   UNL d   1       1.698  -1.310  -2.642  0.00  0.00     0.001 A 
ATOM     18  C   UNL d   1       0.919  -1.374  -1.485  0.00  0.00     0.010 A 
ENDBRANCH   3  13
BRANCH   7  19
ATOM     19  C   UNL d   1      -4.433   1.148  -0.252  0.00  0.00    -0.035 A 
ATOM     20  C   UNL d   1      -4.656   1.839  -1.451  0.00  0.00     0.012 A 
ATOM     21  C   UNL d   1      -5.631   2.833  -1.521  0.00  0.00     0.020 A 
ATOM     22  C   UNL d   1      -6.391   3.131  -0.392  0.00  0.00     0.011 A 
ATOM     23  C   UNL d   1      -6.193   2.433   0.800  0.00  0.00     0.020 A 
ATOM     24 BR   UNL d   1      -7.685   4.506  -0.473  0.00  0.00    -0.051 Br
ATOM     25  C   UNL d   1      -5.213   1.440   0.871  0.00  0.00     0.012 A 
ENDBRANCH   7  19
TORSDOF 2
