REMARK  3 active torsions:
REMARK  status: ('A' for Active; 'I' for Inactive)
REMARK    1  A    between atoms: C_5  and  C_1 
REMARK    2  A    between atoms: C_2  and  C_4 
REMARK    3  A    between atoms: O_14  and  C_2 
ROOT
ATOM      1  C   UNL d   1       5.054   2.981   0.169  0.00  0.00     0.037 A 
ATOM      2  C   UNL d   1       2.663   1.485   0.051  0.00  0.00    -0.025 A 
ATOM      3  C   UNL d   1       4.819   2.105  -0.895  0.00  0.00     0.019 A 
ATOM      4  C   UNL d   1       4.077   3.136   1.159  0.00  0.00     0.019 A 
ATOM      5  C   UNL d   1       3.632   1.365  -0.954  0.00  0.00     0.013 A 
ATOM      6  C   UNL d   1       2.895   2.385   1.102  0.00  0.00     0.013 A 
ENDROOT
BRANCH   2   7
ATOM      7  C   UNL d   1       1.426   0.700   0.008  0.00  0.00    -0.019 A 
ATOM      8  C   UNL d   1       1.389  -0.585  -0.504  0.00  0.00     0.061 A 
ATOM      9  S   UNL d   1      -0.168  -1.292  -0.428  0.00  0.00    -0.113 SA
ATOM     10  C   UNL d   1      -0.822   0.104   0.306  0.00  0.00     0.050 A 
ATOM     11  C   UNL d   1       0.128   1.087   0.483  0.00  0.00     0.020 A 
ENDBRANCH   2   7
BRANCH   1  12
ATOM     12  C   UNL d   1       6.328   3.748   0.166  0.00  0.00     0.176 C 
ATOM     13  O   UNL d   1       6.935   4.013  -0.857  0.00  0.00    -0.646 OA
BRANCH  12  14
ATOM     14  O   UNL d   1       6.776   4.088   1.393  0.00  0.00    -0.773 OA
ATOM     15  H   UNL d   1       6.318   3.661   2.138  0.00  0.00     0.167 HD
ENDBRANCH  12  14
ENDBRANCH   1  12
TORSDOF 3
