REMARK  4 active torsions:
REMARK  status: ('A' for Active; 'I' for Inactive)
REMARK    1  A    between atoms: N_13  and  C_3 
REMARK    2  A    between atoms: C_14  and  C_10 
REMARK    3  A    between atoms: C_17  and  C_11 
REMARK       I    between atoms: C_12  and  N_15 
REMARK       I    between atoms: N_16  and  C_12 
REMARK    4  A    between atoms: C_26  and  N_16 
ROOT
ATOM      1  N   UNL d   1      -1.027   0.714   1.405  0.00  0.00    -0.224 N 
ATOM      2  C   UNL d   1      -1.096  -0.686   1.402  0.00  0.00     0.131 A 
ATOM      3  C   UNL d   1      -0.871   1.430   0.179  0.00  0.00     0.129 A 
ATOM      4  N   UNL d   1      -1.089   1.194   2.677  0.00  0.00    -0.294 N 
ATOM      5  HN  UNL d   1      -1.088   2.173   2.964  1.00  0.00     0.187 HD
ATOM      6  C   UNL d   1      -0.822   0.711  -0.959  0.00  0.00     0.084 A 
ATOM      7  N   UNL d   1      -1.067  -1.432   0.255  0.00  0.00    -0.337 N 
ATOM      8  HN  UNL d   1      -1.138  -2.449   0.277  1.00  0.00     0.167 HD
ATOM      9  C   UNL d   1      -1.170  -1.071   2.720  0.00  0.00     0.077 A 
ATOM     10  C   UNL d   1      -0.943  -0.780  -0.868  0.00  0.00     0.121 A 
ATOM     11  C   UNL d   1      -1.153   0.124   3.473  0.00  0.00     0.037 A 
ENDROOT
BRANCH   3  12
ATOM     12  N   UNL d   1      -0.742   2.842   0.146  0.00  0.00    -0.363 N 
ATOM     13  C   UNL d   1      -1.339   3.690   1.220  0.00  0.00     0.144 C 
ATOM     14  C   UNL d   1      -1.503   5.144   0.742  0.00  0.00     0.147 C 
ATOM     15  N   UNL d   1      -0.232   5.700   0.249  0.00  0.00    -0.331 N 
ATOM     16  C   UNL d   1       0.172   6.936   0.737  0.00  0.00     0.323 C 
ATOM     17  C   UNL d   1       0.399   4.869  -0.783  0.00  0.00     0.147 C 
ATOM     18  N   UNL d   1       1.373   7.408   0.255  0.00  0.00    -0.309 N 
ATOM     19  O   UNL d   1      -0.522   7.531   1.556  0.00  0.00    -0.247 OA
ATOM     20  H   UNL d   1       1.799   6.912  -0.502  0.00  0.00     0.170 HD
ATOM     21  C   UNL d   1       0.550   3.409  -0.325  0.00  0.00     0.144 C 
BRANCH  18  22
ATOM     22  C   UNL d   1       1.986   8.648   0.558  0.00  0.00     0.036 A 
ATOM     23  C   UNL d   1       1.482   9.564   1.483  0.00  0.00     0.029 A 
ATOM     24  C   UNL d   1       2.049  10.835   1.606  0.00  0.00     0.002 A 
ATOM     25  C   UNL d   1       3.151  11.188   0.834  0.00  0.00     0.000 A 
ATOM     26  C   UNL d   1       3.718  10.253  -0.027  0.00  0.00     0.002 A 
ATOM     27  C   UNL d   1       3.142   8.986  -0.159  0.00  0.00     0.029 A 
ENDBRANCH  18  22
ENDBRANCH   3  12
BRANCH  10  28
ATOM     28  C   UNL d   1      -0.909  -1.548  -2.192  0.00  0.00     0.432 C 
ATOM     29  F   UNL d   1      -0.801  -0.727  -3.276  0.00  0.00    -0.165 F 
ATOM     30  F   UNL d   1       0.149  -2.403  -2.265  0.00  0.00    -0.165 F 
ATOM     31  F   UNL d   1      -2.030  -2.292  -2.392  0.00  0.00    -0.165 F 
ENDBRANCH  10  28
BRANCH  11  32
ATOM     32  C   UNL d   1      -1.227   0.290   4.987  0.00  0.00    -0.007 C 
ATOM     33  C   UNL d   1      -2.702   0.356   5.428  0.00  0.00     0.021 C 
ATOM     34  C   UNL d   1      -0.549  -0.891   5.710  0.00  0.00     0.021 C 
ATOM     35  C   UNL d   1      -0.520   1.585   5.446  0.00  0.00     0.021 C 
ENDBRANCH  11  32
TORSDOF 4
