REMARK  4 active torsions:
REMARK  status: ('A' for Active; 'I' for Inactive)
REMARK    1  A    between atoms: C_2  and  C_1 
REMARK       I    between atoms: N_5  and  C_1 
REMARK    2  A    between atoms: C_3  and  C_4 
REMARK    3  A    between atoms: O_14  and  C_3 
REMARK    4  A    between atoms: C_7  and  N_5 
ROOT
ATOM      1  C   UNL d   1       1.108  -0.524   0.618  0.00  0.00     0.245 C 
ATOM      2  N   UNL d   1       0.277   0.511   0.990  0.00  0.00    -0.324 N 
ATOM      3  O   UNL d   1       0.789  -1.666   0.313  0.00  0.00    -0.268 OA
ATOM      4  H   UNL d   1       0.702   1.402   1.210  0.00  0.00     0.169 HD
ENDROOT
BRANCH   2   5
ATOM      5  C   UNL d   1      -1.133   0.469   1.091  0.00  0.00     0.035 A 
ATOM      6  C   UNL d   1      -1.897  -0.668   0.821  0.00  0.00     0.037 A 
ATOM      7  C   UNL d   1      -3.301  -0.648   0.905  0.00  0.00    -0.054 A 
ATOM      8  C   UNL d   1      -4.066  -1.902   0.575  0.00  0.00     0.049 C 
ATOM      9  C   UNL d   1      -3.955   0.539   1.277  0.00  0.00    -0.056 A 
ATOM     10  C   UNL d   1      -3.187   1.675   1.568  0.00  0.00     0.009 A 
ATOM     11  C   UNL d   1      -5.455   0.614   1.355  0.00  0.00     0.049 C 
ATOM     12  C   UNL d   1      -1.792   1.640   1.474  0.00  0.00     0.030 A 
ENDBRANCH   2   5
BRANCH   1  13
ATOM     13  C   UNL d   1       2.541  -0.133   0.617  0.00  0.00     0.081 C 
ATOM     14  C   UNL d   1       3.456  -1.079   0.356  0.00  0.00     0.086 C 
BRANCH  14  15
ATOM     15  C   UNL d   1       4.880  -0.719   0.359  0.00  0.00     0.165 C 
ATOM     16  O   UNL d   1       5.302   0.406   0.563  0.00  0.00    -0.647 OA
BRANCH  15  17
ATOM     17  O   UNL d   1       5.674  -1.779   0.115  0.00  0.00    -0.773 OA
ATOM     18  H   UNL d   1       5.214  -2.627  -0.026  0.00  0.00     0.167 HD
ENDBRANCH  15  17
ENDBRANCH  14  15
ENDBRANCH   1  13
TORSDOF 4
