REMARK  7 active torsions:
REMARK  status: ('A' for Active; 'I' for Inactive)
REMARK    1  A    between atoms: C_2  and  C_1 
REMARK       I    between atoms: N_8  and  C_1 
REMARK    2  A    between atoms: C_3  and  C_15 
REMARK    3  A    between atoms: O_26  and  C_4 
REMARK    4  A    between atoms: O_28  and  C_5 
REMARK    5  A    between atoms: O_29  and  C_6 
REMARK    6  A    between atoms: C_17  and  C_7 
REMARK    7  A    between atoms: C_23  and  N_8 
ROOT
ATOM      1  C   UNL d   1      -5.474  -0.534   1.589  0.00  0.00     0.055 C 
ATOM      2  C   UNL d   1      -6.041   0.499   2.260  0.00  0.00     0.035 C 
ATOM      3  C   UNL d   1      -4.098  -0.897   1.817  0.00  0.00     0.100 C 
ATOM      4  N   UNL d   1      -2.992  -1.206   1.980  0.00  0.00    -0.191 NA
ENDROOT
BRANCH   1   5
ATOM      5  C   UNL d   1      -6.217  -1.251   0.518  0.00  0.00    -0.015 A 
ATOM      6  C   UNL d   1      -5.528  -1.881  -0.537  0.00  0.00     0.015 A 
ATOM      7  C   UNL d   1      -6.209  -2.595  -1.533  0.00  0.00     0.030 A 
ATOM      8  C   UNL d   1      -7.600  -2.676  -1.514  0.00  0.00     0.035 A 
ATOM      9  C   UNL d   1      -8.290  -2.008  -0.501  0.00  0.00     0.030 A 
ATOM     10  C   UNL d   1      -7.611  -1.319   0.507  0.00  0.00     0.015 A 
BRANCH   8  11
ATOM     11  N   UNL d   1      -8.238  -3.474  -2.490  0.00  0.00    -0.323 N 
ATOM     12  C   UNL d   1      -9.607  -3.574  -2.668  0.00  0.00     0.256 C 
ATOM     13  O   UNL d   1     -10.447  -2.862  -2.120  0.00  0.00    -0.267 OA
ATOM     14  H   UNL d   1      -7.633  -4.056  -3.054  0.00  0.00     0.169 HD
BRANCH  12  15
ATOM     15  C   UNL d   1     -10.120  -4.621  -3.583  0.00  0.00     0.037 A 
ATOM     16  C   UNL d   1     -11.431  -5.065  -3.350  0.00  0.00     0.057 A 
ATOM     17  C   UNL d   1     -12.058  -5.992  -4.189  0.00  0.00     0.105 A 
ATOM     18  C   UNL d   1     -11.348  -6.502  -5.297  0.00  0.00     0.135 A 
ATOM     19  C   UNL d   1     -10.030  -6.040  -5.532  0.00  0.00     0.105 A 
ATOM     20  C   UNL d   1      -9.414  -5.124  -4.667  0.00  0.00     0.057 A 
BRANCH  17  21
ATOM     21  O   UNL d   1     -13.345  -6.410  -3.974  0.00  0.00    -0.353 OA
ATOM     22  C   UNL d   1     -14.057  -5.897  -2.854  0.00  0.00     0.210 C 
ENDBRANCH  17  21
BRANCH  18  23
ATOM     23  O   UNL d   1     -11.798  -7.449  -6.181  0.00  0.00    -0.351 OA
ATOM     24  C   UNL d   1     -13.119  -7.955  -6.082  0.00  0.00     0.210 C 
ENDBRANCH  18  23
BRANCH  19  25
ATOM     25  O   UNL d   1      -9.205  -6.438  -6.560  0.00  0.00    -0.353 OA
ATOM     26  C   UNL d   1      -9.831  -6.587  -7.832  0.00  0.00     0.210 C 
ENDBRANCH  19  25
ENDBRANCH  12  15
ENDBRANCH   8  11
ENDBRANCH   1   5
BRANCH   2  27
ATOM     27  C   UNL d   1      -5.199   1.441   3.004  0.00  0.00    -0.032 C 
ATOM     28  C   UNL d   1      -4.693   2.496   2.234  0.00  0.00     0.051 C 
ATOM     29  C   UNL d   1      -3.520   3.058   2.657  0.00  0.00     0.105 C 
ATOM     30  O   UNL d   1      -2.729   3.867   1.900  0.00  0.00    -0.323 OA
ATOM     31  C   UNL d   1      -2.922   2.694   3.843  0.00  0.00     0.105 C 
ATOM     32  C   UNL d   1      -1.479   3.651   2.582  0.00  0.00     0.352 C 
ATOM     33  O   UNL d   1      -1.671   3.226   3.950  0.00  0.00    -0.323 OA
ATOM     34  C   UNL d   1      -3.502   1.791   4.710  0.00  0.00     0.040 C 
ATOM     35  C   UNL d   1      -4.657   1.135   4.271  0.00  0.00     0.014 C 
ENDBRANCH   2  27
TORSDOF 7
