REMARK  4 active torsions:
REMARK  status: ('A' for Active; 'I' for Inactive)
REMARK    1  A    between atoms: N_13  and  C_3 
REMARK    2  A    between atoms: C_14  and  C_10 
REMARK    3  A    between atoms: C_17  and  C_11 
REMARK       I    between atoms: C_12  and  N_15 
REMARK       I    between atoms: N_16  and  C_12 
REMARK    4  A    between atoms: C_26  and  N_16 
ROOT
ATOM      1  N   UNL d   1      -0.968   0.710   1.289  0.00  0.00    -0.224 N 
ATOM      2  C   UNL d   1      -1.058  -0.688   1.248  0.00  0.00     0.131 A 
ATOM      3  C   UNL d   1      -0.856   1.464   0.084  0.00  0.00     0.129 A 
ATOM      4  N   UNL d   1      -0.968   1.154   2.576  0.00  0.00    -0.294 N 
ATOM      5  HN  UNL d   1      -0.906   2.122   2.892  1.00  0.00     0.187 HD
ATOM      6  C   UNL d   1      -0.851   0.780  -1.077  0.00  0.00     0.084 A 
ATOM      7  N   UNL d   1      -1.080  -1.397   0.083  0.00  0.00    -0.337 N 
ATOM      8  HN  UNL d   1      -1.158  -2.414   0.078  1.00  0.00     0.167 HD
ATOM      9  C   UNL d   1      -1.116  -1.109   2.554  0.00  0.00     0.077 A 
ATOM     10  C   UNL d   1      -0.995  -0.713  -1.028  0.00  0.00     0.121 A 
ATOM     11  C   UNL d   1      -1.066   0.062   3.339  0.00  0.00     0.037 A 
ENDROOT
BRANCH   3  12
ATOM     12  N   UNL d   1      -0.727   2.876   0.093  0.00  0.00    -0.363 N 
ATOM     13  C   UNL d   1      -1.310   3.697   1.195  0.00  0.00     0.144 C 
ATOM     14  C   UNL d   1      -1.512   5.157   0.736  0.00  0.00     0.147 C 
ATOM     15  N   UNL d   1      -0.271   5.745   0.202  0.00  0.00    -0.331 N 
ATOM     16  C   UNL d   1       0.140   6.975   0.688  0.00  0.00     0.323 C 
ATOM     17  C   UNL d   1       0.347   4.922  -0.849  0.00  0.00     0.147 C 
ATOM     18  N   UNL d   1       1.351   7.437   0.227  0.00  0.00    -0.309 N 
ATOM     19  O   UNL d   1      -0.545   7.568   1.525  0.00  0.00    -0.247 OA
ATOM     20  H   UNL d   1       1.835   6.876  -0.449  0.00  0.00     0.170 HD
ATOM     21  C   UNL d   1       0.546   3.467  -0.391  0.00  0.00     0.144 C 
BRANCH  18  22
ATOM     22  C   UNL d   1       2.109   8.514   0.747  0.00  0.00     0.036 A 
ATOM     23  C   UNL d   1       1.628   9.421   1.697  0.00  0.00     0.031 A 
ATOM     24  C   UNL d   1       2.487  10.351   2.292  0.00  0.00     0.026 A 
ATOM     25  C   UNL d   1       3.831  10.381   1.936  0.00  0.00     0.034 A 
ATOM     26  C   UNL d   1       4.310   9.532   0.942  0.00  0.00     0.026 A 
ATOM     27 CL   UNL d   1       4.908  11.450   2.745  0.00  0.00    -0.084 Cl
ATOM     28  C   UNL d   1       3.445   8.616   0.335  0.00  0.00     0.031 A 
ENDBRANCH  18  22
ENDBRANCH   3  12
BRANCH  10  29
ATOM     29  C   UNL d   1      -1.046  -1.441  -2.372  0.00  0.00     0.432 C 
ATOM     30  F   UNL d   1      -0.978  -0.591  -3.436  0.00  0.00    -0.165 F 
ATOM     31  F   UNL d   1      -0.016  -2.317  -2.525  0.00  0.00    -0.165 F 
ATOM     32  F   UNL d   1      -2.195  -2.153  -2.531  0.00  0.00    -0.165 F 
ENDBRANCH  10  29
BRANCH  11  33
ATOM     33  C   UNL d   1      -1.108   0.165   4.855  0.00  0.00    -0.007 C 
ATOM     34  C   UNL d   1      -1.054   1.633   5.335  0.00  0.00     0.021 C 
ATOM     35  C   UNL d   1      -2.410  -0.464   5.389  0.00  0.00     0.021 C 
ATOM     36  C   UNL d   1       0.095  -0.582   5.465  0.00  0.00     0.021 C 
ENDBRANCH  11  33
TORSDOF 4
