REMARK  5 active torsions:
REMARK  status: ('A' for Active; 'I' for Inactive)
REMARK    1  A    between atoms: N_2  and  C_1 
REMARK    2  A    between atoms: N_8  and  C_1 
REMARK    3  A    between atoms: C_3  and  N_2 
REMARK    4  A    between atoms: N_4  and  N_8 
REMARK    5  A    between atoms: C_10  and  C_11 
ROOT
ATOM      1  N   UNL d   1       3.171  -0.980   0.863  0.00  0.00    -0.309 N 
ATOM      2  HN  UNL d   1       2.724  -1.827   1.214  1.00  0.00     0.186 HD
ATOM      3  C   UNL d   1       4.403  -0.658   1.123  0.00  0.00     0.119 C 
ENDROOT
BRANCH   1   4
ATOM      4  N   UNL d   1       2.535  -0.066   0.069  0.00  0.00    -0.276 N 
ATOM      5  H   UNL d   1       3.021   0.771  -0.239  0.00  0.00     0.189 HD
BRANCH   4   6
ATOM      6  C   UNL d   1       1.299  -0.288  -0.492  0.00  0.00     0.191 C 
ATOM      7  S   UNL d   1       0.720   0.874  -1.549  0.00  0.00    -0.039 SA
BRANCH   6   8
ATOM      8  N   UNL d   1       0.686  -1.442  -0.070  0.00  0.00    -0.330 N 
ATOM      9  H   UNL d   1       0.995  -1.733   0.854  0.00  0.00     0.168 HD
BRANCH   8  10
ATOM     10  C   UNL d   1      -0.384  -2.158  -0.643  0.00  0.00     0.073 A 
ATOM     11  C   UNL d   1      -1.186  -2.948   0.187  0.00  0.00     0.143 A 
ATOM     12  F   UNL d   1      -0.964  -2.969   1.512  0.00  0.00    -0.204 F 
ATOM     13  C   UNL d   1      -2.240  -3.701  -0.327  0.00  0.00     0.044 A 
ATOM     14  C   UNL d   1      -2.483  -3.701  -1.700  0.00  0.00     0.003 A 
ATOM     15  C   UNL d   1      -1.669  -2.949  -2.545  0.00  0.00     0.002 A 
ATOM     16  C   UNL d   1      -0.626  -2.181  -2.019  0.00  0.00     0.033 A 
ENDBRANCH   8  10
ENDBRANCH   6   8
ENDBRANCH   4   6
ENDBRANCH   1   4
BRANCH   3  17
ATOM     17  C   UNL d   1       5.302  -1.480   1.964  0.00  0.00    -0.008 A 
ATOM     18  C   UNL d   1       6.486  -0.922   2.529  0.00  0.00    -0.014 A 
ATOM     19  C   UNL d   1       7.317  -1.775   3.296  0.00  0.00    -0.025 A 
ATOM     20  C   UNL d   1       6.893   0.431   2.395  0.00  0.00     0.013 A 
ATOM     21  C   UNL d   1       8.493  -1.276   3.882  0.00  0.00     0.012 A 
ATOM     22  C   UNL d   1       6.964  -3.123   3.478  0.00  0.00     0.012 A 
ATOM     23  C   UNL d   1       8.866   0.059   3.727  0.00  0.00     0.001 A 
ATOM     24  C   UNL d   1       8.065   0.913   2.983  0.00  0.00     0.001 A 
ATOM     25  C   UNL d   1       5.800  -3.645   2.919  0.00  0.00     0.002 A 
ATOM     26  C   UNL d   1       4.967  -2.827   2.165  0.00  0.00     0.014 A 
ENDBRANCH   3  17
TORSDOF 5
