REMARK  4 active torsions:
REMARK  status: ('A' for Active; 'I' for Inactive)
REMARK    1  A    between atoms: C_5  and  S_1 
REMARK    2  A    between atoms: C_9  and  S_1 
REMARK    3  A    between atoms: N_3  and  C_2 
REMARK    4  A    between atoms: C_7  and  C_8 
ROOT
ATOM      1  S   UNL d   1       1.030   0.030   0.130  0.00  0.00     0.197 S 
ATOM      2  O   UNL d   1       0.385  -1.170  -0.366  0.00  0.00    -0.218 OA
ATOM      3  O   UNL d   1       2.480   0.107   0.185  0.00  0.00    -0.218 OA
ENDROOT
BRANCH   1   4
ATOM      4  C   UNL d   1       0.373   0.400   1.689  0.00  0.00     0.117 C 
ATOM      5  C   UNL d   1       1.030  -0.053   2.768  0.00  0.00     0.049 C 
BRANCH   5   6
ATOM      6  C   UNL d   1       0.518   0.141   4.079  0.00  0.00     0.078 A 
ATOM      7  O   UNL d   1      -0.690   0.750   4.356  0.00  0.00    -0.289 OA
ATOM      8  C   UNL d   1      -0.857   0.734   5.702  0.00  0.00     0.215 A 
ATOM      9  C   UNL d   1       0.205   0.144   6.337  0.00  0.00     0.065 A 
ATOM     10  C   UNL d   1       1.088  -0.235   5.294  0.00  0.00     0.042 A 
BRANCH   8  11
ATOM     11  N   UNL d   1      -2.065   1.307   6.202  0.00  0.00    -0.090 N 
ATOM     12  O   UNL d   1      -2.217   1.279   7.431  0.00  0.00    -0.530 OA
ATOM     13  O   UNL d   1      -2.861   1.784   5.383  0.00  0.00    -0.530 OA
ENDBRANCH   8  11
ENDBRANCH   5   6
ENDBRANCH   1   4
BRANCH   1  14
ATOM     14  C   UNL d   1       0.485   1.383  -0.893  0.00  0.00     0.063 A 
ATOM     15  C   UNL d   1       1.284   2.524  -1.007  0.00  0.00     0.024 A 
ATOM     16  C   UNL d   1       0.922   3.532  -1.903  0.00  0.00     0.008 A 
ATOM     17  C   UNL d   1      -0.228   3.402  -2.695  0.00  0.00    -0.062 A 
ATOM     18  C   UNL d   1      -1.024   2.257  -2.563  0.00  0.00     0.008 A 
ATOM     19  C   UNL d   1      -0.568   4.468  -3.696  0.00  0.00     0.048 C 
ATOM     20  C   UNL d   1      -0.669   1.244  -1.669  0.00  0.00     0.024 A 
ENDBRANCH   1  14
TORSDOF 4
