REMARK  2 active torsions:
REMARK  status: ('A' for Active; 'I' for Inactive)
REMARK    1  A    between atoms: O_13  and  C_6 
REMARK    2  A    between atoms: C_10  and  N_7 
ROOT
ATOM      1  C   UNL d   1      -0.086  -2.229  -1.146  0.00  0.00     0.126 A 
ATOM      2  N   UNL d   1       0.977  -1.350  -1.206  0.00  0.00    -0.279 N 
ATOM      3  N   UNL d   1       1.579  -1.322  -2.417  0.00  0.00    -0.277 N 
ATOM      4  HN  UNL d   1       2.366  -0.750  -2.721  1.00  0.00     0.189 HD
ATOM      5  C   UNL d   1      -0.137  -2.823  -2.392  0.00  0.00     0.107 A 
ATOM      6  C   UNL d   1       0.895  -2.219  -3.111  0.00  0.00     0.158 A 
ATOM      7  N   UNL d   1      -0.842  -2.426  -0.035  0.00  0.00    -0.341 N 
ATOM      8  C   UNL d   1       1.453  -0.432  -0.200  0.00  0.00     0.179 C 
ATOM      9  H   UNL d   1      -0.520  -2.134   0.884  0.00  0.00     0.167 HD
ENDROOT
BRANCH   7  10
ATOM     10  C   UNL d   1      -2.214  -2.764  -0.029  0.00  0.00     0.035 A 
ATOM     11  C   UNL d   1      -2.730  -3.518   1.031  0.00  0.00     0.053 A 
ATOM     12  C   UNL d   1      -4.080  -3.891   1.055  0.00  0.00     0.042 A 
ATOM     13 CL   UNL d   1      -4.635  -4.828   2.397  0.00  0.00    -0.084 Cl
ATOM     14  C   UNL d   1      -4.948  -3.516   0.020  0.00  0.00    -0.040 A 
ATOM     15  C   UNL d   1      -4.427  -2.775  -1.048  0.00  0.00     0.011 A 
ATOM     16  C   UNL d   1      -6.406  -3.877   0.023  0.00  0.00     0.050 C 
ATOM     17  C   UNL d   1      -3.078  -2.414  -1.074  0.00  0.00     0.030 A 
ENDBRANCH   7  10
BRANCH   6  18
ATOM     18  O   UNL d   1       1.274  -2.422  -4.374  0.00  0.00    -0.345 OA
ATOM     19  H   UNL d   1       0.705  -3.098  -4.774  0.00  0.00     0.219 HD
ENDBRANCH   6  18
TORSDOF 2
