REMARK  9 active torsions:
REMARK  status: ('A' for Active; 'I' for Inactive)
REMARK    1  A    between atoms: N_2  and  S_1 
REMARK    2  A    between atoms: C_3  and  S_1 
REMARK    3  A    between atoms: C_4  and  N_2 
REMARK    4  A    between atoms: C_12  and  N_2 
REMARK    5  A    between atoms: C_5  and  C_4 
REMARK    6  A    between atoms: C_8  and  C_9 
REMARK       I    between atoms: N_14  and  C_8 
REMARK    7  A    between atoms: C_9  and  C_12 
REMARK    8  A    between atoms: N_10  and  N_14 
REMARK    9  A    between atoms: C_23  and  C_21 
ROOT
ATOM      1  N   UNL d   1       0.295   1.097  -1.286  0.00  0.00    -0.200 NA
ENDROOT
BRANCH   1   2
ATOM      2  S   UNL d   1       1.094  -0.093  -0.340  0.00  0.00     0.244 S 
ATOM      3  O   UNL d   1       0.959   0.313   1.045  0.00  0.00    -0.206 OA
ATOM      4  O   UNL d   1       2.402  -0.293  -0.929  0.00  0.00    -0.206 OA
BRANCH   2   5
ATOM      5  C   UNL d   1       0.266  -1.651  -0.528  0.00  0.00     0.074 A 
ATOM      6  C   UNL d   1       0.238  -2.268  -1.783  0.00  0.00     0.026 A 
ATOM      7  C   UNL d   1      -0.144  -3.611  -1.874  0.00  0.00     0.025 A 
ATOM      8  C   UNL d   1      -0.480  -4.324  -0.721  0.00  0.00     0.034 A 
ATOM      9  C   UNL d   1      -0.477  -3.698   0.525  0.00  0.00     0.025 A 
ATOM     10 CL   UNL d   1      -0.847  -6.001  -0.828  0.00  0.00    -0.084 Cl
ATOM     11  C   UNL d   1      -0.108  -2.356   0.623  0.00  0.00     0.026 A 
ENDBRANCH   2   5
ENDBRANCH   1   2
BRANCH   1  12
ATOM     12  C   UNL d   1      -1.194   1.140  -1.070  0.00  0.00     0.172 C 
BRANCH  12  13
ATOM     13  C   UNL d   1      -1.860   2.147  -1.957  0.00  0.00     0.066 A 
ATOM     14  O   UNL d   1      -2.530   3.157  -1.321  0.00  0.00    -0.326 OA
ATOM     15  C   UNL d   1      -3.031   3.977  -2.281  0.00  0.00     0.142 A 
ATOM     16  C   UNL d   1      -2.699   3.511  -3.531  0.00  0.00     0.027 A 
ATOM     17  C   UNL d   1      -1.947   2.326  -3.324  0.00  0.00     0.036 A 
ENDBRANCH  12  13
ENDBRANCH   1  12
BRANCH   1  18
ATOM     18  C   UNL d   1       0.887   2.487  -1.047  0.00  0.00     0.117 C 
BRANCH  18  19
ATOM     19  C   UNL d   1       2.390   2.627  -1.245  0.00  0.00     0.120 C 
BRANCH  19  20
ATOM     20  C   UNL d   1       2.763   2.568  -2.704  0.00  0.00     0.237 C 
ATOM     21  N   UNL d   1       3.158   1.317  -3.154  0.00  0.00    -0.270 N 
ATOM     22  H   UNL d   1       3.181   0.515  -2.520  0.00  0.00     0.190 HD
ATOM     23  O   UNL d   1       2.701   3.582  -3.401  0.00  0.00    -0.272 OA
BRANCH  21  24
ATOM     24  N   UNL d   1       3.596   1.211  -4.443  0.00  0.00    -0.309 N 
ATOM     25  C   UNL d   1       4.037   0.069  -4.851  0.00  0.00     0.118 C 
ATOM     26  HN  UNL d   1       3.574   2.016  -5.069  1.00  0.00     0.186 HD
BRANCH  25  27
ATOM     27  C   UNL d   1       4.566  -0.046  -6.230  0.00  0.00    -0.019 A 
ATOM     28  C   UNL d   1       4.564   1.070  -7.078  0.00  0.00     0.014 A 
ATOM     29  C   UNL d   1       5.103   0.984  -8.363  0.00  0.00     0.024 A 
ATOM     30  C   UNL d   1       5.644  -0.222  -8.802  0.00  0.00     0.034 A 
ATOM     31  C   UNL d   1       5.638  -1.344  -7.971  0.00  0.00     0.024 A 
ATOM     32 CL   UNL d   1       6.332  -0.324 -10.376  0.00  0.00    -0.084 Cl
ATOM     33  C   UNL d   1       5.098  -1.261  -6.680  0.00  0.00     0.014 A 
ENDBRANCH  25  27
ENDBRANCH  21  24
ENDBRANCH  19  20
ENDBRANCH  18  19
ENDBRANCH   1  18
TORSDOF 9
