REMARK  7 active torsions:
REMARK  status: ('A' for Active; 'I' for Inactive)
REMARK    1  A    between atoms: C_2  and  C_7 
REMARK    2  A    between atoms: C_3  and  C_11 
REMARK       I    between atoms: C_4  and  N_8 
REMARK       I    between atoms: N_10  and  C_4 
REMARK    3  A    between atoms: C_25  and  N_5 
REMARK    4  A    between atoms: N_8  and  C_6 
REMARK       I    between atoms: C_7  and  N_15 
REMARK    5  A    between atoms: C_21  and  N_10 
REMARK    6  A    between atoms: N_15  and  C_28 
REMARK    7  A    between atoms: C_28  and  C_25 
ROOT
ATOM      1  C   UNL d   1      -4.584  -2.035  -0.903  0.00  0.00     0.058 A 
ATOM      2  C   UNL d   1      -4.265  -1.456  -2.151  0.00  0.00     0.052 A 
ATOM      3  C   UNL d   1      -5.782  -1.678  -0.266  0.00  0.00     0.019 A 
ATOM      4  C   UNL d   1      -5.150  -0.550  -2.746  0.00  0.00     0.030 A 
ATOM      5  C   UNL d   1      -6.648  -0.758  -0.864  0.00  0.00     0.001 A 
ATOM      6  C   UNL d   1      -6.334  -0.197  -2.100  0.00  0.00     0.002 A 
ENDROOT
BRANCH   2   7
ATOM      7  N   UNL d   1      -3.004  -1.699  -2.739  0.00  0.00    -0.308 N 
ATOM      8  C   UNL d   1      -2.640  -1.369  -3.998  0.00  0.00     0.325 C 
ATOM      9  N   UNL d   1      -1.782  -0.329  -4.182  0.00  0.00    -0.309 N 
ATOM     10  O   UNL d   1      -2.992  -2.033  -4.972  0.00  0.00    -0.247 OA
ATOM     11  H   UNL d   1      -1.488  -0.288  -5.149  0.00  0.00     0.170 HD
ATOM     12  H   UNL d   1      -2.345  -2.273  -2.210  0.00  0.00     0.170 HD
BRANCH   9  13
ATOM     13  C   UNL d   1      -1.289   0.681  -3.334  0.00  0.00     0.036 A 
ATOM     14  C   UNL d   1      -1.693   0.905  -2.017  0.00  0.00     0.030 A 
ATOM     15  C   UNL d   1      -1.123   1.932  -1.253  0.00  0.00     0.018 A 
ATOM     16  C   UNL d   1      -0.128   2.755  -1.790  0.00  0.00     0.048 A 
ATOM     17  C   UNL d   1       0.257   2.552  -3.121  0.00  0.00     0.018 A 
ATOM     18  C   UNL d   1      -0.325   1.535  -3.884  0.00  0.00     0.030 A 
BRANCH  16  19
ATOM     19  C   UNL d   1       0.539   3.822  -0.960  0.00  0.00     0.417 C 
ATOM     20  F   UNL d   1       0.018   3.948   0.292  0.00  0.00    -0.166 F 
ATOM     21  F   UNL d   1       1.870   3.586  -0.788  0.00  0.00    -0.166 F 
ATOM     22  F   UNL d   1       0.450   5.057  -1.528  0.00  0.00    -0.166 F 
ENDBRANCH  16  19
ENDBRANCH   9  13
ENDBRANCH   2   7
BRANCH   1  23
ATOM     23  C   UNL d   1      -3.623  -2.985  -0.264  0.00  0.00     0.253 C 
ATOM     24  N   UNL d   1      -4.116  -3.918   0.620  0.00  0.00    -0.355 N 
ATOM     25  H   UNL d   1      -5.119  -4.011   0.770  0.00  0.00     0.162 HD
ATOM     26  O   UNL d   1      -2.429  -2.941  -0.565  0.00  0.00    -0.268 OA
BRANCH  24  27
ATOM     27  C   UNL d   1      -3.261  -4.981   1.113  0.00  0.00     0.143 C 
BRANCH  27  28
ATOM     28  C   UNL d   1      -3.603  -5.410   2.538  0.00  0.00     0.147 C 
BRANCH  28  29
ATOM     29  N   UNL d   1      -4.865  -6.118   2.645  0.00  0.00    -0.331 N 
ATOM     30  C   UNL d   1      -6.103  -5.500   2.781  0.00  0.00     0.318 C 
ATOM     31  N   UNL d   1      -7.071  -6.488   2.708  0.00  0.00    -0.341 N 
ATOM     32  O   UNL d   1      -6.324  -4.309   2.910  0.00  0.00    -0.247 OA
ATOM     33  C   UNL d   1      -6.468  -7.793   2.659  0.00  0.00     0.144 C 
ATOM     34  H   UNL d   1      -8.027  -6.277   2.963  0.00  0.00     0.164 HD
ATOM     35  C   UNL d   1      -5.035  -7.497   2.239  0.00  0.00     0.147 C 
ENDBRANCH  28  29
ENDBRANCH  27  28
ENDBRANCH  24  27
ENDBRANCH   1  23
TORSDOF 7
