REMARK  3 active torsions:
REMARK  status: ('A' for Active; 'I' for Inactive)
REMARK    1  A    between atoms: C_7  and  C_3 
REMARK    2  A    between atoms: C_10  and  C_4 
REMARK    3  A    between atoms: O_21  and  C_18 
ROOT
ATOM      1  N   UNL d   1       1.422  -0.614  -0.010  0.00  0.00    -0.349 N 
ATOM      2  HN  UNL d   1       2.310  -1.114  -0.036  1.00  0.00     0.166 HD
ATOM      3  C   UNL d   1       0.233  -1.189  -0.006  0.00  0.00     0.085 A 
ATOM      4  C   UNL d   1       1.292   0.767   0.027  0.00  0.00     0.050 A 
ATOM      5  S   UNL d   1      -1.098  -0.093   0.076  0.00  0.00    -0.081 SA
ATOM      6  C   UNL d   1      -0.010   1.223   0.063  0.00  0.00     0.082 A 
ENDROOT
BRANCH   3   7
ATOM      7  C   UNL d   1       0.008  -2.643  -0.035  0.00  0.00     0.001 A 
ATOM      8  C   UNL d   1       0.938  -3.500   0.576  0.00  0.00     0.054 A 
ATOM      9  C   UNL d   1       0.749  -4.884   0.555  0.00  0.00     0.103 A 
ATOM     10  O   UNL d   1       1.706  -5.648   1.173  0.00  0.00    -0.346 OA
ATOM     11  C   UNL d   1      -0.379  -5.430  -0.064  0.00  0.00     0.102 A 
ATOM     12  C   UNL d   1       1.603  -7.025   0.792  0.00  0.00     0.202 C 
ATOM     13  C   UNL d   1       0.157  -7.493   0.839  0.00  0.00     0.202 C 
ATOM     14  O   UNL d   1      -0.641  -6.774  -0.107  0.00  0.00    -0.346 OA
ATOM     15  C   UNL d   1      -1.298  -4.598  -0.693  0.00  0.00     0.040 A 
ATOM     16  C   UNL d   1      -1.106  -3.213  -0.677  0.00  0.00     0.017 A 
ENDBRANCH   3   7
BRANCH   4  17
ATOM     17  C   UNL d   1       2.452   1.648  -0.022  0.00  0.00    -0.009 A 
ATOM     18  C   UNL d   1       3.610   1.240  -0.698  0.00  0.00     0.016 A 
ATOM     19  C   UNL d   1       4.718   2.091  -0.801  0.00  0.00     0.037 A 
ATOM     20  C   UNL d   1       4.684   3.356  -0.215  0.00  0.00     0.068 A 
ATOM     21  C   UNL d   1       3.538   3.766   0.464  0.00  0.00     0.037 A 
ATOM     22  C   UNL d   1       2.433   2.918   0.571  0.00  0.00     0.016 A 
BRANCH  20  23
ATOM     23  O   UNL d   1       5.683   4.287  -0.278  0.00  0.00    -0.356 OA
ATOM     24  C   UNL d   1       7.003   3.768  -0.387  0.00  0.00     0.210 C 
ENDBRANCH  20  23
ENDBRANCH   4  17
TORSDOF 3
