REMARK  5 active torsions:
REMARK  status: ('A' for Active; 'I' for Inactive)
REMARK    1  A    between atoms: O_13  and  C_2 
REMARK    2  A    between atoms: C_10  and  C_19 
REMARK       I    between atoms: N_12  and  C_10 
REMARK    3  A    between atoms: C_20  and  N_12 
REMARK    4  A    between atoms: C_19  and  O_13 
REMARK    5  A    between atoms: C_22  and  C_14 
ROOT
ATOM      1  O   UNL d   1       3.054   2.997   1.345  0.00  0.00    -0.326 OA
ENDROOT
BRANCH   1   2
ATOM      2  C   UNL d   1       3.087   1.645   1.631  0.00  0.00     0.156 A 
ATOM      3  C   UNL d   1       4.010   1.215   2.585  0.00  0.00     0.042 A 
ATOM      4  C   UNL d   1       3.990  -0.162   2.839  0.00  0.00     0.049 A 
ATOM      5  C   UNL d   1       4.916   2.055   3.275  0.00  0.00     0.020 A 
ATOM      6  N   UNL d   1       3.118  -0.990   2.250  0.00  0.00    -0.351 N 
ATOM      7  C   UNL d   1       4.908  -0.682   3.740  0.00  0.00     0.054 A 
ATOM      8  C   UNL d   1       2.254  -0.447   1.382  0.00  0.00     0.182 A 
ATOM      9  HN  UNL d   1       3.111  -1.989   2.453  1.00  0.00     0.166 HD
ATOM     10  N   UNL d   1       2.202   0.838   1.022  0.00  0.00    -0.332 N 
ATOM     11  HN  UNL d   1       1.536   1.183   0.332  1.00  0.00     0.168 HD
ATOM     12  C   UNL d   1       5.812   0.143   4.411  0.00  0.00     0.036 A 
ATOM     13  C   UNL d   1       5.810   1.516   4.195  0.00  0.00     0.025 A 
ATOM     14 CL   UNL d   1       6.938  -0.545   5.514  0.00  0.00    -0.084 Cl
ENDBRANCH   1   2
BRANCH   1  15
ATOM     15  C   UNL d   1       2.330   3.319   0.165  0.00  0.00     0.280 C 
BRANCH  15  16
ATOM     16  C   UNL d   1       2.076   4.825   0.130  0.00  0.00     0.246 C 
ATOM     17  N   UNL d   1       0.792   5.308   0.151  0.00  0.00    -0.325 N 
ATOM     18  H   UNL d   1       0.725   6.234  -0.254  0.00  0.00     0.169 HD
ATOM     19  O   UNL d   1       3.010   5.629  -0.006  0.00  0.00    -0.271 OA
BRANCH  17  20
ATOM     20  C   UNL d   1      -0.386   4.567   0.310  0.00  0.00     0.034 A 
ATOM     21  C   UNL d   1      -0.561   3.683   1.374  0.00  0.00     0.030 A 
ATOM     22  C   UNL d   1      -1.703   2.877   1.435  0.00  0.00     0.010 A 
ATOM     23  C   UNL d   1      -2.676   2.945   0.428  0.00  0.00    -0.055 A 
ATOM     24  C   UNL d   1      -2.518   3.894  -0.595  0.00  0.00     0.010 A 
ATOM     25  C   UNL d   1      -1.393   4.723  -0.637  0.00  0.00     0.030 A 
BRANCH  23  26
ATOM     26  C   UNL d   1      -3.833   1.962   0.354  0.00  0.00     0.010 C 
ATOM     27  C   UNL d   1      -3.329   0.603  -0.144  0.00  0.00     0.015 C 
ATOM     28  C   UNL d   1      -4.604   1.806   1.666  0.00  0.00     0.015 C 
ENDBRANCH  23  26
ENDBRANCH  17  20
ENDBRANCH  15  16
ENDBRANCH   1  15
TORSDOF 5
