REMARK  4 active torsions:
REMARK  status: ('A' for Active; 'I' for Inactive)
REMARK       I    between atoms: N_8  and  C_1 
REMARK       I    between atoms: N_9  and  C_1 
REMARK    1  A    between atoms: N_2  and  N_8 
REMARK    2  A    between atoms: N_4  and  N_9 
REMARK    3  A    between atoms: C_6  and  C_13 
REMARK    4  A    between atoms: C_7  and  C_14 
ROOT
ATOM      1  C   UNL d   1       0.946   0.058  -0.117  0.00  0.00     0.353 C 
ATOM      2  N   UNL d   1       0.272  -1.166  -0.053  0.00  0.00    -0.251 N 
ATOM      3  N   UNL d   1       0.054   1.129  -0.193  0.00  0.00    -0.251 N 
ATOM      4  O   UNL d   1       2.168   0.175  -0.111  0.00  0.00    -0.244 OA
ATOM      5  H   UNL d   1      -0.728  -1.197   0.073  0.00  0.00     0.191 HD
ATOM      6  H   UNL d   1      -0.929   0.957  -0.335  0.00  0.00     0.191 HD
ENDROOT
BRANCH   2   7
ATOM      7  N   UNL d   1       0.996  -2.315   0.043  0.00  0.00    -0.307 N 
ATOM      8  C   UNL d   1       0.338  -3.429   0.126  0.00  0.00     0.120 C 
ATOM      9  HN  UNL d   1       2.016  -2.301   0.051  1.00  0.00     0.186 HD
BRANCH   8  10
ATOM     10  C   UNL d   1       1.062  -4.716   0.262  0.00  0.00     0.002 A 
ATOM     11  C   UNL d   1       0.397  -5.946   0.331  0.00  0.00     0.045 A 
ATOM     12 CL   UNL d   1      -1.322  -6.090   0.226  0.00  0.00    -0.083 Cl
ATOM     13  C   UNL d   1       1.133  -7.129   0.486  0.00  0.00     0.024 A 
ATOM     14  C   UNL d   1       2.526  -7.090   0.567  0.00  0.00     0.002 A 
ATOM     15  C   UNL d   1       3.192  -5.870   0.489  0.00  0.00     0.001 A 
ATOM     16  C   UNL d   1       2.464  -4.689   0.338  0.00  0.00     0.014 A 
ENDBRANCH   8  10
ENDBRANCH   2   7
BRANCH   3  17
ATOM     17  N   UNL d   1       0.534   2.403  -0.317  0.00  0.00    -0.307 N 
ATOM     18  C   UNL d   1      -0.358   3.336  -0.430  0.00  0.00     0.120 C 
ATOM     19  HN  UNL d   1       1.533   2.607  -0.321  1.00  0.00     0.186 HD
BRANCH  18  20
ATOM     20  C   UNL d   1       0.024   4.756  -0.614  0.00  0.00     0.002 A 
ATOM     21  C   UNL d   1      -0.939   5.768  -0.722  0.00  0.00     0.045 A 
ATOM     22 CL   UNL d   1      -2.637   5.468  -0.592  0.00  0.00    -0.083 Cl
ATOM     23  C   UNL d   1      -0.540   7.092  -0.943  0.00  0.00     0.024 A 
ATOM     24  C   UNL d   1       0.814   7.412  -1.048  0.00  0.00     0.002 A 
ATOM     25  C   UNL d   1       1.776   6.413  -0.924  0.00  0.00     0.001 A 
ATOM     26  C   UNL d   1       1.384   5.089  -0.708  0.00  0.00     0.014 A 
ENDBRANCH  18  20
ENDBRANCH   3  17
TORSDOF 4
