REMARK  3 active torsions:
REMARK  status: ('A' for Active; 'I' for Inactive)
REMARK    1  A    between atoms: C_14  and  C_1 
REMARK    2  A    between atoms: C_2  and  C_13 
REMARK    3  A    between atoms: C_13  and  C_14 
ROOT
ATOM      1  C   UNL d   1      -3.229  -1.377   0.083  0.00  0.00     0.047 C 
ENDROOT
BRANCH   1   2
ATOM      2  C   UNL d   1      -4.255  -2.471  -0.091  0.00  0.00    -0.004 A 
ATOM      3  C   UNL d   1      -5.099  -2.520  -1.131  0.00  0.00     0.066 A 
ATOM      4  C   UNL d   1      -6.137  -3.563  -1.271  0.00  0.00     0.178 A 
ATOM      5  O   UNL d   1      -6.898  -3.555  -2.230  0.00  0.00    -0.288 OA
ATOM      6  C   UNL d   1      -6.217  -4.600  -0.211  0.00  0.00    -0.008 A 
ATOM      7  C   UNL d   1      -5.374  -4.554   0.828  0.00  0.00     0.066 A 
ATOM      8  C   UNL d   1      -7.265  -5.654  -0.377  0.00  0.00     0.052 C 
ATOM      9  C   UNL d   1      -4.356  -3.495   0.981  0.00  0.00     0.178 A 
ATOM     10  O   UNL d   1      -3.627  -3.479   1.965  0.00  0.00    -0.288 OA
ENDBRANCH   1   2
BRANCH   1  11
ATOM     11  C   UNL d   1      -1.781  -1.872  -0.071  0.00  0.00     0.047 C 
BRANCH  11  12
ATOM     12  C   UNL d   1      -0.759  -0.770   0.063  0.00  0.00    -0.004 A 
ATOM     13  C   UNL d   1       0.091  -0.682   1.095  0.00  0.00     0.066 A 
ATOM     14  C   UNL d   1       1.123   0.372   1.196  0.00  0.00     0.178 A 
ATOM     15  O   UNL d   1       1.877   0.410   2.159  0.00  0.00    -0.288 OA
ATOM     16  C   UNL d   1       1.206   1.360   0.090  0.00  0.00    -0.008 A 
ATOM     17  C   UNL d   1       0.356   1.276  -0.941  0.00  0.00     0.066 A 
ATOM     18  C   UNL d   1       2.268   2.408   0.199  0.00  0.00     0.052 C 
ATOM     19  C   UNL d   1      -0.671   0.220  -1.041  0.00  0.00     0.178 A 
ATOM     20  O   UNL d   1      -1.415   0.177  -2.013  0.00  0.00    -0.288 OA
ENDBRANCH  11  12
ENDBRANCH   1  11
TORSDOF 3
