REMARK  4 active torsions:
REMARK  status: ('A' for Active; 'I' for Inactive)
REMARK    1  A    between atoms: C_14  and  C_11 
REMARK    2  A    between atoms: C_21  and  N_12 
REMARK    3  A    between atoms: C_22  and  C_21 
REMARK    4  A    between atoms: C_23  and  C_22 
ROOT
ATOM      1  N   UNL d   1       1.239  -0.618  -0.057  0.00  0.00    -0.203 N 
ATOM      2  C   UNL d   1      -1.176  -0.637  -0.042  0.00  0.00     0.062 A 
ATOM      3  C   UNL d   1       1.240   0.774   0.022  0.00  0.00     0.133 A 
ATOM      4  C   UNL d   1      -1.095   0.695   0.016  0.00  0.00     0.116 A 
ATOM      5  C   UNL d   1       0.069  -1.421  -0.091  0.00  0.00     0.278 A 
ATOM      6  N   UNL d   1       2.501  -1.123  -0.090  0.00  0.00    -0.287 N 
ATOM      7  HN  UNL d   1       2.785  -2.099  -0.170  1.00  0.00     0.188 HD
ATOM      8  N   UNL d   1       0.056   1.428   0.041  0.00  0.00    -0.336 N 
ATOM      9  C   UNL d   1       2.547   1.168   0.079  0.00  0.00     0.084 A 
ATOM     10  C   UNL d   1      -2.480   1.205   0.052  0.00  0.00     0.271 A 
ATOM     11  C   UNL d   1       3.284  -0.038   0.007  0.00  0.00     0.086 A 
ATOM     12  N   UNL d   1      -3.301   0.089   0.044  0.00  0.00    -0.342 N 
ATOM     13  C   UNL d   1      -2.556  -1.156  -0.035  0.00  0.00     0.173 A 
ATOM     14  O   UNL d   1       0.108  -2.643  -0.151  0.00  0.00    -0.265 OA
ATOM     15  O   UNL d   1      -2.782   2.383   0.079  0.00  0.00    -0.266 OA
ATOM     16  H   UNL d   1      -0.055   2.441   0.099  0.00  0.00     0.168 HD
ENDROOT
BRANCH  11  17
ATOM     17  C   UNL d   1       4.774  -0.103   0.044  0.00  0.00     0.103 A 
ATOM     18  O   UNL d   1       5.585   0.986   0.218  0.00  0.00    -0.320 OA
ATOM     19  C   UNL d   1       6.867   0.539   0.219  0.00  0.00     0.142 A 
ATOM     20  C   UNL d   1       6.902  -0.822   0.033  0.00  0.00     0.027 A 
ATOM     21  C   UNL d   1       5.552  -1.238  -0.079  0.00  0.00     0.041 A 
ENDBRANCH  11  17
BRANCH  12  22
ATOM     22  C   UNL d   1      -4.751   0.157   0.017  0.00  0.00     0.126 C 
BRANCH  22  23
ATOM     23  C   UNL d   1      -5.420  -0.563   1.186  0.00  0.00     0.020 C 
BRANCH  23  24
ATOM     24  C   UNL d   1      -5.033   0.017   2.548  0.00  0.00    -0.003 C 
ATOM     25  C   UNL d   1      -5.730  -0.728   3.676  0.00  0.00     0.005 C 
ENDBRANCH  23  24
ENDBRANCH  22  23
ENDBRANCH  12  22
TORSDOF 4
