REMARK  5 active torsions:
REMARK  status: ('A' for Active; 'I' for Inactive)
REMARK    1  A    between atoms: N_2  and  C_1 
REMARK    2  A    between atoms: N_3  and  C_10 
REMARK    3  A    between atoms: N_6  and  N_14 
REMARK    4  A    between atoms: C_13  and  C_9 
REMARK    5  A    between atoms: N_14  and  C_12 
ROOT
ATOM      1  C   UNL d   1       3.911   1.251  -0.911  0.00  0.00     0.060 C 
ATOM      2  C   UNL d   1       3.199   0.348  -1.925  0.00  0.00    -0.029 C 
ATOM      3  N   UNL d   1       3.705   1.417   0.361  0.00  0.00    -0.315 N 
ATOM      4  HN  UNL d   1       4.134   2.201   0.854  1.00  0.00     0.181 HD
ATOM      5  C   UNL d   1       1.973  -0.132  -1.625  0.00  0.00     0.021 C 
ATOM      6  C   UNL d   1       5.137   1.954  -1.414  0.00  0.00    -0.002 A 
ATOM      7  C   UNL d   1       5.947   1.303  -2.353  0.00  0.00    -0.045 A 
ATOM      8  C   UNL d   1       3.920   0.175  -3.241  0.00  0.00     0.045 C 
ATOM      9  C   UNL d   1       5.435   0.071  -3.048  0.00  0.00     0.044 C 
ATOM     10  C   UNL d   1       5.600   3.100  -0.750  0.00  0.00     0.014 A 
ATOM     11  C   UNL d   1       7.256   1.761  -2.554  0.00  0.00     0.008 A 
ATOM     12  C   UNL d   1       6.893   3.563  -0.977  0.00  0.00     0.001 A 
ATOM     13  C   UNL d   1       7.728   2.879  -1.859  0.00  0.00     0.001 A 
ENDROOT
BRANCH   3  14
ATOM     14  N   UNL d   1       2.920   0.543   1.025  0.00  0.00    -0.203 NA
ATOM     15  H   UNL d   1       3.087  -0.443   0.774  0.00  0.00     0.153 HD
BRANCH  14  16
ATOM     16  C   UNL d   1       2.842   0.724   2.428  0.00  0.00     0.060 A 
ATOM     17  C   UNL d   1       2.658  -0.346   3.327  0.00  0.00     0.128 A 
ATOM     18  C   UNL d   1       2.477  -0.117   4.703  0.00  0.00     0.074 A 
ATOM     19  C   UNL d   1       2.470   1.198   5.187  0.00  0.00     0.105 A 
ATOM     20  C   UNL d   1       2.660   2.276   4.318  0.00  0.00     0.038 A 
ATOM     21  C   UNL d   1       2.836   2.033   2.953  0.00  0.00     0.030 A 
BRANCH  17  22
ATOM     22  N   UNL d   1       2.683  -1.741   2.857  0.00  0.00    -0.114 N 
ATOM     23  O   UNL d   1       2.298  -2.617   3.642  0.00  0.00    -0.532 OA
ATOM     24  O   UNL d   1       3.097  -1.970   1.708  0.00  0.00    -0.532 OA
ENDBRANCH  17  22
BRANCH  19  25
ATOM     25  N   UNL d   1       2.249   1.447   6.615  0.00  0.00    -0.116 N 
ATOM     26  O   UNL d   1       2.043   0.469   7.344  0.00  0.00    -0.532 OA
ATOM     27  O   UNL d   1       2.276   2.626   7.008  0.00  0.00    -0.532 OA
ENDBRANCH  19  25
ENDBRANCH  14  16
ENDBRANCH   3  14
BRANCH   5  28
ATOM     28  C   UNL d   1       1.005  -0.989  -2.352  0.00  0.00    -0.025 A 
ATOM     29  C   UNL d   1       1.261  -2.273  -2.916  0.00  0.00    -0.016 A 
ATOM     30  C   UNL d   1       0.183  -2.974  -3.527  0.00  0.00    -0.025 A 
ATOM     31  C   UNL d   1       2.512  -2.933  -2.885  0.00  0.00     0.013 A 
ATOM     32  C   UNL d   1       0.402  -4.212  -4.153  0.00  0.00     0.012 A 
ATOM     33  C   UNL d   1      -1.115  -2.450  -3.490  0.00  0.00     0.012 A 
ATOM     34  C   UNL d   1       1.666  -4.795  -4.167  0.00  0.00     0.001 A 
ATOM     35  C   UNL d   1       2.717  -4.163  -3.518  0.00  0.00     0.001 A 
ATOM     36  C   UNL d   1      -1.371  -1.231  -2.878  0.00  0.00     0.002 A 
ATOM     37  C   UNL d   1      -0.320  -0.504  -2.330  0.00  0.00     0.012 A 
ENDBRANCH   5  28
TORSDOF 5
