REMARK  2 active torsions:
REMARK  status: ('A' for Active; 'I' for Inactive)
REMARK    1  A    between atoms: S_6  and  C_1 
REMARK    2  A    between atoms: C_11  and  S_6 
ROOT
ATOM      1  C   UNL d   1       2.418  -0.487  -0.162  0.00  0.00     0.096 A 
ATOM      2  C   UNL d   1       2.385   0.905  -0.225  0.00  0.00     0.085 A 
ATOM      3  N   UNL d   1       1.295  -1.243  -0.074  0.00  0.00    -0.349 N 
ATOM      4  HN  UNL d   1       1.359  -2.260  -0.032  1.00  0.00     0.166 HD
ATOM      5  C   UNL d   1       1.136   1.554  -0.119  0.00  0.00    -0.026 A 
ATOM      6  C   UNL d   1      -0.047   0.766  -0.057  0.00  0.00    -0.002 A 
ATOM      7  C   UNL d   1       3.592   1.654  -0.421  0.00  0.00     0.103 C 
ATOM      8  C   UNL d   1       0.100  -0.637  -0.044  0.00  0.00     0.043 A 
ATOM      9  N   UNL d   1       4.537   2.300  -0.615  0.00  0.00    -0.191 NA
ATOM     10  C   UNL d   1       1.039   3.063  -0.060  0.00  0.00     0.050 C 
ATOM     11  C   UNL d   1      -1.355   1.309  -0.016  0.00  0.00     0.014 A 
ATOM     12  C   UNL d   1      -1.037  -1.435   0.015  0.00  0.00     0.030 A 
ATOM     13  C   UNL d   1      -2.482   0.487   0.031  0.00  0.00     0.001 A 
ATOM     14  C   UNL d   1      -2.321  -0.891   0.047  0.00  0.00     0.002 A 
ENDROOT
BRANCH   1  15
ATOM     15  S   UNL d   1       3.941  -1.412   0.001  0.00  0.00    -0.069 SA
BRANCH  15  16
ATOM     16  C   UNL d   1       4.253  -1.980  -1.667  0.00  0.00     0.028 A 
ATOM     17  C   UNL d   1       5.444  -1.675  -2.352  0.00  0.00     0.051 A 
ATOM     18 CL   UNL d   1       6.660  -0.636  -1.691  0.00  0.00    -0.083 Cl
ATOM     19  C   UNL d   1       5.701  -2.227  -3.613  0.00  0.00     0.025 A 
ATOM     20  C   UNL d   1       4.781  -3.091  -4.202  0.00  0.00     0.002 A 
ATOM     21  C   UNL d   1       3.598  -3.400  -3.536  0.00  0.00     0.001 A 
ATOM     22  C   UNL d   1       3.338  -2.851  -2.277  0.00  0.00     0.021 A 
ENDBRANCH  15  16
ENDBRANCH   1  15
TORSDOF 2
