REMARK  2 active torsions:
REMARK  status: ('A' for Active; 'I' for Inactive)
REMARK    1  A    between atoms: C_8  and  N_4 
REMARK    2  A    between atoms: C_9  and  C_8 
ROOT
ATOM      1  C   UNL d   1      -3.441  -0.838   0.022  0.00  0.00     0.170 C 
ATOM      2  N   UNL d   1      -2.562   0.193   0.027  0.00  0.00    -0.342 N 
ATOM      3  N   UNL d   1      -2.902  -2.078   0.018  0.00  0.00    -0.342 N 
ATOM      4  N   UNL d   1      -0.700  -1.244   0.289  0.00  0.00     0.127 N 
ATOM      5  C   UNL d   1      -1.171   0.011  -0.264  0.00  0.00     0.399 C 
ATOM      6  C   UNL d   1      -1.514  -2.321  -0.244  0.00  0.00     0.399 C 
ATOM      7  S   UNL d   1      -5.079  -0.594   0.082  0.00  0.00    -0.041 SA
ATOM      8  H   UNL d   1      -2.961   1.121  -0.033  0.00  0.00     0.163 HD
ATOM      9  H   UNL d   1      -3.550  -2.853  -0.050  0.00  0.00     0.163 HD
ENDROOT
BRANCH   4  10
ATOM     10  C   UNL d   1      -0.641  -1.211   1.757  0.00  0.00     0.315 C 
BRANCH  10  11
ATOM     11  C   UNL d   1      -0.005  -2.441   2.375  0.00  0.00    -0.030 A 
ATOM     12  C   UNL d   1       1.302  -2.826   2.042  0.00  0.00     0.009 A 
ATOM     13  C   UNL d   1       1.879  -3.955   2.627  0.00  0.00     0.001 A 
ATOM     14  C   UNL d   1       1.159  -4.706   3.556  0.00  0.00     0.000 A 
ATOM     15  C   UNL d   1      -0.138  -4.331   3.899  0.00  0.00     0.001 A 
ATOM     16  C   UNL d   1      -0.718  -3.205   3.312  0.00  0.00     0.009 A 
ENDBRANCH  10  11
ENDBRANCH   4  10
TORSDOF 2
