REMARK  6 active torsions:
REMARK  status: ('A' for Active; 'I' for Inactive)
REMARK       I    between atoms: C_2  and  N_7 
REMARK       I    between atoms: N_8  and  C_2 
REMARK    1  A    between atoms: C_3  and  C_6 
REMARK    2  A    between atoms: C_22  and  N_4 
REMARK    3  A    between atoms: N_7  and  C_5 
REMARK       I    between atoms: C_6  and  N_16 
REMARK    4  A    between atoms: C_9  and  N_8 
REMARK    5  A    between atoms: N_16  and  C_26 
REMARK    6  A    between atoms: C_26  and  C_22 
ROOT
ATOM      1  C   UNL d   1      -4.555  -2.058  -0.832  0.00  0.00     0.058 A 
ATOM      2  C   UNL d   1      -4.319  -1.537  -2.118  0.00  0.00     0.052 A 
ATOM      3  C   UNL d   1      -5.735  -1.676  -0.153  0.00  0.00     0.019 A 
ATOM      4  C   UNL d   1      -5.218  -0.575  -2.628  0.00  0.00     0.030 A 
ATOM      5  C   UNL d   1      -6.645  -0.776  -0.704  0.00  0.00     0.001 A 
ATOM      6  C   UNL d   1      -6.366  -0.196  -1.930  0.00  0.00     0.002 A 
ENDROOT
BRANCH   2   7
ATOM      7  N   UNL d   1      -3.348  -1.977  -3.053  0.00  0.00    -0.308 N 
ATOM      8  C   UNL d   1      -2.013  -2.137  -2.839  0.00  0.00     0.325 C 
ATOM      9  N   UNL d   1      -1.297  -2.765  -3.840  0.00  0.00    -0.307 N 
ATOM     10  O   UNL d   1      -1.425  -1.795  -1.818  0.00  0.00    -0.247 OA
ATOM     11  H   UNL d   1      -0.374  -2.986  -3.476  0.00  0.00     0.170 HD
ATOM     12  H   UNL d   1      -3.509  -1.649  -3.997  0.00  0.00     0.170 HD
BRANCH   9  13
ATOM     13  C   UNL d   1      -1.746  -3.561  -4.930  0.00  0.00     0.058 C 
ATOM     14  C   UNL d   1      -2.816  -3.284  -5.801  0.00  0.00     0.062 C 
ATOM     15  C   UNL d   1      -3.288  -4.259  -6.691  0.00  0.00     0.050 C 
ATOM     16 CL   UNL d   1      -3.500  -1.705  -5.985  0.00  0.00    -0.082 Cl
ATOM     17  C   UNL d   1      -2.653  -5.492  -6.769  0.00  0.00     0.035 C 
ATOM     18  C   UNL d   1      -1.499  -5.728  -6.033  0.00  0.00     0.026 C 
ATOM     19 CL   UNL d   1      -3.292  -6.721  -7.787  0.00  0.00    -0.084 Cl
ATOM     20  C   UNL d   1      -1.040  -4.761  -5.130  0.00  0.00     0.033 C 
ENDBRANCH   9  13
ENDBRANCH   2   7
BRANCH   1  21
ATOM     21  C   UNL d   1      -3.813  -3.142  -0.127  0.00  0.00     0.253 C 
ATOM     22  N   UNL d   1      -3.332  -4.168  -0.900  0.00  0.00    -0.355 N 
ATOM     23  H   UNL d   1      -3.442  -4.114  -1.906  0.00  0.00     0.162 HD
ATOM     24  O   UNL d   1      -3.818  -3.186   1.105  0.00  0.00    -0.268 OA
BRANCH  22  25
ATOM     25  C   UNL d   1      -3.146  -5.484  -0.316  0.00  0.00     0.143 C 
BRANCH  25  26
ATOM     26  C   UNL d   1      -4.485  -6.232  -0.189  0.00  0.00     0.147 C 
BRANCH  26  27
ATOM     27  N   UNL d   1      -5.042  -6.561  -1.494  0.00  0.00    -0.331 N 
ATOM     28  C   UNL d   1      -4.621  -7.613  -2.281  0.00  0.00     0.318 C 
ATOM     29  N   UNL d   1      -5.330  -7.567  -3.467  0.00  0.00    -0.341 N 
ATOM     30  O   UNL d   1      -3.750  -8.432  -2.022  0.00  0.00    -0.247 OA
ATOM     31  C   UNL d   1      -6.035  -6.318  -3.577  0.00  0.00     0.144 C 
ATOM     32  H   UNL d   1      -5.042  -8.157  -4.236  0.00  0.00     0.164 HD
ATOM     33  C   UNL d   1      -6.098  -5.810  -2.140  0.00  0.00     0.147 C 
ENDBRANCH  26  27
ENDBRANCH  25  26
ENDBRANCH  22  25
ENDBRANCH   1  21
TORSDOF 6
