REMARK  6 active torsions:
REMARK  status: ('A' for Active; 'I' for Inactive)
REMARK    1  A    between atoms: C_4  and  N_2 
REMARK    2  A    between atoms: C_8  and  C_4 
REMARK    3  A    between atoms: C_13  and  C_7 
REMARK    4  A    between atoms: C_11  and  C_14 
REMARK    5  A    between atoms: O_12  and  C_13 
REMARK    6  A    between atoms: C_14  and  O_12 
ROOT
ATOM      1  N   UNL d   1       1.366  -2.348   3.258  0.00  0.00    -0.197 NA
ATOM      2  C   UNL d   1       2.522  -2.268   3.232  0.00  0.00     0.061 C 
ATOM      3  C   UNL d   1       3.983  -2.141   3.195  0.00  0.00     0.150 C 
ENDROOT
BRANCH   3   4
ATOM      4  C   UNL d   1       4.384  -0.687   2.970  0.00  0.00     0.181 C 
BRANCH   4   5
ATOM      5  O   UNL d   1       5.810  -0.573   2.940  0.00  0.00    -0.390 OA
BRANCH   5   6
ATOM      6  C   UNL d   1       6.222   0.779   2.705  0.00  0.00     0.172 C 
BRANCH   6   7
ATOM      7  C   UNL d   1       7.757   0.870   2.683  0.00  0.00     0.013 C 
ATOM      8  C   UNL d   1       8.243   2.310   2.480  0.00  0.00     0.037 C 
ATOM      9  C   UNL d   1       7.996   2.811   1.055  0.00  0.00     0.273 C 
ATOM     10  N   UNL d   1       8.599   1.936   0.037  0.00  0.00     0.092 N 
ATOM     11  C   UNL d   1       8.170   0.535   0.187  0.00  0.00     0.273 C 
ATOM     12  C   UNL d   1       8.390  -0.012   1.601  0.00  0.00     0.037 C 
BRANCH  10  13
ATOM     13  C   UNL d   1       8.265   2.463  -1.306  0.00  0.00     0.311 C 
BRANCH  13  14
ATOM     14  C   UNL d   1       8.895   1.706  -2.457  0.00  0.00    -0.030 A 
ATOM     15  C   UNL d   1       8.089   1.052  -3.402  0.00  0.00     0.009 A 
ATOM     16  C   UNL d   1       8.665   0.334  -4.451  0.00  0.00     0.001 A 
ATOM     17  C   UNL d   1      10.051   0.267  -4.569  0.00  0.00     0.000 A 
ATOM     18  C   UNL d   1      10.863   0.925  -3.646  0.00  0.00     0.001 A 
ATOM     19  C   UNL d   1      10.288   1.643  -2.596  0.00  0.00     0.009 A 
ENDBRANCH  13  14
ENDBRANCH  10  13
ENDBRANCH   6   7
ENDBRANCH   5   6
ENDBRANCH   4   5
ENDBRANCH   3   4
TORSDOF 6
