REMARK  1 active torsions:
REMARK  status: ('A' for Active; 'I' for Inactive)
REMARK    1  A    between atoms: C_7  and  C_4 
ROOT
ATOM      1  C   UNL d   1       0.641  -0.880   0.066  0.00  0.00     0.111 A 
ATOM      2  N   UNL d   1      -0.685  -1.221   0.013  0.00  0.00    -0.335 N 
ATOM      3  HN  UNL d   1      -1.104  -2.150  -0.034  1.00  0.00     0.168 HD
ATOM      4  C   UNL d   1       1.705  -1.692   0.077  0.00  0.00     0.055 C 
ATOM      5  C   UNL d   1       0.793   0.598   0.105  0.00  0.00     0.316 A 
ATOM      6  O   UNL d   1      -0.497   1.036   0.086  0.00  0.00    -0.261 OA
ATOM      7  C   UNL d   1      -1.271  -0.071   0.037  0.00  0.00     0.124 A 
ATOM      8  O   UNL d   1       1.803   1.271   0.121  0.00  0.00    -0.257 OA
ATOM      9  C   UNL d   1      -2.736   0.161   0.015  0.00  0.00     0.098 C 
ENDROOT
BRANCH   4  10
ATOM     10  C   UNL d   1       1.555  -3.102  -0.018  0.00  0.00     0.013 A 
ATOM     11  C   UNL d   1       1.528  -3.900  -1.155  0.00  0.00    -0.044 A 
ATOM     12  C   UNL d   1       1.333  -5.282  -0.820  0.00  0.00     0.015 A 
ATOM     13  C   UNL d   1       1.659  -3.417  -2.564  0.00  0.00     0.049 C 
ATOM     14  C   UNL d   1       1.246  -5.491   0.536  0.00  0.00     0.051 A 
ATOM     15  S   UNL d   1       1.407  -4.039   1.416  0.00  0.00    -0.102 SA
ENDBRANCH   4  10
TORSDOF 1
