REMARK  2 active torsions:
REMARK  status: ('A' for Active; 'I' for Inactive)
REMARK       I    between atoms: N_3  and  C_1 
REMARK       I    between atoms: N_4  and  C_1 
REMARK    1  A    between atoms: C_2  and  N_3 
REMARK    2  A    between atoms: C_5  and  N_4 
ROOT
ATOM      1  C   UNL d   1       1.230   1.748  -0.902  0.00  0.00     0.321 C 
ATOM      2  N   UNL d   1       2.544   1.416  -0.648  0.00  0.00    -0.309 N 
ATOM      3  N   UNL d   1       0.385   0.999  -0.106  0.00  0.00    -0.338 N 
ATOM      4  O   UNL d   1       0.826   2.558  -1.723  0.00  0.00    -0.247 OA
ATOM      5  H   UNL d   1       2.668   0.532  -0.177  0.00  0.00     0.170 HD
ATOM      6  H   UNL d   1       0.749   0.771   0.808  0.00  0.00     0.164 HD
ENDROOT
BRANCH   2   7
ATOM      7  C   UNL d   1       3.697   2.007  -1.203  0.00  0.00     0.039 A 
ATOM      8  C   UNL d   1       3.692   3.228  -1.883  0.00  0.00     0.053 A 
ATOM      9  C   UNL d   1       4.881   3.744  -2.405  0.00  0.00     0.037 A 
ATOM     10 CL   UNL d   1       4.866   5.252  -3.237  0.00  0.00    -0.084 Cl
ATOM     11  C   UNL d   1       6.084   3.058  -2.261  0.00  0.00     0.048 A 
ATOM     12  C   UNL d   1       6.090   1.849  -1.572  0.00  0.00     0.037 A 
ATOM     13  C   UNL d   1       4.910   1.327  -1.039  0.00  0.00     0.053 A 
ATOM     14 CL   UNL d   1       7.565   0.983  -1.383  0.00  0.00    -0.084 Cl
ENDBRANCH   2   7
BRANCH   3  15
ATOM     15  C   UNL d   1      -1.064   1.115  -0.226  0.00  0.00     0.094 C 
ATOM     16  C   UNL d   1      -1.623   2.512   0.136  0.00  0.00     0.064 C 
ATOM     17  C   UNL d   1      -2.979   2.172   0.673  0.00  0.00    -0.050 A 
ATOM     18  C   UNL d   1      -4.040   3.032   0.904  0.00  0.00     0.007 A 
ATOM     19  C   UNL d   1      -3.072   0.815   0.991  0.00  0.00    -0.050 A 
ATOM     20  C   UNL d   1      -5.209   2.510   1.463  0.00  0.00     0.001 A 
ATOM     21  C   UNL d   1      -5.297   1.149   1.794  0.00  0.00     0.001 A 
ATOM     22  C   UNL d   1      -4.220   0.290   1.562  0.00  0.00     0.007 A 
ATOM     23  C   UNL d   1      -1.795   0.101   0.685  0.00  0.00     0.064 C 
ENDBRANCH   3  15
TORSDOF 2
