REMARK  8 active torsions:
REMARK  status: ('A' for Active; 'I' for Inactive)
REMARK    1  A    between atoms: C_2  and  C_1 
REMARK    2  A    between atoms: O_18  and  C_2 
REMARK    3  A    between atoms: C_3  and  O_16 
REMARK    4  A    between atoms: C_8  and  C_3 
REMARK    5  A    between atoms: C_4  and  C_12 
REMARK    6  A    between atoms: C_22  and  C_5 
REMARK    7  A    between atoms: O_16  and  C_22 
REMARK    8  A    between atoms: C_24  and  O_18 
ROOT
ATOM      1  C   UNL d   1      -1.455   0.199  -0.107  0.00  0.00    -0.063 C 
ATOM      2  C   UNL d   1      -2.659   0.172  -0.085  0.00  0.00    -0.074 C 
ENDROOT
BRANCH   1   3
ATOM      3  C   UNL d   1      -0.031   0.174  -0.102  0.00  0.00     0.034 A 
ATOM      4  C   UNL d   1       0.712   1.354  -0.099  0.00  0.00     0.041 A 
ATOM      5  C   UNL d   1       2.107   1.282  -0.051  0.00  0.00     0.056 A 
ATOM      6  C   UNL d   1       2.701   0.025  -0.010  0.00  0.00     0.105 A 
ATOM      7  N   UNL d   1       2.006  -1.138  -0.021  0.00  0.00    -0.373 N 
ATOM      8  C   UNL d   1       0.658  -1.036  -0.065  0.00  0.00     0.108 A 
ATOM      9  HN  UNL d   1       2.475  -2.044   0.003  1.00  0.00     0.164 HD
BRANCH   5  10
ATOM     10  C   UNL d   1       2.987   2.462   0.050  0.00  0.00     0.294 C 
ATOM     11  O   UNL d   1       4.200   2.387   0.160  0.00  0.00    -0.259 OA
BRANCH  10  12
ATOM     12  O   UNL d   1       2.242   3.592   0.128  0.00  0.00    -0.318 OA
BRANCH  12  13
ATOM     13  C   UNL d   1       2.912   4.720   0.707  0.00  0.00     0.174 C 
ATOM     14  C   UNL d   1       2.708   4.652   2.211  0.00  0.00     0.034 C 
ENDBRANCH  12  13
ENDBRANCH  10  12
ENDBRANCH   5  10
ENDBRANCH   1   3
BRANCH   2  15
ATOM     15  C   UNL d   1      -4.121   0.065  -0.047  0.00  0.00     0.273 C 
BRANCH  15  16
ATOM     16  O   UNL d   1      -4.712   1.372  -0.096  0.00  0.00    -0.305 OA
BRANCH  16  17
ATOM     17  C   UNL d   1      -5.618   1.567  -1.083  0.00  0.00     0.294 C 
ATOM     18  O   UNL d   1      -5.941   0.753  -1.933  0.00  0.00    -0.259 OA
BRANCH  17  19
ATOM     19  C   UNL d   1      -6.227   2.925  -1.004  0.00  0.00     0.039 A 
ATOM     20  C   UNL d   1      -7.202   3.260  -1.958  0.00  0.00     0.019 A 
ATOM     21  C   UNL d   1      -7.831   4.508  -1.925  0.00  0.00     0.025 A 
ATOM     22  C   UNL d   1      -7.488   5.428  -0.938  0.00  0.00     0.034 A 
ATOM     23  C   UNL d   1      -6.515   5.113   0.013  0.00  0.00     0.025 A 
ATOM     24 CL   UNL d   1      -8.273   6.957  -0.886  0.00  0.00    -0.084 Cl
ATOM     25  C   UNL d   1      -5.882   3.863  -0.020  0.00  0.00     0.019 A 
ENDBRANCH  17  19
ENDBRANCH  16  17
ENDBRANCH  15  16
ENDBRANCH   2  15
TORSDOF 8
