REMARK  9 active torsions:
REMARK  status: ('A' for Active; 'I' for Inactive)
REMARK    1  A    between atoms: C_10  and  C_1 
REMARK    2  A    between atoms: N_11  and  C_6 
REMARK    3  A    between atoms: N_12  and  C_7 
REMARK       I    between atoms: C_15  and  N_11 
REMARK       I    between atoms: C_16  and  N_12 
REMARK    4  A    between atoms: O_14  and  C_13 
REMARK    5  A    between atoms: C_17  and  O_14 
REMARK    6  A    between atoms: C_23  and  C_15 
REMARK    7  A    between atoms: C_24  and  C_16 
REMARK    8  A    between atoms: C_19  and  C_25 
REMARK    9  A    between atoms: C_26  and  C_24 
ROOT
ATOM      1  C   UNL d   1      -1.256  -0.152  -0.651  0.00  0.00     0.149 A 
ATOM      2  N   UNL d   1      -0.518  -1.255  -0.636  0.00  0.00    -0.174 N 
ATOM      3  HN  UNL d   1      -0.936  -2.184  -0.585  1.00  0.00     0.186 HD
ATOM      4  N   UNL d   1      -0.728   1.068  -0.715  0.00  0.00    -0.174 N 
ATOM      5  HN  UNL d   1      -1.314   1.901  -0.760  1.00  0.00     0.186 HD
ATOM      6  C   UNL d   1       0.804  -1.078  -0.693  0.00  0.00     0.701 A 
ATOM      7  C   UNL d   1       0.592   1.149  -0.718  0.00  0.00     0.701 A 
ATOM      8  N   UNL d   1       1.410   0.099  -0.727  0.00  0.00    -0.022 N 
ATOM      9  HN  UNL d   1       2.425   0.193  -0.758  1.00  0.00     0.203 HD
ENDROOT
BRANCH   1  10
ATOM     10  C   UNL d   1      -2.709  -0.225  -0.351  0.00  0.00     0.043 C 
ATOM     11  C   UNL d   1      -3.479  -1.410  -0.338  0.00  0.00     0.090 C 
ATOM     12  C   UNL d   1      -4.780  -1.401   0.210  0.00  0.00     0.038 C 
ATOM     13  C   UNL d   1      -5.397  -0.211   0.587  0.00  0.00     0.003 C 
ATOM     14  C   UNL d   1      -4.710   0.982   0.459  0.00  0.00     0.001 C 
ATOM     15  C   UNL d   1      -3.384   0.967   0.024  0.00  0.00     0.018 C 
BRANCH  11  16
ATOM     16  O   UNL d   1      -2.933  -2.562  -0.892  0.00  0.00    -0.308 OA
BRANCH  16  17
ATOM     17  C   UNL d   1      -3.791  -3.573  -1.279  0.00  0.00     0.098 A 
ATOM     18  C   UNL d   1      -4.829  -3.425  -2.215  0.00  0.00     0.069 A 
ATOM     19  C   UNL d   1      -5.728  -4.473  -2.433  0.00  0.00     0.050 A 
ATOM     20 CL   UNL d   1      -5.056  -1.978  -3.133  0.00  0.00    -0.081 Cl
ATOM     21  C   UNL d   1      -5.545  -5.688  -1.776  0.00  0.00     0.035 A 
ATOM     22  C   UNL d   1      -4.458  -5.876  -0.924  0.00  0.00     0.026 A 
ATOM     23 CL   UNL d   1      -6.668  -6.968  -2.022  0.00  0.00    -0.084 Cl
ATOM     24  C   UNL d   1      -3.580  -4.818  -0.675  0.00  0.00     0.041 A 
ENDBRANCH  16  17
ENDBRANCH  11  16
ENDBRANCH   1  10
BRANCH   6  25
ATOM     25  N   UNL d   1       1.494  -2.271  -0.600  0.00  0.00    -0.155 N 
ATOM     26  C   UNL d   1       2.793  -2.624  -0.597  0.00  0.00     0.259 C 
ATOM     27  O   UNL d   1       3.055  -3.791  -0.269  0.00  0.00    -0.268 OA
ATOM     28  H   UNL d   1       0.876  -3.049  -0.406  0.00  0.00     0.187 HD
BRANCH  26  29
ATOM     29  C   UNL d   1       3.881  -1.717  -1.043  0.00  0.00     0.076 C 
ATOM     30  C   UNL d   1       5.138  -2.193  -0.960  0.00  0.00     0.024 C 
BRANCH  30  31
ATOM     31  C   UNL d   1       6.318  -1.574  -1.472  0.00  0.00     0.004 A 
ATOM     32  S   UNL d   1       6.316  -0.250  -2.573  0.00  0.00    -0.102 SA
ATOM     33  C   UNL d   1       8.017  -0.284  -2.748  0.00  0.00     0.050 A 
ATOM     34  C   UNL d   1       8.595  -1.252  -1.964  0.00  0.00     0.008 A 
ATOM     35  C   UNL d   1       7.623  -1.987  -1.231  0.00  0.00     0.019 A 
ENDBRANCH  30  31
ENDBRANCH  26  29
ENDBRANCH   6  25
BRANCH   7  36
ATOM     36  N   UNL d   1       1.202   2.389  -0.584  0.00  0.00    -0.155 N 
ATOM     37  C   UNL d   1       0.660   3.636  -0.465  0.00  0.00     0.259 C 
ATOM     38  O   UNL d   1       1.360   4.553  -0.034  0.00  0.00    -0.268 OA
ATOM     39  H   UNL d   1       2.187   2.342  -0.366  0.00  0.00     0.187 HD
BRANCH  37  40
ATOM     40  C   UNL d   1      -0.739   3.899  -0.900  0.00  0.00     0.076 C 
BRANCH  40  41
ATOM     41  C   UNL d   1      -1.379   5.000  -0.472  0.00  0.00     0.024 C 
ATOM     42  C   UNL d   1      -2.713   5.320  -0.870  0.00  0.00     0.004 A 
ATOM     43  S   UNL d   1      -3.398   6.815  -0.325  0.00  0.00    -0.102 SA
ATOM     44  C   UNL d   1      -3.637   4.641  -1.650  0.00  0.00     0.019 A 
ATOM     45  C   UNL d   1      -4.881   6.529  -1.119  0.00  0.00     0.050 A 
ATOM     46  C   UNL d   1      -4.880   5.329  -1.790  0.00  0.00     0.008 A 
ENDBRANCH  40  41
ENDBRANCH  37  40
ENDBRANCH   7  36
TORSDOF 9
