REMARK  4 active torsions:
REMARK  status: ('A' for Active; 'I' for Inactive)
REMARK    1  A    between atoms: C_2  and  C_1 
REMARK       I    between atoms: N_3  and  C_2 
REMARK    2  A    between atoms: C_8  and  N_3 
REMARK    3  A    between atoms: O_17  and  C_9 
REMARK    4  A    between atoms: O_18  and  C_11 
ROOT
ATOM      1  C   UNL d   1       0.316  -2.508  -0.208  0.00  0.00     0.257 C 
ATOM      2  N   UNL d   1       1.101  -3.643  -0.158  0.00  0.00    -0.323 N 
ATOM      3  O   UNL d   1      -0.907  -2.490  -0.329  0.00  0.00    -0.267 OA
ATOM      4  H   UNL d   1       2.094  -3.507  -0.014  0.00  0.00     0.169 HD
ENDROOT
BRANCH   1   5
ATOM      5  C   UNL d   1       1.022  -1.186  -0.152  0.00  0.00     0.052 A 
ATOM      6  C   UNL d   1       2.229  -0.918   0.515  0.00  0.00     0.026 A 
ATOM      7  C   UNL d   1       2.768   0.375   0.489  0.00  0.00     0.023 A 
ATOM      8 BR   UNL d   1       3.196  -2.186   1.550  0.00  0.00    -0.050 Br
ATOM      9  C   UNL d   1       2.112   1.404  -0.186  0.00  0.00     0.038 A 
ATOM     10  C   UNL d   1       0.915   1.158  -0.851  0.00  0.00     0.069 A 
ATOM     11  C   UNL d   1       0.370  -0.126  -0.821  0.00  0.00     0.055 A 
BRANCH  10  12
ATOM     12  O   UNL d   1       0.358   2.246  -1.462  0.00  0.00    -0.356 OA
ATOM     13  C   UNL d   1      -0.539   1.969  -2.532  0.00  0.00     0.210 C 
ENDBRANCH  10  12
ENDBRANCH   1   5
BRANCH   2  14
ATOM     14  C   UNL d   1       0.667  -4.987  -0.159  0.00  0.00     0.035 A 
ATOM     15  C   UNL d   1      -0.655  -5.384  -0.363  0.00  0.00     0.032 A 
ATOM     16  C   UNL d   1      -1.019  -6.737  -0.294  0.00  0.00     0.039 A 
ATOM     17  C   UNL d   1      -0.063  -7.710  -0.012  0.00  0.00     0.068 A 
ATOM     18  C   UNL d   1       1.267  -7.322   0.152  0.00  0.00     0.039 A 
ATOM     19  C   UNL d   1       1.631  -5.973   0.076  0.00  0.00     0.032 A 
BRANCH  17  20
ATOM     20  O   UNL d   1      -0.296  -9.049   0.127  0.00  0.00    -0.356 OA
ATOM     21  C   UNL d   1      -1.659  -9.460   0.155  0.00  0.00     0.210 C 
ENDBRANCH  17  20
ENDBRANCH   2  14
TORSDOF 4
