REMARK  3 active torsions:
REMARK  status: ('A' for Active; 'I' for Inactive)
REMARK    1  A    between atoms: C_3  and  C_1 
REMARK    2  A    between atoms: C_9  and  C_3 
REMARK    3  A    between atoms: O_13  and  N_7 
ROOT
ATOM      1  C   UNL d   1      -3.849  -0.109  -0.097  0.00  0.00     0.098 C 
ATOM      2  N   UNL d   1      -4.540  -1.216  -0.053  0.00  0.00    -0.266 N 
ATOM      3  HN  UNL d   1      -5.559  -1.231  -0.093  1.00  0.00     0.194 HD
ENDROOT
BRANCH   1   4
ATOM      4  C   UNL d   1      -4.639   1.113  -0.097  0.00  0.00     0.106 A 
ATOM      5  O   UNL d   1      -4.122   2.272  -0.610  0.00  0.00    -0.308 OA
ATOM      6  C   UNL d   1      -5.068   3.241  -0.461  0.00  0.00     0.086 A 
ATOM      7  C   UNL d   1      -4.934   4.573  -0.847  0.00  0.00     0.038 A 
ATOM      8  C   UNL d   1      -6.202   2.719   0.147  0.00  0.00     0.001 A 
ATOM      9  C   UNL d   1      -6.024   5.412  -0.584  0.00  0.00     0.003 A 
ATOM     10  C   UNL d   1      -7.179   4.927   0.036  0.00  0.00     0.001 A 
ATOM     11  C   UNL d   1      -7.285   3.577   0.407  0.00  0.00     0.014 A 
ATOM     12  C   UNL d   1      -5.928   1.346   0.353  0.00  0.00     0.054 A 
ENDBRANCH   1   4
BRANCH   1  13
ATOM     13  C   UNL d   1      -2.347   0.003  -0.106  0.00  0.00    -0.005 A 
ATOM     14  C   UNL d   1      -1.714   1.035   0.609  0.00  0.00     0.015 A 
ATOM     15  C   UNL d   1      -0.320   1.144   0.620  0.00  0.00     0.024 A 
ATOM     16  C   UNL d   1       0.454   0.211  -0.064  0.00  0.00     0.034 A 
ATOM     17  C   UNL d   1      -0.156  -0.820  -0.776  0.00  0.00     0.024 A 
ATOM     18 CL   UNL d   1       2.169   0.332  -0.032  0.00  0.00    -0.084 Cl
ATOM     19  C   UNL d   1      -1.552  -0.913  -0.810  0.00  0.00     0.015 A 
ENDBRANCH   1  13
BRANCH   2  20
ATOM     20  O   UNL d   1      -3.775  -2.377   0.054  0.00  0.00    -0.289 OA
ATOM     21  H   UNL d   1      -4.451  -3.079   0.005  0.00  0.00     0.244 HD
ENDBRANCH   2  20
TORSDOF 3
