REMARK  2 active torsions:
REMARK  status: ('A' for Active; 'I' for Inactive)
REMARK    1  A    between atoms: C_10  and  N_4 
REMARK    2  A    between atoms: O_18  and  C_15 
ROOT
ATOM      1  N   UNL d   1      -0.771  -1.026   0.661  0.00  0.00    -0.275 N 
ATOM      2  HN  UNL d   1      -1.359  -1.658   1.203  1.00  0.00     0.188 HD
ATOM      3  C   UNL d   1      -0.557   0.949  -0.794  0.00  0.00     0.348 A 
ATOM      4  N   UNL d   1      -1.327   0.025  -0.062  0.00  0.00    -0.204 N 
ATOM      5  N   UNL d   1       0.795   0.728  -0.800  0.00  0.00    -0.271 N 
ATOM      6  C   UNL d   1       0.517  -1.179   0.626  0.00  0.00     0.197 A 
ATOM      7  C   UNL d   1       1.428  -0.267  -0.122  0.00  0.00     0.288 A 
ATOM      8  C   UNL d   1       0.982  -2.328   1.357  0.00  0.00     0.125 C 
ATOM      9  N   UNL d   1       1.361  -3.264   1.934  0.00  0.00    -0.190 NA
ATOM     10  O   UNL d   1      -0.965   1.938  -1.399  0.00  0.00    -0.245 OA
ATOM     11  O   UNL d   1       2.637  -0.424  -0.099  0.00  0.00    -0.265 OA
ATOM     12  H   UNL d   1       1.357   1.395  -1.307  0.00  0.00     0.174 HD
ENDROOT
BRANCH   4  13
ATOM     13  C   UNL d   1      -2.765   0.045  -0.036  0.00  0.00     0.061 A 
ATOM     14  C   UNL d   1      -3.516   0.701  -1.021  0.00  0.00     0.034 A 
ATOM     15  C   UNL d   1      -4.918   0.686  -1.008  0.00  0.00     0.039 A 
ATOM     16  C   UNL d   1      -5.606   0.023   0.002  0.00  0.00     0.068 A 
ATOM     17  C   UNL d   1      -4.877  -0.628   0.995  0.00  0.00     0.039 A 
ATOM     18  C   UNL d   1      -3.475  -0.629   0.971  0.00  0.00     0.034 A 
BRANCH  16  19
ATOM     19  O   UNL d   1      -6.965  -0.061   0.123  0.00  0.00    -0.356 OA
ATOM     20  C   UNL d   1      -7.737   0.550  -0.905  0.00  0.00     0.210 C 
ENDBRANCH  16  19
ENDBRANCH   4  13
TORSDOF 2
