REMARK  0 active torsions:
REMARK  status: ('A' for Active; 'I' for Inactive)
ROOT
ATOM      1  C   UNL d   1       2.074   1.448   0.109  0.00  0.00     0.187 C 
ATOM      2  C   UNL d   1      -0.129  -0.843   0.086  0.00  0.00     0.054 A 
ATOM      3  N   UNL d   1       0.719   1.525   0.142  0.00  0.00    -0.331 N 
ATOM      4  C   UNL d   1       1.216  -1.440   0.107  0.00  0.00     0.251 C 
ATOM      5  N   UNL d   1       2.088  -0.804  -0.753  0.00  0.00    -0.168 NA
ATOM      6  N   UNL d   1       2.730   0.289  -0.146  0.00  0.00    -0.290 N 
ATOM      7  C   UNL d   1      -0.307   0.549   0.105  0.00  0.00     0.049 A 
ATOM      8  S   UNL d   1       2.957   2.848   0.343  0.00  0.00    -0.040 SA
ATOM      9  O   UNL d   1       1.488  -2.408   0.799  0.00  0.00    -0.272 OA
ATOM     10  C   UNL d   1      -1.226  -1.715   0.036  0.00  0.00     0.019 A 
ATOM     11  C   UNL d   1      -1.621   1.042   0.105  0.00  0.00     0.030 A 
ATOM     12  C   UNL d   1      -2.519  -1.202  -0.009  0.00  0.00     0.001 A 
ATOM     13  C   UNL d   1      -2.717   0.175   0.035  0.00  0.00     0.002 A 
ATOM     14  H   UNL d   1       0.403   2.481   0.279  0.00  0.00     0.168 HD
ATOM     15  H   UNL d   1       1.622  -0.465  -1.596  0.00  0.00     0.156 HD
ATOM     16  H   UNL d   1       3.746   0.305  -0.208  0.00  0.00     0.183 HD
ENDROOT
TORSDOF 0
