REMARK  5 active torsions:
REMARK  status: ('A' for Active; 'I' for Inactive)
REMARK    1  A    between atoms: C_6  and  N_1 
REMARK    2  A    between atoms: C_12  and  C_6 
REMARK    3  A    between atoms: N_9  and  C_13 
REMARK    4  A    between atoms: C_13  and  C_12 
REMARK    5  A    between atoms: O_20  and  C_12 
ROOT
ATOM      1  N   UNL d   1       0.109  -1.522  -0.604  0.00  0.00    -0.343 N 
ATOM      2  C   UNL d   1       0.629   0.233  -1.877  0.00  0.00     0.005 A 
ATOM      3  C   UNL d   1       0.338   0.698  -0.555  0.00  0.00     0.005 A 
ATOM      4  C   UNL d   1       0.411  -1.148  -1.900  0.00  0.00     0.046 A 
ATOM      5  C   UNL d   1      -0.039  -0.411   0.206  0.00  0.00     0.046 A 
ATOM      6  C   UNL d   1       0.526  -1.899  -3.081  0.00  0.00     0.032 A 
ATOM      7  C   UNL d   1      -0.448  -0.289   1.545  0.00  0.00     0.032 A 
ATOM      8  C   UNL d   1       1.034   0.879  -3.065  0.00  0.00     0.033 A 
ATOM      9  C   UNL d   1       0.341   1.971   0.049  0.00  0.00     0.033 A 
ATOM     10  C   UNL d   1       1.165   0.133  -4.237  0.00  0.00     0.011 A 
ATOM     11  C   UNL d   1      -0.058   2.093   1.384  0.00  0.00     0.011 A 
ATOM     12  C   UNL d   1       0.897  -1.232  -4.253  0.00  0.00     0.021 A 
ATOM     13  C   UNL d   1      -0.455   0.984   2.121  0.00  0.00     0.021 A 
ATOM     14 BR   UNL d   1      -0.065   3.802   2.197  0.00  0.00    -0.051 Br
ATOM     15 BR   UNL d   1       1.708   0.998  -5.830  0.00  0.00    -0.051 Br
ENDROOT
BRANCH   1  16
ATOM     16  C   UNL d   1      -0.002  -2.893  -0.139  0.00  0.00     0.163 C 
BRANCH  16  17
ATOM     17  C   UNL d   1       1.341  -3.546   0.212  0.00  0.00     0.164 C 
BRANCH  17  18
ATOM     18  C   UNL d   1       2.180  -2.772   1.262  0.00  0.00     0.305 C 
BRANCH  18  19
ATOM     19  N   UNL d   1       3.283  -3.605   1.805  0.00  0.00     0.090 N 
ATOM     20  C   UNL d   1       4.347  -3.844   0.812  0.00  0.00     0.272 C 
ATOM     21  C   UNL d   1       5.383  -4.822   1.370  0.00  0.00     0.030 C 
ATOM     22  C   UNL d   1       5.979  -4.334   2.687  0.00  0.00     0.003 C 
ATOM     23  C   UNL d   1       4.887  -3.899   3.659  0.00  0.00     0.030 C 
ATOM     24  C   UNL d   1       3.873  -2.964   2.997  0.00  0.00     0.272 C 
ENDBRANCH  18  19
ENDBRANCH  17  18
BRANCH  17  25
ATOM     25  O   UNL d   1       1.065  -4.859   0.734  0.00  0.00    -0.392 OA
ATOM     26  H   UNL d   1       1.813  -5.046   1.342  0.00  0.00     0.210 HD
ENDBRANCH  17  25
ENDBRANCH  16  17
ENDBRANCH   1  16
TORSDOF 5
