REMARK  5 active torsions:
REMARK  status: ('A' for Active; 'I' for Inactive)
REMARK    1  A    between atoms: C_2  and  C_1 
REMARK       I    between atoms: N_3  and  C_1 
REMARK    2  A    between atoms: N_4  and  C_2 
REMARK    3  A    between atoms: C_7  and  N_3 
REMARK    4  A    between atoms: C_8  and  N_4 
REMARK    5  A    between atoms: C_15  and  C_8 
ROOT
ATOM      1  C   UNL d   1       0.736   0.182  -0.205  0.00  0.00     0.283 C 
ATOM      2  N   UNL d   1       2.033  -0.050  -0.602  0.00  0.00    -0.321 N 
ATOM      3  O   UNL d   1      -0.190  -0.046  -0.984  0.00  0.00    -0.265 OA
ATOM      4  H   UNL d   1       2.097  -0.120  -1.613  0.00  0.00     0.169 HD
ENDROOT
BRANCH   1   5
ATOM      5  C   UNL d   1       0.400   0.891   1.094  0.00  0.00     0.165 C 
ATOM      6  S   UNL d   1       1.092   2.380   1.397  0.00  0.00    -0.055 SA
BRANCH   5   7
ATOM      7  N   UNL d   1      -0.602   0.432   1.914  0.00  0.00    -0.372 N 
ATOM      8  H   UNL d   1      -0.836   1.051   2.681  0.00  0.00     0.161 HD
BRANCH   7   9
ATOM      9  C   UNL d   1      -1.381  -0.790   1.804  0.00  0.00     0.159 C 
BRANCH   9  10
ATOM     10  C   UNL d   1      -0.946  -1.789   2.846  0.00  0.00    -0.041 A 
ATOM     11  C   UNL d   1      -0.806  -1.413   4.192  0.00  0.00     0.009 A 
ATOM     12  C   UNL d   1      -0.381  -2.334   5.148  0.00  0.00     0.001 A 
ATOM     13  C   UNL d   1      -0.112  -3.648   4.775  0.00  0.00     0.000 A 
ATOM     14  C   UNL d   1      -0.280  -4.044   3.449  0.00  0.00     0.001 A 
ATOM     15  C   UNL d   1      -0.697  -3.121   2.488  0.00  0.00     0.009 A 
ENDBRANCH   9  10
ENDBRANCH   7   9
ENDBRANCH   5   7
ENDBRANCH   1   5
BRANCH   2  16
ATOM     16  C   UNL d   1       3.242  -0.061   0.106  0.00  0.00     0.035 A 
ATOM     17  C   UNL d   1       3.354  -0.496   1.428  0.00  0.00     0.032 A 
ATOM     18  C   UNL d   1       4.617  -0.545   2.038  0.00  0.00     0.044 A 
ATOM     19  C   UNL d   1       5.747  -0.138   1.332  0.00  0.00     0.116 A 
ATOM     20  C   UNL d   1       5.645   0.298   0.021  0.00  0.00     0.044 A 
ATOM     21  F   UNL d   1       6.949  -0.183   1.923  0.00  0.00    -0.206 F 
ATOM     22  C   UNL d   1       4.395   0.315  -0.601  0.00  0.00     0.032 A 
ENDBRANCH   2  16
TORSDOF 5
