REMARK  2 active torsions:
REMARK  status: ('A' for Active; 'I' for Inactive)
REMARK    1  A    between atoms: N_4  and  C_11 
REMARK    2  A    between atoms: N_5  and  C_12 
ROOT
ATOM      1  C   UNL d   1       0.657   0.059   0.070  0.00  0.00     0.018 A 
ATOM      2  C   UNL d   1      -0.344   1.183   0.065  0.00  0.00    -0.009 A 
ATOM      3  C   UNL d   1      -0.121  -1.231   0.049  0.00  0.00    -0.009 A 
ATOM      4  C   UNL d   1      -1.619   0.580  -0.072  0.00  0.00    -0.014 A 
ATOM      5  C   UNL d   1      -1.485  -0.870  -0.080  0.00  0.00    -0.014 A 
ATOM      6  C   UNL d   1       2.006   0.184   0.013  0.00  0.00     0.136 C 
ATOM      7  C   UNL d   1      -0.238   2.562   0.205  0.00  0.00     0.049 A 
ATOM      8  C   UNL d   1       0.238  -2.570   0.159  0.00  0.00     0.049 A 
ATOM      9  C   UNL d   1      -1.412   3.335   0.171  0.00  0.00     0.103 A 
ATOM     10  C   UNL d   1      -0.774  -3.544   0.107  0.00  0.00     0.103 A 
ATOM     11  C   UNL d   1       2.666   1.443  -0.052  0.00  0.00     0.111 C 
ATOM     12  C   UNL d   1       2.890  -0.929  -0.034  0.00  0.00     0.111 C 
ATOM     13  N   UNL d   1       3.214   2.464  -0.112  0.00  0.00    -0.191 NA
ATOM     14  N   UNL d   1       3.621  -1.830  -0.073  0.00  0.00    -0.191 NA
ATOM     15  C   UNL d   1      -2.484  -1.837  -0.143  0.00  0.00     0.015 A 
ATOM     16  C   UNL d   1      -2.778   1.349  -0.125  0.00  0.00     0.015 A 
ATOM     17  C   UNL d   1      -2.125  -3.185  -0.053  0.00  0.00     0.037 A 
ATOM     18  C   UNL d   1      -2.674   2.737  -0.007  0.00  0.00     0.037 A 
ENDROOT
BRANCH   9  19
ATOM     19  N   UNL d   1      -1.323   4.793   0.348  0.00  0.00    -0.116 N 
ATOM     20  O   UNL d   1      -0.201   5.282   0.536  0.00  0.00    -0.532 OA
ATOM     21  O   UNL d   1      -2.377   5.442   0.308  0.00  0.00    -0.532 OA
ENDBRANCH   9  19
BRANCH  10  22
ATOM     22  N   UNL d   1      -0.416  -4.965   0.240  0.00  0.00    -0.116 N 
ATOM     23  O   UNL d   1       0.779  -5.245   0.406  0.00  0.00    -0.532 OA
ATOM     24  O   UNL d   1      -1.333  -5.796   0.183  0.00  0.00    -0.532 OA
ENDBRANCH  10  22
TORSDOF 2
