REMARK  9 active torsions:
REMARK  status: ('A' for Active; 'I' for Inactive)
REMARK       I    between atoms: N_8  and  C_1 
REMARK       I    between atoms: N_14  and  C_1 
REMARK       I    between atoms: C_2  and  N_13 
REMARK       I    between atoms: N_7  and  C_2 
REMARK    1  A    between atoms: C_9  and  N_7 
REMARK    2  A    between atoms: C_10  and  N_8 
REMARK    3  A    between atoms: N_13  and  C_20 
REMARK    4  A    between atoms: C_19  and  N_14 
REMARK    5  A    between atoms: C_22  and  C_19 
REMARK    6  A    between atoms: C_20  and  C_21 
REMARK    7  A    between atoms: C_21  and  C_24 
REMARK    8  A    between atoms: C_23  and  C_22 
REMARK    9  A    between atoms: C_24  and  C_23 
ROOT
ATOM      1  C   UNL d   1       4.892  -0.485   6.105  0.00  0.00    -0.086 C 
ATOM      2  C   UNL d   1       4.420  -0.061   7.125  0.00  0.00     0.015 C 
ATOM      3  C   UNL d   1       5.499  -0.965   4.835  0.00  0.00     0.090 C 
ATOM      4  C   UNL d   1       4.893  -2.330   4.478  0.00  0.00     0.053 C 
ATOM      5  C   UNL d   1       7.016  -1.099   5.047  0.00  0.00     0.053 C 
ENDROOT
BRANCH   3   6
ATOM      6  N   UNL d   1       5.163   0.033   3.824  0.00  0.00    -0.324 N 
ATOM      7  C   UNL d   1       5.564  -0.016   2.518  0.00  0.00     0.317 C 
ATOM      8  O   UNL d   1       6.279  -0.880   2.034  0.00  0.00    -0.247 OA
ATOM      9  N   UNL d   1       5.076   1.062   1.824  0.00  0.00    -0.343 N 
ATOM     10  H   UNL d   1       4.277   1.544   2.203  0.00  0.00     0.164 HD
ATOM     11  H   UNL d   1       4.987   0.964   4.169  0.00  0.00     0.166 HD
BRANCH   9  12
ATOM     12  C   UNL d   1       5.540   1.409   0.500  0.00  0.00     0.124 C 
BRANCH  12  13
ATOM     13  C   UNL d   1       4.998   0.520  -0.625  0.00  0.00     0.020 C 
BRANCH  13  14
ATOM     14  C   UNL d   1       5.493   0.968  -2.014  0.00  0.00     0.002 C 
BRANCH  14  15
ATOM     15  C   UNL d   1       7.017   0.907  -2.123  0.00  0.00     0.002 C 
BRANCH  15  16
ATOM     16  C   UNL d   1       7.594   1.432  -3.440  0.00  0.00     0.020 C 
BRANCH  16  17
ATOM     17  C   UNL d   1       9.121   1.437  -3.314  0.00  0.00     0.124 C 
BRANCH  17  18
ATOM     18  N   UNL d   1       9.834   1.875  -4.489  0.00  0.00    -0.343 N 
ATOM     19  C   UNL d   1       9.971   3.198  -4.822  0.00  0.00     0.317 C 
ATOM     20  N   UNL d   1      10.899   3.342  -5.818  0.00  0.00    -0.324 N 
ATOM     21  O   UNL d   1       9.368   4.110  -4.280  0.00  0.00    -0.247 OA
ATOM     22  H   UNL d   1      11.592   2.610  -5.850  0.00  0.00     0.166 HD
ATOM     23  H   UNL d   1      10.043   1.198  -5.206  0.00  0.00     0.164 HD
BRANCH  20  24
ATOM     24  C   UNL d   1      11.283   4.616  -6.422  0.00  0.00     0.090 C 
ATOM     25  C   UNL d   1      12.370   4.310  -7.388  0.00  0.00    -0.086 C 
ATOM     26  C   UNL d   1      13.268   4.055  -8.145  0.00  0.00     0.015 C 
ATOM     27  C   UNL d   1      10.100   5.225  -7.186  0.00  0.00     0.053 C 
ATOM     28  C   UNL d   1      11.825   5.619  -5.391  0.00  0.00     0.053 C 
ENDBRANCH  20  24
ENDBRANCH  17  18
ENDBRANCH  16  17
ENDBRANCH  15  16
ENDBRANCH  14  15
ENDBRANCH  13  14
ENDBRANCH  12  13
ENDBRANCH   9  12
ENDBRANCH   3   6
TORSDOF 9
