REMARK  5 active torsions:
REMARK  status: ('A' for Active; 'I' for Inactive)
REMARK    1  A    between atoms: C_5  and  C_1 
REMARK    2  A    between atoms: O_9  and  C_2 
REMARK    3  A    between atoms: O_13  and  C_8 
REMARK    4  A    between atoms: C_15  and  O_9 
REMARK    5  A    between atoms: O_17  and  C_12 
ROOT
ATOM      1  C   UNL d   1       1.311   0.785  -0.023  0.00  0.00     0.097 A 
ATOM      2  C   UNL d   1      -0.056   1.190  -0.047  0.00  0.00     0.128 A 
ATOM      3  N   UNL d   1       1.402  -0.555  -0.137  0.00  0.00    -0.297 N 
ATOM      4  HN  UNL d   1       2.249  -1.123  -0.178  1.00  0.00     0.187 HD
ATOM      5  N   UNL d   1       0.128  -0.975  -0.184  0.00  0.00    -0.302 N 
ATOM      6  C   UNL d   1      -0.797   0.033  -0.178  0.00  0.00     0.058 A 
ATOM      7  C   UNL d   1      -2.239  -0.266  -0.324  0.00  0.00     0.072 C 
ATOM      8  H   UNL d   1      -0.043  -1.972  -0.254  0.00  0.00     0.186 HD
ENDROOT
BRANCH   1   9
ATOM      9  C   UNL d   1       2.525   1.609   0.068  0.00  0.00     0.028 A 
ATOM     10  C   UNL d   1       3.743   1.187  -0.499  0.00  0.00     0.081 A 
ATOM     11  C   UNL d   1       4.889   1.976  -0.421  0.00  0.00     0.074 A 
ATOM     12  C   UNL d   1       4.837   3.191   0.247  0.00  0.00     0.068 A 
ATOM     13  C   UNL d   1       3.654   3.631   0.832  0.00  0.00     0.037 A 
ATOM     14  C   UNL d   1       2.502   2.841   0.739  0.00  0.00     0.019 A 
BRANCH  10  15
ATOM     15  O   UNL d   1       3.872  -0.015  -1.147  0.00  0.00    -0.360 OA
ATOM     16  H   UNL d   1       3.049  -0.518  -0.954  0.00  0.00     0.217 HD
ENDBRANCH  10  15
BRANCH  12  17
ATOM     17  O   UNL d   1       5.981   3.930   0.322  0.00  0.00    -0.361 OA
ATOM     18  H   UNL d   1       5.802   4.729   0.843  0.00  0.00     0.217 HD
ENDBRANCH  12  17
ENDBRANCH   1   9
BRANCH   2  19
ATOM     19  O   UNL d   1      -0.484   2.472  -0.077  0.00  0.00    -0.306 OA
BRANCH  19  20
ATOM     20  C   UNL d   1      -1.659   2.911   0.473  0.00  0.00     0.076 A 
ATOM     21  C   UNL d   1      -2.223   2.385   1.637  0.00  0.00     0.037 A 
ATOM     22  C   UNL d   1      -3.415   2.918   2.132  0.00  0.00     0.003 A 
ATOM     23  C   UNL d   1      -4.020   3.998   1.488  0.00  0.00     0.000 A 
ATOM     24  C   UNL d   1      -3.435   4.551   0.350  0.00  0.00     0.003 A 
ATOM     25  C   UNL d   1      -2.254   4.009  -0.154  0.00  0.00     0.037 A 
ENDBRANCH  19  20
ENDBRANCH   2  19
TORSDOF 5
