REMARK  2 active torsions:
REMARK  status: ('A' for Active; 'I' for Inactive)
REMARK    1  A    between atoms: C_8  and  N_1 
REMARK    2  A    between atoms: C_9  and  C_8 
ROOT
ATOM      1  N   UNL d   1       0.019  -6.213  -1.358  0.00  0.00    -0.197 NA
ATOM      2  C   UNL d   1       0.046  -5.054  -1.368  0.00  0.00     0.060 C 
ATOM      3  C   UNL d   1       0.072  -3.587  -1.395  0.00  0.00     0.144 C 
ENDROOT
BRANCH   3   4
ATOM      4  C   UNL d   1       0.133  -3.015   0.016  0.00  0.00     0.143 C 
BRANCH   4   5
ATOM      5  N   UNL d   1       0.093  -1.556   0.012  0.00  0.00    -0.344 N 
ATOM      6  C   UNL d   1       1.203  -0.730   0.005  0.00  0.00     0.046 A 
ATOM      7  C   UNL d   1       0.730   0.585   0.003  0.00  0.00     0.003 A 
ATOM      8  C   UNL d   1       2.581  -1.012  -0.000  0.00  0.00     0.030 A 
ATOM      9  C   UNL d   1       1.657   1.650  -0.001  0.00  0.00     0.014 A 
ATOM     10  C   UNL d   1      -0.697   0.534   0.004  0.00  0.00     0.003 A 
ATOM     11  C   UNL d   1       3.026   1.378  -0.003  0.00  0.00     0.001 A 
ATOM     12  C   UNL d   1       3.478   0.063  -0.003  0.00  0.00     0.002 A 
ATOM     13  C   UNL d   1      -1.073  -0.811   0.009  0.00  0.00     0.046 A 
ATOM     14  C   UNL d   1      -1.701   1.526  -0.001  0.00  0.00     0.014 A 
ATOM     15  C   UNL d   1      -2.425  -1.197   0.008  0.00  0.00     0.030 A 
ATOM     16  C   UNL d   1      -3.400  -0.195   0.003  0.00  0.00     0.002 A 
ATOM     17  C   UNL d   1      -3.046   1.150  -0.002  0.00  0.00     0.001 A 
ENDBRANCH   4   5
ENDBRANCH   3   4
TORSDOF 2
