REMARK  6 active torsions:
REMARK  status: ('A' for Active; 'I' for Inactive)
REMARK       I    between atoms: C_3  and  N_1 
REMARK    1  A    between atoms: C_4  and  N_2 
REMARK    2  A    between atoms: C_17  and  C_3 
REMARK    3  A    between atoms: C_5  and  C_21 
REMARK    4  A    between atoms: O_16  and  C_5 
REMARK    5  A    between atoms: S_14  and  C_17 
REMARK    6  A    between atoms: C_21  and  S_14 
ROOT
ATOM      1  N   UNL d   1      -1.437   0.022   0.258  0.00  0.00    -0.348 N 
ATOM      2  N   UNL d   1       1.371  -0.096  -0.256  0.00  0.00    -0.378 N 
ATOM      3  C   UNL d   1      -2.587   0.150   1.011  0.00  0.00     0.229 C 
ATOM      4  C   UNL d   1      -0.814  -1.242  -0.177  0.00  0.00     0.145 C 
ATOM      5  C   UNL d   1      -0.707   1.225  -0.174  0.00  0.00     0.145 C 
ATOM      6  C   UNL d   1       0.676  -1.306   0.213  0.00  0.00     0.143 C 
ATOM      7  C   UNL d   1       0.786   1.170   0.219  0.00  0.00     0.143 C 
ATOM      8  O   UNL d   1      -3.003   1.248   1.407  0.00  0.00    -0.273 OA
ENDROOT
BRANCH   3   9
ATOM      9  C   UNL d   1      -3.344  -1.099   1.439  0.00  0.00     0.177 C 
BRANCH   9  10
ATOM     10  S   UNL d   1      -2.739  -1.675   3.061  0.00  0.00    -0.149 SA
BRANCH  10  11
ATOM     11  C   UNL d   1      -3.085  -0.215   4.104  0.00  0.00     0.184 C 
BRANCH  11  12
ATOM     12  C   UNL d   1      -4.551   0.146   4.137  0.00  0.00     0.149 C 
ATOM     13  O   UNL d   1      -5.364  -0.366   4.895  0.00  0.00    -0.649 OA
BRANCH  12  14
ATOM     14  O   UNL d   1      -4.914   1.087   3.231  0.00  0.00    -0.776 OA
ATOM     15  H   UNL d   1      -4.187   1.398   2.635  0.00  0.00     0.167 HD
ENDBRANCH  12  14
ENDBRANCH  11  12
ENDBRANCH  10  11
ENDBRANCH   9  10
ENDBRANCH   3   9
BRANCH   2  16
ATOM     16  C   UNL d   1       2.555  -0.151  -0.962  0.00  0.00     0.030 A 
ATOM     17  C   UNL d   1       3.561   0.816  -0.809  0.00  0.00     0.032 A 
ATOM     18  C   UNL d   1       4.747   0.774  -1.552  0.00  0.00     0.044 A 
ATOM     19  C   UNL d   1       4.941  -0.247  -2.470  0.00  0.00     0.116 A 
ATOM     20  C   UNL d   1       3.977  -1.223  -2.650  0.00  0.00     0.044 A 
ATOM     21  F   UNL d   1       6.069  -0.287  -3.190  0.00  0.00    -0.206 F 
ATOM     22  C   UNL d   1       2.796  -1.172  -1.901  0.00  0.00     0.032 A 
ENDBRANCH   2  16
TORSDOF 6
