REMARK  2 active torsions:
REMARK  status: ('A' for Active; 'I' for Inactive)
REMARK    1  A    between atoms: C_11  and  N_6 
REMARK    2  A    between atoms: C_14  and  C_11 
ROOT
ATOM      1  N   UNL d   1       3.155  -1.168   0.379  0.00  0.00    -0.288 N 
ATOM      2  C   UNL d   1       3.459   0.069  -0.163  0.00  0.00     0.165 C 
ATOM      3  C   UNL d   1       1.955  -1.807   0.216  0.00  0.00     0.262 C 
ATOM      4  N   UNL d   1       2.567   0.815  -0.731  0.00  0.00    -0.331 N 
ATOM      5  HN  UNL d   1       2.818   1.686  -1.198  1.00  0.00     0.168 HD
ATOM      6  N   UNL d   1       4.803   0.338   0.026  0.00  0.00    -0.248 NA
ATOM      7  C   UNL d   1       0.876  -0.923  -0.260  0.00  0.00     0.059 A 
ATOM      8  C   UNL d   1       1.230   0.367  -0.673  0.00  0.00     0.050 A 
ATOM      9  C   UNL d   1       4.349  -1.791   0.897  0.00  0.00     0.150 C 
ATOM     10  C   UNL d   1       5.303  -0.610   1.040  0.00  0.00     0.119 C 
ATOM     11  O   UNL d   1       1.764  -2.994   0.447  0.00  0.00    -0.267 OA
ATOM     12  C   UNL d   1      -0.458  -1.335  -0.188  0.00  0.00     0.019 A 
ATOM     13  C   UNL d   1       0.202   1.263  -0.981  0.00  0.00     0.030 A 
ATOM     14  C   UNL d   1      -1.470  -0.424  -0.483  0.00  0.00     0.001 A 
ATOM     15  C   UNL d   1      -1.140   0.876  -0.868  0.00  0.00     0.002 A 
ENDROOT
BRANCH   6  16
ATOM     16  C   UNL d   1       5.642   0.506  -1.165  0.00  0.00     0.137 C 
BRANCH  16  17
ATOM     17  C   UNL d   1       6.980   1.135  -0.827  0.00  0.00    -0.045 A 
ATOM     18  C   UNL d   1       7.039   2.317  -0.078  0.00  0.00     0.008 A 
ATOM     19  C   UNL d   1       8.268   2.907   0.226  0.00  0.00     0.001 A 
ATOM     20  C   UNL d   1       9.450   2.328  -0.226  0.00  0.00     0.000 A 
ATOM     21  C   UNL d   1       9.407   1.157  -0.983  0.00  0.00     0.001 A 
ATOM     22  C   UNL d   1       8.179   0.563  -1.284  0.00  0.00     0.008 A 
ENDBRANCH  16  17
ENDBRANCH   6  16
TORSDOF 2
