REMARK  2 active torsions:
REMARK  status: ('A' for Active; 'I' for Inactive)
REMARK    1  A    between atoms: C_12  and  N_3 
REMARK    2  A    between atoms: N_7  and  C_14 
ROOT
ATOM      1  N   UNL d   1       7.013  -2.887  -0.874  0.00  0.00    -0.191 NA
ATOM      2  C   UNL d   1       7.127  -1.728  -0.884  0.00  0.00     0.102 C 
ATOM      3  C   UNL d   1       7.317  -0.308  -0.901  0.00  0.00     0.072 A 
ATOM      4  C   UNL d   1       6.220   0.567  -0.813  0.00  0.00     0.068 A 
ATOM      5  C   UNL d   1       8.626   0.196  -1.012  0.00  0.00     0.025 A 
ATOM      6  C   UNL d   1       6.476   1.951  -0.857  0.00  0.00     0.032 A 
ATOM      7  C   UNL d   1       8.853   1.572  -1.040  0.00  0.00     0.002 A 
ATOM      8  C   UNL d   1       7.777   2.449  -0.962  0.00  0.00     0.002 A 
ENDROOT
BRANCH   4   9
ATOM      9  N   UNL d   1       4.901   0.056  -0.755  0.00  0.00    -0.299 N 
ATOM     10  N   UNL d   1       4.151   0.757  -0.039  0.00  0.00    -0.300 N 
ATOM     11  HN  UNL d   1       4.471   1.569   0.490  1.00  0.00     0.187 HD
ATOM     12  HN  UNL d   1       4.596  -0.787  -1.240  1.00  0.00     0.187 HD
BRANCH  10  13
ATOM     13  C   UNL d   1       2.815   0.303  -0.044  0.00  0.00     0.048 A 
ATOM     14  C   UNL d   1       2.456  -1.043  -0.078  0.00  0.00     0.033 A 
ATOM     15  C   UNL d   1       1.107  -1.433  -0.079  0.00  0.00     0.032 A 
ATOM     16  C   UNL d   1       0.056  -0.503  -0.035  0.00  0.00     0.036 A 
ATOM     17  N   UNL d   1      -1.286  -0.874  -0.131  0.00  0.00    -0.385 N 
ATOM     18  C   UNL d   1       0.427   0.859   0.032  0.00  0.00    -0.029 A 
ATOM     19  C   UNL d   1      -2.301   0.126   0.218  0.00  0.00     0.123 C 
ATOM     20  C   UNL d   1      -1.719  -2.260   0.022  0.00  0.00     0.149 C 
ATOM     21  C   UNL d   1      -1.962   1.479  -0.378  0.00  0.00     0.024 C 
ATOM     22  C   UNL d   1      -0.619   1.940   0.158  0.00  0.00     0.042 C 
ATOM     23  C   UNL d   1       1.786   1.244   0.036  0.00  0.00     0.040 A 
ENDBRANCH  10  13
ENDBRANCH   4   9
TORSDOF 2
