REMARK  2 active torsions:
REMARK  status: ('A' for Active; 'I' for Inactive)
REMARK    1  A    between atoms: O_7  and  C_1 
REMARK    2  A    between atoms: C_10  and  O_7 
ROOT
ATOM      1  C   UNL d   1      -1.035  -1.537  -0.164  0.00  0.00     0.152 C 
ATOM      2  C   UNL d   1      -1.464  -0.414   0.433  0.00  0.00     0.122 C 
ATOM      3  C   UNL d   1       0.311  -1.545  -0.821  0.00  0.00     0.218 C 
ATOM      4  C   UNL d   1      -0.639   0.815   0.545  0.00  0.00     0.207 C 
ATOM      5  C   UNL d   1       1.198  -0.385  -0.616  0.00  0.00     0.031 A 
ATOM      6  C   UNL d   1       0.731   0.764   0.010  0.00  0.00     0.030 A 
ATOM      7  O   UNL d   1       0.694  -2.459  -1.541  0.00  0.00    -0.284 OA
ATOM      8  O   UNL d   1      -1.050   1.843   1.069  0.00  0.00    -0.286 OA
ATOM      9 CL   UNL d   1      -3.054  -0.322   1.124  0.00  0.00    -0.077 Cl
ATOM     10  C   UNL d   1       2.516  -0.431  -1.095  0.00  0.00     0.016 A 
ATOM     11  C   UNL d   1       1.566   1.885   0.129  0.00  0.00     0.016 A 
ATOM     12  C   UNL d   1       3.349   0.682  -0.967  0.00  0.00     0.001 A 
ATOM     13  C   UNL d   1       2.871   1.843  -0.364  0.00  0.00     0.001 A 
ENDROOT
BRANCH   1  14
ATOM     14  O   UNL d   1      -1.902  -2.627  -0.278  0.00  0.00    -0.305 OA
BRANCH  14  15
ATOM     15  C   UNL d   1      -1.446  -3.923  -0.235  0.00  0.00     0.077 A 
ATOM     16  C   UNL d   1      -2.189  -4.854  -0.968  0.00  0.00     0.049 A 
ATOM     17  C   UNL d   1      -1.814  -6.208  -1.004  0.00  0.00    -0.023 A 
ATOM     18  C   UNL d   1      -2.542  -7.157  -1.740  0.00  0.00     0.012 A 
ATOM     19  C   UNL d   1      -0.669  -6.623  -0.287  0.00  0.00    -0.026 A 
ATOM     20  C   UNL d   1      -2.135  -8.491  -1.786  0.00  0.00     0.001 A 
ATOM     21  C   UNL d   1      -0.991  -8.893  -1.102  0.00  0.00     0.001 A 
ATOM     22  C   UNL d   1      -0.264  -7.966  -0.355  0.00  0.00     0.012 A 
ATOM     23  C   UNL d   1       0.039  -5.685   0.481  0.00  0.00     0.015 A 
ATOM     24  C   UNL d   1      -0.361  -4.348   0.529  0.00  0.00     0.038 A 
ENDBRANCH  14  15
ENDBRANCH   1  14
TORSDOF 2
