REMARK  3 active torsions:
REMARK  status: ('A' for Active; 'I' for Inactive)
REMARK    1  A    between atoms: C_4  and  N_1 
REMARK    2  A    between atoms: C_14  and  N_5 
REMARK    3  A    between atoms: C_13  and  C_14 
ROOT
ATOM      1  N   UNL d   1      -1.500   0.269   0.161  0.00  0.00    -0.364 N 
ATOM      2  N   UNL d   1       1.420  -0.043  -0.223  0.00  0.00     0.095 N 
ATOM      3  C   UNL d   1      -0.913  -1.066  -0.018  0.00  0.00     0.154 C 
ATOM      4  C   UNL d   1      -0.692   1.428  -0.234  0.00  0.00     0.154 C 
ATOM      5  C   UNL d   1       0.576  -1.103   0.384  0.00  0.00     0.292 C 
ATOM      6  C   UNL d   1       0.803   1.257   0.146  0.00  0.00     0.292 C 
ENDROOT
BRANCH   2   7
ATOM      7  C   UNL d   1       1.527  -0.147  -1.690  0.00  0.00     0.311 C 
BRANCH   7   8
ATOM      8  C   UNL d   1       2.135  -1.434  -2.208  0.00  0.00    -0.029 A 
ATOM      9  C   UNL d   1       3.454  -1.798  -1.899  0.00  0.00     0.019 A 
ATOM     10  C   UNL d   1       4.028  -2.959  -2.444  0.00  0.00    -0.024 A 
ATOM     11  C   UNL d   1       5.459  -3.304  -2.152  0.00  0.00     0.044 C 
ATOM     12  C   UNL d   1       3.249  -3.787  -3.255  0.00  0.00     0.076 A 
ATOM     13  C   UNL d   1       5.973  -4.322  -3.163  0.00  0.00     0.042 C 
ATOM     14  C   UNL d   1       4.961  -5.460  -3.361  0.00  0.00     0.061 C 
ATOM     15  O   UNL d   1       3.687  -4.962  -3.805  0.00  0.00    -0.340 OA
ATOM     16  C   UNL d   1       5.452  -6.386  -4.484  0.00  0.00     0.046 C 
ATOM     17  C   UNL d   1       4.763  -6.303  -2.092  0.00  0.00     0.046 C 
ATOM     18  C   UNL d   1       1.944  -3.428  -3.580  0.00  0.00     0.038 A 
ATOM     19  C   UNL d   1       1.391  -2.256  -3.068  0.00  0.00     0.012 A 
ENDBRANCH   7   8
ENDBRANCH   2   7
BRANCH   1  20
ATOM     20  C   UNL d   1      -2.589   0.421   0.996  0.00  0.00     0.102 A 
ATOM     21  N   UNL d   1      -2.822  -0.502   1.952  0.00  0.00    -0.352 N 
ATOM     22  C   UNL d   1      -3.896  -0.347   2.760  0.00  0.00     0.089 A 
ATOM     23  HN  UNL d   1      -2.199  -1.302   2.064  1.00  0.00     0.166 HD
ATOM     24  C   UNL d   1      -4.796   0.697   2.660  0.00  0.00     0.017 A 
ATOM     25  C   UNL d   1      -4.577   1.637   1.668  0.00  0.00     0.005 A 
ATOM     26  C   UNL d   1      -3.467   1.498   0.835  0.00  0.00     0.048 A 
ENDBRANCH   1  20
TORSDOF 3
