REMARK  8 active torsions:
REMARK  status: ('A' for Active; 'I' for Inactive)
REMARK    1  A    between atoms: N_3  and  C_1 
REMARK    2  A    between atoms: N_8  and  C_1 
REMARK    3  A    between atoms: N_4  and  C_2 
REMARK    4  A    between atoms: C_9  and  N_3 
REMARK    5  A    between atoms: C_10  and  N_4 
REMARK    6  A    between atoms: N_7  and  C_23 
REMARK    7  A    between atoms: C_24  and  N_8 
REMARK    8  A    between atoms: C_23  and  C_24 
ROOT
ATOM      1  C   UNL d   1       4.741   0.686   0.711  0.00  0.00     0.141 C 
ENDROOT
BRANCH   1   2
ATOM      2  N   UNL d   1       5.694   1.712   1.125  0.00  0.00    -0.365 N 
ATOM      3  C   UNL d   1       6.809   2.128   0.458  0.00  0.00     0.172 C 
ATOM      4  S   UNL d   1       7.097   1.925  -1.174  0.00  0.00    -0.041 SA
ATOM      5  H   UNL d   1       5.612   2.008   2.092  0.00  0.00     0.161 HD
BRANCH   3   6
ATOM      6  N   UNL d   1       7.705   2.865   1.182  0.00  0.00    -0.333 N 
ATOM      7  H   UNL d   1       8.328   3.424   0.608  0.00  0.00     0.168 HD
BRANCH   6   8
ATOM      8  C   UNL d   1       8.106   2.716   2.527  0.00  0.00     0.034 A 
ATOM      9  C   UNL d   1       7.804   1.591   3.302  0.00  0.00     0.031 A 
ATOM     10  C   UNL d   1       8.320   1.461   4.595  0.00  0.00     0.026 A 
ATOM     11  C   UNL d   1       9.144   2.455   5.115  0.00  0.00     0.034 A 
ATOM     12  C   UNL d   1       9.452   3.581   4.354  0.00  0.00     0.026 A 
ATOM     13 CL   UNL d   1       9.816   2.272   6.688  0.00  0.00    -0.084 Cl
ATOM     14  C   UNL d   1       8.940   3.706   3.061  0.00  0.00     0.031 A 
ENDBRANCH   6   8
ENDBRANCH   3   6
ENDBRANCH   1   2
BRANCH   1  15
ATOM     15  C   UNL d   1       3.292   1.101   0.966  0.00  0.00     0.141 C 
BRANCH  15  16
ATOM     16  N   UNL d   1       3.061   1.468   2.361  0.00  0.00    -0.365 N 
ATOM     17  H   UNL d   1       2.787   0.723   2.994  0.00  0.00     0.161 HD
BRANCH  16  18
ATOM     18  C   UNL d   1       2.897   2.719   2.888  0.00  0.00     0.172 C 
ATOM     19  S   UNL d   1       2.355   2.805   4.466  0.00  0.00    -0.041 SA
BRANCH  18  20
ATOM     20  N   UNL d   1       3.257   3.759   2.071  0.00  0.00    -0.333 N 
ATOM     21  H   UNL d   1       4.055   3.570   1.474  0.00  0.00     0.168 HD
BRANCH  20  22
ATOM     22  C   UNL d   1       2.833   5.103   2.119  0.00  0.00     0.034 A 
ATOM     23  C   UNL d   1       3.713   6.088   1.653  0.00  0.00     0.031 A 
ATOM     24  C   UNL d   1       3.312   7.428   1.604  0.00  0.00     0.026 A 
ATOM     25  C   UNL d   1       2.019   7.779   1.984  0.00  0.00     0.034 A 
ATOM     26  C   UNL d   1       1.133   6.807   2.439  0.00  0.00     0.026 A 
ATOM     27 CL   UNL d   1       1.506   9.417   1.863  0.00  0.00    -0.084 Cl
ATOM     28  C   UNL d   1       1.543   5.473   2.512  0.00  0.00     0.031 A 
ENDBRANCH  20  22
ENDBRANCH  18  20
ENDBRANCH  16  18
ENDBRANCH  15  16
ENDBRANCH   1  15
TORSDOF 8
