REMARK  6 active torsions:
REMARK  status: ('A' for Active; 'I' for Inactive)
REMARK    1  A    between atoms: C_6  and  C_1 
REMARK    2  A    between atoms: C_2  and  O_7 
REMARK    3  A    between atoms: C_3  and  C_2 
REMARK    4  A    between atoms: C_4  and  C_14 
REMARK    5  A    between atoms: C_19  and  C_5 
REMARK    6  A    between atoms: O_7  and  C_13 
ROOT
ATOM      1  C   UNL d   1      -1.561  -1.993  -2.778  0.00  0.00     0.056 A 
ATOM      2  N   UNL d   1      -0.330  -3.932  -1.986  0.00  0.00    -0.373 N 
ATOM      3  HN  UNL d   1       0.157  -4.808  -2.176  1.00  0.00     0.164 HD
ATOM      4  C   UNL d   1      -1.736  -1.556  -1.460  0.00  0.00     0.041 A 
ATOM      5  C   UNL d   1      -1.160  -2.287  -0.418  0.00  0.00     0.034 A 
ATOM      6  C   UNL d   1      -0.861  -3.180  -2.982  0.00  0.00     0.105 A 
ATOM      7  C   UNL d   1      -0.479  -3.458  -0.729  0.00  0.00     0.108 A 
ENDROOT
BRANCH   1   8
ATOM      8  C   UNL d   1      -1.980  -1.231  -3.978  0.00  0.00     0.300 C 
ATOM      9  O   UNL d   1      -1.812  -1.655  -5.110  0.00  0.00    -0.259 OA
BRANCH   8  10
ATOM     10  O   UNL d   1      -2.489   0.010  -3.613  0.00  0.00    -0.275 OA
BRANCH  10  11
ATOM     11  C   UNL d   1      -2.691   1.109  -4.491  0.00  0.00     0.080 A 
ATOM     12  C   UNL d   1      -2.430   1.092  -5.862  0.00  0.00     0.053 A 
ATOM     13  C   UNL d   1      -2.521   2.278  -6.611  0.00  0.00     0.050 A 
ATOM     14  C   UNL d   1      -2.929   3.461  -5.974  0.00  0.00     0.016 A 
ATOM     15  C   UNL d   1      -3.224   3.466  -4.611  0.00  0.00     0.004 A 
ATOM     16  C   UNL d   1      -3.096   2.292  -3.867  0.00  0.00     0.037 A 
BRANCH  13  17
ATOM     17  C   UNL d   1      -2.126   2.311  -8.068  0.00  0.00     0.417 C 
ATOM     18  F   UNL d   1      -1.756   1.101  -8.570  0.00  0.00    -0.166 F 
ATOM     19  F   UNL d   1      -1.068   3.143  -8.292  0.00  0.00    -0.166 F 
ATOM     20  F   UNL d   1      -3.127   2.762  -8.875  0.00  0.00    -0.166 F 
ENDBRANCH  13  17
ENDBRANCH  10  11
ENDBRANCH   8  10
ENDBRANCH   1   8
BRANCH   5  21
ATOM     21  C   UNL d   1      -1.161  -1.796   0.925  0.00  0.00    -0.060 C 
ATOM     22  C   UNL d   1      -1.040  -1.376   2.042  0.00  0.00    -0.061 C 
BRANCH  22  23
ATOM     23  C   UNL d   1      -0.801  -0.870   3.360  0.00  0.00     0.018 A 
ATOM     24  C   UNL d   1       0.457  -1.032   3.948  0.00  0.00     0.020 A 
ATOM     25  C   UNL d   1       0.703  -0.531   5.229  0.00  0.00     0.001 A 
ATOM     26  C   UNL d   1      -0.309   0.130   5.923  0.00  0.00     0.000 A 
ATOM     27  C   UNL d   1      -1.566   0.293   5.338  0.00  0.00     0.001 A 
ATOM     28  C   UNL d   1      -1.812  -0.205   4.057  0.00  0.00     0.020 A 
ENDBRANCH  22  23
ENDBRANCH   5  21
TORSDOF 6
