REMARK  3 active torsions:
REMARK  status: ('A' for Active; 'I' for Inactive)
REMARK    1  A    between atoms: C_7  and  N_1 
REMARK       I    between atoms: N_2  and  C_4 
REMARK    2  A    between atoms: C_3  and  N_2 
REMARK    3  A    between atoms: C_4  and  C_9 
ROOT
ATOM      1  N   UNL d   1      -0.768   2.225   5.464  0.00  0.00    -0.303 N 
ATOM      2  C   UNL d   1       0.099   2.061   4.404  0.00  0.00     0.257 C 
ATOM      3  O   UNL d   1       1.165   2.646   4.254  0.00  0.00    -0.267 OA
ATOM      4  H   UNL d   1      -1.654   1.757   5.521  0.00  0.00     0.171 HD
ENDROOT
BRANCH   2   5
ATOM      5  C   UNL d   1      -0.312   1.085   3.335  0.00  0.00     0.034 A 
ATOM      6  C   UNL d   1       0.561   0.913   2.245  0.00  0.00     0.053 A 
ATOM      7  C   UNL d   1       0.238   0.018   1.216  0.00  0.00     0.103 A 
ATOM      8  C   UNL d   1      -0.940  -0.735   1.270  0.00  0.00     0.036 A 
ATOM      9  C   UNL d   1      -1.810  -0.566   2.347  0.00  0.00     0.003 A 
ATOM     10  C   UNL d   1      -1.505   0.343   3.368  0.00  0.00     0.017 A 
BRANCH   7  11
ATOM     11  N   UNL d   1       1.129  -0.116   0.056  0.00  0.00    -0.116 N 
ATOM     12  O   UNL d   1       2.130   0.611   0.008  0.00  0.00    -0.532 OA
ATOM     13  O   UNL d   1       0.817  -0.942  -0.814  0.00  0.00    -0.532 OA
ENDBRANCH   7  11
ENDBRANCH   2   5
BRANCH   1  14
ATOM     14  C   UNL d   1      -0.483   3.042   6.522  0.00  0.00     0.151 A 
ATOM     15  N   UNL d   1       0.592   3.737   6.789  0.00  0.00    -0.346 N 
ATOM     16  C   UNL d   1       0.429   4.393   7.993  0.00  0.00     0.097 A 
ATOM     17  HN  UNL d   1       1.422   3.786   6.198  1.00  0.00     0.167 HD
ATOM     18  C   UNL d   1      -0.783   4.195   8.618  0.00  0.00     0.070 A 
ATOM     19  S   UNL d   1      -1.748   3.137   7.672  0.00  0.00    -0.064 SA
ENDBRANCH   1  14
TORSDOF 3
