REMARK  6 active torsions:
REMARK  status: ('A' for Active; 'I' for Inactive)
REMARK    1  A    between atoms: N_10  and  C_1 
REMARK    2  A    between atoms: S_11  and  C_1 
REMARK    3  A    between atoms: C_2  and  C_12 
REMARK    4  A    between atoms: C_14  and  N_8 
REMARK    5  A    between atoms: C_12  and  S_11 
REMARK    6  A    between atoms: C_18  and  C_13 
ROOT
ATOM      1  C   UNL d   1       1.001   0.297   0.455  0.00  0.00     0.143 C 
ATOM      2  N   UNL d   1       0.309   1.286  -0.024  0.00  0.00    -0.337 N 
ATOM      3  HN  UNL d   1      -0.693   1.330   0.164  1.00  0.00     0.168 HD
ENDROOT
BRANCH   1   4
ATOM      4  N   UNL d   1       2.377   0.148   0.453  0.00  0.00    -0.358 N 
ATOM      5  C   UNL d   1       3.227   1.082   1.211  0.00  0.00     0.151 C 
ATOM      6  C   UNL d   1       4.568   1.275   0.483  0.00  0.00     0.187 C 
ATOM      7  O   UNL d   1       5.218   0.017   0.225  0.00  0.00    -0.388 OA
ATOM      8  C   UNL d   1       4.368  -0.836  -0.559  0.00  0.00     0.187 C 
ATOM      9  C   UNL d   1       3.045  -1.124   0.166  0.00  0.00     0.151 C 
ENDBRANCH   1   4
BRANCH   1  10
ATOM     10  S   UNL d   1       0.091  -1.056   1.157  0.00  0.00    -0.089 SA
BRANCH  10  11
ATOM     11  C   UNL d   1      -1.605  -0.394   1.175  0.00  0.00     0.122 C 
BRANCH  11  12
ATOM     12  C   UNL d   1      -2.734  -1.357   1.569  0.00  0.00    -0.035 C 
ATOM     13  C   UNL d   1      -2.619  -2.283   2.639  0.00  0.00    -0.048 C 
ATOM     14  C   UNL d   1      -3.578  -3.323   2.794  0.00  0.00    -0.049 C 
ATOM     15  C   UNL d   1      -1.504  -2.173   3.655  0.00  0.00     0.049 C 
ATOM     16  C   UNL d   1      -3.331  -4.456   3.767  0.00  0.00     0.049 C 
ATOM     17  C   UNL d   1      -4.790  -3.293   2.055  0.00  0.00    -0.049 C 
ATOM     18  C   UNL d   1      -5.028  -2.224   1.162  0.00  0.00    -0.049 C 
ATOM     19  C   UNL d   1      -5.795  -4.399   2.295  0.00  0.00     0.049 C 
ATOM     20  C   UNL d   1      -3.991  -1.276   0.896  0.00  0.00    -0.048 C 
ATOM     21  C   UNL d   1      -6.357  -2.055   0.453  0.00  0.00     0.049 C 
ATOM     22  C   UNL d   1      -4.275  -0.183  -0.122  0.00  0.00     0.049 C 
ENDBRANCH  11  12
ENDBRANCH  10  11
ENDBRANCH   1  10
BRANCH   2  23
ATOM     23  C   UNL d   1       0.909   2.298  -0.795  0.00  0.00     0.034 A 
ATOM     24  C   UNL d   1       1.821   2.018  -1.819  0.00  0.00     0.030 A 
ATOM     25  C   UNL d   1       2.368   3.032  -2.605  0.00  0.00     0.010 A 
ATOM     26  C   UNL d   1       1.959   4.359  -2.439  0.00  0.00    -0.055 A 
ATOM     27  C   UNL d   1       1.017   4.643  -1.439  0.00  0.00     0.010 A 
ATOM     28  C   UNL d   1       0.502   3.622  -0.626  0.00  0.00     0.030 A 
BRANCH  26  29
ATOM     29  C   UNL d   1       2.494   5.461  -3.336  0.00  0.00     0.010 C 
ATOM     30  C   UNL d   1       3.966   5.754  -3.039  0.00  0.00     0.015 C 
ATOM     31  C   UNL d   1       2.302   5.125  -4.820  0.00  0.00     0.015 C 
ENDBRANCH  26  29
ENDBRANCH   2  23
TORSDOF 6
