REMARK  4 active torsions:
REMARK  status: ('A' for Active; 'I' for Inactive)
REMARK    1  A    between atoms: C_8  and  N_4 
REMARK    2  A    between atoms: C_10  and  C_8 
REMARK    3  A    between atoms: C_11  and  C_8 
REMARK    4  A    between atoms: O_9  and  C_10 
ROOT
ATOM      1  C   UNL d   1      -3.389  -0.941  -0.616  0.00  0.00     0.170 C 
ATOM      2  N   UNL d   1      -2.583   0.129  -0.424  0.00  0.00    -0.342 N 
ATOM      3  N   UNL d   1      -2.813  -2.154  -0.464  0.00  0.00    -0.342 N 
ATOM      4  N   UNL d   1      -0.782  -1.233   0.300  0.00  0.00     0.129 N 
ATOM      5  C   UNL d   1      -1.159   0.031  -0.300  0.00  0.00     0.399 C 
ATOM      6  C   UNL d   1      -1.395  -2.320  -0.428  0.00  0.00     0.399 C 
ATOM      7  S   UNL d   1      -5.008  -0.775  -0.931  0.00  0.00    -0.041 SA
ATOM      8  H   UNL d   1      -2.998   1.037  -0.588  0.00  0.00     0.163 HD
ATOM      9  H   UNL d   1      -3.393  -2.957  -0.674  0.00  0.00     0.163 HD
ENDROOT
BRANCH   4  10
ATOM     10  C   UNL d   1      -0.845  -1.274   1.777  0.00  0.00     0.250 C 
BRANCH  10  11
ATOM     11  C   UNL d   1      -2.248  -1.146   2.426  0.00  0.00     0.200 C 
BRANCH  11  12
ATOM     12  O   UNL d   1      -2.142  -1.052   3.848  0.00  0.00    -0.399 OA
ATOM     13  H   UNL d   1      -3.052  -0.976   4.185  0.00  0.00     0.209 HD
ENDBRANCH  11  12
ENDBRANCH  10  11
BRANCH  10  14
ATOM     14  C   UNL d   1      -0.118  -2.520   2.355  0.00  0.00     0.033 C 
ATOM     15  C   UNL d   1       1.344  -2.626   1.939  0.00  0.00     0.007 C 
ENDBRANCH  10  14
ENDBRANCH   4  10
TORSDOF 4
