REMARK  2 active torsions:
REMARK  status: ('A' for Active; 'I' for Inactive)
REMARK    1  A    between atoms: C_5  and  C_9 
REMARK    2  A    between atoms: C_10  and  N_7 
ROOT
ATOM      1  C   UNL d   1      -2.156  -0.920  -0.734  0.00  0.00     0.146 C 
ATOM      2  N   UNL d   1      -0.903  -0.381  -0.876  0.00  0.00    -0.356 N 
ATOM      3  S   UNL d   1      -3.020  -0.079   0.551  0.00  0.00    -0.057 SA
ATOM      4  C   UNL d   1      -1.538   0.616   1.169  0.00  0.00     0.005 C 
ATOM      5  C   UNL d   1      -0.319   0.235   0.322  0.00  0.00     0.065 C 
ATOM      6  N   UNL d   1      -2.744  -1.912  -1.304  0.00  0.00    -0.337 N 
ATOM      7  HN  UNL d   1      -3.716  -2.108  -1.065  1.00  0.00     0.168 HD
ATOM      8  C   UNL d   1      -1.552   1.362   2.282  0.00  0.00     0.029 C 
ATOM      9  C   UNL d   1       0.535  -0.822   1.060  0.00  0.00     0.036 C 
ATOM     10  C   UNL d   1       0.526   1.458  -0.083  0.00  0.00     0.036 C 
ATOM     11  C   UNL d   1       1.830  -1.168   0.322  0.00  0.00     0.003 C 
ATOM     12  C   UNL d   1       1.828   1.086  -0.796  0.00  0.00     0.003 C 
ATOM     13  C   UNL d   1       2.644   0.078   0.005  0.00  0.00     0.000 C 
ATOM     14  H   UNL d   1      -0.276  -0.815  -1.535  0.00  0.00     0.162 HD
ENDROOT
BRANCH   6  15
ATOM     15  C   UNL d   1      -2.102  -2.732  -2.240  0.00  0.00     0.034 A 
ATOM     16  C   UNL d   1      -0.833  -3.279  -2.023  0.00  0.00     0.045 A 
ATOM     17  C   UNL d   1      -0.226  -4.124  -2.966  0.00  0.00     0.050 A 
ATOM     18  C   UNL d   1      -0.955  -4.498  -4.103  0.00  0.00     0.016 A 
ATOM     19  C   UNL d   1      -2.247  -4.012  -4.300  0.00  0.00     0.003 A 
ATOM     20  C   UNL d   1      -2.809  -3.126  -3.377  0.00  0.00     0.029 A 
BRANCH  17  21
ATOM     21  C   UNL d   1       1.178  -4.629  -2.757  0.00  0.00     0.417 C 
ATOM     22  F   UNL d   1       1.817  -4.032  -1.710  0.00  0.00    -0.166 F 
ATOM     23  F   UNL d   1       1.229  -5.965  -2.513  0.00  0.00    -0.166 F 
ATOM     24  F   UNL d   1       1.975  -4.413  -3.841  0.00  0.00    -0.166 F 
ENDBRANCH  17  21
ENDBRANCH   6  15
TORSDOF 2
