REMARK  3 active torsions:
REMARK  status: ('A' for Active; 'I' for Inactive)
REMARK    1  A    between atoms: N_5  and  C_1 
REMARK       I    between atoms: C_4  and  N_5 
REMARK       I    between atoms: N_9  and  C_4 
REMARK    2  A    between atoms: C_6  and  N_9 
REMARK    3  A    between atoms: O_20  and  C_10 
ROOT
ATOM      1  C   UNL d   1      -2.588   2.363   0.055  0.00  0.00     0.691 C 
ATOM      2  N   UNL d   1      -2.925   3.673   0.026  0.00  0.00    -0.022 N 
ATOM      3  N   UNL d   1      -3.592   1.438   0.175  0.00  0.00    -0.191 N 
ATOM      4  N   UNL d   1      -1.326   2.046   0.004  0.00  0.00    -0.234 N 
ATOM      5  HN  UNL d   1      -0.965   1.093   0.041  1.00  0.00     0.174 HD
ATOM      6  H   UNL d   1      -2.192   4.362   0.078  0.00  0.00     0.203 HD
ATOM      7  H   UNL d   1      -4.482   1.732  -0.205  0.00  0.00     0.184 HD
ATOM      8  H   UNL d   1      -0.749   2.882  -0.077  0.00  0.00     0.174 HD
ENDROOT
BRANCH   2   9
ATOM      9  C   UNL d   1      -4.141   4.329  -0.058  0.00  0.00     0.699 A 
ATOM     10  N   UNL d   1      -5.300   3.679  -0.244  0.00  0.00    -0.170 N 
ATOM     11  C   UNL d   1      -6.380   4.470  -0.335  0.00  0.00     0.157 A 
ATOM     12  HN  UNL d   1      -5.355   2.663  -0.310  1.00  0.00     0.186 HD
ATOM     13  C   UNL d   1      -6.390   5.837  -0.260  0.00  0.00     0.081 A 
ATOM     14  C   UNL d   1      -5.158   6.413  -0.084  0.00  0.00     0.026 A 
ATOM     15  N   UNL d   1      -4.037   5.670   0.017  0.00  0.00    -0.195 N 
ATOM     16  C   UNL d   1      -4.990   7.898   0.010  0.00  0.00     0.069 C 
ATOM     17  HN  UNL d   1      -3.129   6.115   0.149  1.00  0.00     0.184 HD
BRANCH  11  18
ATOM     18  O   UNL d   1      -7.551   3.808  -0.533  0.00  0.00    -0.346 OA
ATOM     19  H   UNL d   1      -7.252   2.882  -0.548  0.00  0.00     0.219 HD
ENDBRANCH  11  18
ENDBRANCH   2   9
BRANCH   3  20
ATOM     20  C   UNL d   1      -3.372   0.040   0.231  0.00  0.00     0.061 A 
ATOM     21  C   UNL d   1      -2.579  -0.521   1.264  0.00  0.00    -0.034 A 
ATOM     22  C   UNL d   1      -2.182  -1.868   1.203  0.00  0.00     0.015 A 
ATOM     23  C   UNL d   1      -2.101   0.284   2.447  0.00  0.00     0.050 C 
ATOM     24  C   UNL d   1      -2.592  -2.696   0.160  0.00  0.00    -0.061 A 
ATOM     25  C   UNL d   1      -3.424  -2.163  -0.827  0.00  0.00     0.015 A 
ATOM     26  C   UNL d   1      -2.073  -4.099   0.059  0.00  0.00     0.048 C 
ATOM     27  C   UNL d   1      -3.830  -0.811  -0.801  0.00  0.00    -0.034 A 
ATOM     28  C   UNL d   1      -4.684  -0.345  -1.950  0.00  0.00     0.050 C 
ENDBRANCH   3  20
TORSDOF 3
