REMARK  5 active torsions:
REMARK  status: ('A' for Active; 'I' for Inactive)
REMARK    1  A    between atoms: O_2  and  S_1 
REMARK    2  A    between atoms: C_6  and  S_1 
REMARK    3  A    between atoms: C_3  and  O_2 
REMARK    4  A    between atoms: N_4  and  C_5 
REMARK       I    between atoms: C_9  and  N_10 
REMARK    5  A    between atoms: N_10  and  C_14 
ROOT
ATOM      1  S   UNL d   1      -0.670   2.180  -0.543  0.00  0.00     0.303 S 
ATOM      2  O   UNL d   1      -0.268   3.516  -0.942  0.00  0.00    -0.193 OA
ATOM      3  O   UNL d   1      -1.974   1.938   0.048  0.00  0.00    -0.193 OA
ENDROOT
BRANCH   1   4
ATOM      4  O   UNL d   1       0.492   1.542   0.410  0.00  0.00    -0.227 OA
BRANCH   4   5
ATOM      5  C   UNL d   1       0.815   2.107   1.629  0.00  0.00     0.116 A 
ATOM      6  C   UNL d   1       2.139   1.964   2.114  0.00  0.00     0.065 A 
ATOM      7  C   UNL d   1       2.421   2.580   3.354  0.00  0.00     0.032 A 
ATOM      8  C   UNL d   1       1.469   3.295   4.083  0.00  0.00     0.002 A 
ATOM      9  C   UNL d   1       0.177   3.398   3.600  0.00  0.00     0.003 A 
ATOM     10  C   UNL d   1      -0.148   2.798   2.387  0.00  0.00     0.040 A 
BRANCH   6  11
ATOM     11  N   UNL d   1       3.156   1.238   1.499  0.00  0.00    -0.379 N 
ATOM     12  C   UNL d   1       2.899   0.122   0.591  0.00  0.00     0.123 C 
ATOM     13  C   UNL d   1       3.941  -0.975   0.834  0.00  0.00     0.020 C 
ATOM     14  C   UNL d   1       5.370  -0.441   0.766  0.00  0.00     0.003 C 
ATOM     15  C   UNL d   1       5.544   0.764   1.688  0.00  0.00     0.020 C 
ATOM     16  C   UNL d   1       4.496   1.835   1.386  0.00  0.00     0.123 C 
ENDBRANCH   6  11
ENDBRANCH   4   5
ENDBRANCH   1   4
BRANCH   1  17
ATOM     17  C   UNL d   1      -0.646   1.164  -2.007  0.00  0.00     0.086 A 
ATOM     18  C   UNL d   1      -0.953  -0.195  -1.901  0.00  0.00     0.028 A 
ATOM     19  C   UNL d   1      -1.084  -0.963  -3.064  0.00  0.00     0.031 A 
ATOM     20  C   UNL d   1      -0.917  -0.382  -4.331  0.00  0.00     0.034 A 
ATOM     21  C   UNL d   1      -0.587   0.974  -4.412  0.00  0.00     0.031 A 
ATOM     22  C   UNL d   1      -0.452   1.750  -3.257  0.00  0.00     0.028 A 
BRANCH  20  23
ATOM     23  N   UNL d   1      -1.125  -1.204  -5.460  0.00  0.00    -0.328 N 
ATOM     24  C   UNL d   1      -1.061  -0.828  -6.790  0.00  0.00     0.218 C 
ATOM     25  O   UNL d   1      -0.781   0.284  -7.226  0.00  0.00    -0.274 OA
ATOM     26  C   UNL d   1      -1.383  -1.949  -7.747  0.00  0.00     0.117 C 
ATOM     27  H   UNL d   1      -1.380  -2.164  -5.266  0.00  0.00     0.169 HD
ENDBRANCH  20  23
ENDBRANCH   1  17
TORSDOF 5
