REMARK  3 active torsions:
REMARK  status: ('A' for Active; 'I' for Inactive)
REMARK    1  A    between atoms: N_2  and  S_1 
REMARK    2  A    between atoms: C_6  and  S_1 
REMARK    3  A    between atoms: C_5  and  N_4 
ROOT
ATOM      1  C   UNL d   1       0.130   1.377  -0.646  0.00  0.00     0.076 A 
ATOM      2  N   UNL d   1       1.439   5.777  -2.190  0.00  0.00    -0.191 NA
ATOM      3  C   UNL d   1       0.861   4.822  -1.869  0.00  0.00     0.099 C 
ATOM      4  C   UNL d   1       0.844   2.524  -1.007  0.00  0.00     0.047 A 
ATOM      5  C   UNL d   1       0.147   3.646  -1.469  0.00  0.00     0.046 A 
ATOM      6  C   UNL d   1      -1.266   1.341  -0.736  0.00  0.00     0.025 A 
ATOM      7  C   UNL d   1      -1.956   2.462  -1.194  0.00  0.00     0.003 A 
ATOM      8  C   UNL d   1      -1.251   3.610  -1.565  0.00  0.00     0.023 A 
ENDROOT
BRANCH   1   9
ATOM      9  S   UNL d   1       0.994  -0.114  -0.212  0.00  0.00     0.243 S 
ATOM     10  O   UNL d   1       0.395  -1.173  -0.999  0.00  0.00    -0.206 OA
ATOM     11  O   UNL d   1       2.412   0.162  -0.279  0.00  0.00    -0.206 OA
BRANCH   9  12
ATOM     12  N   UNL d   1       0.554  -0.327   1.418  0.00  0.00    -0.203 NA
ATOM     13  C   UNL d   1       1.448   0.317   2.439  0.00  0.00     0.127 C 
ATOM     14  C   UNL d   1       2.747  -0.497   2.697  0.00  0.00     0.138 C 
ATOM     15  N   UNL d   1       2.446  -1.928   2.934  0.00  0.00    -0.378 N 
ATOM     16  C   UNL d   1       1.553  -2.555   1.946  0.00  0.00     0.138 C 
ATOM     17  C   UNL d   1       0.259  -1.740   1.816  0.00  0.00     0.127 C 
BRANCH  15  18
ATOM     18  C   UNL d   1       3.223  -2.682   3.817  0.00  0.00     0.044 A 
ATOM     19  C   UNL d   1       3.743  -3.991   3.551  0.00  0.00     0.017 A 
ATOM     20  C   UNL d   1       4.316  -4.707   4.636  0.00  0.00     0.046 A 
ATOM     21  C   UNL d   1       3.760  -4.633   2.284  0.00  0.00     0.018 A 
ATOM     22  C   UNL d   1       4.746  -6.014   4.456  0.00  0.00     0.054 A 
ATOM     23  N   UNL d   1       4.470  -4.191   5.860  0.00  0.00    -0.365 N 
ATOM     24  C   UNL d   1       4.664  -6.643   3.220  0.00  0.00     0.036 A 
ATOM     25  C   UNL d   1       4.190  -5.950   2.121  0.00  0.00     0.025 A 
ATOM     26 CL   UNL d   1       5.171  -8.277   3.046  0.00  0.00    -0.084 Cl
ATOM     27  C   UNL d   1       4.049  -2.934   6.067  0.00  0.00     0.090 A 
ATOM     28  HN  UNL d   1       4.894  -4.735   6.611  1.00  0.00     0.165 HD
ATOM     29  C   UNL d   1       3.426  -2.165   5.105  0.00  0.00     0.047 A 
ENDBRANCH  15  18
ENDBRANCH   9  12
ENDBRANCH   1   9
TORSDOF 3
