REMARK  5 active torsions:
REMARK  status: ('A' for Active; 'I' for Inactive)
REMARK    1  A    between atoms: C_2  and  C_1 
REMARK    2  A    between atoms: C_8  and  C_2 
REMARK    3  A    between atoms: C_5  and  C_3 
REMARK    4  A    between atoms: C_4  and  C_9 
REMARK    5  A    between atoms: C_19  and  C_7 
ROOT
ATOM      1  C   UNL d   1       0.937  -1.912  -0.788  0.00  0.00     0.097 C 
ATOM      2  C   UNL d   1       0.196  -1.099  -0.009  0.00  0.00     0.045 C 
ATOM      3  C   UNL d   1       0.358  -2.724  -1.799  0.00  0.00     0.103 C 
ATOM      4  N   UNL d   1      -0.111  -3.397  -2.619  0.00  0.00    -0.191 NA
ENDROOT
BRANCH   1   5
ATOM      5  C   UNL d   1       2.430  -1.934  -0.588  0.00  0.00     0.209 C 
ATOM      6  O   UNL d   1       2.962  -0.956  -0.059  0.00  0.00    -0.285 OA
BRANCH   5   7
ATOM      7  C   UNL d   1       3.192  -3.111  -1.015  0.00  0.00     0.056 A 
ATOM      8  S   UNL d   1       4.828  -2.913  -1.506  0.00  0.00    -0.098 SA
ATOM      9  C   UNL d   1       5.023  -4.585  -1.803  0.00  0.00     0.050 A 
ATOM     10  C   UNL d   1       3.877  -5.293  -1.525  0.00  0.00     0.009 A 
ATOM     11  C   UNL d   1       2.823  -4.446  -1.072  0.00  0.00     0.023 A 
ENDBRANCH   5   7
ENDBRANCH   1   5
BRANCH   2  12
ATOM     12  C   UNL d   1      -1.227  -1.072  -0.083  0.00  0.00     0.007 A 
ATOM     13  S   UNL d   1      -2.159  -2.063   0.974  0.00  0.00    -0.081 SA
ATOM     14  C   UNL d   1      -3.637  -1.505   0.329  0.00  0.00     0.059 A 
ATOM     15  C   UNL d   1      -3.437  -0.581  -0.672  0.00  0.00     0.029 A 
ATOM     16  C   UNL d   1      -2.052  -0.339  -0.917  0.00  0.00     0.021 A 
BRANCH  14  17
ATOM     17  C   UNL d   1      -4.920  -1.942   0.782  0.00  0.00    -0.054 C 
ATOM     18  C   UNL d   1      -6.006  -2.290   1.157  0.00  0.00    -0.061 C 
BRANCH  18  19
ATOM     19  C   UNL d   1      -7.304  -2.691   1.613  0.00  0.00     0.018 A 
ATOM     20  C   UNL d   1      -7.419  -3.637   2.632  0.00  0.00     0.020 A 
ATOM     21  C   UNL d   1      -8.681  -4.020   3.091  0.00  0.00     0.001 A 
ATOM     22  C   UNL d   1      -9.828  -3.457   2.531  0.00  0.00     0.000 A 
ATOM     23  C   UNL d   1      -9.714  -2.514   1.509  0.00  0.00     0.001 A 
ATOM     24  C   UNL d   1      -8.452  -2.131   1.048  0.00  0.00     0.020 A 
ENDBRANCH  18  19
ENDBRANCH  14  17
ENDBRANCH   2  12
TORSDOF 5
