REMARK  5 active torsions:
REMARK  status: ('A' for Active; 'I' for Inactive)
REMARK    1  A    between atoms: C_2  and  C_1 
REMARK    2  A    between atoms: C_7  and  C_22 
REMARK       I    between atoms: N_10  and  C_7 
REMARK    3  A    between atoms: S_14  and  C_8 
REMARK    4  A    between atoms: C_12  and  N_10 
REMARK    5  A    between atoms: C_22  and  S_14 
ROOT
ATOM      1  C   UNL d   1       0.274  -7.520   3.305  0.00  0.00     0.231 C 
ATOM      2  N   UNL d   1      -0.760  -7.434   4.226  0.00  0.00    -0.326 N 
ATOM      3  O   UNL d   1       0.993  -8.501   3.119  0.00  0.00    -0.272 OA
ATOM      4  H   UNL d   1      -1.271  -6.558   4.245  0.00  0.00     0.169 HD
ENDROOT
BRANCH   1   5
ATOM      5  C   UNL d   1       0.397  -6.319   2.387  0.00  0.00     0.184 C 
BRANCH   5   6
ATOM      6  S   UNL d   1       0.543  -4.758   3.307  0.00  0.00    -0.103 SA
BRANCH   6   7
ATOM      7  C   UNL d   1       0.630  -3.626   1.931  0.00  0.00     0.070 A 
ATOM      8  C   UNL d   1       0.754  -2.264   2.170  0.00  0.00     0.038 A 
ATOM      9  C   UNL d   1       0.733  -1.388   1.083  0.00  0.00     0.020 A 
ATOM     10  C   UNL d   1       0.592  -1.891  -0.213  0.00  0.00     0.063 A 
ATOM     11  C   UNL d   1       0.514  -3.267  -0.355  0.00  0.00     0.105 A 
ATOM     12  N   UNL d   1       0.524  -4.134   0.683  0.00  0.00    -0.360 N 
ATOM     13  HN  UNL d   1       0.454  -5.139   0.529  1.00  0.00     0.166 HD
BRANCH  10  14
ATOM     14  C   UNL d   1       0.491  -0.992  -1.406  0.00  0.00     0.418 C 
ATOM     15  F   UNL d   1       0.339  -1.661  -2.583  0.00  0.00    -0.166 F 
ATOM     16  F   UNL d   1       1.587  -0.201  -1.563  0.00  0.00    -0.166 F 
ATOM     17  F   UNL d   1      -0.572  -0.145  -1.322  0.00  0.00    -0.166 F 
ENDBRANCH  10  14
ENDBRANCH   6   7
ENDBRANCH   5   6
ENDBRANCH   1   5
BRANCH   2  18
ATOM     18  C   UNL d   1      -1.215  -8.457   5.087  0.00  0.00     0.037 A 
ATOM     19  C   UNL d   1      -0.575  -9.691   5.221  0.00  0.00     0.069 A 
ATOM     20  C   UNL d   1      -1.130 -10.695   6.015  0.00  0.00     0.104 A 
ATOM     21  O   UNL d   1      -0.463 -11.892   6.040  0.00  0.00    -0.346 OA
ATOM     22  C   UNL d   1      -2.310 -10.465   6.723  0.00  0.00     0.102 A 
ATOM     23  C   UNL d   1      -1.326 -12.947   6.470  0.00  0.00     0.202 C 
ATOM     24  C   UNL d   1      -2.065 -12.544   7.735  0.00  0.00     0.202 C 
ATOM     25  O   UNL d   1      -2.915 -11.412   7.508  0.00  0.00    -0.346 OA
ATOM     26  C   UNL d   1      -2.940  -9.227   6.625  0.00  0.00     0.042 A 
ATOM     27  C   UNL d   1      -2.392  -8.225   5.813  0.00  0.00     0.032 A 
ENDBRANCH   2  18
TORSDOF 5
