REMARK  4 active torsions:
REMARK  status: ('A' for Active; 'I' for Inactive)
REMARK    1  A    between atoms: C_2  and  C_1 
REMARK       I    between atoms: N_3  and  C_1 
REMARK    2  A    between atoms: C_7  and  N_3 
REMARK    3  A    between atoms: C_4  and  C_5 
REMARK    4  A    between atoms: O_14  and  C_4 
ROOT
ATOM      1  C   UNL d   1      -3.176   0.410  -0.893  0.00  0.00     0.039 A 
ATOM      2  C   UNL d   1      -1.039  -0.745  -0.857  0.00  0.00     0.036 A 
ATOM      3  C   UNL d   1      -1.778   0.439  -0.920  0.00  0.00     0.048 A 
ATOM      4  C   UNL d   1      -3.845  -0.816  -0.894  0.00  0.00     0.018 A 
ATOM      5  C   UNL d   1      -3.115  -2.004  -0.905  0.00  0.00     0.003 A 
ATOM      6  C   UNL d   1      -1.716  -1.969  -0.886  0.00  0.00     0.029 A 
ENDROOT
BRANCH   2   7
ATOM      7  N   UNL d   1       0.366  -0.755  -0.739  0.00  0.00    -0.321 N 
ATOM      8  C   UNL d   1       1.156   0.314  -0.340  0.00  0.00     0.279 C 
ATOM      9  O   UNL d   1       0.725   1.430  -0.055  0.00  0.00    -0.265 OA
ATOM     10  H   UNL d   1       0.845  -1.648  -0.806  0.00  0.00     0.169 HD
BRANCH   8  11
ATOM     11  C   UNL d   1       2.565  -0.001  -0.222  0.00  0.00     0.142 A 
ATOM     12  O   UNL d   1       3.026  -1.247  -0.558  0.00  0.00    -0.317 OA
ATOM     13  C   UNL d   1       4.372  -1.239  -0.340  0.00  0.00     0.143 A 
ATOM     14  C   UNL d   1       4.779  -0.016   0.140  0.00  0.00     0.027 A 
ATOM     15  C   UNL d   1       3.617   0.782   0.216  0.00  0.00     0.045 A 
ENDBRANCH   8  11
ENDBRANCH   2   7
BRANCH   1  16
ATOM     16  C   UNL d   1      -3.971   1.661  -0.879  0.00  0.00     0.176 C 
ATOM     17  O   UNL d   1      -5.080   1.742  -1.378  0.00  0.00    -0.646 OA
BRANCH  16  18
ATOM     18  O   UNL d   1      -3.383   2.680  -0.215  0.00  0.00    -0.773 OA
ATOM     19  H   UNL d   1      -2.554   2.462   0.254  0.00  0.00     0.167 HD
ENDBRANCH  16  18
ENDBRANCH   1  16
TORSDOF 4
