REMARK  3 active torsions:
REMARK  status: ('A' for Active; 'I' for Inactive)
REMARK    1  A    between atoms: C_2  and  C_1 
REMARK    2  A    between atoms: C_3  and  C_1 
REMARK    3  A    between atoms: O_6  and  C_1 
REMARK       I    between atoms: N_10  and  C_3 
ROOT
ATOM      1  C   UNL d   1       0.989   0.031   0.018  0.00  0.00     0.384 C 
ATOM      2  F   UNL d   1       0.615   1.090  -0.778  0.00  0.00    -0.190 F 
ENDROOT
BRANCH   1   3
ATOM      3  C   UNL d   1       0.369  -1.268  -0.547  0.00  0.00     0.459 C 
ATOM      4  F   UNL d   1      -0.599  -1.804   0.236  0.00  0.00    -0.165 F 
ATOM      5  F   UNL d   1      -0.216  -1.038  -1.755  0.00  0.00    -0.165 F 
ATOM      6  F   UNL d   1       1.289  -2.243  -0.753  0.00  0.00    -0.165 F 
ENDBRANCH   1   3
BRANCH   1   7
ATOM      7  C   UNL d   1       0.380   0.212   1.426  0.00  0.00     0.293 C 
ATOM      8  O   UNL d   1       0.862  -0.251   2.455  0.00  0.00    -0.267 OA
ATOM      9  N   UNL d   1      -0.769   0.965   1.492  0.00  0.00    -0.365 N 
ATOM     10  H   UNL d   1      -1.097   1.520   0.710  0.00  0.00     0.159 HD
ATOM     11  H   UNL d   1      -1.156   1.151   2.409  0.00  0.00     0.159 HD
ENDBRANCH   1   7
BRANCH   1  12
ATOM     12  O   UNL d   1       2.418  -0.013  -0.015  0.00  0.00    -0.342 OA
ATOM     13  C   UNL d   1       3.031   1.183   0.439  0.00  0.00     0.206 C 
ENDBRANCH   1  12
TORSDOF 3
