REMARK  5 active torsions:
REMARK  status: ('A' for Active; 'I' for Inactive)
REMARK    1  A    between atoms: C_7  and  C_1 
REMARK    2  A    between atoms: C_11  and  N_4 
REMARK    3  A    between atoms: S_15  and  C_5 
REMARK    4  A    between atoms: S_8  and  C_7 
REMARK    5  A    between atoms: C_9  and  S_8 
ROOT
ATOM      1  C   UNL d   1      -0.161   0.887   0.198  0.00  0.00     0.074 C 
ATOM      2  N   UNL d   1       0.636  -1.204  -0.249  0.00  0.00    -0.287 N 
ATOM      3  HN  UNL d   1       1.270  -1.961  -0.505  1.00  0.00     0.188 HD
ATOM      4  N   UNL d   1      -0.713  -1.232  -0.223  0.00  0.00    -0.266 N 
ATOM      5  C   UNL d   1       0.955   0.029   0.133  0.00  0.00     0.101 C 
ATOM      6  C   UNL d   1      -1.230   0.024  -0.009  0.00  0.00     0.135 C 
ENDROOT
BRANCH   1   7
ATOM      7  C   UNL d   1      -0.294   2.300   0.484  0.00  0.00     0.228 C 
ATOM      8  O   UNL d   1      -1.212   2.758   1.160  0.00  0.00    -0.279 OA
BRANCH   7   9
ATOM      9  S   UNL d   1       0.783   3.336  -0.437  0.00  0.00    -0.040 SA
BRANCH   9  10
ATOM     10  C   UNL d   1       1.702   4.135   0.834  0.00  0.00     0.049 A 
ATOM     11  S   UNL d   1       1.814   3.622   2.463  0.00  0.00    -0.095 SA
ATOM     12  C   UNL d   1       2.939   4.848   2.851  0.00  0.00     0.051 A 
ATOM     13  C   UNL d   1       3.211   5.656   1.772  0.00  0.00     0.009 A 
ATOM     14  C   UNL d   1       2.491   5.249   0.611  0.00  0.00     0.027 A 
ENDBRANCH   9  10
ENDBRANCH   7   9
ENDBRANCH   1   7
BRANCH   5  15
ATOM     15  S   UNL d   1       2.605   0.366   0.598  0.00  0.00    -0.114 SA
ATOM     16  C   UNL d   1       3.003  -1.199   1.427  0.00  0.00     0.097 C 
ENDBRANCH   5  15
BRANCH   4  17
ATOM     17  C   UNL d   1      -1.397  -2.471  -0.332  0.00  0.00     0.056 A 
ATOM     18  C   UNL d   1      -2.748  -2.582   0.013  0.00  0.00     0.031 A 
ATOM     19  C   UNL d   1      -3.370  -3.833  -0.024  0.00  0.00     0.002 A 
ATOM     20  C   UNL d   1      -2.657  -4.965  -0.423  0.00  0.00     0.000 A 
ATOM     21  C   UNL d   1      -1.316  -4.855  -0.784  0.00  0.00     0.002 A 
ATOM     22  C   UNL d   1      -0.683  -3.613  -0.732  0.00  0.00     0.031 A 
ENDBRANCH   4  17
TORSDOF 5
