REMARK  2 active torsions:
REMARK  status: ('A' for Active; 'I' for Inactive)
REMARK    1  A    between atoms: C_8  and  C_2 
REMARK    2  A    between atoms: C_9  and  C_12 
ROOT
ATOM      1  N   UNL d   1      -0.794  -1.169  -0.690  0.00  0.00    -0.292 N 
ATOM      2  C   UNL d   1       1.313  -0.093  -0.032  0.00  0.00     0.127 C 
ATOM      3  C   UNL d   1      -1.501  -0.095  -0.134  0.00  0.00     0.197 C 
ATOM      4  N   UNL d   1       0.660   0.898   0.486  0.00  0.00    -0.291 N 
ATOM      5  HN  UNL d   1       1.167   1.677   0.905  1.00  0.00     0.187 HD
ATOM      6  C   UNL d   1       0.587  -1.283  -0.605  0.00  0.00     0.278 C 
ATOM      7  N   UNL d   1      -0.712   0.902   0.474  0.00  0.00    -0.271 N 
ATOM      8  S   UNL d   1      -3.194   0.001  -0.180  0.00  0.00    -0.039 SA
ATOM      9  O   UNL d   1       1.217  -2.284  -0.930  0.00  0.00    -0.265 OA
ATOM     10  C   UNL d   1      -1.431  -2.316  -1.336  0.00  0.00     0.162 C 
ATOM     11  C   UNL d   1      -1.247   2.115   1.114  0.00  0.00     0.180 C 
ENDROOT
BRANCH   2  12
ATOM     12  C   UNL d   1       2.804  -0.049  -0.036  0.00  0.00    -0.002 A 
ATOM     13  C   UNL d   1       3.554  -0.611  -1.078  0.00  0.00     0.026 A 
ATOM     14  C   UNL d   1       4.959  -0.572  -1.068  0.00  0.00    -0.003 A 
ATOM     15  C   UNL d   1       5.601   0.045   0.016  0.00  0.00     0.012 A 
ATOM     16  C   UNL d   1       4.861   0.631   1.046  0.00  0.00     0.002 A 
ATOM     17  C   UNL d   1       3.466   0.589   1.018  0.00  0.00     0.014 A 
BRANCH  14  18
ATOM     18  C   UNL d   1       5.753  -1.265  -2.160  0.00  0.00     0.294 C 
ATOM     19  O   UNL d   1       7.026  -0.631  -2.374  0.00  0.00    -0.355 OA
ATOM     20  C   UNL d   1       6.952  -0.092  -3.692  0.00  0.00     0.197 C 
ATOM     21  C   UNL d   1       5.991  -1.007  -4.396  0.00  0.00     0.197 C 
ATOM     22  O   UNL d   1       5.018  -1.288  -3.394  0.00  0.00    -0.355 OA
ENDBRANCH  14  18
ENDBRANCH   2  12
TORSDOF 2
