REMARK  2 active torsions:
REMARK  status: ('A' for Active; 'I' for Inactive)
REMARK    1  A    between atoms: C_4  and  C_1 
REMARK    2  A    between atoms: O_9  and  C_4 
ROOT
ATOM      1  C   UNL d   1      -2.804  -0.097   0.030  0.00  0.00     0.079 A 
ATOM      2  S   UNL d   1      -1.419  -1.110   0.021  0.00  0.00    -0.076 SA
ATOM      3  C   UNL d   1      -0.372   0.220  -0.004  0.00  0.00     0.052 A 
ATOM      4  C   UNL d   1      -2.440   1.240   0.013  0.00  0.00     0.028 A 
ATOM      5  C   UNL d   1      -1.025   1.425  -0.008  0.00  0.00     0.028 A 
ATOM      6 BR   UNL d   1       1.493   0.051  -0.025  0.00  0.00    -0.043 Br
ENDROOT
BRANCH   1   7
ATOM      7  C   UNL d   1      -4.155  -0.630   0.052  0.00  0.00     0.183 C 
ATOM      8  O   UNL d   1      -5.176   0.043   0.064  0.00  0.00    -0.646 OA
BRANCH   7   9
ATOM      9  O   UNL d   1      -4.198  -1.988   0.058  0.00  0.00    -0.772 OA
ATOM     10  H   UNL d   1      -3.302  -2.378   0.046  0.00  0.00     0.167 HD
ENDBRANCH   7   9
ENDBRANCH   1   7
TORSDOF 2
