REMARK  2 active torsions:
REMARK  status: ('A' for Active; 'I' for Inactive)
REMARK    1  A    between atoms: C_11  and  C_4 
REMARK    2  A    between atoms: N_15  and  C_5 
ROOT
ATOM      1  C   UNL d   1      -0.237  -0.587   0.058  0.00  0.00     0.173 A 
ATOM      2  C   UNL d   1      -0.295   0.782   0.045  0.00  0.00     0.032 A 
ATOM      3  C   UNL d   1       2.183   0.645  -0.115  0.00  0.00     0.081 A 
ATOM      4  C   UNL d   1       0.970   1.576   0.020  0.00  0.00     0.107 A 
ATOM      5  C   UNL d   1       2.079  -0.713  -0.088  0.00  0.00     0.140 A 
ATOM      6  O   UNL d   1       0.838  -1.365   0.025  0.00  0.00    -0.279 OA
ATOM      7  N   UNL d   1      -1.514  -1.042   0.111  0.00  0.00    -0.279 N 
ATOM      8  N   UNL d   1      -2.420  -0.045   0.115  0.00  0.00    -0.303 N 
ATOM      9  HN  UNL d   1      -3.436  -0.125   0.136  1.00  0.00     0.186 HD
ATOM     10  C   UNL d   1      -1.681   1.078   0.086  0.00  0.00     0.033 A 
ATOM     11  C   UNL d   1       3.460   1.262  -0.251  0.00  0.00     0.100 C 
ATOM     12  N   UNL d   1       4.502   1.753  -0.397  0.00  0.00    -0.191 NA
ATOM     13  C   UNL d   1      -2.367   2.394   0.078  0.00  0.00     0.070 C 
ATOM     14  H   UNL d   1      -1.839  -2.001   0.140  0.00  0.00     0.189 HD
ENDROOT
BRANCH   5  15
ATOM     15  N   UNL d   1       3.130  -1.597  -0.171  0.00  0.00    -0.282 NA
ATOM     16  H   UNL d   1       3.970  -1.249  -0.626  0.00  0.00     0.126 HD
ATOM     17  H   UNL d   1       2.842  -2.515  -0.502  0.00  0.00     0.126 HD
ENDBRANCH   5  15
BRANCH   4  18
ATOM     18  C   UNL d   1       0.839   2.577  -1.119  0.00  0.00    -0.022 A 
ATOM     19  C   UNL d   1       0.954   3.965  -0.907  0.00  0.00     0.041 A 
ATOM     20 CL   UNL d   1       1.229   4.645   0.659  0.00  0.00    -0.084 Cl
ATOM     21  C   UNL d   1       0.839   4.866  -1.970  0.00  0.00     0.024 A 
ATOM     22  C   UNL d   1       0.621   4.402  -3.267  0.00  0.00     0.002 A 
ATOM     23  C   UNL d   1       0.521   3.036  -3.502  0.00  0.00     0.001 A 
ATOM     24  C   UNL d   1       0.635   2.134  -2.445  0.00  0.00     0.010 A 
ENDBRANCH   4  18
TORSDOF 2
