REMARK  4 active torsions:
REMARK  status: ('A' for Active; 'I' for Inactive)
REMARK    1  A    between atoms: C_5  and  C_1 
REMARK    2  A    between atoms: N_12  and  C_2 
REMARK    3  A    between atoms: O_14  and  C_9 
REMARK    4  A    between atoms: O_15  and  C_11 
ROOT
ATOM      1  C   UNL d   1      -0.057   1.052   0.081  0.00  0.00     0.043 A 
ATOM      2  C   UNL d   1      -0.008   0.318   1.259  0.00  0.00     0.126 A 
ATOM      3  N   UNL d   1      -0.132  -1.190  -0.441  0.00  0.00    -0.303 N 
ATOM      4  HN  UNL d   1      -0.167  -2.075  -0.946  1.00  0.00     0.186 HD
ATOM      5  N   UNL d   1      -0.063  -0.994   0.882  0.00  0.00    -0.285 N 
ATOM      6  C   UNL d   1      -0.144   0.052  -0.944  0.00  0.00     0.036 A 
ATOM      7  C   UNL d   1      -0.265   0.220  -2.416  0.00  0.00     0.070 C 
ATOM      8  H   UNL d   1      -0.045  -1.807   1.484  0.00  0.00     0.188 HD
ENDROOT
BRANCH   1   9
ATOM      9  C   UNL d   1      -0.033   2.511  -0.015  0.00  0.00    -0.017 A 
ATOM     10  C   UNL d   1       0.613   3.142  -1.090  0.00  0.00     0.052 A 
ATOM     11  C   UNL d   1       0.626   4.540  -1.242  0.00  0.00     0.102 A 
ATOM     12  C   UNL d   1       0.027   5.334  -0.251  0.00  0.00     0.101 A 
ATOM     13  C   UNL d   1      -0.609   4.708   0.830  0.00  0.00     0.040 A 
ATOM     14  C   UNL d   1      -0.662   3.317   0.935  0.00  0.00     0.015 A 
BRANCH  11  15
ATOM     15  O   UNL d   1       1.206   5.162  -2.316  0.00  0.00    -0.353 OA
ATOM     16  C   UNL d   1       1.675   4.358  -3.392  0.00  0.00     0.210 C 
ENDBRANCH  11  15
BRANCH  12  17
ATOM     17  O   UNL d   1      -0.041   6.700  -0.164  0.00  0.00    -0.353 OA
ATOM     18  C   UNL d   1       0.536   7.486  -1.194  0.00  0.00     0.210 C 
ENDBRANCH  12  17
ENDBRANCH   1   9
BRANCH   2  19
ATOM     19  N   UNL d   1       0.080   0.653   2.564  0.00  0.00    -0.384 N 
ATOM     20  H   UNL d   1       0.324   1.602   2.844  0.00  0.00     0.157 HD
ATOM     21  H   UNL d   1       0.173  -0.029   3.313  0.00  0.00     0.157 HD
ENDBRANCH   2  19
TORSDOF 4
