REMARK  5 active torsions:
REMARK  status: ('A' for Active; 'I' for Inactive)
REMARK    1  A    between atoms: C_6  and  N_1 
REMARK    2  A    between atoms: C_4  and  N_14 
REMARK    3  A    between atoms: C_13  and  C_5 
REMARK    4  A    between atoms: N_14  and  N_7 
REMARK    5  A    between atoms: C_19  and  C_22 
ROOT
ATOM      1  N   UNL d   1      -1.921   1.079  -9.502  0.00  0.00    -0.331 N 
ATOM      2  HN  UNL d   1      -2.214   2.056  -9.481  1.00  0.00     0.168 HD
ATOM      3  C   UNL d   1      -1.929   0.337  -8.380  0.00  0.00     0.176 A 
ATOM      4  C   UNL d   1      -1.519   0.507 -10.654  0.00  0.00     0.047 A 
ATOM      5  N   UNL d   1      -1.556  -0.952  -8.343  0.00  0.00    -0.341 N 
ATOM      6  HN  UNL d   1      -1.557  -1.486  -7.473  1.00  0.00     0.167 HD
ATOM      7  C   UNL d   1      -1.146  -0.821 -10.700  0.00  0.00     0.047 A 
ATOM      8  C   UNL d   1      -1.181  -1.504  -9.509  0.00  0.00     0.093 A 
ENDROOT
BRANCH   3   9
ATOM      9  N   UNL d   1      -2.346   0.899  -7.157  0.00  0.00    -0.175 NA
ATOM     10  H   UNL d   1      -2.479   0.124  -6.513  0.00  0.00     0.156 HD
BRANCH   9  11
ATOM     11  N   UNL d   1      -3.292   1.876  -7.226  0.00  0.00    -0.325 N 
ATOM     12  C   UNL d   1      -3.651   2.380  -6.091  0.00  0.00     0.113 C 
ATOM     13  HN  UNL d   1      -3.689   2.190  -8.112  1.00  0.00     0.180 HD
BRANCH  12  14
ATOM     14  C   UNL d   1      -4.674   3.443  -6.037  0.00  0.00    -0.020 A 
ATOM     15  C   UNL d   1      -5.277   3.898  -7.218  0.00  0.00     0.015 A 
ATOM     16  C   UNL d   1      -6.243   4.905  -7.171  0.00  0.00     0.037 A 
ATOM     17  C   UNL d   1      -6.602   5.455  -5.934  0.00  0.00     0.102 A 
ATOM     18  C   UNL d   1      -6.001   5.001  -4.748  0.00  0.00     0.037 A 
ATOM     19  C   UNL d   1      -5.034   3.991  -4.802  0.00  0.00     0.015 A 
BRANCH  17  20
ATOM     20  N   UNL d   1      -7.616   6.515  -5.879  0.00  0.00    -0.116 N 
ATOM     21  O   UNL d   1      -7.901   6.981  -4.765  0.00  0.00    -0.532 OA
ATOM     22  O   UNL d   1      -8.129   6.881  -6.944  0.00  0.00    -0.532 OA
ENDBRANCH  17  20
ENDBRANCH  12  14
ENDBRANCH   9  11
ENDBRANCH   3   9
BRANCH   4  23
ATOM     23  C   UNL d   1      -1.492   1.396 -11.827  0.00  0.00     0.006 A 
ATOM     24  C   UNL d   1      -2.379   2.469 -11.950  0.00  0.00     0.101 A 
ATOM     25  N   UNL d   1      -2.414   3.340 -12.992  0.00  0.00    -0.374 N 
ATOM     26  C   UNL d   1      -1.501   3.154 -13.966  0.00  0.00     0.087 A 
ATOM     27  HN  UNL d   1      -3.096   4.097 -13.035  1.00  0.00     0.164 HD
ATOM     28  C   UNL d   1      -0.567   2.134 -13.951  0.00  0.00     0.018 A 
ATOM     29  C   UNL d   1      -0.568   1.249 -12.873  0.00  0.00     0.016 A 
ENDBRANCH   4  23
TORSDOF 5
