REMARK  2 active torsions:
REMARK  status: ('A' for Active; 'I' for Inactive)
REMARK    1  A    between atoms: S_5  and  C_2 
REMARK    2  A    between atoms: C_7  and  S_5 
ROOT
ATOM      1  C   UNL d   1       0.097   5.357   1.954  0.00  0.00     0.100 A 
ATOM      2  C   UNL d   1       0.300   4.832   0.667  0.00  0.00     0.029 A 
ATOM      3  C   UNL d   1      -0.555   4.628   2.998  0.00  0.00     0.104 C 
ATOM      4  N   UNL d   1      -1.063   4.040   3.859  0.00  0.00    -0.191 NA
ATOM      5  C   UNL d   1       0.603   6.623   2.267  0.00  0.00     0.138 A 
ATOM      6  F   UNL d   1       0.420   7.143   3.490  0.00  0.00    -0.204 F 
ATOM      7  C   UNL d   1       1.050   5.584  -0.257  0.00  0.00     0.021 A 
ATOM      8  C   UNL d   1       1.565   6.840   0.078  0.00  0.00     0.004 A 
ATOM      9  C   UNL d   1       1.333   7.365   1.343  0.00  0.00     0.044 A 
ENDROOT
BRANCH   2  10
ATOM     10  S   UNL d   1      -0.177   3.185   0.150  0.00  0.00    -0.089 SA
BRANCH  10  11
ATOM     11  C   UNL d   1      -1.960   3.230   0.127  0.00  0.00     0.005 A 
ATOM     12  C   UNL d   1      -2.663   3.723  -0.975  0.00  0.00     0.019 A 
ATOM     13  C   UNL d   1      -4.060   3.609  -1.034  0.00  0.00     0.008 A 
ATOM     14  C   UNL d   1      -4.770   2.999   0.008  0.00  0.00    -0.062 A 
ATOM     15  C   UNL d   1      -4.066   2.525   1.117  0.00  0.00     0.008 A 
ATOM     16  C   UNL d   1      -6.260   2.837  -0.078  0.00  0.00     0.048 C 
ATOM     17  C   UNL d   1      -2.673   2.627   1.168  0.00  0.00     0.019 A 
ENDBRANCH  10  11
ENDBRANCH   2  10
TORSDOF 2
