REMARK  9 active torsions:
REMARK  status: ('A' for Active; 'I' for Inactive)
REMARK    1  A    between atoms: C_21  and  C_1 
REMARK    2  A    between atoms: O_20  and  C_7 
REMARK    3  A    between atoms: C_8  and  C_9 
REMARK       I    between atoms: C_9  and  N_15 
REMARK    4  A    between atoms: O_23  and  C_10 
REMARK    5  A    between atoms: O_22  and  C_11 
REMARK    6  A    between atoms: C_12  and  C_24 
REMARK       I    between atoms: N_16  and  C_12 
REMARK    7  A    between atoms: N_15  and  N_16 
REMARK    8  A    between atoms: S_19  and  C_21 
REMARK    9  A    between atoms: C_24  and  S_19 
ROOT
ATOM      1  C   UNL d   1      -3.379   5.877   0.091  0.00  0.00     0.245 C 
ATOM      2  N   UNL d   1      -3.316   6.631  -1.062  0.00  0.00    -0.267 N 
ATOM      3  O   UNL d   1      -3.276   6.394   1.207  0.00  0.00    -0.271 OA
ATOM      4  H   UNL d   1      -3.359   6.243  -2.006  0.00  0.00     0.190 HD
ENDROOT
BRANCH   2   5
ATOM      5  N   UNL d   1      -3.038   8.006  -0.940  0.00  0.00    -0.263 N 
ATOM      6  C   UNL d   1      -2.338   8.646  -1.936  0.00  0.00     0.270 C 
ATOM      7  O   UNL d   1      -2.017   8.106  -2.973  0.00  0.00    -0.266 OA
ATOM      8  H   UNL d   1      -3.023   8.348   0.027  0.00  0.00     0.190 HD
BRANCH   6   9
ATOM      9  C   UNL d   1      -2.010  10.075  -1.688  0.00  0.00     0.039 A 
ATOM     10  C   UNL d   1      -0.888  10.652  -2.284  0.00  0.00     0.057 A 
ATOM     11  C   UNL d   1      -0.566  12.008  -2.087  0.00  0.00     0.105 A 
ATOM     12  C   UNL d   1      -1.419  12.822  -1.313  0.00  0.00     0.135 A 
ATOM     13  C   UNL d   1      -2.612  12.256  -0.791  0.00  0.00     0.105 A 
ATOM     14  C   UNL d   1      -2.859  10.883  -0.933  0.00  0.00     0.057 A 
BRANCH  11  15
ATOM     15  O   UNL d   1       0.601  12.330  -2.731  0.00  0.00    -0.353 OA
ATOM     16  C   UNL d   1       1.143  13.636  -2.642  0.00  0.00     0.210 C 
ENDBRANCH  11  15
BRANCH  12  17
ATOM     17  O   UNL d   1      -1.135  14.161  -1.222  0.00  0.00    -0.351 OA
ATOM     18  C   UNL d   1      -1.225  14.758   0.071  0.00  0.00     0.210 C 
ENDBRANCH  12  17
BRANCH  13  19
ATOM     19  O   UNL d   1      -3.529  13.088  -0.185  0.00  0.00    -0.353 OA
ATOM     20  C   UNL d   1      -4.862  12.586  -0.077  0.00  0.00     0.210 C 
ENDBRANCH  13  19
ENDBRANCH   6   9
ENDBRANCH   2   5
BRANCH   1  21
ATOM     21  C   UNL d   1      -3.668   4.401  -0.093  0.00  0.00     0.178 C 
BRANCH  21  22
ATOM     22  S   UNL d   1      -2.361   3.507  -1.013  0.00  0.00    -0.155 SA
BRANCH  22  23
ATOM     23  C   UNL d   1      -0.923   3.676   0.119  0.00  0.00     0.114 C 
BRANCH  23  24
ATOM     24  C   UNL d   1       0.321   2.899  -0.367  0.00  0.00    -0.036 C 
ATOM     25  C   UNL d   1       1.189   3.454  -1.355  0.00  0.00    -0.048 C 
ATOM     26  C   UNL d   1       2.250   2.676  -1.896  0.00  0.00    -0.049 C 
ATOM     27  C   UNL d   1       0.989   4.871  -1.845  0.00  0.00     0.049 C 
ATOM     28  C   UNL d   1       3.076   3.160  -3.074  0.00  0.00     0.049 C 
ATOM     29  C   UNL d   1       2.583   1.426  -1.316  0.00  0.00    -0.049 C 
ATOM     30  C   UNL d   1       1.796   0.904  -0.255  0.00  0.00    -0.049 C 
ATOM     31  C   UNL d   1       3.799   0.682  -1.845  0.00  0.00     0.049 C 
ATOM     32  C   UNL d   1       0.629   1.607   0.173  0.00  0.00    -0.048 C 
ATOM     33  C   UNL d   1       2.242  -0.401   0.372  0.00  0.00     0.049 C 
ATOM     34  C   UNL d   1      -0.297   1.025   1.220  0.00  0.00     0.049 C 
ENDBRANCH  23  24
ENDBRANCH  22  23
ENDBRANCH  21  22
ENDBRANCH   1  21
TORSDOF 9
