REMARK  11 active torsions:
REMARK  status: ('A' for Active; 'I' for Inactive)
REMARK    1  A    between atoms: C_6  and  N_1 
REMARK    2  A    between atoms: C_11  and  C_6 
REMARK    3  A    between atoms: C_13  and  C_11 
REMARK    4  A    between atoms: O_22  and  C_11 
REMARK    5  A    between atoms: N_12  and  C_13 
REMARK    6  A    between atoms: C_18  and  N_12 
REMARK    7  A    between atoms: C_19  and  N_12 
REMARK    8  A    between atoms: C_23  and  C_18 
REMARK    9  A    between atoms: C_24  and  C_19 
REMARK   10  A    between atoms: C_25  and  C_23 
REMARK   11  A    between atoms: C_26  and  C_24 
ROOT
ATOM      1  C   UNL d   1       3.198  -4.911  -0.883  0.00  0.00     0.162 C 
ENDROOT
BRANCH   1   2
ATOM      2  N   UNL d   1       4.443  -5.673  -0.947  0.00  0.00    -0.343 N 
ATOM      3  C   UNL d   1       4.527  -7.002  -1.335  0.00  0.00     0.046 A 
ATOM      4  C   UNL d   1       5.873  -7.368  -1.254  0.00  0.00     0.005 A 
ATOM      5  C   UNL d   1       3.538  -7.912  -1.750  0.00  0.00     0.032 A 
ATOM      6  C   UNL d   1       6.248  -8.687  -1.586  0.00  0.00     0.038 A 
ATOM      7  C   UNL d   1       6.610  -6.216  -0.845  0.00  0.00     0.005 A 
ATOM      8  C   UNL d   1       5.271  -9.590  -2.006  0.00  0.00     0.035 A 
ATOM      9  C   UNL d   1       3.936  -9.210  -2.091  0.00  0.00     0.026 A 
ATOM     10 CL   UNL d   1       5.730 -11.194  -2.435  0.00  0.00    -0.084 Cl
ATOM     11  C   UNL d   1       5.701  -5.165  -0.690  0.00  0.00     0.046 A 
ATOM     12  C   UNL d   1       7.983  -5.978  -0.618  0.00  0.00     0.038 A 
ATOM     13  C   UNL d   1       6.124  -3.872  -0.340  0.00  0.00     0.032 A 
ATOM     14  C   UNL d   1       7.491  -3.656  -0.126  0.00  0.00     0.026 A 
ATOM     15  C   UNL d   1       8.402  -4.696  -0.259  0.00  0.00     0.035 A 
ATOM     16 CL   UNL d   1      10.076  -4.399   0.014  0.00  0.00    -0.084 Cl
ENDBRANCH   1   2
BRANCH   1  17
ATOM     17  C   UNL d   1       2.380  -5.190   0.388  0.00  0.00     0.153 C 
BRANCH  17  18
ATOM     18  C   UNL d   1       2.707  -4.270   1.601  0.00  0.00     0.150 C 
BRANCH  18  19
ATOM     19  N   UNL d   1       2.619  -2.806   1.490  0.00  0.00    -0.410 N 
BRANCH  19  20
ATOM     20  C   UNL d   1       1.476  -2.230   0.756  0.00  0.00     0.117 C 
BRANCH  20  21
ATOM     21  C   UNL d   1       0.181  -1.747   1.466  0.00  0.00     0.023 C 
BRANCH  21  22
ATOM     22  C   UNL d   1      -0.872  -2.798   1.877  0.00  0.00    -0.021 C 
ATOM     23  C   UNL d   1      -0.574  -3.485   3.207  0.00  0.00     0.009 C 
ATOM     24  C   UNL d   1      -2.248  -2.123   2.004  0.00  0.00     0.009 C 
ENDBRANCH  21  22
ENDBRANCH  20  21
ENDBRANCH  19  20
BRANCH  19  25
ATOM     25  C   UNL d   1       2.881  -2.071   2.741  0.00  0.00     0.117 C 
BRANCH  25  26
ATOM     26  C   UNL d   1       4.027  -2.516   3.665  0.00  0.00     0.023 C 
BRANCH  26  27
ATOM     27  C   UNL d   1       5.454  -2.494   3.097  0.00  0.00    -0.021 C 
ATOM     28  C   UNL d   1       5.866  -1.125   2.560  0.00  0.00     0.009 C 
ATOM     29  C   UNL d   1       6.435  -2.940   4.186  0.00  0.00     0.009 C 
ENDBRANCH  26  27
ENDBRANCH  25  26
ENDBRANCH  19  25
ENDBRANCH  18  19
ENDBRANCH  17  18
BRANCH  17  30
ATOM     30  O   UNL d   1       0.981  -5.165   0.068  0.00  0.00    -0.392 OA
ATOM     31  H   UNL d   1       0.491  -5.289   0.899  0.00  0.00     0.210 HD
ENDBRANCH  17  30
ENDBRANCH   1  17
TORSDOF 11
