REMARK  6 active torsions:
REMARK  status: ('A' for Active; 'I' for Inactive)
REMARK    1  A    between atoms: N_2  and  C_1 
REMARK    2  A    between atoms: N_4  and  C_1 
REMARK    3  A    between atoms: C_8  and  N_2 
REMARK    4  A    between atoms: C_9  and  N_4 
REMARK    5  A    between atoms: C_7  and  C_9 
REMARK    6  A    between atoms: O_16  and  C_10 
ROOT
ATOM      1  C   UNL d   1       1.143   0.008   0.244  0.00  0.00     0.172 C 
ATOM      2  S   UNL d   1       2.748  -0.146  -0.198  0.00  0.00    -0.041 SA
ENDROOT
BRANCH   1   3
ATOM      3  N   UNL d   1       0.417  -0.823   1.062  0.00  0.00    -0.333 N 
ATOM      4  H   UNL d   1      -0.497  -1.059   0.689  0.00  0.00     0.168 HD
BRANCH   3   5
ATOM      5  C   UNL d   1       0.912  -1.676   2.070  0.00  0.00     0.034 A 
ATOM      6  C   UNL d   1       1.964  -1.290   2.903  0.00  0.00     0.032 A 
ATOM      7  C   UNL d   1       2.434  -2.148   3.902  0.00  0.00     0.039 A 
ATOM      8  C   UNL d   1       1.860  -3.406   4.071  0.00  0.00     0.068 A 
ATOM      9  C   UNL d   1       0.775  -3.772   3.270  0.00  0.00     0.039 A 
ATOM     10  C   UNL d   1       0.287  -2.905   2.286  0.00  0.00     0.032 A 
BRANCH   8  11
ATOM     11  O   UNL d   1       2.256  -4.348   4.980  0.00  0.00    -0.356 OA
ATOM     12  C   UNL d   1       3.462  -4.078   5.687  0.00  0.00     0.210 C 
ENDBRANCH   8  11
ENDBRANCH   3   5
ENDBRANCH   1   3
BRANCH   1  13
ATOM     13  N   UNL d   1       0.435   1.032  -0.320  0.00  0.00    -0.363 N 
ATOM     14  H   UNL d   1       0.989   1.601  -0.951  0.00  0.00     0.162 HD
BRANCH  13  15
ATOM     15  C   UNL d   1      -0.710   1.693   0.281  0.00  0.00     0.162 C 
BRANCH  15  16
ATOM     16  C   UNL d   1      -1.933   1.717  -0.587  0.00  0.00    -0.025 A 
ATOM     17  C   UNL d   1      -2.998   2.541  -0.225  0.00  0.00     0.096 A 
ATOM     18  N   UNL d   1      -4.165   2.625  -0.900  0.00  0.00    -0.375 N 
ATOM     19  C   UNL d   1      -4.284   1.851  -1.997  0.00  0.00     0.087 A 
ATOM     20  HN  UNL d   1      -4.917   3.242  -0.594  1.00  0.00     0.164 HD
ATOM     21  C   UNL d   1      -3.293   0.998  -2.448  0.00  0.00     0.018 A 
ATOM     22  C   UNL d   1      -2.102   0.929  -1.729  0.00  0.00     0.011 A 
ENDBRANCH  15  16
ENDBRANCH  13  15
ENDBRANCH   1  13
TORSDOF 6
