REMARK  0 active torsions:
REMARK  status: ('A' for Active; 'I' for Inactive)
ROOT
ATOM      1  N   UNL d   1       0.015  -1.415  -0.014  0.00  0.00    -0.356 N 
ATOM      2  HN  UNL d   1       0.009  -2.435  -0.030  1.00  0.00     0.166 HD
ATOM      3  N   UNL d   1       0.012   1.390   0.014  0.00  0.00    -0.356 N 
ATOM      4  HN  UNL d   1       0.009   2.410   0.030  1.00  0.00     0.166 HD
ATOM      5  C   UNL d   1       1.175  -0.726  -0.010  0.00  0.00     0.065 A 
ATOM      6  C   UNL d   1       1.163   0.691   0.008  0.00  0.00     0.060 A 
ATOM      7  C   UNL d   1      -1.140  -0.710   0.003  0.00  0.00     0.032 A 
ATOM      8  C   UNL d   1      -1.143   0.681  -0.003  0.00  0.00     0.032 A 
ATOM      9  C   UNL d   1       2.405  -1.398  -0.028  0.00  0.00    -0.033 A 
ATOM     10  C   UNL d   1       2.368   1.381   0.022  0.00  0.00     0.032 A 
ATOM     11  C   UNL d   1       3.590   0.712   0.011  0.00  0.00     0.003 A 
ATOM     12  C   UNL d   1      -2.411  -1.509  -0.042  0.00  0.00     0.059 C 
ATOM     13  C   UNL d   1      -2.425   1.466   0.040  0.00  0.00     0.059 C 
ATOM     14  C   UNL d   1       3.609  -0.676  -0.017  0.00  0.00     0.009 A 
ATOM     15  C   UNL d   1       2.475  -2.902  -0.061  0.00  0.00     0.050 C 
ATOM     16  C   UNL d   1      -3.640  -0.700   0.365  0.00  0.00     0.006 C 
ATOM     17  C   UNL d   1      -3.647   0.641  -0.360  0.00  0.00     0.006 C 
ENDROOT
TORSDOF 0
