REMARK  6 active torsions:
REMARK  status: ('A' for Active; 'I' for Inactive)
REMARK    1  A    between atoms: C_2  and  C_1 
REMARK    2  A    between atoms: C_17  and  C_9 
REMARK    3  A    between atoms: C_18  and  C_10 
REMARK    4  A    between atoms: C_13  and  O_15 
REMARK    5  A    between atoms: C_14  and  C_13 
REMARK    6  A    between atoms: O_15  and  C_18 
ROOT
ATOM      1  C   UNL d   1      -1.452   2.172  -0.060  0.00  0.00     0.075 A 
ATOM      2  N   UNL d   1      -2.475   2.384   0.847  0.00  0.00    -0.349 N 
ATOM      3  HN  UNL d   1      -2.786   1.712   1.548  1.00  0.00     0.166 HD
ATOM      4  C   UNL d   1      -2.986   3.586   0.668  0.00  0.00     0.075 A 
ATOM      5  C   UNL d   1      -1.188   3.215  -0.921  0.00  0.00     0.084 A 
ATOM      6  S   UNL d   1      -2.260   4.510  -0.595  0.00  0.00    -0.084 SA
ENDROOT
BRANCH   1   7
ATOM      7  C   UNL d   1      -0.698   0.894  -0.088  0.00  0.00     0.128 A 
ATOM      8  C   UNL d   1      -0.955  -0.200   0.701  0.00  0.00     0.074 A 
ATOM      9  C   UNL d   1      -0.023  -1.183   0.286  0.00  0.00     0.068 A 
ATOM     10  N   UNL d   1       0.773  -0.691  -0.678  0.00  0.00    -0.260 N 
ATOM     11  O   UNL d   1       0.347   0.604  -0.908  0.00  0.00    -0.235 OA
ATOM     12  HN  UNL d   1       1.538  -1.175  -1.147  1.00  0.00     0.195 HD
BRANCH   9  13
ATOM     13  C   UNL d   1       0.093  -2.560   0.761  0.00  0.00    -0.007 A 
ATOM     14  C   UNL d   1       0.618  -3.554  -0.076  0.00  0.00     0.014 A 
ATOM     15  C   UNL d   1       0.692  -4.881   0.354  0.00  0.00     0.001 A 
ATOM     16  C   UNL d   1       0.247  -5.225   1.628  0.00  0.00     0.000 A 
ATOM     17  C   UNL d   1      -0.268  -4.246   2.475  0.00  0.00     0.001 A 
ATOM     18  C   UNL d   1      -0.346  -2.919   2.044  0.00  0.00     0.014 A 
ENDBRANCH   9  13
ENDBRANCH   1   7
BRANCH   4  19
ATOM     19  C   UNL d   1      -4.060   4.211   1.508  0.00  0.00     0.243 C 
BRANCH  19  20
ATOM     20  O   UNL d   1      -4.938   3.200   2.039  0.00  0.00    -0.314 OA
BRANCH  20  21
ATOM     21  C   UNL d   1      -5.959   2.818   1.226  0.00  0.00     0.266 C 
ATOM     22  O   UNL d   1      -6.097   3.203   0.073  0.00  0.00    -0.264 OA
BRANCH  21  23
ATOM     23  C   UNL d   1      -6.973   1.915   1.950  0.00  0.00     0.037 C 
ATOM     24  C   UNL d   1      -6.550   1.578   3.389  0.00  0.00     0.025 C 
ATOM     25  C   UNL d   1      -8.317   2.660   1.981  0.00  0.00     0.025 C 
ATOM     26  C   UNL d   1      -7.143   0.605   1.169  0.00  0.00     0.025 C 
ENDBRANCH  21  23
ENDBRANCH  20  21
ENDBRANCH  19  20
ENDBRANCH   4  19
TORSDOF 6
