REMARK  6 active torsions:
REMARK  status: ('A' for Active; 'I' for Inactive)
REMARK    1  A    between atoms: N_2  and  S_1 
REMARK    2  A    between atoms: C_5  and  S_1 
REMARK    3  A    between atoms: S_6  and  N_2 
REMARK    4  A    between atoms: N_4  and  C_7 
REMARK    5  A    between atoms: C_16  and  S_6 
REMARK    6  A    between atoms: C_17  and  S_6 
ROOT
ATOM      1  S   UNL d   1       0.996   0.279  -0.031  0.00  0.00     0.267 S 
ATOM      2  O   UNL d   1      -0.077   1.244  -0.171  0.00  0.00    -0.200 OA
ATOM      3  O   UNL d   1       2.384   0.703  -0.008  0.00  0.00    -0.200 OA
ENDROOT
BRANCH   1   4
ATOM      4  N   UNL d   1       0.802  -0.984  -1.201  0.00  0.00    -0.264 N 
ATOM      5  HN  UNL d   1       0.669  -1.964  -0.952  1.00  0.00     0.186 HD
BRANCH   4   6
ATOM      6  S   UNL d   1       0.854  -0.453  -2.727  0.00  0.00    -0.118 SA
BRANCH   6   7
ATOM      7  C   UNL d   1       2.618  -0.822  -3.039  0.00  0.00     0.081 C 
ATOM      8  C   UNL d   1       3.043  -0.307  -4.402  0.00  0.00     0.017 C 
ENDBRANCH   6   7
BRANCH   6   9
ATOM      9  C   UNL d   1       0.205  -1.949  -3.542  0.00  0.00     0.081 C 
ATOM     10  C   UNL d   1      -1.274  -2.140  -3.270  0.00  0.00     0.017 C 
ENDBRANCH   6   9
ENDBRANCH   4   6
ENDBRANCH   1   4
BRANCH   1  11
ATOM     11  C   UNL d   1       0.714  -0.582   1.513  0.00  0.00     0.080 A 
ATOM     12  C   UNL d   1       1.785  -1.213   2.151  0.00  0.00     0.028 A 
ATOM     13  C   UNL d   1       1.629  -1.699   3.456  0.00  0.00     0.037 A 
ATOM     14  C   UNL d   1       0.402  -1.530   4.116  0.00  0.00     0.102 A 
ATOM     15  C   UNL d   1      -0.680  -0.919   3.465  0.00  0.00     0.037 A 
ATOM     16  C   UNL d   1      -0.521  -0.439   2.162  0.00  0.00     0.028 A 
BRANCH  14  17
ATOM     17  N   UNL d   1       0.263  -1.954   5.517  0.00  0.00    -0.116 N 
ATOM     18  O   UNL d   1      -0.821  -1.742   6.078  0.00  0.00    -0.532 OA
ATOM     19  O   UNL d   1       1.241  -2.492   6.055  0.00  0.00    -0.532 OA
ENDBRANCH  14  17
ENDBRANCH   1  11
TORSDOF 6
