REMARK  4 active torsions:
REMARK  status: ('A' for Active; 'I' for Inactive)
REMARK    1  A    between atoms: C_6  and  C_1 
REMARK    2  A    between atoms: C_11  and  N_2 
REMARK       I    between atoms: N_8  and  C_6 
REMARK    3  A    between atoms: C_10  and  N_9 
REMARK    4  A    between atoms: O_25  and  C_22 
ROOT
ATOM      1  C   UNL d   1      -0.335   1.116   0.007  0.00  0.00     0.073 C 
ATOM      2  N   UNL d   1      -0.309  -1.109   0.145  0.00  0.00    -0.260 N 
ATOM      3  C   UNL d   1      -0.880   0.035   0.696  0.00  0.00     0.048 C 
ATOM      4  N   UNL d   1       0.361  -0.812  -1.000  0.00  0.00    -0.304 N 
ATOM      5  HN  UNL d   1       0.768  -1.464  -1.671  1.00  0.00     0.186 HD
ATOM      6  C   UNL d   1       0.370   0.517  -1.052  0.00  0.00     0.126 C 
ATOM      7  C   UNL d   1      -1.923   0.036   1.760  0.00  0.00     0.071 C 
ENDROOT
BRANCH   1   8
ATOM      8  C   UNL d   1      -0.589   2.529   0.255  0.00  0.00     0.257 C 
ATOM      9  N   UNL d   1       0.447   3.444   0.034  0.00  0.00    -0.346 N 
ATOM     10  C   UNL d   1       0.131   4.851   0.329  0.00  0.00     0.141 C 
ATOM     11  C   UNL d   1       1.872   3.099   0.213  0.00  0.00     0.141 C 
ATOM     12  C   UNL d   1       1.110   5.848  -0.319  0.00  0.00     0.117 C 
ATOM     13  N   UNL d   1       2.495   5.455   0.009  0.00  0.00    -0.266 NA
ATOM     14  C   UNL d   1       2.807   4.103  -0.488  0.00  0.00     0.117 C 
ATOM     15  O   UNL d   1      -1.699   2.904   0.636  0.00  0.00    -0.267 OA
BRANCH  13  16
ATOM     16  C   UNL d   1       3.435   6.428  -0.362  0.00  0.00     0.082 A 
ATOM     17  N   UNL d   1       4.262   6.219  -1.407  0.00  0.00    -0.357 N 
ATOM     18  C   UNL d   1       5.187   7.168  -1.681  0.00  0.00     0.089 A 
ATOM     19  HN  UNL d   1       4.193   5.372  -1.972  1.00  0.00     0.166 HD
ATOM     20  C   UNL d   1       5.348   8.330  -0.947  0.00  0.00     0.017 A 
ATOM     21  C   UNL d   1       4.499   8.539   0.129  0.00  0.00     0.005 A 
ATOM     22  C   UNL d   1       3.531   7.582   0.419  0.00  0.00     0.042 A 
ENDBRANCH  13  16
ENDBRANCH   1   8
BRANCH   2  23
ATOM     23  C   UNL d   1      -0.333  -2.460   0.605  0.00  0.00     0.056 A 
ATOM     24  C   UNL d   1      -0.085  -3.496  -0.308  0.00  0.00     0.034 A 
ATOM     25  C   UNL d   1      -0.118  -4.835   0.105  0.00  0.00     0.039 A 
ATOM     26  C   UNL d   1      -0.375  -5.147   1.439  0.00  0.00     0.068 A 
ATOM     27  C   UNL d   1      -0.567  -4.116   2.358  0.00  0.00     0.039 A 
ATOM     28  C   UNL d   1      -0.552  -2.778   1.948  0.00  0.00     0.034 A 
BRANCH  26  29
ATOM     29  O   UNL d   1      -0.427  -6.408   1.967  0.00  0.00    -0.356 OA
ATOM     30  C   UNL d   1      -0.654  -7.466   1.043  0.00  0.00     0.210 C 
ENDBRANCH  26  29
ENDBRANCH   2  23
TORSDOF 4
