REMARK  6 active torsions:
REMARK  status: ('A' for Active; 'I' for Inactive)
REMARK    1  A    between atoms: C_2  and  C_1 
REMARK       I    between atoms: N_6  and  C_2 
REMARK       I    between atoms: C_3  and  N_7 
REMARK       I    between atoms: N_8  and  C_3 
REMARK    2  A    between atoms: C_19  and  C_4 
REMARK    3  A    between atoms: C_5  and  C_14 
REMARK    4  A    between atoms: N_7  and  N_6 
REMARK    5  A    between atoms: C_16  and  N_8 
REMARK    6  A    between atoms: N_17  and  C_19 
ROOT
ATOM      1  C   UNL d   1       3.102   2.204  -0.144  0.00  0.00     0.271 C 
ATOM      2  N   UNL d   1       2.770   3.430   0.398  0.00  0.00    -0.262 N 
ATOM      3  O   UNL d   1       4.173   2.009  -0.712  0.00  0.00    -0.266 OA
ATOM      4  H   UNL d   1       2.027   3.560   1.079  0.00  0.00     0.190 HD
ENDROOT
BRANCH   1   5
ATOM      5  C   UNL d   1       2.113   1.098  -0.010  0.00  0.00     0.050 A 
ATOM      6  C   UNL d   1       0.724   1.292   0.049  0.00  0.00     0.040 A 
ATOM      7  C   UNL d   1      -0.120   0.178   0.079  0.00  0.00     0.034 A 
ATOM      8  C   UNL d   1       0.449  -1.089   0.062  0.00  0.00     0.108 A 
ATOM      9  N   UNL d   1       1.782  -1.313   0.017  0.00  0.00    -0.373 N 
ATOM     10  C   UNL d   1       2.580  -0.215  -0.035  0.00  0.00     0.104 A 
ATOM     11  HN  UNL d   1       2.168  -2.257   0.021  1.00  0.00     0.164 HD
BRANCH   7  12
ATOM     12  C   UNL d   1      -1.548   0.291   0.086  0.00  0.00    -0.064 C 
ATOM     13  C   UNL d   1      -2.754   0.229   0.068  0.00  0.00    -0.071 C 
BRANCH  13  14
ATOM     14  C   UNL d   1      -4.199  -0.014   0.047  0.00  0.00     0.365 C 
BRANCH  14  15
ATOM     15  N   UNL d   1      -4.620  -0.748  -1.158  0.00  0.00     0.090 N 
ATOM     16  C   UNL d   1      -3.989  -2.067  -1.267  0.00  0.00     0.310 C 
ATOM     17  C   UNL d   1      -6.077  -0.907  -1.140  0.00  0.00     0.310 C 
ENDBRANCH  14  15
ENDBRANCH  13  14
ENDBRANCH   7  12
ENDBRANCH   1   5
BRANCH   2  18
ATOM     18  N   UNL d   1       3.688   4.522   0.253  0.00  0.00    -0.248 N 
ATOM     19  C   UNL d   1       3.126   5.797   0.184  0.00  0.00     0.339 C 
ATOM     20  N   UNL d   1       4.076   6.810   0.121  0.00  0.00    -0.308 N 
ATOM     21  O   UNL d   1       1.907   5.945   0.244  0.00  0.00    -0.245 OA
ATOM     22  H   UNL d   1       5.044   6.531   0.049  0.00  0.00     0.170 HD
ATOM     23  H   UNL d   1       4.449   4.312  -0.390  0.00  0.00     0.192 HD
BRANCH  20  24
ATOM     24  C   UNL d   1       3.825   8.203   0.283  0.00  0.00     0.036 A 
ATOM     25  C   UNL d   1       2.574   8.703   0.657  0.00  0.00     0.031 A 
ATOM     26  C   UNL d   1       2.376  10.062   0.917  0.00  0.00     0.026 A 
ATOM     27  C   UNL d   1       3.436  10.949   0.797  0.00  0.00     0.034 A 
ATOM     28  C   UNL d   1       4.683  10.488   0.381  0.00  0.00     0.026 A 
ATOM     29 CL   UNL d   1       3.204  12.605   1.198  0.00  0.00    -0.084 Cl
ATOM     30  C   UNL d   1       4.880   9.119   0.125  0.00  0.00     0.031 A 
ENDBRANCH  20  24
ENDBRANCH   2  18
TORSDOF 6
