REMARK  6 active torsions:
REMARK  status: ('A' for Active; 'I' for Inactive)
REMARK    1  A    between atoms: C_14  and  N_1 
REMARK    2  A    between atoms: N_7  and  N_5 
REMARK    3  A    between atoms: C_21  and  C_14 
REMARK    4  A    between atoms: C_17  and  C_16 
REMARK    5  A    between atoms: C_23  and  C_21 
REMARK    6  A    between atoms: O_22  and  C_23 
ROOT
ATOM      1  N   UNL d   1      -0.331   1.034   0.003  0.00  0.00    -0.296 N 
ATOM      2  C   UNL d   1       0.983   0.644  -0.026  0.00  0.00     0.164 A 
ATOM      3  C   UNL d   1      -1.275   0.029  -0.044  0.00  0.00     0.235 A 
ATOM      4  S   UNL d   1       1.118  -1.102  -0.028  0.00  0.00    -0.083 SA
ATOM      5  N   UNL d   1       1.972   1.483  -0.039  0.00  0.00    -0.280 N 
ATOM      6  HN  UNL d   1       1.844   2.494   0.008  1.00  0.00     0.189 HD
ATOM      7  C   UNL d   1      -0.657  -1.342  -0.095  0.00  0.00     0.185 A 
ATOM      8  O   UNL d   1      -2.489   0.195  -0.065  0.00  0.00    -0.272 OA
ENDROOT
BRANCH   5   9
ATOM      9  N   UNL d   1       3.222   0.879  -0.123  0.00  0.00    -0.309 N 
ATOM     10  C   UNL d   1       4.155   1.612   0.387  0.00  0.00     0.118 C 
ATOM     11  HN  UNL d   1       3.383  -0.038  -0.539  1.00  0.00     0.186 HD
BRANCH  10  12
ATOM     12  C   UNL d   1       5.550   1.134   0.437  0.00  0.00    -0.018 A 
ATOM     13  C   UNL d   1       5.899  -0.099  -0.128  0.00  0.00     0.038 A 
ATOM     14  C   UNL d   1       7.215  -0.556  -0.042  0.00  0.00     0.056 A 
ATOM     15 CL   UNL d   1       7.585  -2.087  -0.755  0.00  0.00    -0.083 Cl
ATOM     16  C   UNL d   1       8.182   0.219   0.610  0.00  0.00     0.055 A 
ATOM     17  C   UNL d   1       7.827   1.454   1.167  0.00  0.00     0.026 A 
ATOM     18 CL   UNL d   1       9.825  -0.291   0.773  0.00  0.00    -0.083 Cl
ATOM     19  C   UNL d   1       6.511   1.915   1.079  0.00  0.00     0.014 A 
ENDBRANCH  10  12
ENDBRANCH   5   9
BRANCH   1  20
ATOM     20  C   UNL d   1      -0.735   2.435  -0.099  0.00  0.00     0.136 C 
BRANCH  20  21
ATOM     21  C   UNL d   1      -1.518   2.938   1.119  0.00  0.00     0.046 C 
BRANCH  21  22
ATOM     22  C   UNL d   1      -1.862   4.420   0.984  0.00  0.00     0.168 C 
BRANCH  22  23
ATOM     23  O   UNL d   1      -2.624   4.617  -0.205  0.00  0.00    -0.396 OA
ATOM     24  C   UNL d   1      -2.997   5.977  -0.384  0.00  0.00     0.201 C 
ENDBRANCH  22  23
ENDBRANCH  21  22
ENDBRANCH  20  21
ENDBRANCH   1  20
TORSDOF 6
