REMARK  4 active torsions:
REMARK  status: ('A' for Active; 'I' for Inactive)
REMARK    1  A    between atoms: C_9  and  C_2 
REMARK    2  A    between atoms: N_7  and  C_3 
REMARK    3  A    between atoms: C_4  and  C_15 
REMARK    4  A    between atoms: C_15  and  N_14 
ROOT
ATOM      1  C   UNL d   1       1.147   0.412   1.085  0.00  0.00     0.048 A 
ATOM      2  C   UNL d   1       1.131   0.344   2.546  0.00  0.00     0.004 A 
ATOM      3  C   UNL d   1       1.579   1.334   0.083  0.00  0.00     0.097 A 
ATOM      4  C   UNL d   1       0.551  -0.830   3.003  0.00  0.00     0.065 A 
ATOM      5  C   UNL d   1       0.545  -0.743   0.577  0.00  0.00     0.089 A 
ATOM      6  S   UNL d   1       0.044  -1.858   1.757  0.00  0.00    -0.082 SA
ATOM      7  N   UNL d   1       1.346   1.012  -1.222  0.00  0.00    -0.342 N 
ATOM      8  HN  UNL d   1       1.635   1.655  -1.959  1.00  0.00     0.167 HD
ATOM      9  N   UNL d   1       0.324  -1.065  -0.706  0.00  0.00    -0.346 N 
ATOM     10  HN  UNL d   1      -0.119  -1.935  -1.003  1.00  0.00     0.167 HD
ATOM     11  C   UNL d   1       0.743  -0.133  -1.544  0.00  0.00     0.182 A 
ENDROOT
BRANCH   3  12
ATOM     12  N   UNL d   1       2.288   2.528   0.319  0.00  0.00    -0.265 NA
ATOM     13  C   UNL d   1       3.118   2.914  -0.854  0.00  0.00     0.127 C 
ATOM     14  C   UNL d   1       3.942   4.184  -0.549  0.00  0.00     0.287 C 
ATOM     15  N   UNL d   1       3.148   5.345  -0.077  0.00  0.00     0.095 N 
ATOM     16  C   UNL d   1       2.272   4.895   1.032  0.00  0.00     0.287 C 
ATOM     17  C   UNL d   1       1.405   3.641   0.732  0.00  0.00     0.127 C 
BRANCH  15  18
ATOM     18  C   UNL d   1       2.407   5.960  -1.192  0.00  0.00     0.316 C 
BRANCH  18  19
ATOM     19  C   UNL d   1       1.675   7.228  -0.823  0.00  0.00     0.030 A 
ATOM     20  C   UNL d   1       0.275   7.243  -0.879  0.00  0.00     0.126 A 
ATOM     21  F   UNL d   1      -0.390   6.137  -1.245  0.00  0.00    -0.205 F 
ATOM     22  C   UNL d   1      -0.466   8.378  -0.560  0.00  0.00     0.043 A 
ATOM     23  C   UNL d   1       0.190   9.539  -0.167  0.00  0.00     0.005 A 
ATOM     24  C   UNL d   1       1.582   9.553  -0.102  0.00  0.00     0.024 A 
ATOM     25  C   UNL d   1       2.322   8.410  -0.433  0.00  0.00     0.045 A 
ATOM     26 CL   UNL d   1       4.045   8.534  -0.354  0.00  0.00    -0.084 Cl
ENDBRANCH  18  19
ENDBRANCH  15  18
ENDBRANCH   3  12
BRANCH   2  27
ATOM     27  C   UNL d   1       1.610   1.340   3.580  0.00  0.00     0.016 A 
ATOM     28  S   UNL d   1       0.893   1.478   5.142  0.00  0.00    -0.101 SA
ATOM     29  C   UNL d   1       1.898   2.778   5.584  0.00  0.00     0.050 A 
ATOM     30  C   UNL d   1       2.804   3.075   4.589  0.00  0.00     0.008 A 
ATOM     31  C   UNL d   1       2.655   2.228   3.451  0.00  0.00     0.020 A 
ENDBRANCH   2  27
TORSDOF 4
