REMARK  6 active torsions:
REMARK  status: ('A' for Active; 'I' for Inactive)
REMARK    1  A    between atoms: N_4  and  C_1 
REMARK    2  A    between atoms: C_2  and  C_9 
REMARK    3  A    between atoms: N_5  and  N_4 
REMARK    4  A    between atoms: C_11  and  C_10 
REMARK    5  A    between atoms: C_21  and  C_13 
REMARK    6  A    between atoms: C_23  and  C_21 
ROOT
ATOM      1  N   UNL d   1      -0.826   5.141   0.842  0.00  0.00    -0.320 N 
ATOM      2  HN  UNL d   1      -0.444   5.505   1.715  1.00  0.00     0.181 HD
ATOM      3  C   UNL d   1      -0.087   5.019  -0.226  0.00  0.00     0.034 C 
ATOM      4  C   UNL d   1      -0.629   4.492  -1.542  0.00  0.00     0.070 C 
ENDROOT
BRANCH   3   5
ATOM      5  C   UNL d   1       1.312   5.418  -0.156  0.00  0.00     0.029 A 
ATOM      6  S   UNL d   1       1.774   6.688   0.902  0.00  0.00    -0.079 SA
ATOM      7  C   UNL d   1       3.414   6.595   0.440  0.00  0.00     0.059 A 
ATOM      8  C   UNL d   1       3.623   5.595  -0.485  0.00  0.00     0.029 A 
ATOM      9  C   UNL d   1       2.409   4.921  -0.836  0.00  0.00     0.023 A 
BRANCH   7  10
ATOM     10  C   UNL d   1       4.408   7.466   0.988  0.00  0.00    -0.059 C 
ATOM     11  C   UNL d   1       5.203   8.223   1.491  0.00  0.00    -0.100 C 
BRANCH  11  12
ATOM     12  C   UNL d   1       6.164   9.145   2.129  0.00  0.00     0.099 C 
BRANCH  12  13
ATOM     13  C   UNL d   1       6.534   8.721   3.570  0.00  0.00    -0.003 C 
ATOM     14  C   UNL d   1       7.528   9.701   4.226  0.00  0.00     0.005 C 
ATOM     15  C   UNL d   1       8.945   9.595   3.660  0.00  0.00     0.000 C 
ATOM     16  C   UNL d   1       9.472   8.164   3.709  0.00  0.00     0.000 C 
ATOM     17  C   UNL d   1       8.505   7.172   3.072  0.00  0.00     0.000 C 
ATOM     18  C   UNL d   1       7.102   7.293   3.662  0.00  0.00     0.005 C 
ENDBRANCH  12  13
ENDBRANCH  11  12
ENDBRANCH   7  10
ENDBRANCH   3   5
BRANCH   1  19
ATOM     19  N   UNL d   1      -2.128   4.761   0.740  0.00  0.00    -0.202 NA
ATOM     20  H   UNL d   1      -2.716   5.459   0.269  0.00  0.00     0.153 HD
BRANCH  19  21
ATOM     21  C   UNL d   1      -2.774   4.365   1.953  0.00  0.00     0.071 A 
ATOM     22  C   UNL d   1      -4.139   4.694   2.126  0.00  0.00     0.060 A 
ATOM     23  C   UNL d   1      -4.878   4.241   3.220  0.00  0.00     0.049 A 
ATOM     24 CL   UNL d   1      -4.953   5.699   0.969  0.00  0.00    -0.082 Cl
ATOM     25  C   UNL d   1      -4.265   3.433   4.167  0.00  0.00     0.037 A 
ATOM     26  C   UNL d   1      -2.923   3.091   4.039  0.00  0.00     0.049 A 
ATOM     27 CL   UNL d   1      -5.179   2.824   5.491  0.00  0.00    -0.084 Cl
ATOM     28  C   UNL d   1      -2.181   3.543   2.938  0.00  0.00     0.060 A 
ATOM     29 CL   UNL d   1      -0.547   2.968   2.853  0.00  0.00    -0.082 Cl
ENDBRANCH  19  21
ENDBRANCH   1  19
TORSDOF 6
