REMARK  2 active torsions:
REMARK  status: ('A' for Active; 'I' for Inactive)
REMARK    1  A    between atoms: C_10  and  C_4 
REMARK    2  A    between atoms: C_11  and  C_5 
ROOT
ATOM      1  C   UNL d   1       1.938   0.239   0.075  0.00  0.00     0.021 C 
ATOM      2  C   UNL d   1      -0.414   1.241   0.102  0.00  0.00     0.021 C 
ATOM      3  C   UNL d   1       1.066   1.449   0.222  0.00  0.00     0.188 C 
ATOM      4  C   UNL d   1       3.272   0.437   0.109  0.00  0.00     0.024 C 
ATOM      5  C   UNL d   1      -1.190   2.342   0.165  0.00  0.00     0.024 C 
ATOM      6  N   UNL d   1      -0.034  -1.141   0.553  0.00  0.00     0.092 N 
ATOM      7  C   UNL d   1       1.275  -1.095  -0.104  0.00  0.00     0.315 C 
ATOM      8  C   UNL d   1      -0.920  -0.160  -0.077  0.00  0.00     0.315 C 
ATOM      9  O   UNL d   1       1.546   2.567   0.406  0.00  0.00    -0.287 OA
ATOM     10  C   UNL d   1      -0.605  -2.484   0.464  0.00  0.00     0.310 C 
ENDROOT
BRANCH   4  11
ATOM     11  C   UNL d   1       4.268  -0.618  -0.089  0.00  0.00    -0.035 A 
ATOM     12  C   UNL d   1       4.720  -0.913  -1.380  0.00  0.00     0.013 A 
ATOM     13  C   UNL d   1       5.679  -1.910  -1.579  0.00  0.00     0.024 A 
ATOM     14  C   UNL d   1       6.182  -2.611  -0.484  0.00  0.00     0.034 A 
ATOM     15  C   UNL d   1       5.728  -2.335   0.803  0.00  0.00     0.024 A 
ATOM     16 CL   UNL d   1       7.377  -3.827  -0.728  0.00  0.00    -0.084 Cl
ATOM     17  C   UNL d   1       4.769  -1.337   1.002  0.00  0.00     0.013 A 
ENDBRANCH   4  11
BRANCH   5  18
ATOM     18  C   UNL d   1      -2.648   2.347   0.027  0.00  0.00    -0.035 A 
ATOM     19  C   UNL d   1      -3.466   2.192   1.152  0.00  0.00     0.013 A 
ATOM     20  C   UNL d   1      -4.857   2.229   1.019  0.00  0.00     0.024 A 
ATOM     21  C   UNL d   1      -5.429   2.421  -0.238  0.00  0.00     0.034 A 
ATOM     22  C   UNL d   1      -4.622   2.562  -1.366  0.00  0.00     0.024 A 
ATOM     23 CL   UNL d   1      -7.140   2.493  -0.397  0.00  0.00    -0.084 Cl
ATOM     24  C   UNL d   1      -3.231   2.523  -1.234  0.00  0.00     0.013 A 
ENDBRANCH   5  18
TORSDOF 2
