REMARK  4 active torsions:
REMARK  status: ('A' for Active; 'I' for Inactive)
REMARK    1  A    between atoms: S_11  and  C_5 
REMARK    2  A    between atoms: C_9  and  N_8 
REMARK    3  A    between atoms: O_12  and  C_10 
REMARK    4  A    between atoms: C_15  and  O_12 
ROOT
ATOM      1  C   UNL d   1       2.871  -0.400  -1.487  0.00  0.00     0.166 A 
ATOM      2  S   UNL d   1       1.462  -1.404  -1.546  0.00  0.00    -0.027 SA
ATOM      3  N   UNL d   1       3.226   0.031  -2.684  0.00  0.00    -0.278 N 
ATOM      4  HN  UNL d   1       4.023   0.648  -2.841  1.00  0.00     0.189 HD
ATOM      5  C   UNL d   1       1.466  -1.200  -3.247  0.00  0.00     0.127 A 
ATOM      6  N   UNL d   1       2.419  -0.428  -3.700  0.00  0.00    -0.286 N 
ATOM      7  HN  UNL d   1       2.549  -0.196  -4.685  1.00  0.00     0.188 HD
ATOM      8  N   UNL d   1       3.478  -0.119  -0.303  0.00  0.00    -0.333 N 
ATOM      9  H   UNL d   1       2.958  -0.230   0.561  0.00  0.00     0.168 HD
ENDROOT
BRANCH   8  10
ATOM     10  C   UNL d   1       4.634   0.684  -0.139  0.00  0.00     0.067 A 
ATOM     11  C   UNL d   1       4.830   1.410   1.057  0.00  0.00     0.095 A 
ATOM     12  C   UNL d   1       5.892   2.324   1.149  0.00  0.00     0.039 A 
ATOM     13  C   UNL d   1       6.806   2.462   0.105  0.00  0.00     0.003 A 
ATOM     14  C   UNL d   1       6.671   1.690  -1.039  0.00  0.00     0.002 A 
ATOM     15  C   UNL d   1       5.590   0.817  -1.161  0.00  0.00     0.032 A 
BRANCH  11  16
ATOM     16  O   UNL d   1       3.933   1.174   2.080  0.00  0.00    -0.349 OA
BRANCH  16  17
ATOM     17  C   UNL d   1       4.348   1.643   3.371  0.00  0.00     0.171 C 
ATOM     18  C   UNL d   1       3.495   0.999   4.448  0.00  0.00     0.034 C 
ENDBRANCH  16  17
ENDBRANCH  11  16
ENDBRANCH   8  10
BRANCH   5  19
ATOM     19  S   UNL d   1       0.315  -1.946  -4.325  0.00  0.00    -0.117 SA
ATOM     20  H   UNL d   1      -0.240  -2.779  -3.438  0.00  0.00     0.109 HD
ENDBRANCH   5  19
TORSDOF 4
