REMARK  3 active torsions:
REMARK  status: ('A' for Active; 'I' for Inactive)
REMARK    1  A    between atoms: C_11  and  C_1 
REMARK       I    between atoms: C_5  and  N_10 
REMARK       I    between atoms: N_9  and  C_5 
REMARK    2  A    between atoms: C_12  and  N_9 
REMARK    3  A    between atoms: N_10  and  C_11 
ROOT
ATOM      1  C   UNL d   1       4.141  -3.801  -0.072  0.00  0.00     0.320 C 
ATOM      2  N   UNL d   1       5.368  -3.849  -0.670  0.00  0.00    -0.309 N 
ATOM      3  N   UNL d   1       3.575  -2.569   0.067  0.00  0.00    -0.339 N 
ATOM      4  O   UNL d   1       3.554  -4.848   0.190  0.00  0.00    -0.247 OA
ATOM      5  H   UNL d   1       5.549  -4.759  -1.078  0.00  0.00     0.170 HD
ATOM      6  H   UNL d   1       4.010  -1.815  -0.443  0.00  0.00     0.164 HD
ENDROOT
BRANCH   3   7
ATOM      7  C   UNL d   1       2.167  -2.412   0.346  0.00  0.00     0.164 C 
BRANCH   7   8
ATOM      8  C   UNL d   1       1.529  -1.709  -0.822  0.00  0.00    -0.022 A 
ATOM      9  C   UNL d   1       1.347  -2.276  -2.148  0.00  0.00    -0.009 A 
ATOM     10  C   UNL d   1       0.733  -1.369  -3.018  0.00  0.00     0.015 A 
ATOM     11  C   UNL d   1       1.692  -3.552  -2.669  0.00  0.00     0.037 A 
ATOM     12  C   UNL d   1       0.463  -1.692  -4.364  0.00  0.00     0.021 A 
ATOM     13  S   UNL d   1       0.381   0.119  -2.232  0.00  0.00    -0.101 SA
ATOM     14  C   UNL d   1       0.830  -2.950  -4.847  0.00  0.00     0.025 A 
ATOM     15  C   UNL d   1       1.441  -3.865  -4.007  0.00  0.00     0.035 A 
ATOM     16 CL   UNL d   1       1.907  -5.406  -4.619  0.00  0.00    -0.084 Cl
ATOM     17  C   UNL d   1       1.042  -0.417  -0.760  0.00  0.00     0.060 A 
ENDBRANCH   7   8
ENDBRANCH   3   7
BRANCH   2  18
ATOM     18  C   UNL d   1       6.281  -2.820  -0.939  0.00  0.00     0.037 A 
ATOM     19  C   UNL d   1       6.475  -1.740  -0.076  0.00  0.00     0.054 A 
ATOM     20  C   UNL d   1       7.378  -0.727  -0.413  0.00  0.00     0.042 A 
ATOM     21 CL   UNL d   1       7.590   0.569   0.711  0.00  0.00    -0.084 Cl
ATOM     22  C   UNL d   1       8.086  -0.771  -1.622  0.00  0.00    -0.040 A 
ATOM     23  C   UNL d   1       7.918  -1.885  -2.457  0.00  0.00     0.011 A 
ATOM     24  C   UNL d   1       9.021   0.328  -2.039  0.00  0.00     0.050 C 
ATOM     25  C   UNL d   1       7.040  -2.913  -2.106  0.00  0.00     0.030 A 
ENDBRANCH   2  18
TORSDOF 3
