REMARK  6 active torsions:
REMARK  status: ('A' for Active; 'I' for Inactive)
REMARK    1  A    between atoms: C_7  and  C_1 
REMARK    2  A    between atoms: C_10  and  C_2 
REMARK    3  A    between atoms: N_6  and  C_7 
REMARK    4  A    between atoms: C_9  and  C_11 
REMARK    5  A    between atoms: O_22  and  C_12 
REMARK    6  A    between atoms: O_23  and  C_19 
ROOT
ATOM      1  C   UNL d   1       1.793   2.686   1.197  0.00  0.00     0.016 A 
ATOM      2  C   UNL d   1       0.696   3.627   1.145  0.00  0.00     0.067 A 
ATOM      3  N   UNL d   1       0.601   4.327   2.287  0.00  0.00    -0.300 N 
ATOM      4  HN  UNL d   1      -0.059   5.073   2.508  1.00  0.00     0.187 HD
ATOM      5  N   UNL d   1       1.559   3.830   3.067  0.00  0.00    -0.311 N 
ATOM      6  C   UNL d   1       2.300   2.859   2.470  0.00  0.00     0.118 A 
ATOM      7  H   UNL d   1       1.649   4.194   4.010  0.00  0.00     0.186 HD
ENDROOT
BRANCH   1   8
ATOM      8  C   UNL d   1       2.164   1.737   0.094  0.00  0.00     0.315 C 
BRANCH   8   9
ATOM      9  N   UNL d   1       3.537   1.158   0.087  0.00  0.00     0.092 N 
ATOM     10  C   UNL d   1       3.687   0.469  -1.217  0.00  0.00     0.273 C 
ATOM     11  C   UNL d   1       4.864  -0.505  -1.348  0.00  0.00     0.040 C 
ATOM     12  C   UNL d   1       4.966  -1.499  -0.176  0.00  0.00     0.025 C 
ATOM     13  C   UNL d   1       4.996  -0.629   1.087  0.00  0.00     0.040 C 
ATOM     14  C   UNL d   1       3.739   0.229   1.210  0.00  0.00     0.273 C 
BRANCH  12  15
ATOM     15  C   UNL d   1       3.948  -2.645  -0.113  0.00  0.00    -0.021 A 
ATOM     16  C   UNL d   1       3.962  -3.593   0.933  0.00  0.00     0.074 A 
ATOM     17  C   UNL d   1       2.987  -4.596   1.036  0.00  0.00     0.037 A 
ATOM     18  C   UNL d   1       1.998  -4.712   0.064  0.00  0.00     0.003 A 
ATOM     19  C   UNL d   1       1.992  -3.829  -1.009  0.00  0.00     0.001 A 
ATOM     20  C   UNL d   1       2.958  -2.821  -1.100  0.00  0.00     0.010 A 
BRANCH  16  21
ATOM     21  O   UNL d   1       4.864  -3.563   1.966  0.00  0.00    -0.355 OA
ATOM     22  C   UNL d   1       6.174  -3.959   1.560  0.00  0.00     0.210 C 
ENDBRANCH  16  21
ENDBRANCH  12  15
ENDBRANCH   8   9
ENDBRANCH   1   8
BRANCH   2  23
ATOM     23  C   UNL d   1      -0.268   3.877   0.068  0.00  0.00    -0.007 A 
ATOM     24  C   UNL d   1      -0.867   2.827  -0.638  0.00  0.00     0.016 A 
ATOM     25  C   UNL d   1      -1.809   3.083  -1.644  0.00  0.00     0.037 A 
ATOM     26  C   UNL d   1      -2.175   4.395  -1.944  0.00  0.00     0.068 A 
ATOM     27  C   UNL d   1      -1.603   5.445  -1.226  0.00  0.00     0.037 A 
ATOM     28  C   UNL d   1      -0.653   5.190  -0.232  0.00  0.00     0.016 A 
BRANCH  26  29
ATOM     29  O   UNL d   1      -3.097   4.771  -2.882  0.00  0.00    -0.356 OA
ATOM     30  C   UNL d   1      -3.427   3.800  -3.866  0.00  0.00     0.210 C 
ENDBRANCH  26  29
ENDBRANCH   2  23
TORSDOF 6
