REMARK  3 active torsions:
REMARK  status: ('A' for Active; 'I' for Inactive)
REMARK       I    between atoms: C_7  and  N_12 
REMARK       I    between atoms: N_14  and  C_7 
REMARK    1  A    between atoms: N_12  and  C_10 
REMARK    2  A    between atoms: C_16  and  N_14 
REMARK    3  A    between atoms: O_22  and  C_17 
ROOT
ATOM      1  C   UNL d   1      -4.575  -0.509  -0.326  0.00  0.00     0.325 C 
ATOM      2  N   UNL d   1      -5.661  -1.169   0.231  0.00  0.00    -0.309 N 
ATOM      3  N   UNL d   1      -4.641   0.861  -0.128  0.00  0.00    -0.309 N 
ATOM      4  O   UNL d   1      -3.647  -1.082  -0.886  0.00  0.00    -0.247 OA
ATOM      5  H   UNL d   1      -6.430  -0.596   0.544  0.00  0.00     0.170 HD
ATOM      6  H   UNL d   1      -5.480   1.234   0.291  0.00  0.00     0.170 HD
ENDROOT
BRANCH   2   7
ATOM      7  C   UNL d   1      -5.784  -2.571   0.424  0.00  0.00     0.038 A 
ATOM      8  C   UNL d   1      -4.760  -3.476   0.071  0.00  0.00     0.063 A 
ATOM      9  C   UNL d   1      -4.992  -4.824   0.404  0.00  0.00     0.087 A 
ATOM     10  C   UNL d   1      -6.213  -5.263   1.053  0.00  0.00     0.085 A 
ATOM     11  N   UNL d   1      -4.206  -5.892   0.220  0.00  0.00    -0.239 N 
ATOM     12  N   UNL d   1      -6.134  -6.584   1.252  0.00  0.00    -0.240 N 
ATOM     13  C   UNL d   1      -7.246  -4.369   1.383  0.00  0.00     0.036 A 
ATOM     14  O   UNL d   1      -4.902  -6.966   0.744  0.00  0.00    -0.156 OA
ATOM     15  HN  UNL d   1      -6.835  -7.185   1.686  1.00  0.00     0.197 HD
ATOM     16  C   UNL d   1      -6.986  -3.020   1.049  0.00  0.00     0.032 A 
ATOM     17  HN  UNL d   1      -3.284  -5.910  -0.216  1.00  0.00     0.197 HD
ENDBRANCH   2   7
BRANCH   3  18
ATOM     18  C   UNL d   1      -3.591   1.787  -0.351  0.00  0.00     0.036 A 
ATOM     19  C   UNL d   1      -2.346   1.435  -0.875  0.00  0.00     0.032 A 
ATOM     20  C   UNL d   1      -1.306   2.366  -0.967  0.00  0.00     0.039 A 
ATOM     21  C   UNL d   1      -1.496   3.674  -0.531  0.00  0.00     0.068 A 
ATOM     22  C   UNL d   1      -2.755   4.052  -0.064  0.00  0.00     0.039 A 
ATOM     23  C   UNL d   1      -3.798   3.118   0.027  0.00  0.00     0.032 A 
BRANCH  21  24
ATOM     24  O   UNL d   1      -0.539   4.650  -0.512  0.00  0.00    -0.356 OA
ATOM     25  C   UNL d   1       0.802   4.217  -0.727  0.00  0.00     0.210 C 
ENDBRANCH  21  24
ENDBRANCH   3  18
TORSDOF 3
