REMARK  6 active torsions:
REMARK  status: ('A' for Active; 'I' for Inactive)
REMARK    1  A    between atoms: N_2  and  S_1 
REMARK    2  A    between atoms: C_14  and  S_1 
REMARK    3  A    between atoms: C_6  and  C_5 
REMARK    4  A    between atoms: C_11  and  C_10 
REMARK    5  A    between atoms: C_22  and  C_13 
REMARK    6  A    between atoms: N_20  and  C_22 
ROOT
ATOM      1  N   UNL d   1       1.139  -1.389  -1.075  0.00  0.00    -0.188 N 
ATOM      2  N   UNL d   1       0.564  -1.763  -2.256  0.00  0.00    -0.284 N 
ATOM      3  HN  UNL d   1       0.744  -1.389  -3.188  1.00  0.00     0.188 HD
ATOM      4  C   UNL d   1      -0.293  -2.734  -1.908  0.00  0.00     0.067 A 
ATOM      5  C   UNL d   1       0.739  -2.179  -0.023  0.00  0.00     0.132 A 
ATOM      6  C   UNL d   1      -0.200  -3.043  -0.529  0.00  0.00     0.052 A 
ENDROOT
BRANCH   4   7
ATOM      7  C   UNL d   1      -1.238  -3.374  -2.886  0.00  0.00     0.034 A 
ATOM      8  S   UNL d   1      -2.396  -4.555  -2.451  0.00  0.00    -0.079 SA
ATOM      9  C   UNL d   1      -3.019  -4.641  -4.039  0.00  0.00     0.059 A 
ATOM     10  C   UNL d   1      -2.335  -3.811  -4.899  0.00  0.00     0.029 A 
ATOM     11  C   UNL d   1      -1.302  -3.075  -4.233  0.00  0.00     0.023 A 
BRANCH   9  12
ATOM     12  C   UNL d   1      -4.126  -5.475  -4.378  0.00  0.00    -0.058 C 
ATOM     13  C   UNL d   1      -5.080  -6.177  -4.586  0.00  0.00    -0.070 C 
BRANCH  13  14
ATOM     14  C   UNL d   1      -6.271  -7.024  -4.770  0.00  0.00     0.365 C 
BRANCH  14  15
ATOM     15  N   UNL d   1      -6.179  -8.291  -4.025  0.00  0.00     0.090 N 
ATOM     16  C   UNL d   1      -6.143  -8.072  -2.576  0.00  0.00     0.310 C 
ATOM     17  C   UNL d   1      -7.318  -9.151  -4.359  0.00  0.00     0.310 C 
ENDBRANCH  14  15
ENDBRANCH  13  14
ENDBRANCH   9  12
ENDBRANCH   4   7
BRANCH   1  18
ATOM     18  S   UNL d   1       2.196  -0.032  -0.841  0.00  0.00     0.282 S 
ATOM     19  O   UNL d   1       2.504  -0.021   0.580  0.00  0.00    -0.198 OA
ATOM     20  O   UNL d   1       1.549   1.090  -1.493  0.00  0.00    -0.198 OA
BRANCH  18  21
ATOM     21  C   UNL d   1       3.708  -0.364  -1.707  0.00  0.00     0.081 A 
ATOM     22  C   UNL d   1       3.741  -1.107  -2.889  0.00  0.00     0.027 A 
ATOM     23  C   UNL d   1       4.958  -1.280  -3.558  0.00  0.00     0.025 A 
ATOM     24  C   UNL d   1       6.126  -0.708  -3.052  0.00  0.00     0.034 A 
ATOM     25  C   UNL d   1       6.095   0.032  -1.872  0.00  0.00     0.025 A 
ATOM     26 CL   UNL d   1       7.610  -0.900  -3.900  0.00  0.00    -0.084 Cl
ATOM     27  C   UNL d   1       4.885   0.204  -1.196  0.00  0.00     0.027 A 
ENDBRANCH  18  21
ENDBRANCH   1  18
TORSDOF 6
