REMARK  5 active torsions:
REMARK  status: ('A' for Active; 'I' for Inactive)
REMARK    1  A    between atoms: C_3  and  C_1 
REMARK       I    between atoms: N_4  and  C_1 
REMARK    2  A    between atoms: C_2  and  N_5 
REMARK    3  A    between atoms: N_6  and  C_2 
REMARK    4  A    between atoms: N_5  and  N_4 
REMARK    5  A    between atoms: C_11  and  N_6 
ROOT
ATOM      1  C   UNL d   1       1.414  -0.676  -1.366  0.00  0.00     0.273 C 
ATOM      2  N   UNL d   1       0.347   0.203  -1.411  0.00  0.00    -0.262 N 
ATOM      3  O   UNL d   1       1.326  -1.901  -1.307  0.00  0.00    -0.266 OA
ATOM      4  H   UNL d   1       0.453   1.201  -1.235  0.00  0.00     0.190 HD
ENDROOT
BRANCH   2   5
ATOM      5  N   UNL d   1      -0.986  -0.297  -1.368  0.00  0.00    -0.269 N 
ATOM      6  C   UNL d   1      -1.304  -0.977  -2.623  0.00  0.00     0.180 C 
BRANCH   5   7
ATOM      7  C   UNL d   1      -1.959   0.485  -0.771  0.00  0.00     0.189 C 
ATOM      8  S   UNL d   1      -1.831   2.142  -0.518  0.00  0.00    -0.039 SA
BRANCH   7   9
ATOM      9  N   UNL d   1      -3.116  -0.124  -0.360  0.00  0.00    -0.358 N 
ATOM     10  H   UNL d   1      -3.784   0.569  -0.039  0.00  0.00     0.162 HD
BRANCH   9  11
ATOM     11  C   UNL d   1      -3.255  -1.445   0.310  0.00  0.00     0.021 C 
ATOM     12  C   UNL d   1      -2.039  -1.771   1.193  0.00  0.00     0.037 C 
ATOM     13  C   UNL d   1      -4.496  -1.365   1.230  0.00  0.00     0.037 C 
ATOM     14  C   UNL d   1      -3.507  -2.582  -0.688  0.00  0.00     0.037 C 
ENDBRANCH   9  11
ENDBRANCH   7   9
ENDBRANCH   5   7
ENDBRANCH   2   5
BRANCH   1  15
ATOM     15  C   UNL d   1       2.752  -0.058  -1.465  0.00  0.00     0.077 A 
ATOM     16  C   UNL d   1       3.217   0.831  -0.487  0.00  0.00     0.051 A 
ATOM     17 CL   UNL d   1       2.280   1.266   0.896  0.00  0.00    -0.083 Cl
ATOM     18  C   UNL d   1       4.497   1.398  -0.599  0.00  0.00     0.025 A 
ATOM     19  C   UNL d   1       5.319   1.071  -1.672  0.00  0.00     0.003 A 
ATOM     20  C   UNL d   1       4.865   0.182  -2.644  0.00  0.00     0.025 A 
ATOM     21  C   UNL d   1       3.587  -0.382  -2.546  0.00  0.00     0.051 A 
ATOM     22 CL   UNL d   1       3.097  -1.426  -3.836  0.00  0.00    -0.083 Cl
ENDBRANCH   1  15
TORSDOF 5
