REMARK  4 active torsions:
REMARK  status: ('A' for Active; 'I' for Inactive)
REMARK    1  A    between atoms: S_14  and  C_6 
REMARK       I    between atoms: N_12  and  C_13 
REMARK    2  A    between atoms: C_15  and  N_12 
REMARK    3  A    between atoms: C_13  and  C_19 
REMARK    4  A    between atoms: C_19  and  S_14 
ROOT
ATOM      1  C   UNL d   1      -0.444  -0.218  -1.281  0.00  0.00     0.075 A 
ATOM      2  N   UNL d   1       1.196   1.157  -2.080  0.00  0.00    -0.263 N 
ATOM      3  HN  UNL d   1       2.076   1.499  -2.465  1.00  0.00     0.194 HD
ATOM      4  C   UNL d   1      -0.887   1.092  -1.254  0.00  0.00     0.186 A 
ATOM      5  O   UNL d   1       0.092   1.911  -1.740  0.00  0.00    -0.218 OA
ATOM      6  C   UNL d   1      -1.356  -1.166  -0.813  0.00  0.00     0.087 A 
ATOM      7  C   UNL d   1       0.877  -0.117  -1.802  0.00  0.00     0.046 A 
ATOM      8  N   UNL d   1      -2.074   1.547  -0.825  0.00  0.00    -0.330 N 
ATOM      9  HN  UNL d   1      -2.348   2.529  -0.830  1.00  0.00     0.168 HD
ATOM     10  N   UNL d   1      -2.566  -0.759  -0.359  0.00  0.00    -0.346 N 
ATOM     11  HN  UNL d   1      -3.244  -1.433  -0.003  1.00  0.00     0.167 HD
ATOM     12  C   UNL d   1      -2.850   0.554  -0.390  0.00  0.00     0.183 A 
ATOM     13  C   UNL d   1       1.906  -1.159  -2.033  0.00  0.00     0.071 C 
ENDROOT
BRANCH   6  14
ATOM     14  S   UNL d   1      -0.955  -2.885  -0.791  0.00  0.00    -0.102 SA
BRANCH  14  15
ATOM     15  C   UNL d   1      -2.523  -3.617  -0.186  0.00  0.00     0.184 C 
BRANCH  15  16
ATOM     16  C   UNL d   1      -2.442  -5.144  -0.186  0.00  0.00     0.231 C 
ATOM     17  N   UNL d   1      -3.350  -5.738   0.686  0.00  0.00    -0.325 N 
ATOM     18  H   UNL d   1      -4.195  -5.217   0.898  0.00  0.00     0.169 HD
ATOM     19  O   UNL d   1      -1.701  -5.780  -0.931  0.00  0.00    -0.272 OA
BRANCH  17  20
ATOM     20  C   UNL d   1      -3.432  -7.139   0.892  0.00  0.00     0.056 A 
ATOM     21  C   UNL d   1      -4.687  -7.752   1.048  0.00  0.00     0.060 A 
ATOM     22 CL   UNL d   1      -6.146  -6.832   0.911  0.00  0.00    -0.082 Cl
ATOM     23  C   UNL d   1      -4.787  -9.130   1.256  0.00  0.00     0.026 A 
ATOM     24  C   UNL d   1      -3.632  -9.905   1.356  0.00  0.00     0.002 A 
ATOM     25  C   UNL d   1      -2.380  -9.303   1.229  0.00  0.00     0.002 A 
ATOM     26  C   UNL d   1      -2.281  -7.929   0.984  0.00  0.00     0.031 A 
ENDBRANCH  17  20
ENDBRANCH  15  16
ENDBRANCH  14  15
ENDBRANCH   6  14
TORSDOF 4
