REMARK  3 active torsions:
REMARK  status: ('A' for Active; 'I' for Inactive)
REMARK    1  A    between atoms: N_2  and  S_1 
REMARK    2  A    between atoms: C_7  and  S_1 
REMARK    3  A    between atoms: C_3  and  N_2 
ROOT
ATOM      1  N   UNL d   1       0.592  -0.732  -1.208  0.00  0.00    -0.306 N 
ATOM      2  H   UNL d   1       1.057  -1.634  -1.128  0.00  0.00     0.173 HD
ENDROOT
BRANCH   1   3
ATOM      3  S   UNL d   1      -0.755  -0.649  -0.205  0.00  0.00     0.259 S 
ATOM      4  O   UNL d   1      -0.910   0.694   0.292  0.00  0.00    -0.201 OA
ATOM      5  O   UNL d   1      -0.634  -1.776   0.696  0.00  0.00    -0.201 OA
BRANCH   3   6
ATOM      6  C   UNL d   1      -2.115  -1.014  -1.292  0.00  0.00     0.079 A 
ATOM      7  C   UNL d   1      -2.133  -2.235  -1.973  0.00  0.00     0.025 A 
ATOM      8  C   UNL d   1      -3.118  -2.468  -2.933  0.00  0.00     0.002 A 
ATOM      9  C   UNL d   1      -4.080  -1.492  -3.199  0.00  0.00     0.000 A 
ATOM     10  C   UNL d   1      -4.095  -0.302  -2.471  0.00  0.00     0.002 A 
ATOM     11  C   UNL d   1      -3.125  -0.069  -1.497  0.00  0.00     0.025 A 
ENDBRANCH   3   6
ENDBRANCH   1   3
BRANCH   1  12
ATOM     12  C   UNL d   1       0.720  -0.008  -2.491  0.00  0.00     0.126 C 
ATOM     13  C   UNL d   1       0.656   1.498  -2.376  0.00  0.00    -0.029 A 
ATOM     14  C   UNL d   1       1.810   2.283  -2.210  0.00  0.00    -0.050 A 
ATOM     15  C   UNL d   1      -0.591   2.141  -2.398  0.00  0.00     0.010 A 
ATOM     16  C   UNL d   1       1.680   3.654  -1.933  0.00  0.00     0.007 A 
ATOM     17  C   UNL d   1       3.188   1.723  -2.453  0.00  0.00     0.039 C 
ATOM     18  C   UNL d   1       0.423   4.250  -1.852  0.00  0.00     0.001 A 
ATOM     19  C   UNL d   1      -0.714   3.498  -2.115  0.00  0.00     0.001 A 
ATOM     20  C   UNL d   1       3.262   0.199  -2.451  0.00  0.00     0.007 C 
ATOM     21  C   UNL d   1       2.055  -0.435  -3.141  0.00  0.00     0.031 C 
ENDBRANCH   1  12
TORSDOF 3
