REMARK  10 active torsions:
REMARK  status: ('A' for Active; 'I' for Inactive)
REMARK    1  A    between atoms: C_8  and  C_1 
REMARK    2  A    between atoms: C_11  and  N_6 
REMARK    3  A    between atoms: C_9  and  C_16 
REMARK    4  A    between atoms: C_10  and  N_22 
REMARK    5  A    between atoms: N_15  and  C_10 
REMARK    6  A    between atoms: C_13  and  C_11 
REMARK    7  A    between atoms: O_17  and  C_12 
REMARK       I    between atoms: N_23  and  C_13 
REMARK    8  A    between atoms: C_14  and  N_15 
REMARK    9  A    between atoms: C_18  and  O_17 
REMARK   10  A    between atoms: N_22  and  N_23 
ROOT
ATOM      1  C   UNL d   1      -1.160  -0.086   0.546  0.00  0.00     0.147 A 
ATOM      2  N   UNL d   1      -0.092   0.729   0.683  0.00  0.00    -0.268 N 
ATOM      3  HN  UNL d   1       0.223   1.255   1.498  1.00  0.00     0.190 HD
ATOM      4  N   UNL d   1      -1.243  -0.607  -0.726  0.00  0.00    -0.266 N 
ATOM      5  HN  UNL d   1      -1.965  -1.238  -1.076  1.00  0.00     0.186 HD
ATOM      6  N   UNL d   1       0.442   0.656  -0.545  0.00  0.00    -0.207 N 
ATOM      7  N   UNL d   1      -0.209  -0.137  -1.411  0.00  0.00    -0.002 NA
ENDROOT
BRANCH   6   8
ATOM      8  C   UNL d   1       1.654   1.339  -0.918  0.00  0.00     0.271 C 
BRANCH   8   9
ATOM      9  C   UNL d   1       2.948   0.746  -0.413  0.00  0.00     0.257 C 
ATOM     10  N   UNL d   1       3.012  -0.411   0.319  0.00  0.00    -0.266 N 
ATOM     11  H   UNL d   1       3.966  -0.616   0.623  0.00  0.00     0.190 HD
ATOM     12  O   UNL d   1       4.009   1.347  -0.627  0.00  0.00    -0.270 OA
BRANCH  10  13
ATOM     13  N   UNL d   1       2.321  -1.570  -0.068  0.00  0.00    -0.273 N 
ATOM     14  H   UNL d   1       1.478  -1.488  -0.634  0.00  0.00     0.189 HD
BRANCH  13  15
ATOM     15  C   UNL d   1       2.448  -2.752   0.639  0.00  0.00     0.191 C 
ATOM     16  S   UNL d   1       3.308  -2.957   2.054  0.00  0.00    -0.039 SA
BRANCH  15  17
ATOM     17  N   UNL d   1       1.758  -3.812   0.100  0.00  0.00    -0.331 N 
ATOM     18  H   UNL d   1       1.476  -4.541   0.750  0.00  0.00     0.168 HD
BRANCH  17  19
ATOM     19  C   UNL d   1       1.476  -4.034  -1.270  0.00  0.00     0.057 A 
ATOM     20  C   UNL d   1       2.313  -3.501  -2.261  0.00  0.00     0.047 A 
ATOM     21  C   UNL d   1       2.061  -3.727  -3.625  0.00  0.00     0.050 A 
ATOM     22  C   UNL d   1       0.935  -4.486  -3.983  0.00  0.00     0.018 A 
ATOM     23  C   UNL d   1       0.116  -5.043  -3.003  0.00  0.00     0.027 A 
ATOM     24  C   UNL d   1       0.394  -4.836  -1.646  0.00  0.00     0.060 A 
ATOM     25 CL   UNL d   1      -0.657  -5.540  -0.471  0.00  0.00    -0.082 Cl
BRANCH  21  26
ATOM     26  C   UNL d   1       2.976  -3.155  -4.682  0.00  0.00     0.417 C 
ATOM     27  F   UNL d   1       4.155  -2.693  -4.181  0.00  0.00    -0.166 F 
ATOM     28  F   UNL d   1       3.308  -4.067  -5.637  0.00  0.00    -0.166 F 
ATOM     29  F   UNL d   1       2.412  -2.105  -5.339  0.00  0.00    -0.166 F 
ENDBRANCH  21  26
ENDBRANCH  17  19
ENDBRANCH  15  17
ENDBRANCH  13  15
ENDBRANCH  10  13
ENDBRANCH   8   9
ENDBRANCH   6   8
BRANCH   1  30
ATOM     30  C   UNL d   1      -2.036  -0.464   1.657  0.00  0.00     0.044 A 
ATOM     31  C   UNL d   1      -3.219  -1.215   1.499  0.00  0.00     0.090 A 
ATOM     32  C   UNL d   1      -3.927  -1.641   2.642  0.00  0.00     0.038 A 
ATOM     33  C   UNL d   1      -3.520  -1.262   3.920  0.00  0.00     0.003 A 
ATOM     34  C   UNL d   1      -2.390  -0.473   4.080  0.00  0.00     0.001 A 
ATOM     35  C   UNL d   1      -1.652  -0.088   2.960  0.00  0.00     0.018 A 
BRANCH  31  36
ATOM     36  O   UNL d   1      -3.648  -1.520   0.216  0.00  0.00    -0.308 OA
BRANCH  36  37
ATOM     37  C   UNL d   1      -4.975  -1.849   0.036  0.00  0.00     0.098 A 
ATOM     38  C   UNL d   1      -6.026  -0.935   0.199  0.00  0.00     0.069 A 
ATOM     39  C   UNL d   1      -7.349  -1.361   0.055  0.00  0.00     0.050 A 
ATOM     40 CL   UNL d   1      -5.749   0.727   0.578  0.00  0.00    -0.081 Cl
ATOM     41  C   UNL d   1      -7.613  -2.686  -0.290  0.00  0.00     0.035 A 
ATOM     42  C   UNL d   1      -6.570  -3.586  -0.508  0.00  0.00     0.026 A 
ATOM     43 CL   UNL d   1      -9.243  -3.217  -0.448  0.00  0.00    -0.084 Cl
ATOM     44  C   UNL d   1      -5.248  -3.166  -0.351  0.00  0.00     0.041 A 
ENDBRANCH  36  37
ENDBRANCH  31  36
ENDBRANCH   1  30
TORSDOF 10
