REMARK  1 active torsions:
REMARK  status: ('A' for Active; 'I' for Inactive)
REMARK    1  A    between atoms: C_9  and  N_1 
ROOT
ATOM      1  N   UNL d   1       2.413  -0.676  -0.106  0.00  0.00    -0.268 N 
ATOM      2  C   UNL d   1       1.250  -1.456  -0.155  0.00  0.00     0.266 A 
ATOM      3  C   UNL d   1       2.333   0.710  -0.054  0.00  0.00     0.087 A 
ATOM      4  N   UNL d   1       1.217   1.365   0.004  0.00  0.00    -0.345 N 
ATOM      5  HN  UNL d   1       1.218   2.384   0.058  1.00  0.00     0.167 HD
ATOM      6  C   UNL d   1      -0.029  -0.730  -0.090  0.00  0.00     0.059 A 
ATOM      7  C   UNL d   1       0.014   0.657  -0.010  0.00  0.00     0.049 A 
ATOM      8  O   UNL d   1       1.212  -2.685  -0.216  0.00  0.00    -0.267 OA
ATOM      9  C   UNL d   1       3.591   1.555  -0.122  0.00  0.00     0.089 C 
ATOM     10  C   UNL d   1      -1.252  -1.415  -0.100  0.00  0.00     0.019 A 
ATOM     11  C   UNL d   1      -1.189   1.366   0.037  0.00  0.00     0.030 A 
ATOM     12  C   UNL d   1      -2.446  -0.698  -0.046  0.00  0.00     0.001 A 
ATOM     13  C   UNL d   1      -2.414   0.694   0.017  0.00  0.00     0.002 A 
ENDROOT
BRANCH   1  14
ATOM     14  C   UNL d   1       3.664  -1.367  -0.095  0.00  0.00     0.044 A 
ATOM     15  C   UNL d   1       3.961  -2.297  -1.102  0.00  0.00     0.030 A 
ATOM     16  C   UNL d   1       5.179  -2.978  -1.103  0.00  0.00     0.002 A 
ATOM     17  C   UNL d   1       6.103  -2.753  -0.085  0.00  0.00     0.000 A 
ATOM     18  C   UNL d   1       5.811  -1.848   0.934  0.00  0.00     0.002 A 
ATOM     19  C   UNL d   1       4.597  -1.155   0.929  0.00  0.00     0.030 A 
ENDBRANCH   1  14
TORSDOF 1
