REMARK  8 active torsions:
REMARK  status: ('A' for Active; 'I' for Inactive)
REMARK    1  A    between atoms: C_19  and  N_1 
REMARK    2  A    between atoms: S_5  and  C_2 
REMARK    3  A    between atoms: C_16  and  C_3 
REMARK    4  A    between atoms: C_14  and  C_4 
REMARK    5  A    between atoms: C_6  and  S_5 
REMARK    6  A    between atoms: O_25  and  C_16 
REMARK    7  A    between atoms: C_26  and  C_19 
REMARK    8  A    between atoms: C_27  and  O_25 
ROOT
ATOM      1  C   UNL d   1       5.996  -1.025   0.052  0.00  0.00     0.072 A 
ATOM      2  C   UNL d   1       5.731  -0.066   1.025  0.00  0.00     0.134 A 
ATOM      3  C   UNL d   1       3.823   0.671  -0.164  0.00  0.00     0.099 A 
ATOM      4  N   UNL d   1       4.635   0.762   0.920  0.00  0.00    -0.345 N 
ATOM      5  HN  UNL d   1       4.434   1.441   1.655  1.00  0.00     0.166 HD
ATOM      6  C   UNL d   1       4.102  -0.194  -1.220  0.00  0.00     0.079 A 
ATOM      7  C   UNL d   1       5.194  -1.062  -1.097  0.00  0.00     0.045 A 
ATOM      8  C   UNL d   1       3.327  -0.212  -2.418  0.00  0.00     0.102 C 
ATOM      9  N   UNL d   1       2.733  -0.223  -3.416  0.00  0.00    -0.191 NA
ENDROOT
BRANCH   3  10
ATOM     10  S   UNL d   1       2.413   1.766  -0.140  0.00  0.00    -0.033 SA
BRANCH  10  11
ATOM     11  C   UNL d   1       1.171   0.704   0.440  0.00  0.00     0.172 A 
ATOM     12  N   UNL d   1      -0.071   1.164   0.717  0.00  0.00    -0.273 N 
ATOM     13  C   UNL d   1      -0.758   0.076   1.191  0.00  0.00     0.343 A 
ATOM     14  N   UNL d   1       0.130  -0.988   1.122  0.00  0.00    -0.249 N 
ATOM     15  O   UNL d   1      -1.899   0.026   1.618  0.00  0.00    -0.245 OA
ATOM     16  N   UNL d   1       1.345  -0.571   0.656  0.00  0.00    -0.275 N 
ATOM     17  H   UNL d   1      -0.051  -1.930   1.446  0.00  0.00     0.192 HD
ATOM     18  HN  UNL d   1       2.189  -1.125   0.512  1.00  0.00     0.189 HD
BRANCH  12  19
ATOM     19  C   UNL d   1      -0.633   2.501   0.681  0.00  0.00     0.174 C 
BRANCH  19  20
ATOM     20  C   UNL d   1      -1.267   2.866  -0.644  0.00  0.00    -0.040 A 
ATOM     21  C   UNL d   1      -2.359   2.142  -1.150  0.00  0.00     0.009 A 
ATOM     22  C   UNL d   1      -2.987   2.533  -2.336  0.00  0.00     0.001 A 
ATOM     23  C   UNL d   1      -2.537   3.656  -3.027  0.00  0.00     0.000 A 
ATOM     24  C   UNL d   1      -1.457   4.385  -2.536  0.00  0.00     0.001 A 
ATOM     25  C   UNL d   1      -0.824   3.993  -1.354  0.00  0.00     0.009 A 
ENDBRANCH  19  20
ENDBRANCH  12  19
ENDBRANCH  10  11
ENDBRANCH   3  10
BRANCH   1  26
ATOM     26  C   UNL d   1       7.061  -2.029   0.230  0.00  0.00     0.295 C 
ATOM     27  O   UNL d   1       7.237  -2.617   1.280  0.00  0.00    -0.259 OA
BRANCH  26  28
ATOM     28  O   UNL d   1       7.778  -2.122  -0.912  0.00  0.00    -0.318 OA
BRANCH  28  29
ATOM     29  C   UNL d   1       8.986  -2.897  -0.832  0.00  0.00     0.174 C 
ATOM     30  C   UNL d   1      10.155  -1.936  -0.714  0.00  0.00     0.034 C 
ENDBRANCH  28  29
ENDBRANCH  26  28
ENDBRANCH   1  26
BRANCH   2  31
ATOM     31  C   UNL d   1       6.663   0.161   2.210  0.00  0.00     0.433 C 
ATOM     32  F   UNL d   1       7.935  -0.299   2.041  0.00  0.00    -0.165 F 
ATOM     33  F   UNL d   1       6.833   1.499   2.466  0.00  0.00    -0.165 F 
ATOM     34  F   UNL d   1       6.204  -0.376   3.371  0.00  0.00    -0.165 F 
ENDBRANCH   2  31
TORSDOF 8
