REMARK  8 active torsions:
REMARK  status: ('A' for Active; 'I' for Inactive)
REMARK    1  A    between atoms: C_8  and  C_2 
REMARK    2  A    between atoms: S_10  and  C_5 
REMARK    3  A    between atoms: C_9  and  C_20 
REMARK    4  A    between atoms: C_21  and  S_10 
REMARK    5  A    between atoms: C_13  and  C_21 
REMARK       I    between atoms: N_16  and  C_13 
REMARK    6  A    between atoms: O_19  and  C_14 
REMARK    7  A    between atoms: C_27  and  N_16 
REMARK    8  A    between atoms: C_20  and  O_19 
ROOT
ATOM      1  N   UNL d   1       1.002   0.102   0.249  0.00  0.00    -0.315 N 
ATOM      2  C   UNL d   1       0.056   1.091   0.054  0.00  0.00     0.135 C 
ATOM      3  N   UNL d   1      -1.129   0.507  -0.001  0.00  0.00    -0.283 N 
ATOM      4  HN  UNL d   1      -2.009   0.968  -0.233  1.00  0.00     0.188 HD
ATOM      5  C   UNL d   1       0.296  -1.044   0.500  0.00  0.00     0.163 C 
ATOM      6  N   UNL d   1      -0.980  -0.824   0.305  0.00  0.00    -0.278 N 
ATOM      7  HN  UNL d   1      -1.727  -1.516   0.368  1.00  0.00     0.189 HD
ATOM      8  C   UNL d   1       2.433   0.199   0.128  0.00  0.00     0.160 C 
ENDROOT
BRANCH   2   9
ATOM      9  C   UNL d   1       0.283   2.532  -0.044  0.00  0.00     0.025 A 
ATOM     10  C   UNL d   1      -0.492   3.328  -0.880  0.00  0.00     0.105 A 
ATOM     11  N   UNL d   1      -0.355   4.674  -1.000  0.00  0.00    -0.346 N 
ATOM     12  C   UNL d   1       0.576   5.281  -0.241  0.00  0.00     0.142 A 
ATOM     13  HN  UNL d   1      -0.939   5.208  -1.645  1.00  0.00     0.167 HD
ATOM     14  C   UNL d   1       1.371   4.583   0.655  0.00  0.00     0.057 A 
ATOM     15  C   UNL d   1       1.216   3.200   0.753  0.00  0.00     0.021 A 
BRANCH  12  16
ATOM     16  O   UNL d   1       0.616   6.632  -0.419  0.00  0.00    -0.327 OA
BRANCH  16  17
ATOM     17  C   UNL d   1       1.866   7.272  -0.153  0.00  0.00     0.294 C 
BRANCH  17  18
ATOM     18  C   UNL d   1       1.977   8.602  -0.893  0.00  0.00     0.408 C 
ATOM     19  F   UNL d   1       0.846   8.953  -1.536  0.00  0.00    -0.169 F 
ATOM     20  F   UNL d   1       2.281   9.601  -0.030  0.00  0.00    -0.169 F 
ATOM     21  F   UNL d   1       2.972   8.554  -1.810  0.00  0.00    -0.169 F 
ENDBRANCH  17  18
ENDBRANCH  16  17
ENDBRANCH  12  16
ENDBRANCH   2   9
BRANCH   5  22
ATOM     22  S   UNL d   1       1.024  -2.525   1.038  0.00  0.00    -0.083 SA
BRANCH  22  23
ATOM     23  C   UNL d   1      -0.446  -3.582   1.123  0.00  0.00     0.185 C 
BRANCH  23  24
ATOM     24  C   UNL d   1      -0.228  -4.973   1.714  0.00  0.00     0.231 C 
ATOM     25  N   UNL d   1       1.007  -5.237   2.281  0.00  0.00    -0.327 N 
ATOM     26  H   UNL d   1       1.644  -4.454   2.358  0.00  0.00     0.169 HD
ATOM     27  O   UNL d   1      -1.173  -5.758   1.697  0.00  0.00    -0.272 OA
BRANCH  25  28
ATOM     28  C   UNL d   1       1.398  -6.447   2.902  0.00  0.00     0.034 A 
ATOM     29  C   UNL d   1       0.687  -7.644   2.776  0.00  0.00     0.029 A 
ATOM     30  C   UNL d   1       1.080  -8.792   3.471  0.00  0.00     0.002 A 
ATOM     31  C   UNL d   1       2.199  -8.759   4.296  0.00  0.00     0.000 A 
ATOM     32  C   UNL d   1       2.943  -7.586   4.399  0.00  0.00     0.002 A 
ATOM     33  C   UNL d   1       2.552  -6.439   3.695  0.00  0.00     0.029 A 
ENDBRANCH  25  28
ENDBRANCH  23  24
ENDBRANCH  22  23
ENDBRANCH   5  22
TORSDOF 8
