REMARK  6 active torsions:
REMARK  status: ('A' for Active; 'I' for Inactive)
REMARK    1  A    between atoms: C_7  and  N_2 
REMARK    2  A    between atoms: C_8  and  C_5 
REMARK    3  A    between atoms: S_18  and  C_6 
REMARK    4  A    between atoms: C_10  and  C_7 
REMARK       I    between atoms: N_19  and  C_10 
REMARK    5  A    between atoms: C_13  and  C_17 
REMARK    6  A    between atoms: N_14  and  N_19 
ROOT
ATOM      1  C   UNL d   1      -0.060  -1.210   0.162  0.00  0.00     0.109 C 
ATOM      2  N   UNL d   1      -0.199   0.972   0.392  0.00  0.00    -0.275 N 
ATOM      3  N   UNL d   1       1.057   0.672   0.740  0.00  0.00    -0.294 N 
ATOM      4  HN  UNL d   1       1.749   1.292   1.160  1.00  0.00     0.187 HD
ATOM      5  C   UNL d   1       1.209  -0.618   0.417  0.00  0.00     0.089 C 
ATOM      6  C   UNL d   1      -0.963  -0.156   0.174  0.00  0.00     0.110 C 
ATOM      7  C   UNL d   1      -0.346  -2.574  -0.117  0.00  0.00     0.104 C 
ATOM      8  N   UNL d   1      -0.593  -3.695  -0.315  0.00  0.00    -0.191 NA
ENDROOT
BRANCH   5   9
ATOM      9  C   UNL d   1       2.610  -1.181   0.343  0.00  0.00     0.034 A 
ATOM     10  S   UNL d   1       3.985  -0.173   0.613  0.00  0.00    -0.100 SA
ATOM     11  C   UNL d   1       5.077  -1.420   0.228  0.00  0.00     0.050 A 
ATOM     12  C   UNL d   1       4.428  -2.597  -0.059  0.00  0.00     0.008 A 
ATOM     13  C   UNL d   1       3.000  -2.463   0.009  0.00  0.00     0.022 A 
ENDBRANCH   5   9
BRANCH   6  14
ATOM     14  S   UNL d   1      -2.668   0.003  -0.154  0.00  0.00    -0.114 SA
ATOM     15  C   UNL d   1      -3.447  -1.426   0.625  0.00  0.00     0.097 C 
ENDBRANCH   6  14
BRANCH   2  16
ATOM     16  C   UNL d   1      -0.599   2.372   0.311  0.00  0.00     0.254 C 
BRANCH  16  17
ATOM     17  C   UNL d   1       0.562   3.352   0.337  0.00  0.00     0.255 C 
ATOM     18  N   UNL d   1       0.697   4.038   1.545  0.00  0.00    -0.269 N 
ATOM     19  H   UNL d   1       0.107   3.817   2.338  0.00  0.00     0.190 HD
ATOM     20  O   UNL d   1       1.269   3.541  -0.654  0.00  0.00    -0.270 OA
BRANCH  18  21
ATOM     21  N   UNL d   1       1.749   4.903   1.719  0.00  0.00    -0.308 N 
ATOM     22  C   UNL d   1       1.849   5.462   2.885  0.00  0.00     0.126 C 
ATOM     23  HN  UNL d   1       2.417   5.095   0.972  1.00  0.00     0.186 HD
BRANCH  22  24
ATOM     24  C   UNL d   1       2.951   6.338   3.206  0.00  0.00     0.021 A 
ATOM     25  S   UNL d   1       3.055   7.004   4.781  0.00  0.00    -0.101 SA
ATOM     26  C   UNL d   1       4.517   7.814   4.415  0.00  0.00     0.050 A 
ATOM     27  C   UNL d   1       4.916   7.594   3.116  0.00  0.00     0.008 A 
ATOM     28  C   UNL d   1       4.011   6.740   2.417  0.00  0.00     0.021 A 
ENDBRANCH  22  24
ENDBRANCH  18  21
ENDBRANCH  16  17
ENDBRANCH   2  16
TORSDOF 6
