REMARK  2 active torsions:
REMARK  status: ('A' for Active; 'I' for Inactive)
REMARK    1  A    between atoms: C_8  and  C_4 
REMARK    2  A    between atoms: C_15  and  C_10 
ROOT
ATOM      1  S   UNL d   1      -3.240  -0.530  -0.965  0.00  0.00    -0.118 SA
ATOM      2  N   UNL d   1      -3.422  -1.486   2.067  0.00  0.00    -0.326 N 
ATOM      3  C   UNL d   1      -2.077  -1.521   1.810  0.00  0.00     0.223 C 
ATOM      4  C   UNL d   1      -1.701  -1.503  -0.709  0.00  0.00     0.094 C 
ATOM      5  C   UNL d   1      -1.615  -2.286   0.592  0.00  0.00     0.123 C 
ATOM      6  C   UNL d   1      -4.454  -1.584  -0.183  0.00  0.00     0.028 A 
ATOM      7  C   UNL d   1      -4.460  -1.866   1.196  0.00  0.00     0.051 A 
ATOM      8  O   UNL d   1      -1.276  -1.048   2.615  0.00  0.00    -0.273 OA
ATOM      9  C   UNL d   1      -5.525  -2.020  -0.977  0.00  0.00     0.021 A 
ATOM     10  C   UNL d   1      -5.556  -2.527   1.761  0.00  0.00     0.031 A 
ATOM     11  C   UNL d   1      -6.579  -2.740  -0.417  0.00  0.00     0.002 A 
ATOM     12  C   UNL d   1      -6.599  -2.984   0.956  0.00  0.00     0.002 A 
ATOM     13  H   UNL d   1      -3.647  -1.280   3.032  0.00  0.00     0.169 HD
ENDROOT
BRANCH   4  14
ATOM     14  C   UNL d   1      -1.424  -2.404  -1.907  0.00  0.00    -0.043 A 
ATOM     15  C   UNL d   1      -0.253  -2.241  -2.658  0.00  0.00     0.009 A 
ATOM     16  C   UNL d   1      -0.007  -3.033  -3.785  0.00  0.00     0.008 A 
ATOM     17  C   UNL d   1      -0.934  -4.000  -4.202  0.00  0.00    -0.055 A 
ATOM     18  C   UNL d   1      -2.083  -4.194  -3.429  0.00  0.00     0.008 A 
ATOM     19  C   UNL d   1      -2.317  -3.418  -2.292  0.00  0.00     0.009 A 
BRANCH  17  20
ATOM     20  C   UNL d   1      -0.737  -4.808  -5.471  0.00  0.00     0.010 C 
ATOM     21  C   UNL d   1      -0.629  -3.899  -6.697  0.00  0.00     0.015 C 
ATOM     22  C   UNL d   1       0.467  -5.745  -5.371  0.00  0.00     0.015 C 
ENDBRANCH  17  20
ENDBRANCH   4  14
TORSDOF 2
