REMARK  3 active torsions:
REMARK  status: ('A' for Active; 'I' for Inactive)
REMARK    1  A    between atoms: N_6  and  C_4 
REMARK    2  A    between atoms: O_10  and  C_5 
REMARK    3  A    between atoms: C_9  and  N_6 
ROOT
ATOM      1  S   UNL d   1      -1.133  -1.037  -0.148  0.00  0.00     0.148 S 
ATOM      2  C   UNL d   1       0.630  -1.191  -0.074  0.00  0.00     0.168 C 
ATOM      3  C   UNL d   1      -1.229   0.676   0.289  0.00  0.00     0.174 C 
ATOM      4  C   UNL d   1       1.200   0.225  -0.004  0.00  0.00     0.125 C 
ATOM      5  C   UNL d   1       0.061   1.256  -0.245  0.00  0.00     0.155 C 
ATOM      6  O   UNL d   1      -1.537  -1.167  -1.533  0.00  0.00    -0.228 OA
ATOM      7  O   UNL d   1      -1.728  -1.824   0.911  0.00  0.00    -0.228 OA
ENDROOT
BRANCH   4   8
ATOM      8  N   UNL d   1       2.239   0.420  -1.022  0.00  0.00    -0.382 N 
ATOM      9  H   UNL d   1       2.120   1.300  -1.532  0.00  0.00     0.160 HD
BRANCH   8  10
ATOM     10  C   UNL d   1       3.577   0.119  -0.781  0.00  0.00     0.028 A 
ATOM     11  C   UNL d   1       4.003  -0.858   0.124  0.00  0.00     0.029 A 
ATOM     12  C   UNL d   1       5.360  -1.173   0.264  0.00  0.00     0.002 A 
ATOM     13  C   UNL d   1       6.314  -0.525  -0.514  0.00  0.00     0.000 A 
ATOM     14  C   UNL d   1       5.910   0.426  -1.443  0.00  0.00     0.002 A 
ATOM     15  C   UNL d   1       4.552   0.730  -1.583  0.00  0.00     0.029 A 
ENDBRANCH   8  10
ENDBRANCH   4   8
BRANCH   5  16
ATOM     16  O   UNL d   1      -0.070   1.606  -1.630  0.00  0.00    -0.393 OA
ATOM     17  H   UNL d   1      -0.181   0.791  -2.162  0.00  0.00     0.210 HD
ENDBRANCH   5  16
TORSDOF 3
