REMARK  4 active torsions:
REMARK  status: ('A' for Active; 'I' for Inactive)
REMARK    1  A    between atoms: C_13  and  N_1 
REMARK    2  A    between atoms: S_14  and  C_7 
REMARK    3  A    between atoms: C_17  and  S_14 
REMARK    4  A    between atoms: C_15  and  C_17 
ROOT
ATOM      1  N   UNL d   1      -1.518  -1.085  -0.046  0.00  0.00    -0.239 N 
ATOM      2  C   UNL d   1      -0.205  -0.611   0.000  0.00  0.00     0.142 A 
ATOM      3  N   UNL d   1      -2.413  -0.051  -0.131  0.00  0.00    -0.302 N 
ATOM      4  HN  UNL d   1      -3.429  -0.110  -0.200  1.00  0.00     0.186 HD
ATOM      5  C   UNL d   1      -0.289   0.773  -0.030  0.00  0.00     0.060 A 
ATOM      6  C   UNL d   1      -1.663   1.049  -0.105  0.00  0.00     0.126 A 
ATOM      7  C   UNL d   1       0.905   1.487   0.016  0.00  0.00     0.086 A 
ATOM      8  N   UNL d   1       0.948  -1.311   0.063  0.00  0.00    -0.336 N 
ATOM      9  HN  UNL d   1       0.991  -2.330   0.083  1.00  0.00     0.168 HD
ATOM     10  N   UNL d   1       2.079   0.825   0.075  0.00  0.00    -0.346 N 
ATOM     11  HN  UNL d   1       2.967   1.324   0.103  1.00  0.00     0.167 HD
ATOM     12  C   UNL d   1       2.033  -0.520   0.096  0.00  0.00     0.183 A 
ENDROOT
BRANCH   1  13
ATOM     13  C   UNL d   1      -2.003  -2.428  -0.013  0.00  0.00     0.058 A 
ATOM     14  C   UNL d   1      -1.144  -3.524   0.138  0.00  0.00     0.031 A 
ATOM     15  C   UNL d   1      -1.662  -4.824   0.173  0.00  0.00     0.002 A 
ATOM     16  C   UNL d   1      -3.033  -5.042   0.053  0.00  0.00     0.000 A 
ATOM     17  C   UNL d   1      -3.894  -3.959  -0.100  0.00  0.00     0.002 A 
ATOM     18  C   UNL d   1      -3.385  -2.658  -0.131  0.00  0.00     0.031 A 
ENDBRANCH   1  13
BRANCH   7  19
ATOM     19  S   UNL d   1       0.843   3.249   0.059  0.00  0.00    -0.107 SA
BRANCH  19  20
ATOM     20  C   UNL d   1       2.401   3.658  -0.783  0.00  0.00     0.107 C 
BRANCH  20  21
ATOM     21  C   UNL d   1       2.481   5.152  -0.911  0.00  0.00    -0.026 C 
ATOM     22  C   UNL d   1       2.562   5.818  -2.071  0.00  0.00     0.007 C 
ENDBRANCH  20  21
ENDBRANCH  19  20
ENDBRANCH   7  19
TORSDOF 4
