REMARK  3 active torsions:
REMARK  status: ('A' for Active; 'I' for Inactive)
REMARK    1  A    between atoms: C_16  and  N_5 
REMARK    2  A    between atoms: N_12  and  N_9 
REMARK    3  A    between atoms: C_18  and  C_17 
ROOT
ATOM      1  C   UNL d   1      -0.167  -0.657   0.023  0.00  0.00     0.144 A 
ATOM      2  C   UNL d   1      -0.257   0.723   0.008  0.00  0.00     0.072 A 
ATOM      3  N   UNL d   1       0.978  -1.396   0.104  0.00  0.00    -0.335 N 
ATOM      4  HN  UNL d   1       1.001  -2.416   0.120  1.00  0.00     0.168 HD
ATOM      5  N   UNL d   1      -1.475  -1.141  -0.066  0.00  0.00    -0.239 N 
ATOM      6  C   UNL d   1       0.929   1.548   0.107  0.00  0.00     0.137 A 
ATOM      7  N   UNL d   1      -2.364  -0.103  -0.183  0.00  0.00    -0.302 N 
ATOM      8  HN  UNL d   1      -3.377  -0.163  -0.292  1.00  0.00     0.186 HD
ATOM      9  N   UNL d   1       2.103   0.761   0.135  0.00  0.00    -0.235 N 
ATOM     10  C   UNL d   1      -1.620   1.000  -0.122  0.00  0.00     0.127 A 
ATOM     11  C   UNL d   1       2.035  -0.639   0.160  0.00  0.00     0.210 A 
ATOM     12  N   UNL d   1       0.817   2.837   0.165  0.00  0.00    -0.383 N 
ATOM     13  HN  UNL d   1       1.609   3.478   0.221  1.00  0.00     0.157 HD
ATOM     14  H   UNL d   1      -0.161   3.133   0.147  0.00  0.00     0.157 HD
ENDROOT
BRANCH   9  15
ATOM     15  N   UNL d   1       3.366   1.318   0.358  0.00  0.00    -0.302 N 
ATOM     16  C   UNL d   1       3.625   2.426  -0.260  0.00  0.00     0.119 C 
ATOM     17  HN  UNL d   1       4.047   0.874   0.974  1.00  0.00     0.186 HD
BRANCH  16  18
ATOM     18  C   UNL d   1       4.866   3.182  -0.002  0.00  0.00    -0.019 A 
ATOM     19  C   UNL d   1       5.866   2.663   0.826  0.00  0.00     0.014 A 
ATOM     20  C   UNL d   1       7.008   3.421   1.090  0.00  0.00     0.024 A 
ATOM     21  C   UNL d   1       7.142   4.691   0.530  0.00  0.00     0.034 A 
ATOM     22  C   UNL d   1       6.147   5.209  -0.299  0.00  0.00     0.024 A 
ATOM     23 CL   UNL d   1       8.541   5.632   0.873  0.00  0.00    -0.084 Cl
ATOM     24  C   UNL d   1       5.005   4.452  -0.570  0.00  0.00     0.014 A 
ENDBRANCH  16  18
ENDBRANCH   9  15
BRANCH   5  25
ATOM     25  C   UNL d   1      -1.958  -2.486  -0.059  0.00  0.00     0.058 A 
ATOM     26  C   UNL d   1      -1.106  -3.580   0.140  0.00  0.00     0.031 A 
ATOM     27  C   UNL d   1      -1.613  -4.883   0.125  0.00  0.00     0.002 A 
ATOM     28  C   UNL d   1      -2.971  -5.106  -0.086  0.00  0.00     0.000 A 
ATOM     29  C   UNL d   1      -3.831  -4.027  -0.274  0.00  0.00     0.002 A 
ATOM     30  C   UNL d   1      -3.329  -2.722  -0.256  0.00  0.00     0.031 A 
ENDBRANCH   5  25
TORSDOF 3
