REMARK  6 active torsions:
REMARK  status: ('A' for Active; 'I' for Inactive)
REMARK    1  A    between atoms: C_7  and  C_1 
REMARK    2  A    between atoms: S_13  and  C_6 
REMARK    3  A    between atoms: C_12  and  C_7 
REMARK    4  A    between atoms: C_14  and  C_12 
REMARK    5  A    between atoms: C_16  and  S_13 
REMARK    6  A    between atoms: C_19  and  C_16 
ROOT
ATOM      1  C   UNL d   1       7.668   2.471   0.801  0.00  0.00     0.144 A 
ATOM      2  N   UNL d   1       6.338   2.298   0.830  0.00  0.00    -0.337 N 
ATOM      3  HN  UNL d   1       5.749   2.835   1.467  1.00  0.00     0.168 HD
ATOM      4  N   UNL d   1       8.504   1.802  -0.005  0.00  0.00    -0.347 N 
ATOM      5  HN  UNL d   1       9.510   1.972   0.001  1.00  0.00     0.167 HD
ATOM      6  C   UNL d   1       5.811   1.390  -0.012  0.00  0.00     0.035 A 
ATOM      7  C   UNL d   1       7.943   0.892  -0.822  0.00  0.00     0.092 A 
ATOM      8  C   UNL d   1       6.592   0.637  -0.867  0.00  0.00     0.046 A 
ENDROOT
BRANCH   6   9
ATOM      9  C   UNL d   1       4.344   1.244  -0.012  0.00  0.00     0.031 C 
BRANCH   9  10
ATOM     10  C   UNL d   1       3.535   1.976   0.771  0.00  0.00     0.021 C 
BRANCH  10  11
ATOM     11  C   UNL d   1       2.106   1.901   0.744  0.00  0.00     0.012 A 
ATOM     12  S   UNL d   1       1.275   3.382   1.060  0.00  0.00    -0.089 SA
ATOM     13  C   UNL d   1      -0.275   2.674   0.925  0.00  0.00     0.016 A 
ATOM     14  C   UNL d   1      -1.522   3.319   1.062  0.00  0.00     0.019 A 
ATOM     15  C   UNL d   1      -0.182   1.311   0.657  0.00  0.00    -0.012 A 
ATOM     16  C   UNL d   1      -2.694   2.569   0.939  0.00  0.00     0.001 A 
ATOM     17  C   UNL d   1      -2.632   1.207   0.691  0.00  0.00     0.001 A 
ATOM     18  C   UNL d   1      -1.393   0.578   0.548  0.00  0.00     0.013 A 
ATOM     19  C   UNL d   1       1.199   0.865   0.536  0.00  0.00    -0.033 A 
ATOM     20  C   UNL d   1       1.506  -0.573   0.256  0.00  0.00     0.050 C 
ENDBRANCH  10  11
ENDBRANCH   9  10
ENDBRANCH   6   9
BRANCH   1  21
ATOM     21  S   UNL d   1       8.321   3.635   1.970  0.00  0.00    -0.089 SA
BRANCH  21  22
ATOM     22  C   UNL d   1       9.734   4.270   1.028  0.00  0.00     0.121 C 
BRANCH  22  23
ATOM     23  C   UNL d   1      10.456   5.366   1.780  0.00  0.00    -0.049 A 
ATOM     24  C   UNL d   1      11.442   5.046   2.725  0.00  0.00     0.008 A 
ATOM     25  C   UNL d   1      12.144   6.053   3.390  0.00  0.00     0.001 A 
ATOM     26  C   UNL d   1      11.860   7.391   3.127  0.00  0.00     0.000 A 
ATOM     27  C   UNL d   1      10.857   7.723   2.218  0.00  0.00     0.001 A 
ATOM     28  C   UNL d   1      10.153   6.717   1.552  0.00  0.00     0.008 A 
ENDBRANCH  22  23
ENDBRANCH  21  22
ENDBRANCH   1  21
TORSDOF 6
