REMARK  9 active torsions:
REMARK  status: ('A' for Active; 'I' for Inactive)
REMARK    1  A    between atoms: C_2  and  C_1 
REMARK    2  A    between atoms: N_3  and  C_1 
REMARK    3  A    between atoms: C_6  and  C_1 
REMARK    4  A    between atoms: N_4  and  C_2 
REMARK    5  A    between atoms: C_5  and  C_2 
REMARK       I    between atoms: C_7  and  N_3 
REMARK       I    between atoms: C_8  and  N_4 
REMARK    6  A    between atoms: C_14  and  C_7 
REMARK    7  A    between atoms: C_13  and  C_8 
REMARK    8  A    between atoms: O_16  and  C_9 
REMARK    9  A    between atoms: O_15  and  C_10 
ROOT
ATOM      1  C   UNL d   1       0.816  -0.015  -0.101  0.00  0.00     0.148 C 
ENDROOT
BRANCH   1   2
ATOM      2  C   UNL d   1       0.252  -0.720   1.189  0.00  0.00     0.148 C 
BRANCH   2   3
ATOM      3  N   UNL d   1      -1.217  -0.692   1.216  0.00  0.00    -0.346 N 
ATOM      4  C   UNL d   1      -1.914  -0.857   2.393  0.00  0.00     0.252 C 
ATOM      5  O   UNL d   1      -1.370  -1.131   3.457  0.00  0.00    -0.268 OA
ATOM      6  H   UNL d   1      -1.686  -0.295   0.413  0.00  0.00     0.163 HD
BRANCH   4   7
ATOM      7  C   UNL d   1      -3.397  -0.713   2.322  0.00  0.00     0.032 A 
ATOM      8  C   UNL d   1      -4.161  -1.364   3.302  0.00  0.00     0.017 A 
ATOM      9  C   UNL d   1      -5.554  -1.277   3.286  0.00  0.00     0.001 A 
ATOM     10  C   UNL d   1      -6.194  -0.536   2.294  0.00  0.00     0.000 A 
ATOM     11  C   UNL d   1      -5.443   0.122   1.321  0.00  0.00     0.001 A 
ATOM     12  C   UNL d   1      -4.048   0.040   1.335  0.00  0.00     0.017 A 
ENDBRANCH   4   7
ENDBRANCH   2   3
BRANCH   2  13
ATOM     13  C   UNL d   1       0.798  -2.143   1.316  0.00  0.00    -0.000 A 
ATOM     14  C   UNL d   1       2.041  -2.401   1.911  0.00  0.00     0.074 A 
ATOM     15  C   UNL d   1       2.569  -3.691   1.967  0.00  0.00     0.037 A 
ATOM     16  C   UNL d   1       1.855  -4.761   1.430  0.00  0.00     0.003 A 
ATOM     17  C   UNL d   1       0.617  -4.535   0.837  0.00  0.00     0.001 A 
ATOM     18  C   UNL d   1       0.093  -3.241   0.783  0.00  0.00     0.012 A 
BRANCH  14  19
ATOM     19  O   UNL d   1       2.803  -1.406   2.455  0.00  0.00    -0.360 OA
ATOM     20  H   UNL d   1       2.226  -0.885   3.041  0.00  0.00     0.217 HD
ENDBRANCH  14  19
ENDBRANCH   2  13
ENDBRANCH   1   2
BRANCH   1  21
ATOM     21  N   UNL d   1       0.317  -0.667  -1.325  0.00  0.00    -0.346 N 
ATOM     22  C   UNL d   1       0.985  -0.589  -2.527  0.00  0.00     0.252 C 
ATOM     23  O   UNL d   1       1.972   0.109  -2.699  0.00  0.00    -0.268 OA
ATOM     24  H   UNL d   1      -0.456  -1.304  -1.208  0.00  0.00     0.163 HD
BRANCH  22  25
ATOM     25  C   UNL d   1       0.379  -1.337  -3.665  0.00  0.00     0.032 A 
ATOM     26  C   UNL d   1       0.605  -0.848  -4.958  0.00  0.00     0.017 A 
ATOM     27  C   UNL d   1       0.039  -1.485  -6.062  0.00  0.00     0.001 A 
ATOM     28  C   UNL d   1      -0.754  -2.617  -5.882  0.00  0.00     0.000 A 
ATOM     29  C   UNL d   1      -0.978  -3.116  -4.599  0.00  0.00     0.001 A 
ATOM     30  C   UNL d   1      -0.410  -2.482  -3.490  0.00  0.00     0.017 A 
ENDBRANCH  22  25
ENDBRANCH   1  21
BRANCH   1  31
ATOM     31  C   UNL d   1       0.471   1.477  -0.055  0.00  0.00    -0.000 A 
ATOM     32  C   UNL d   1      -0.717   2.018  -0.568  0.00  0.00     0.074 A 
ATOM     33  C   UNL d   1      -1.049   3.360  -0.401  0.00  0.00     0.037 A 
ATOM     34  C   UNL d   1      -0.181   4.203   0.284  0.00  0.00     0.003 A 
ATOM     35  C   UNL d   1       1.012   3.699   0.799  0.00  0.00     0.001 A 
ATOM     36  C   UNL d   1       1.335   2.349   0.632  0.00  0.00     0.012 A 
BRANCH  32  37
ATOM     37  O   UNL d   1      -1.611   1.247  -1.258  0.00  0.00    -0.360 OA
ATOM     38  H   UNL d   1      -1.053   0.753  -1.890  0.00  0.00     0.217 HD
ENDBRANCH  32  37
ENDBRANCH   1  31
TORSDOF 9
