REMARK  7 active torsions:
REMARK  status: ('A' for Active; 'I' for Inactive)
REMARK    1  A    between atoms: C_6  and  C_1 
REMARK       I    between atoms: N_7  and  C_1 
REMARK    2  A    between atoms: C_2  and  C_4 
REMARK    3  A    between atoms: C_3  and  C_5 
REMARK    4  A    between atoms: S_9  and  C_6 
REMARK    5  A    between atoms: C_17  and  C_6 
REMARK    6  A    between atoms: C_8  and  N_7 
REMARK    7  A    between atoms: C_11  and  S_9 
ROOT
ATOM      1  C   UNL d   1       1.076  -0.017  -0.172  0.00  0.00     0.240 C 
ATOM      2  N   UNL d   1       1.187  -1.122  -0.997  0.00  0.00    -0.326 N 
ATOM      3  O   UNL d   1       1.481   1.106  -0.488  0.00  0.00    -0.272 OA
ATOM      4  H   UNL d   1       0.572  -1.886  -0.759  0.00  0.00     0.169 HD
ENDROOT
BRANCH   1   5
ATOM      5  C   UNL d   1       0.440  -0.263   1.225  0.00  0.00     0.179 C 
BRANCH   5   6
ATOM      6  S   UNL d   1      -0.062  -2.023   1.580  0.00  0.00    -0.093 SA
BRANCH   6   7
ATOM      7  C   UNL d   1      -1.360  -2.335   0.406  0.00  0.00     0.070 A 
ATOM      8  N   UNL d   1      -1.661  -1.364  -0.479  0.00  0.00    -0.361 N 
ATOM      9  C   UNL d   1      -2.500  -1.683  -1.491  0.00  0.00     0.089 A 
ATOM     10  HN  UNL d   1      -1.272  -0.426  -0.389  1.00  0.00     0.165 HD
ATOM     11  C   UNL d   1      -3.038  -2.945  -1.673  0.00  0.00     0.017 A 
ATOM     12  C   UNL d   1      -2.715  -3.933  -0.752  0.00  0.00     0.004 A 
ATOM     13  C   UNL d   1      -1.866  -3.626   0.307  0.00  0.00     0.037 A 
ENDBRANCH   6   7
ENDBRANCH   5   6
BRANCH   5  14
ATOM     14  C   UNL d   1       1.408   0.141   2.342  0.00  0.00    -0.035 A 
ATOM     15  C   UNL d   1       0.924   0.737   3.519  0.00  0.00     0.009 A 
ATOM     16  C   UNL d   1       1.788   1.025   4.579  0.00  0.00     0.001 A 
ATOM     17  C   UNL d   1       3.145   0.726   4.478  0.00  0.00     0.000 A 
ATOM     18  C   UNL d   1       3.644   0.145   3.318  0.00  0.00     0.001 A 
ATOM     19  C   UNL d   1       2.784  -0.152   2.258  0.00  0.00     0.009 A 
ENDBRANCH   5  14
ENDBRANCH   1   5
BRANCH   2  20
ATOM     20  C   UNL d   1       1.913  -1.255  -2.185  0.00  0.00     0.036 A 
ATOM     21  C   UNL d   1       2.927  -0.378  -2.560  0.00  0.00     0.045 A 
ATOM     22  C   UNL d   1       3.709  -0.635  -3.697  0.00  0.00     0.050 A 
ATOM     23  C   UNL d   1       3.427  -1.765  -4.482  0.00  0.00     0.032 A 
ATOM     24  C   UNL d   1       2.403  -2.653  -4.122  0.00  0.00     0.050 A 
ATOM     25  C   UNL d   1       1.652  -2.384  -2.968  0.00  0.00     0.045 A 
BRANCH  22  26
ATOM     26  C   UNL d   1       4.872   0.275  -4.007  0.00  0.00     0.417 C 
ATOM     27  F   UNL d   1       5.602  -0.134  -5.082  0.00  0.00    -0.166 F 
ATOM     28  F   UNL d   1       4.491   1.552  -4.275  0.00  0.00    -0.166 F 
ATOM     29  F   UNL d   1       5.754   0.350  -2.971  0.00  0.00    -0.166 F 
ENDBRANCH  22  26
BRANCH  24  30
ATOM     30  C   UNL d   1       2.121  -3.903  -4.919  0.00  0.00     0.417 C 
ATOM     31  F   UNL d   1       2.999  -4.108  -5.940  0.00  0.00    -0.166 F 
ATOM     32  F   UNL d   1       2.175  -5.026  -4.150  0.00  0.00    -0.166 F 
ATOM     33  F   UNL d   1       0.882  -3.897  -5.482  0.00  0.00    -0.166 F 
ENDBRANCH  24  30
ENDBRANCH   2  20
TORSDOF 7
