REMARK  5 active torsions:
REMARK  status: ('A' for Active; 'I' for Inactive)
REMARK    1  A    between atoms: N_2  and  S_1 
REMARK    2  A    between atoms: C_8  and  S_1 
REMARK       I    between atoms: C_4  and  N_2 
REMARK    3  A    between atoms: C_5  and  C_4 
REMARK    4  A    between atoms: C_6  and  C_14 
REMARK    5  A    between atoms: C_18  and  C_7 
ROOT
ATOM      1  C   UNL d   1       1.659   2.493   1.680  0.00  0.00     0.049 A 
ATOM      2  N   UNL d   1       1.906   3.118   4.005  0.00  0.00    -0.373 N 
ATOM      3  HN  UNL d   1       1.595   3.653   4.815  1.00  0.00     0.164 HD
ATOM      4  C   UNL d   1       2.804   1.696   1.760  0.00  0.00     0.040 A 
ATOM      5  C   UNL d   1       3.465   1.576   2.978  0.00  0.00     0.034 A 
ATOM      6  C   UNL d   1       1.261   3.190   2.813  0.00  0.00     0.104 A 
ATOM      7  C   UNL d   1       2.984   2.298   4.064  0.00  0.00     0.108 A 
ENDROOT
BRANCH   1   8
ATOM      8  C   UNL d   1       0.823   2.518   0.449  0.00  0.00     0.264 C 
ATOM      9  N   UNL d   1       0.974   1.492  -0.501  0.00  0.00    -0.279 N 
ATOM     10  HN  UNL d   1       1.413   0.613  -0.228  1.00  0.00     0.179 HD
ATOM     11  O   UNL d   1      -0.049   3.373   0.374  0.00  0.00    -0.267 OA
BRANCH   9  12
ATOM     12  S   UNL d   1       0.485   1.679  -1.946  0.00  0.00     0.055 S 
ATOM     13  O   UNL d   1       0.821   2.827  -2.770  0.00  0.00    -0.245 OA
ATOM     14  C   UNL d   1      -1.281   1.472  -2.006  0.00  0.00     0.142 C 
BRANCH  12  15
ATOM     15  C   UNL d   1       1.013   0.235  -2.870  0.00  0.00     0.038 A 
ATOM     16  C   UNL d   1       1.073  -1.020  -2.260  0.00  0.00     0.022 A 
ATOM     17  C   UNL d   1       1.326  -2.146  -3.050  0.00  0.00     0.008 A 
ATOM     18  C   UNL d   1       1.515  -2.020  -4.436  0.00  0.00    -0.062 A 
ATOM     19  C   UNL d   1       1.501  -0.747  -5.016  0.00  0.00     0.008 A 
ATOM     20  C   UNL d   1       1.704  -3.238  -5.290  0.00  0.00     0.048 C 
ATOM     21  C   UNL d   1       1.257   0.381  -4.236  0.00  0.00     0.022 A 
ENDBRANCH  12  15
ENDBRANCH   9  12
ENDBRANCH   1   8
BRANCH   5  22
ATOM     22  C   UNL d   1       4.543   0.657   3.122  0.00  0.00    -0.060 C 
ATOM     23  C   UNL d   1       5.392  -0.182   3.269  0.00  0.00    -0.061 C 
BRANCH  23  24
ATOM     24  C   UNL d   1       6.355  -1.217   3.488  0.00  0.00     0.018 A 
ATOM     25  C   UNL d   1       6.337  -1.928   4.690  0.00  0.00     0.020 A 
ATOM     26  C   UNL d   1       7.284  -2.925   4.927  0.00  0.00     0.001 A 
ATOM     27  C   UNL d   1       8.246  -3.215   3.960  0.00  0.00     0.000 A 
ATOM     28  C   UNL d   1       8.255  -2.516   2.752  0.00  0.00     0.001 A 
ATOM     29  C   UNL d   1       7.309  -1.518   2.513  0.00  0.00     0.020 A 
ENDBRANCH  23  24
ENDBRANCH   5  22
TORSDOF 5
