REMARK  1 active torsions:
REMARK  status: ('A' for Active; 'I' for Inactive)
REMARK    1  A    between atoms: C_9  and  C_1 
ROOT
ATOM      1  C   UNL d   1       1.146   1.310  -0.066  0.00  0.00    -0.001 A 
ATOM      2  C   UNL d   1      -0.169   1.575  -0.081  0.00  0.00     0.067 A 
ATOM      3  C   UNL d   1       1.590  -0.112  -0.038  0.00  0.00     0.179 A 
ATOM      4  C   UNL d   1       0.549  -1.162  -0.026  0.00  0.00     0.066 A 
ATOM      5  C   UNL d   1      -1.209   0.528  -0.065  0.00  0.00     0.178 A 
ATOM      6  C   UNL d   1      -0.761  -0.885  -0.040  0.00  0.00    -0.008 A 
ATOM      7  O   UNL d   1       2.770  -0.439  -0.027  0.00  0.00    -0.288 OA
ATOM      8  O   UNL d   1      -2.395   0.835  -0.074  0.00  0.00    -0.288 OA
ATOM      9  C   UNL d   1      -1.829  -1.931  -0.035  0.00  0.00     0.052 C 
ENDROOT
BRANCH   1  10
ATOM     10  C   UNL d   1       2.180   2.420  -0.080  0.00  0.00     0.014 C 
ATOM     11  C   UNL d   1       3.054   2.432   1.177  0.00  0.00     0.015 C 
ATOM     12  C   UNL d   1       3.037   2.413  -1.348  0.00  0.00     0.015 C 
ENDBRANCH   1  10
TORSDOF 1
