REMARK  7 active torsions:
REMARK  status: ('A' for Active; 'I' for Inactive)
REMARK    1  A    between atoms: S_14  and  C_3 
REMARK    2  A    between atoms: O_19  and  C_4 
REMARK    3  A    between atoms: C_8  and  N_12 
REMARK    4  A    between atoms: C_11  and  C_18 
REMARK       I    between atoms: N_12  and  C_11 
REMARK    5  A    between atoms: C_22  and  C_13 
REMARK    6  A    between atoms: C_18  and  S_14 
REMARK    7  A    between atoms: C_23  and  C_22 
ROOT
ATOM      1  S   UNL d   1       2.334  -2.203  -1.495  0.00  0.00    -0.085 SA
ENDROOT
BRANCH   1   2
ATOM      2  C   UNL d   1       1.224  -3.371  -0.764  0.00  0.00     0.146 A 
ATOM      3  N   UNL d   1       0.765  -3.127   0.467  0.00  0.00    -0.318 N 
ATOM      4  C   UNL d   1       0.018  -4.106   0.980  0.00  0.00     0.143 A 
ATOM      5  HN  UNL d   1       0.969  -2.264   0.972  1.00  0.00     0.170 HD
ATOM      6  C   UNL d   1      -0.280  -5.294   0.364  0.00  0.00     0.081 A 
ATOM      7  C   UNL d   1       0.240  -5.446  -0.903  0.00  0.00     0.015 A 
ATOM      8  N   UNL d   1       1.001  -4.489  -1.479  0.00  0.00    -0.340 N 
ATOM      9  HN  UNL d   1       1.388  -4.609  -2.415  1.00  0.00     0.167 HD
BRANCH   4  10
ATOM     10  O   UNL d   1      -0.444  -3.857   2.231  0.00  0.00    -0.346 OA
ATOM     11  H   UNL d   1      -0.066  -2.973   2.396  0.00  0.00     0.219 HD
ENDBRANCH   4  10
BRANCH   7  12
ATOM     12  C   UNL d   1       0.049  -6.716  -1.692  0.00  0.00     0.057 C 
BRANCH  12  13
ATOM     13  C   UNL d   1      -1.405  -7.126  -1.930  0.00  0.00     0.002 C 
ATOM     14  C   UNL d   1      -2.198  -6.102  -2.728  0.00  0.00     0.005 C 
ENDBRANCH  12  13
ENDBRANCH   7  12
ENDBRANCH   1   2
BRANCH   1  15
ATOM     15  C   UNL d   1       3.711  -2.397  -0.329  0.00  0.00     0.185 C 
BRANCH  15  16
ATOM     16  C   UNL d   1       4.225  -3.824  -0.180  0.00  0.00     0.227 C 
ATOM     17  N   UNL d   1       4.142  -4.628  -1.295  0.00  0.00    -0.355 N 
ATOM     18  H   UNL d   1       3.502  -4.340  -2.030  0.00  0.00     0.162 HD
ATOM     19  O   UNL d   1       4.765  -4.198   0.860  0.00  0.00    -0.273 OA
BRANCH  17  20
ATOM     20  C   UNL d   1       4.631  -5.997  -1.298  0.00  0.00     0.092 C 
ATOM     21  C   UNL d   1       4.571  -6.640  -2.700  0.00  0.00     0.064 C 
ATOM     22  C   UNL d   1       4.556  -8.094  -2.350  0.00  0.00    -0.050 A 
ATOM     23  C   UNL d   1       4.869  -9.170  -3.164  0.00  0.00     0.007 A 
ATOM     24  C   UNL d   1       4.138  -8.284  -1.028  0.00  0.00    -0.050 A 
ATOM     25  C   UNL d   1       4.768 -10.455  -2.629  0.00  0.00     0.001 A 
ATOM     26  C   UNL d   1       4.337 -10.647  -1.307  0.00  0.00     0.001 A 
ATOM     27  C   UNL d   1       4.010  -9.555  -0.497  0.00  0.00     0.007 A 
ATOM     28  C   UNL d   1       3.868  -6.966  -0.362  0.00  0.00     0.064 C 
ENDBRANCH  17  20
ENDBRANCH  15  16
ENDBRANCH   1  15
TORSDOF 7
