REMARK  6 active torsions:
REMARK  status: ('A' for Active; 'I' for Inactive)
REMARK    1  A    between atoms: N_2  and  S_1 
REMARK    2  A    between atoms: C_8  and  S_1 
REMARK    3  A    between atoms: C_3  and  N_2 
REMARK    4  A    between atoms: C_15  and  N_2 
REMARK    5  A    between atoms: C_5  and  C_3 
REMARK    6  A    between atoms: C_14  and  C_15 
ROOT
ATOM      1  N   UNL d   1       2.961  -2.579  -3.088  0.00  0.00    -0.197 NA
ATOM      2  C   UNL d   1       2.647  -1.461  -3.076  0.00  0.00     0.060 C 
ATOM      3  C   UNL d   1       2.277  -0.041  -3.052  0.00  0.00     0.139 C 
ENDROOT
BRANCH   3   4
ATOM      4  C   UNL d   1       0.812   0.175  -2.658  0.00  0.00     0.122 C 
BRANCH   4   5
ATOM      5  N   UNL d   1       0.408  -0.514  -1.382  0.00  0.00    -0.200 NA
BRANCH   5   6
ATOM      6  S   UNL d   1       1.011   0.236   0.052  0.00  0.00     0.244 S 
ATOM      7  O   UNL d   1      -0.024   1.111   0.557  0.00  0.00    -0.206 OA
ATOM      8  O   UNL d   1       2.343   0.738  -0.212  0.00  0.00    -0.206 OA
BRANCH   6   9
ATOM      9  C   UNL d   1       1.218  -1.113   1.189  0.00  0.00     0.074 A 
ATOM     10  C   UNL d   1       2.078  -2.160   0.846  0.00  0.00     0.025 A 
ATOM     11  C   UNL d   1       2.377  -3.143   1.790  0.00  0.00     0.002 A 
ATOM     12  C   UNL d   1       1.819  -3.076   3.067  0.00  0.00     0.000 A 
ATOM     13  C   UNL d   1       0.949  -2.036   3.401  0.00  0.00     0.002 A 
ATOM     14  C   UNL d   1       0.642  -1.050   2.461  0.00  0.00     0.025 A 
ENDBRANCH   6   9
ENDBRANCH   5   6
BRANCH   5  15
ATOM     15  C   UNL d   1      -1.073  -0.751  -1.274  0.00  0.00     0.172 C 
BRANCH  15  16
ATOM     16  C   UNL d   1      -1.644  -1.453  -2.460  0.00  0.00     0.066 A 
ATOM     17  O   UNL d   1      -2.495  -0.714  -3.236  0.00  0.00    -0.326 OA
ATOM     18  C   UNL d   1      -2.927  -1.518  -4.240  0.00  0.00     0.142 A 
ATOM     19  C   UNL d   1      -2.360  -2.766  -4.129  0.00  0.00     0.027 A 
ATOM     20  C   UNL d   1      -1.525  -2.724  -2.981  0.00  0.00     0.036 A 
ENDBRANCH  15  16
ENDBRANCH   5  15
ENDBRANCH   4   5
ENDBRANCH   3   4
TORSDOF 6
