REMARK  3 active torsions:
REMARK  status: ('A' for Active; 'I' for Inactive)
REMARK    1  A    between atoms: C_3  and  C_1 
REMARK    2  A    between atoms: N_6  and  C_2 
REMARK    3  A    between atoms: C_7  and  C_11 
REMARK       I    between atoms: N_19  and  C_7 
ROOT
ATOM      1  C   UNL d   1      -1.691  -1.226   0.501  0.00  0.00     0.093 A 
ATOM      2  C   UNL d   1      -2.488  -0.154   0.090  0.00  0.00     0.118 A 
ATOM      3  N   UNL d   1      -1.903   0.953  -0.448  0.00  0.00    -0.350 N 
ATOM      4  HN  UNL d   1      -2.482   1.721  -0.787  1.00  0.00     0.166 HD
ATOM      5  C   UNL d   1      -0.283  -1.099   0.432  0.00  0.00     0.045 A 
ATOM      6  C   UNL d   1      -0.553   1.032  -0.533  0.00  0.00     0.113 A 
ATOM      7  C   UNL d   1       0.294   0.043  -0.090  0.00  0.00     0.050 A 
ATOM      8 CL   UNL d   1       1.996   0.200  -0.202  0.00  0.00    -0.083 Cl
ENDROOT
BRANCH   2   9
ATOM      9  N   UNL d   1      -3.861  -0.110   0.176  0.00  0.00    -0.367 N 
ATOM     10  C   UNL d   1      -4.617   0.557  -0.887  0.00  0.00     0.125 C 
ATOM     11  C   UNL d   1      -5.481   1.686  -0.324  0.00  0.00     0.034 C 
ATOM     12  C   UNL d   1      -6.364   1.207   0.831  0.00  0.00     0.081 C 
ATOM     13  C   UNL d   1      -5.487   0.557   1.907  0.00  0.00     0.034 C 
ATOM     14  C   UNL d   1      -4.610  -0.563   1.346  0.00  0.00     0.125 C 
BRANCH  12  15
ATOM     15  C   UNL d   1      -7.481   0.270   0.374  0.00  0.00     0.219 C 
ATOM     16  O   UNL d   1      -7.672  -0.853   0.823  0.00  0.00    -0.273 OA
ATOM     17  N   UNL d   1      -8.323   0.776  -0.571  0.00  0.00    -0.370 N 
ATOM     18  H   UNL d   1      -8.374   1.765  -0.774  0.00  0.00     0.159 HD
ATOM     19  H   UNL d   1      -9.120   0.201  -0.819  0.00  0.00     0.159 HD
ENDBRANCH  12  15
ENDBRANCH   2   9
BRANCH   1  20
ATOM     20  C   UNL d   1      -2.213  -2.547   0.987  0.00  0.00     0.421 C 
ATOM     21  F   UNL d   1      -3.465  -2.888   0.585  0.00  0.00    -0.166 F 
ATOM     22  F   UNL d   1      -1.426  -3.589   0.574  0.00  0.00    -0.166 F 
ATOM     23  F   UNL d   1      -2.214  -2.629   2.349  0.00  0.00    -0.166 F 
ENDBRANCH   1  20
TORSDOF 3
