REMARK  3 active torsions:
REMARK  status: ('A' for Active; 'I' for Inactive)
REMARK    1  A    between atoms: C_9  and  C_3 
REMARK    2  A    between atoms: C_8  and  C_4 
REMARK    3  A    between atoms: C_10  and  C_5 
ROOT
ATOM      1  N   UNL d   1      -1.336  -0.047  -0.014  0.00  0.00    -0.355 N 
ATOM      2  HN  UNL d   1      -2.356  -0.081  -0.014  1.00  0.00     0.166 HD
ATOM      3  C   UNL d   1      -0.685   1.143  -0.017  0.00  0.00     0.043 A 
ATOM      4  C   UNL d   1      -0.607  -1.190  -0.011  0.00  0.00     0.043 A 
ATOM      5  C   UNL d   1       1.484   0.045  -0.007  0.00  0.00    -0.022 A 
ATOM      6  C   UNL d   1       0.710   1.211  -0.017  0.00  0.00     0.042 A 
ATOM      7  C   UNL d   1       0.789  -1.168  -0.010  0.00  0.00     0.042 A 
ENDROOT
BRANCH   3   8
ATOM      8  C   UNL d   1      -1.525   2.362  -0.042  0.00  0.00    -0.009 A 
ATOM      9  C   UNL d   1      -1.098   3.572   0.536  0.00  0.00     0.014 A 
ATOM     10  C   UNL d   1      -1.866   4.739   0.451  0.00  0.00     0.007 A 
ATOM     11  C   UNL d   1      -3.098   4.728  -0.206  0.00  0.00    -0.062 A 
ATOM     12  C   UNL d   1      -3.555   3.530  -0.761  0.00  0.00     0.007 A 
ATOM     13  C   UNL d   1      -3.897   5.993  -0.311  0.00  0.00     0.048 C 
ATOM     14  C   UNL d   1      -2.780   2.366  -0.675  0.00  0.00     0.014 A 
ENDBRANCH   3   8
BRANCH   4  15
ATOM     15  C   UNL d   1      -1.368  -2.459   0.034  0.00  0.00    -0.009 A 
ATOM     16  C   UNL d   1      -0.876  -3.644  -0.551  0.00  0.00     0.015 A 
ATOM     17  C   UNL d   1      -1.571  -4.855  -0.452  0.00  0.00     0.020 A 
ATOM     18  C   UNL d   1      -2.783  -4.899   0.228  0.00  0.00     0.011 A 
ATOM     19  C   UNL d   1      -3.309  -3.744   0.797  0.00  0.00     0.020 A 
ATOM     20 BR   UNL d   1      -3.715  -6.537   0.377  0.00  0.00    -0.051 Br
ATOM     21  C   UNL d   1      -2.607  -2.537   0.696  0.00  0.00     0.015 A 
ENDBRANCH   4  15
BRANCH   5  22
ATOM     22  C   UNL d   1       2.964   0.097   0.029  0.00  0.00    -0.026 A 
ATOM     23  C   UNL d   1       3.682   1.119  -0.620  0.00  0.00     0.012 A 
ATOM     24  C   UNL d   1       5.077   1.187  -0.555  0.00  0.00     0.001 A 
ATOM     25  C   UNL d   1       5.790   0.220   0.146  0.00  0.00     0.000 A 
ATOM     26  C   UNL d   1       5.109  -0.811   0.783  0.00  0.00     0.001 A 
ATOM     27  C   UNL d   1       3.713  -0.866   0.730  0.00  0.00     0.012 A 
ENDBRANCH   5  22
TORSDOF 3
