REMARK  4 active torsions:
REMARK  status: ('A' for Active; 'I' for Inactive)
REMARK    1  A    between atoms: C_9  and  C_1 
REMARK    2  A    between atoms: N_15  and  C_3 
REMARK    3  A    between atoms: C_11  and  C_6 
REMARK    4  A    between atoms: C_14  and  C_9 
ROOT
ATOM      1  C   UNL d   1      -3.732   0.004   0.058  0.00  0.00     0.085 A 
ATOM      2  C   UNL d   1      -1.474   0.761   0.062  0.00  0.00     0.038 A 
ATOM      3  C   UNL d   1      -2.889   1.092   0.199  0.00  0.00     0.061 A 
ATOM      4  C   UNL d   1      -1.360  -0.623  -0.010  0.00  0.00     0.088 A 
ATOM      5  S   UNL d   1      -2.842  -1.449  -0.050  0.00  0.00    -0.065 SA
ATOM      6  C   UNL d   1      -0.235   1.486   0.035  0.00  0.00     0.004 A 
ATOM      7  N   UNL d   1      -0.227  -1.350  -0.050  0.00  0.00    -0.353 N 
ATOM      8  HN  UNL d   1      -0.237  -2.369  -0.104  1.00  0.00     0.166 HD
ATOM      9  C   UNL d   1       0.985   0.746  -0.003  0.00  0.00    -0.023 A 
ATOM     10  C   UNL d   1       0.915  -0.652  -0.014  0.00  0.00     0.017 A 
ATOM     11  C   UNL d   1       2.336   1.428   0.042  0.00  0.00     0.041 C 
ATOM     12  C   UNL d   1       2.158  -1.514  -0.052  0.00  0.00     0.057 C 
ATOM     13  C   UNL d   1       3.511   0.541  -0.364  0.00  0.00     0.005 C 
ATOM     14  C   UNL d   1       3.427  -0.788   0.366  0.00  0.00     0.006 C 
ENDROOT
BRANCH   1  15
ATOM     15  C   UNL d   1      -5.185  -0.094   0.014  0.00  0.00     0.201 C 
ATOM     16  O   UNL d   1      -5.826  -1.021   0.511  0.00  0.00    -0.286 OA
BRANCH  15  17
ATOM     17  C   UNL d   1      -5.980   0.969  -0.678  0.00  0.00     0.015 A 
ATOM     18  C   UNL d   1      -7.267   1.262  -0.203  0.00  0.00     0.017 A 
ATOM     19  C   UNL d   1      -8.039   2.251  -0.821  0.00  0.00     0.025 A 
ATOM     20  C   UNL d   1      -7.530   2.944  -1.917  0.00  0.00     0.034 A 
ATOM     21  C   UNL d   1      -6.256   2.656  -2.404  0.00  0.00     0.025 A 
ATOM     22 CL   UNL d   1      -8.481   4.158  -2.679  0.00  0.00    -0.084 Cl
ATOM     23  C   UNL d   1      -5.486   1.661  -1.794  0.00  0.00     0.017 A 
ENDBRANCH  15  17
ENDBRANCH   1  15
BRANCH   3  24
ATOM     24  N   UNL d   1      -3.351   2.339   0.449  0.00  0.00    -0.397 N 
ATOM     25  H   UNL d   1      -2.744   3.156   0.371  0.00  0.00     0.156 HD
ATOM     26  H   UNL d   1      -4.326   2.588   0.560  0.00  0.00     0.156 HD
ENDBRANCH   3  24
BRANCH   6  27
ATOM     27  C   UNL d   1      -0.232   2.967   0.054  0.00  0.00     0.016 C 
ATOM     28  S   UNL d   1      -1.136   3.869  -1.107  0.00  0.00    -0.101 SA
ATOM     29  C   UNL d   1      -0.719   5.364  -0.391  0.00  0.00     0.050 C 
ATOM     30  C   UNL d   1       0.250   5.211   0.570  0.00  0.00     0.008 C 
ATOM     31  C   UNL d   1       0.509   3.836   0.843  0.00  0.00     0.020 C 
ENDBRANCH   6  27
TORSDOF 4
