REMARK  9 active torsions:
REMARK  status: ('A' for Active; 'I' for Inactive)
REMARK    1  A    between atoms: C_7  and  C_1 
REMARK    2  A    between atoms: C_3  and  C_2 
REMARK    3  A    between atoms: N_12  and  C_6 
REMARK    4  A    between atoms: O_14  and  C_7 
REMARK    5  A    between atoms: C_8  and  O_16 
REMARK    6  A    between atoms: C_28  and  N_12 
REMARK    7  A    between atoms: C_13  and  C_27 
REMARK    8  A    between atoms: C_27  and  O_14 
REMARK    9  A    between atoms: O_16  and  C_29 
ROOT
ATOM      1  C   UNL d   1      -0.054  -1.453  -0.045  0.00  0.00     0.087 A 
ATOM      2  C   UNL d   1       1.179  -0.838   0.009  0.00  0.00     0.150 A 
ATOM      3  N   UNL d   1       1.268   0.527   0.043  0.00  0.00    -0.185 N 
ATOM      4  HN  UNL d   1       2.180   0.974   0.130  1.00  0.00     0.184 HD
ATOM      5  C   UNL d   1       0.163   1.282  -0.039  0.00  0.00     0.683 A 
ATOM      6  N   UNL d   1      -1.057   0.755  -0.148  0.00  0.00    -0.201 N 
ATOM      7  HN  UNL d   1      -1.887   1.340  -0.245  1.00  0.00     0.183 HD
ATOM      8  C   UNL d   1      -1.139  -0.596  -0.122  0.00  0.00     0.126 A 
ENDROOT
BRANCH   5   9
ATOM      9  N   UNL d   1       0.277   2.668  -0.077  0.00  0.00    -0.192 N 
ATOM     10  H   UNL d   1      -0.605   3.108  -0.289  0.00  0.00     0.184 HD
BRANCH   9  11
ATOM     11  C   UNL d   1       1.262   3.482   0.499  0.00  0.00     0.049 A 
ATOM     12  C   UNL d   1       1.532   4.742  -0.048  0.00  0.00     0.033 A 
ATOM     13  C   UNL d   1       2.562   5.551   0.460  0.00  0.00     0.039 A 
ATOM     14  C   UNL d   1       3.309   5.128   1.556  0.00  0.00     0.078 A 
ATOM     15  C   UNL d   1       3.060   3.865   2.092  0.00  0.00     0.039 A 
ATOM     16  C   UNL d   1       2.055   3.051   1.567  0.00  0.00     0.033 A 
BRANCH  14  17
ATOM     17  O   UNL d   1       4.323   5.795   2.167  0.00  0.00    -0.255 OA
BRANCH  17  18
ATOM     18  C   UNL d   1       4.386   7.210   2.109  0.00  0.00     0.530 C 
ATOM     19  F   UNL d   1       3.244   7.798   1.700  0.00  0.00    -0.144 F 
ATOM     20  F   UNL d   1       4.662   7.671   3.351  0.00  0.00    -0.144 F 
ATOM     21  F   UNL d   1       5.392   7.584   1.290  0.00  0.00    -0.144 F 
ENDBRANCH  17  18
ENDBRANCH  14  17
ENDBRANCH   9  11
ENDBRANCH   5   9
BRANCH   2  22
ATOM     22  C   UNL d   1       2.520  -1.541  -0.053  0.00  0.00     0.434 C 
ATOM     23  F   UNL d   1       2.504  -2.892  -0.210  0.00  0.00    -0.165 F 
ATOM     24  F   UNL d   1       3.265  -1.098  -1.112  0.00  0.00    -0.165 F 
ATOM     25  F   UNL d   1       3.286  -1.304   1.052  0.00  0.00    -0.165 F 
ENDBRANCH   2  22
BRANCH   1  26
ATOM     26  C   UNL d   1      -0.365  -2.892  -0.028  0.00  0.00     0.297 C 
ATOM     27  O   UNL d   1      -1.346  -3.358  -0.569  0.00  0.00    -0.259 OA
BRANCH  26  28
ATOM     28  O   UNL d   1       0.489  -3.534   0.787  0.00  0.00    -0.311 OA
BRANCH  28  29
ATOM     29  C   UNL d   1       0.151  -4.886   1.131  0.00  0.00     0.244 C 
BRANCH  29  30
ATOM     30  C   UNL d   1      -0.328  -4.826   2.530  0.00  0.00     0.076 A 
ATOM     31  O   UNL d   1       0.536  -4.283   3.436  0.00  0.00    -0.325 OA
ATOM     32  C   UNL d   1      -0.110  -4.237   4.626  0.00  0.00     0.142 A 
ATOM     33  C   UNL d   1      -1.374  -4.763   4.505  0.00  0.00     0.027 A 
ATOM     34  C   UNL d   1      -1.517  -5.150   3.149  0.00  0.00     0.037 A 
ENDBRANCH  29  30
ENDBRANCH  28  29
ENDBRANCH  26  28
ENDBRANCH   1  26
TORSDOF 9
