REMARK  3 active torsions:
REMARK  status: ('A' for Active; 'I' for Inactive)
REMARK    1  A    between atoms: N_8  and  C_2 
REMARK    2  A    between atoms: C_17  and  C_3 
REMARK       I    between atoms: C_5  and  N_9 
REMARK    3  A    between atoms: C_10  and  C_5 
ROOT
ATOM      1  C   UNL d   1       0.426   1.003  -0.789  0.00  0.00     0.048 A 
ATOM      2  C   UNL d   1       1.484   1.502   0.027  0.00  0.00     0.097 A 
ATOM      3  C   UNL d   1      -0.521   1.579  -1.744  0.00  0.00    -0.003 A 
ATOM      4  C   UNL d   1       0.220  -0.372  -0.698  0.00  0.00     0.089 A 
ATOM      5  C   UNL d   1      -1.377   0.619  -2.249  0.00  0.00     0.065 A 
ATOM      6  S   UNL d   1      -1.051  -0.945  -1.666  0.00  0.00    -0.082 SA
ATOM      7  N   UNL d   1       2.179   0.618   0.791  0.00  0.00    -0.342 N 
ATOM      8  HN  UNL d   1       2.940   0.946   1.386  1.00  0.00     0.167 HD
ATOM      9  N   UNL d   1       0.902  -1.257   0.051  0.00  0.00    -0.346 N 
ATOM     10  HN  UNL d   1       0.704  -2.257   0.070  1.00  0.00     0.167 HD
ATOM     11  C   UNL d   1       1.863  -0.680   0.762  0.00  0.00     0.182 A 
ENDROOT
BRANCH   2  12
ATOM     12  N   UNL d   1       1.864   2.868   0.073  0.00  0.00    -0.267 NA
ATOM     13  C   UNL d   1       2.438   3.211   1.408  0.00  0.00     0.117 C 
ATOM     14  C   UNL d   1       2.429   4.725   1.684  0.00  0.00     0.141 C 
ATOM     15  N   UNL d   1       3.081   5.554   0.652  0.00  0.00    -0.346 N 
ATOM     16  C   UNL d   1       4.168   6.362   1.027  0.00  0.00     0.260 C 
ATOM     17  C   UNL d   1       2.349   5.632  -0.606  0.00  0.00     0.127 C 
ATOM     18  O   UNL d   1       4.607   6.287   2.177  0.00  0.00    -0.267 OA
ATOM     19  C   UNL d   1       2.668   4.516  -1.597  0.00  0.00     0.035 C 
ATOM     20  C   UNL d   1       2.824   3.116  -1.016  0.00  0.00     0.098 C 
BRANCH  16  21
ATOM     21  C   UNL d   1       4.749   7.298   0.059  0.00  0.00     0.072 A 
ATOM     22  S   UNL d   1       5.347   8.802   0.650  0.00  0.00    -0.097 SA
ATOM     23  C   UNL d   1       5.814   9.317  -0.910  0.00  0.00     0.050 A 
ATOM     24  C   UNL d   1       5.540   8.372  -1.870  0.00  0.00     0.009 A 
ATOM     25  C   UNL d   1       4.976   7.199  -1.302  0.00  0.00     0.025 A 
ENDBRANCH  16  21
ENDBRANCH   2  12
BRANCH   3  26
ATOM     26  C   UNL d   1      -0.678   2.958  -2.218  0.00  0.00    -0.024 A 
ATOM     27  C   UNL d   1      -0.771   3.223  -3.597  0.00  0.00     0.012 A 
ATOM     28  C   UNL d   1      -0.917   4.530  -4.072  0.00  0.00     0.001 A 
ATOM     29  C   UNL d   1      -0.974   5.591  -3.175  0.00  0.00     0.000 A 
ATOM     30  C   UNL d   1      -0.921   5.339  -1.805  0.00  0.00     0.001 A 
ATOM     31  C   UNL d   1      -0.779   4.029  -1.327  0.00  0.00     0.012 A 
ENDBRANCH   3  26
TORSDOF 3
