REMARK  2 active torsions:
REMARK  status: ('A' for Active; 'I' for Inactive)
REMARK    1  A    between atoms: C_6  and  C_5 
REMARK    2  A    between atoms: O_12  and  C_6 
ROOT
ATOM      1  C   UNL d   1       0.685  -0.549  -0.011  0.00  0.00    -0.002 A 
ATOM      2  C   UNL d   1      -0.778  -0.504  -0.030  0.00  0.00    -0.018 A 
ATOM      3  C   UNL d   1      -1.194   0.849  -0.026  0.00  0.00    -0.042 A 
ATOM      4  C   UNL d   1       1.150   0.796  -0.027  0.00  0.00    -0.042 A 
ATOM      5  C   UNL d   1       1.633  -1.573   0.025  0.00  0.00     0.049 A 
ATOM      6  C   UNL d   1      -0.003   1.774  -0.024  0.00  0.00     0.078 A 
ATOM      7  C   UNL d   1      -1.750  -1.494  -0.057  0.00  0.00     0.014 A 
ATOM      8  C   UNL d   1      -2.531   1.228  -0.021  0.00  0.00     0.026 A 
ATOM      9  C   UNL d   1      -3.487   0.216  -0.027  0.00  0.00     0.007 A 
ATOM     10  C   UNL d   1      -3.106  -1.130  -0.047  0.00  0.00     0.019 A 
ATOM     11  C   UNL d   1       2.497   1.132  -0.023  0.00  0.00     0.008 A 
ATOM     12  I   UNL d   1      -5.507   0.721  -0.003  0.00  0.00    -0.045 I 
ATOM     13  C   UNL d   1       3.005  -1.231   0.055  0.00  0.00     0.019 A 
ATOM     14  C   UNL d   1       3.429   0.105   0.017  0.00  0.00     0.002 A 
ENDROOT
BRANCH   5  15
ATOM     15  C   UNL d   1       1.285  -3.013   0.114  0.00  0.00     0.177 C 
ATOM     16  O   UNL d   1       0.432  -3.469   0.852  0.00  0.00    -0.646 OA
BRANCH  15  17
ATOM     17  O   UNL d   1       2.050  -3.791  -0.687  0.00  0.00    -0.773 OA
ATOM     18  H   UNL d   1       2.646  -3.310  -1.291  0.00  0.00     0.167 HD
ENDBRANCH  15  17
ENDBRANCH   5  15
TORSDOF 2
