REMARK  4 active torsions:
REMARK  status: ('A' for Active; 'I' for Inactive)
REMARK    1  A    between atoms: C_3  and  C_1 
REMARK    2  A    between atoms: N_2  and  C_4 
REMARK    3  A    between atoms: C_19  and  N_9 
REMARK    4  A    between atoms: C_18  and  C_19 
ROOT
ATOM      1  N   UNL d   1      -0.788  -0.433   5.309  0.00  0.00    -0.364 N 
ATOM      2  N   UNL d   1      -2.050  -1.864   7.574  0.00  0.00     0.095 N 
ATOM      3  C   UNL d   1       0.019  -1.273   6.204  0.00  0.00     0.154 C 
ATOM      4  C   UNL d   1      -2.125  -0.035   5.769  0.00  0.00     0.154 C 
ATOM      5  C   UNL d   1      -2.853  -1.169   6.539  0.00  0.00     0.292 C 
ATOM      6  C   UNL d   1      -0.824  -2.361   6.897  0.00  0.00     0.292 C 
ENDROOT
BRANCH   2   7
ATOM      7  C   UNL d   1      -1.770  -0.948   8.697  0.00  0.00     0.311 C 
BRANCH   7   8
ATOM      8  C   UNL d   1      -0.931  -1.538   9.811  0.00  0.00    -0.029 A 
ATOM      9  C   UNL d   1      -1.383  -2.635  10.559  0.00  0.00     0.019 A 
ATOM     10  C   UNL d   1      -0.603  -3.168  11.598  0.00  0.00    -0.024 A 
ATOM     11  C   UNL d   1      -1.125  -4.303  12.430  0.00  0.00     0.044 C 
ATOM     12  C   UNL d   1       0.667  -2.635  11.838  0.00  0.00     0.076 A 
ATOM     13  C   UNL d   1      -0.298  -4.450  13.703  0.00  0.00     0.042 C 
ATOM     14  C   UNL d   1       1.204  -4.375  13.390  0.00  0.00     0.061 C 
ATOM     15  O   UNL d   1       1.544  -3.126  12.765  0.00  0.00    -0.340 OA
ATOM     16  C   UNL d   1       2.001  -4.399  14.702  0.00  0.00     0.046 C 
ATOM     17  C   UNL d   1       1.681  -5.542  12.511  0.00  0.00     0.046 C 
ATOM     18  C   UNL d   1       1.107  -1.522  11.128  0.00  0.00     0.038 A 
ATOM     19  C   UNL d   1       0.310  -0.967  10.129  0.00  0.00     0.012 A 
ENDBRANCH   7   8
ENDBRANCH   2   7
BRANCH   1  20
ATOM     20  C   UNL d   1      -0.507  -0.425   3.956  0.00  0.00     0.103 A 
ATOM     21  C   UNL d   1      -0.846   0.680   3.176  0.00  0.00     0.049 A 
ATOM     22  C   UNL d   1      -0.553   0.704   1.816  0.00  0.00     0.021 A 
ATOM     23  C   UNL d   1       0.077  -0.393   1.231  0.00  0.00     0.063 A 
ATOM     24  C   UNL d   1       0.405  -1.444   2.070  0.00  0.00     0.106 A 
ATOM     25  N   UNL d   1       0.138  -1.473   3.401  0.00  0.00    -0.352 N 
ATOM     26  HN  UNL d   1       0.419  -2.271   3.970  1.00  0.00     0.166 HD
BRANCH  23  27
ATOM     27  C   UNL d   1       0.387  -0.425  -0.233  0.00  0.00     0.418 C 
ATOM     28  F   UNL d   1       0.973  -1.584  -0.641  0.00  0.00    -0.166 F 
ATOM     29  F   UNL d   1       1.233   0.573  -0.610  0.00  0.00    -0.166 F 
ATOM     30  F   UNL d   1      -0.727  -0.279  -1.000  0.00  0.00    -0.166 F 
ENDBRANCH  23  27
ENDBRANCH   1  20
TORSDOF 4
