REMARK  4 active torsions:
REMARK  status: ('A' for Active; 'I' for Inactive)
REMARK    1  A    between atoms: S_13  and  C_3 
REMARK    2  A    between atoms: C_12  and  C_10 
REMARK    3  A    between atoms: C_14  and  C_11 
REMARK    4  A    between atoms: C_18  and  S_13 
ROOT
ATOM      1  N   UNL d   1       0.293   0.666   0.054  0.00  0.00    -0.233 N 
ATOM      2  C   UNL d   1       0.138  -0.724   0.073  0.00  0.00     0.130 A 
ATOM      3  C   UNL d   1      -0.846   1.493   0.040  0.00  0.00     0.102 A 
ATOM      4  N   UNL d   1       1.612   1.007   0.044  0.00  0.00    -0.295 N 
ATOM      5  HN  UNL d   1       2.005   1.948   0.058  1.00  0.00     0.187 HD
ATOM      6  N   UNL d   1      -1.083  -1.334   0.101  0.00  0.00    -0.337 N 
ATOM      7  HN  UNL d   1      -1.170  -2.350   0.131  1.00  0.00     0.167 HD
ATOM      8  C   UNL d   1       1.405  -1.254   0.046  0.00  0.00     0.077 A 
ATOM      9  C   UNL d   1      -2.070   0.940   0.045  0.00  0.00     0.073 A 
ATOM     10  C   UNL d   1      -2.138  -0.561   0.087  0.00  0.00     0.120 A 
ATOM     11  C   UNL d   1       2.285  -0.150   0.013  0.00  0.00     0.037 A 
ENDROOT
BRANCH   3  12
ATOM     12  S   UNL d   1      -0.669   3.220  -0.069  0.00  0.00    -0.071 SA
BRANCH  12  13
ATOM     13  C   UNL d   1      -0.591   3.619   1.667  0.00  0.00     0.007 A 
ATOM     14  C   UNL d   1       0.638   3.632   2.335  0.00  0.00     0.020 A 
ATOM     15  C   UNL d   1       0.707   4.012   3.679  0.00  0.00     0.025 A 
ATOM     16  C   UNL d   1      -0.455   4.380   4.355  0.00  0.00     0.034 A 
ATOM     17  C   UNL d   1      -1.685   4.368   3.700  0.00  0.00     0.025 A 
ATOM     18 CL   UNL d   1      -0.370   4.866   6.003  0.00  0.00    -0.084 Cl
ATOM     19  C   UNL d   1      -1.752   3.992   2.355  0.00  0.00     0.020 A 
ENDBRANCH  12  13
ENDBRANCH   3  12
BRANCH  10  20
ATOM     20  C   UNL d   1      -3.537  -1.185   0.111  0.00  0.00     0.432 C 
ATOM     21  F   UNL d   1      -4.529  -0.251   0.075  0.00  0.00    -0.165 F 
ATOM     22  F   UNL d   1      -3.754  -2.008  -0.950  0.00  0.00    -0.165 F 
ATOM     23  F   UNL d   1      -3.753  -1.923   1.233  0.00  0.00    -0.165 F 
ENDBRANCH  10  20
BRANCH  11  24
ATOM     24  C   UNL d   1       3.807  -0.167  -0.003  0.00  0.00    -0.007 C 
ATOM     25  C   UNL d   1       4.333  -0.210   1.445  0.00  0.00     0.021 C 
ATOM     26  C   UNL d   1       4.343  -1.403  -0.759  0.00  0.00     0.021 C 
ATOM     27  C   UNL d   1       4.381   1.085  -0.701  0.00  0.00     0.021 C 
ENDBRANCH  11  24
TORSDOF 4
