REMARK  4 active torsions:
REMARK  status: ('A' for Active; 'I' for Inactive)
REMARK    1  A    between atoms: C_9  and  C_1 
REMARK    2  A    between atoms: O_16  and  C_1 
REMARK    3  A    between atoms: C_8  and  C_6 
REMARK    4  A    between atoms: S_14  and  C_7 
ROOT
ATOM      1  C   UNL d   1       0.242  -1.448   0.153  0.00  0.00     0.210 C 
ATOM      2  C   UNL d   1       1.339  -0.435  -0.005  0.00  0.00     0.116 C 
ATOM      3  N   UNL d   1      -1.032  -0.865  -0.150  0.00  0.00    -0.332 N 
ATOM      4  N   UNL d   1      -0.250   1.353  -0.018  0.00  0.00    -0.332 N 
ATOM      5  HN  UNL d   1      -0.437   2.354   0.048  1.00  0.00     0.168 HD
ATOM      6  C   UNL d   1      -1.232   0.498  -0.051  0.00  0.00     0.190 C 
ATOM      7  C   UNL d   1       1.049   0.885  -0.075  0.00  0.00     0.093 C 
ATOM      8  C   UNL d   1       2.672  -0.942  -0.016  0.00  0.00     0.103 C 
ATOM      9  N   UNL d   1       3.748  -1.381  -0.022  0.00  0.00    -0.191 NA
ATOM     10  H   UNL d   1      -1.821  -1.468   0.070  0.00  0.00     0.164 HD
ENDROOT
BRANCH   1  11
ATOM     11  C   UNL d   1       0.267  -2.191   1.480  0.00  0.00     0.043 A 
ATOM     12  S   UNL d   1       0.129  -1.319   2.963  0.00  0.00    -0.101 SA
ATOM     13  C   UNL d   1       0.384  -2.725   3.897  0.00  0.00     0.050 A 
ATOM     14  C   UNL d   1       0.506  -3.850   3.115  0.00  0.00     0.008 A 
ATOM     15  C   UNL d   1       0.423  -3.546   1.726  0.00  0.00     0.020 A 
ENDBRANCH   1  11
BRANCH   1  16
ATOM     16  O   UNL d   1       0.390  -2.433  -0.858  0.00  0.00    -0.362 OA
ATOM     17  H   UNL d   1       0.066  -1.997  -1.664  0.00  0.00     0.213 HD
ENDBRANCH   1  16
BRANCH   7  18
ATOM     18  S   UNL d   1       2.382   2.042  -0.198  0.00  0.00    -0.115 SA
ATOM     19  C   UNL d   1       1.529   3.629  -0.122  0.00  0.00     0.097 C 
ENDBRANCH   7  18
BRANCH   6  20
ATOM     20  C   UNL d   1      -2.696   1.030   0.003  0.00  0.00     0.449 C 
ATOM     21  F   UNL d   1      -3.587  -0.002  -0.027  0.00  0.00    -0.163 F 
ATOM     22  F   UNL d   1      -2.957   1.732   1.135  0.00  0.00    -0.163 F 
ATOM     23  F   UNL d   1      -2.997   1.833  -1.051  0.00  0.00    -0.163 F 
ENDBRANCH   6  20
TORSDOF 4
