REMARK  3 active torsions:
REMARK  status: ('A' for Active; 'I' for Inactive)
REMARK    1  A    between atoms: C_14  and  N_7 
REMARK    2  A    between atoms: O_13  and  C_16 
REMARK    3  A    between atoms: C_16  and  C_14 
ROOT
ATOM      1  C   UNL d   1       2.718  -1.111   0.076  0.00  0.00     0.147 A 
ATOM      2  N   UNL d   1       2.618   0.123  -0.365  0.00  0.00    -0.336 N 
ATOM      3  HN  UNL d   1       3.396   0.664  -0.741  1.00  0.00     0.168 HD
ATOM      4  S   UNL d   1       1.262  -1.706   0.806  0.00  0.00    -0.052 SA
ATOM      5  C   UNL d   1       1.320   0.595  -0.254  0.00  0.00     0.053 A 
ATOM      6  C   UNL d   1       0.431  -0.266   0.386  0.00  0.00     0.035 A 
ATOM      7  N   UNL d   1       3.863  -1.847  -0.017  0.00  0.00    -0.364 N 
ATOM      8  C   UNL d   1       0.845   1.833  -0.730  0.00  0.00     0.054 A 
ATOM      9  C   UNL d   1      -0.916   0.073   0.597  0.00  0.00     0.023 A 
ATOM     10  C   UNL d   1      -0.498   2.167  -0.546  0.00  0.00     0.036 A 
ATOM     11  C   UNL d   1      -1.368   1.305   0.115  0.00  0.00     0.025 A 
ATOM     12 CL   UNL d   1      -1.089   3.667  -1.151  0.00  0.00    -0.084 Cl
ATOM     13  C   UNL d   1       3.884  -3.298   0.044  0.00  0.00     0.151 C 
ENDROOT
BRANCH   7  14
ATOM     14  C   UNL d   1       5.155  -1.168  -0.174  0.00  0.00     0.150 C 
BRANCH  14  15
ATOM     15  C   UNL d   1       5.799  -0.851   1.184  0.00  0.00     0.183 C 
BRANCH  15  16
ATOM     16  O   UNL d   1       6.221  -2.043   1.849  0.00  0.00    -0.399 OA
ATOM     17  H   UNL d   1       6.460  -1.786   2.756  0.00  0.00     0.209 HD
ENDBRANCH  15  16
ENDBRANCH  14  15
ENDBRANCH   7  14
TORSDOF 3
