REMARK  6 active torsions:
REMARK  status: ('A' for Active; 'I' for Inactive)
REMARK    1  A    between atoms: C_7  and  N_2 
REMARK    2  A    between atoms: C_8  and  C_5 
REMARK    3  A    between atoms: S_18  and  C_6 
REMARK    4  A    between atoms: C_11  and  C_7 
REMARK    5  A    between atoms: C_9  and  C_19 
REMARK       I    between atoms: N_20  and  C_11 
REMARK    6  A    between atoms: N_14  and  N_20 
ROOT
ATOM      1  C   UNL d   1      -0.554  -1.258   0.293  0.00  0.00     0.109 C 
ATOM      2  N   UNL d   1      -0.292   0.925   0.294  0.00  0.00    -0.275 N 
ATOM      3  N   UNL d   1       0.958   0.432   0.231  0.00  0.00    -0.294 N 
ATOM      4  HN  UNL d   1       1.833   0.956   0.258  1.00  0.00     0.187 HD
ATOM      5  C   UNL d   1       0.807  -0.896   0.125  0.00  0.00     0.089 C 
ATOM      6  C   UNL d   1      -1.239  -0.067   0.422  0.00  0.00     0.110 C 
ATOM      7  C   UNL d   1      -1.131  -2.555   0.250  0.00  0.00     0.104 C 
ATOM      8  N   UNL d   1      -1.602  -3.621   0.243  0.00  0.00    -0.191 NA
ENDROOT
BRANCH   5   9
ATOM      9  C   UNL d   1       1.990  -1.786  -0.181  0.00  0.00     0.034 A 
ATOM     10  S   UNL d   1       3.487  -1.164  -0.751  0.00  0.00    -0.100 SA
ATOM     11  C   UNL d   1       4.135  -2.728  -0.980  0.00  0.00     0.050 A 
ATOM     12  C   UNL d   1       3.269  -3.708  -0.554  0.00  0.00     0.008 A 
ATOM     13  C   UNL d   1       2.031  -3.164  -0.088  0.00  0.00     0.022 A 
ENDBRANCH   5   9
BRANCH   6  14
ATOM     14  S   UNL d   1      -2.932   0.314   0.574  0.00  0.00    -0.114 SA
ATOM     15  C   UNL d   1      -3.451  -0.713   1.966  0.00  0.00     0.097 C 
ENDBRANCH   6  14
BRANCH   2  16
ATOM     16  C   UNL d   1      -0.523   2.366   0.291  0.00  0.00     0.254 C 
BRANCH  16  17
ATOM     17  C   UNL d   1       0.682   3.194  -0.089  0.00  0.00     0.255 C 
ATOM     18  N   UNL d   1       1.272   3.859   0.988  0.00  0.00    -0.269 N 
ATOM     19  H   UNL d   1       0.961   3.692   1.938  0.00  0.00     0.190 HD
ATOM     20  O   UNL d   1       1.044   3.297  -1.261  0.00  0.00    -0.270 OA
BRANCH  18  21
ATOM     21  N   UNL d   1       2.485   4.446   0.799  0.00  0.00    -0.308 N 
ATOM     22  C   UNL d   1       3.035   5.016   1.822  0.00  0.00     0.123 C 
ATOM     23  HN  UNL d   1       2.943   4.436  -0.113  1.00  0.00     0.186 HD
BRANCH  22  24
ATOM     24  C   UNL d   1       4.429   5.516   1.774  0.00  0.00     0.041 A 
ATOM     25  C   UNL d   1       5.191   5.362   0.609  0.00  0.00     0.129 A 
ATOM     26  F   UNL d   1       4.663   4.877  -0.522  0.00  0.00    -0.205 F 
ATOM     27  C   UNL d   1       6.545   5.696   0.579  0.00  0.00     0.043 A 
ATOM     28  C   UNL d   1       7.162   6.203   1.717  0.00  0.00     0.005 A 
ATOM     29  C   UNL d   1       6.411   6.397   2.876  0.00  0.00     0.025 A 
ATOM     30  C   UNL d   1       5.049   6.059   2.908  0.00  0.00     0.048 A 
ATOM     31 CL   UNL d   1       4.213   6.336   4.396  0.00  0.00    -0.083 Cl
ENDBRANCH  22  24
ENDBRANCH  18  21
ENDBRANCH  16  17
ENDBRANCH   2  16
TORSDOF 6
