REMARK  9 active torsions:
REMARK  status: ('A' for Active; 'I' for Inactive)
REMARK       I    between atoms: N_2  and  C_1 
REMARK    1  A    between atoms: C_17  and  C_1 
REMARK    2  A    between atoms: C_7  and  N_2 
REMARK    3  A    between atoms: C_19  and  N_2 
REMARK    4  A    between atoms: C_4  and  C_7 
REMARK    5  A    between atoms: C_8  and  C_18 
REMARK    6  A    between atoms: O_16  and  C_8 
REMARK    7  A    between atoms: S_14  and  C_17 
REMARK    8  A    between atoms: C_18  and  S_14 
REMARK    9  A    between atoms: C_15  and  C_19 
ROOT
ATOM      1  N   UNL d   1       2.973   2.581   2.174  0.00  0.00    -0.197 NA
ATOM      2  C   UNL d   1       2.172   1.918   2.685  0.00  0.00     0.060 C 
ATOM      3  C   UNL d   1       1.164   1.067   3.318  0.00  0.00     0.143 C 
ENDROOT
BRANCH   3   4
ATOM      4  C   UNL d   1       0.930  -0.243   2.558  0.00  0.00     0.140 C 
BRANCH   4   5
ATOM      5  N   UNL d   1       0.328  -0.073   1.223  0.00  0.00    -0.346 N 
ATOM      6  C   UNL d   1       1.016   0.010   0.008  0.00  0.00     0.229 C 
ATOM      7  O   UNL d   1       0.404   0.220  -1.044  0.00  0.00    -0.273 OA
BRANCH   6   8
ATOM      8  C   UNL d   1       2.545  -0.111   0.006  0.00  0.00     0.177 C 
BRANCH   8   9
ATOM      9  S   UNL d   1       3.146  -0.994  -1.486  0.00  0.00    -0.149 SA
BRANCH   9  10
ATOM     10  C   UNL d   1       4.940  -0.801  -1.208  0.00  0.00     0.184 C 
BRANCH  10  11
ATOM     11  C   UNL d   1       5.399  -1.666  -0.055  0.00  0.00     0.149 C 
ATOM     12  O   UNL d   1       6.157  -1.287   0.828  0.00  0.00    -0.649 OA
BRANCH  11  13
ATOM     13  O   UNL d   1       4.913  -2.930  -0.097  0.00  0.00    -0.776 OA
ATOM     14  H   UNL d   1       4.286  -3.044  -0.844  0.00  0.00     0.167 HD
ENDBRANCH  11  13
ENDBRANCH  10  11
ENDBRANCH   9  10
ENDBRANCH   8   9
ENDBRANCH   6   8
BRANCH   5  15
ATOM     15  C   UNL d   1      -1.133   0.093   1.178  0.00  0.00     0.171 C 
BRANCH  15  16
ATOM     16  C   UNL d   1      -1.832  -1.234   1.070  0.00  0.00     0.000 A 
ATOM     17  S   UNL d   1      -2.916  -1.740   2.302  0.00  0.00    -0.105 SA
ATOM     18  C   UNL d   1      -3.367  -3.138   1.427  0.00  0.00     0.050 A 
ATOM     19  C   UNL d   1      -2.688  -3.241   0.234  0.00  0.00     0.008 A 
ATOM     20  C   UNL d   1      -1.800  -2.145   0.031  0.00  0.00     0.017 A 
ENDBRANCH  15  16
ENDBRANCH   5  15
ENDBRANCH   4   5
ENDBRANCH   3   4
TORSDOF 9
