REMARK  4 active torsions:
REMARK  status: ('A' for Active; 'I' for Inactive)
REMARK    1  A    between atoms: N_2  and  C_1 
REMARK    2  A    between atoms: N_3  and  C_5 
REMARK    3  A    between atoms: N_6  and  N_10 
REMARK    4  A    between atoms: N_10  and  C_8 
ROOT
ATOM      1  C   UNL d   1      -0.023   1.057   0.831  0.00  0.00     0.133 A 
ATOM      2  C   UNL d   1      -0.736  -0.127   1.088  0.00  0.00     0.074 A 
ATOM      3  C   UNL d   1      -0.314  -1.316   0.486  0.00  0.00     0.105 A 
ATOM      4  C   UNL d   1       1.105   1.085  -0.011  0.00  0.00     0.081 A 
ATOM      5  C   UNL d   1       1.499  -0.140  -0.588  0.00  0.00     0.036 A 
ATOM      6  C   UNL d   1       0.802  -1.328  -0.356  0.00  0.00     0.038 A 
ENDROOT
BRANCH   4   7
ATOM      7  N   UNL d   1       1.877   2.241  -0.245  0.00  0.00    -0.298 N 
ATOM      8  H   UNL d   1       1.488   3.136   0.065  0.00  0.00     0.187 HD
BRANCH   7   9
ATOM      9  N   UNL d   1       3.204   2.060  -0.419  0.00  0.00    -0.308 N 
ATOM     10  C   UNL d   1       3.950   3.084  -0.685  0.00  0.00     0.008 C 
ATOM     11  C   UNL d   1       5.438   2.898  -0.892  0.00  0.00     0.029 C 
ATOM     12  C   UNL d   1       3.534   4.523  -0.814  0.00  0.00     0.063 C 
ATOM     13  C   UNL d   1       5.872   4.255  -1.461  0.00  0.00     0.019 C 
ATOM     14  C   UNL d   1       5.768   1.724  -1.799  0.00  0.00     0.016 C 
ATOM     15  C   UNL d   1       4.589   5.049  -1.800  0.00  0.00    -0.042 C 
ATOM     16  C   UNL d   1       4.825   6.553  -1.620  0.00  0.00     0.015 C 
ATOM     17  C   UNL d   1       4.136   4.784  -3.246  0.00  0.00     0.015 C 
ATOM     18  HN  UNL d   1       3.613   1.129  -0.342  1.00  0.00     0.186 HD
ENDBRANCH   7   9
ENDBRANCH   4   7
BRANCH   1  19
ATOM     19  N   UNL d   1      -0.463   2.275   1.504  0.00  0.00    -0.113 N 
ATOM     20  O   UNL d   1      -0.877   2.164   2.666  0.00  0.00    -0.532 OA
ATOM     21  O   UNL d   1      -0.391   3.339   0.872  0.00  0.00    -0.532 OA
ENDBRANCH   1  19
BRANCH   3  22
ATOM     22  N   UNL d   1      -1.039  -2.568   0.741  0.00  0.00    -0.116 N 
ATOM     23  O   UNL d   1      -2.002  -2.522   1.518  0.00  0.00    -0.532 OA
ATOM     24  O   UNL d   1      -0.648  -3.590   0.161  0.00  0.00    -0.532 OA
ENDBRANCH   3  22
TORSDOF 4
