REMARK  4 active torsions:
REMARK  status: ('A' for Active; 'I' for Inactive)
REMARK    1  A    between atoms: C_2  and  N_1 
REMARK    2  A    between atoms: C_4  and  C_5 
REMARK    3  A    between atoms: N_12  and  C_4 
REMARK    4  A    between atoms: O_13  and  C_6 
ROOT
ATOM      1  C   UNL d   1       0.361   1.180  -0.124  0.00  0.00     0.137 A 
ATOM      2  C   UNL d   1       0.737   2.236  -0.975  0.00  0.00     0.053 A 
ATOM      3  C   UNL d   1       0.002   3.426  -0.975  0.00  0.00     0.004 A 
ATOM      4  C   UNL d   1      -0.725   1.283   0.748  0.00  0.00     0.101 A 
ATOM      5  C   UNL d   1      -1.106   3.532  -0.123  0.00  0.00     0.017 A 
ATOM      6  C   UNL d   1      -1.463   2.471   0.721  0.00  0.00     0.040 A 
ENDROOT
BRANCH   3   7
ATOM      7  C   UNL d   1       0.377   4.534  -1.900  0.00  0.00     0.104 C 
ATOM      8  S   UNL d   1      -0.689   5.613  -2.603  0.00  0.00    -0.060 SA
BRANCH   7   9
ATOM      9  N   UNL d   1       1.709   4.669  -2.198  0.00  0.00    -0.390 N 
ATOM     10  H   UNL d   1       2.453   4.145  -1.754  0.00  0.00     0.157 HD
ATOM     11  H   UNL d   1       1.988   5.433  -2.805  0.00  0.00     0.157 HD
ENDBRANCH   7   9
ENDBRANCH   3   7
BRANCH   1  12
ATOM     12  N   UNL d   1       1.115  -0.044  -0.264  0.00  0.00    -0.113 N 
ATOM     13  O   UNL d   1       2.321   0.011   0.014  0.00  0.00    -0.532 OA
ATOM     14  O   UNL d   1       0.516  -1.041  -0.686  0.00  0.00    -0.532 OA
ENDBRANCH   1  12
BRANCH   4  15
ATOM     15  O   UNL d   1      -1.231   0.345   1.601  0.00  0.00    -0.353 OA
ATOM     16  C   UNL d   1      -0.303  -0.438   2.347  0.00  0.00     0.210 C 
ENDBRANCH   4  15
TORSDOF 4
