REMARK  10 active torsions:
REMARK  status: ('A' for Active; 'I' for Inactive)
REMARK    1  A    between atoms: C_20  and  N_1 
REMARK    2  A    between atoms: C_19  and  N_2 
REMARK    3  A    between atoms: C_16  and  C_4 
REMARK    4  A    between atoms: C_15  and  C_18 
REMARK    5  A    between atoms: C_17  and  C_16 
REMARK    6  A    between atoms: N_21  and  C_17 
REMARK    7  A    between atoms: C_18  and  N_22 
REMARK    8  A    between atoms: C_24  and  N_21 
REMARK    9  A    between atoms: N_22  and  C_23 
REMARK   10  A    between atoms: C_23  and  C_24 
ROOT
ATOM      1  N   UNL d   1       6.211  -0.567  -0.005  0.00  0.00    -0.393 N 
ATOM      2  C   UNL d   1       6.345   0.582   0.897  0.00  0.00     0.148 C 
ENDROOT
BRANCH   1   3
ATOM      3  C   UNL d   1       7.309  -1.065  -0.682  0.00  0.00     0.089 C 
BRANCH   3   4
ATOM      4  C   UNL d   1       7.343  -1.778  -1.815  0.00  0.00     0.068 C 
ATOM      5  C   UNL d   1       8.573  -2.218  -2.341  0.00  0.00     0.145 A 
ATOM      6  N   UNL d   1       9.284  -1.533  -3.330  0.00  0.00    -0.223 N 
ATOM      7  N   UNL d   1       9.213  -3.340  -2.067  0.00  0.00    -0.268 N 
ATOM      8  N   UNL d   1      10.358  -2.311  -3.651  0.00  0.00    -0.219 N 
ATOM      9  N   UNL d   1      10.307  -3.376  -2.875  0.00  0.00    -0.226 N 
ATOM     10  HN  UNL d   1      11.066  -2.107  -4.357  1.00  0.00     0.210 HD
ATOM     11  HN  UNL d   1      10.997  -4.127  -2.880  1.00  0.00     0.210 HD
ATOM     12  HN  UNL d   1       8.940  -4.044  -1.381  1.00  0.00     0.190 HD
BRANCH   6  13
ATOM     13  C   UNL d   1       9.085  -0.281  -3.987  0.00  0.00     0.060 A 
ATOM     14  C   UNL d   1       8.065   0.615  -3.640  0.00  0.00     0.031 A 
ATOM     15  C   UNL d   1       7.931   1.837  -4.308  0.00  0.00     0.002 A 
ATOM     16  C   UNL d   1       8.807   2.178  -5.334  0.00  0.00     0.000 A 
ATOM     17  C   UNL d   1       9.823   1.300  -5.692  0.00  0.00     0.002 A 
ATOM     18  C   UNL d   1       9.966   0.080  -5.024  0.00  0.00     0.031 A 
ENDBRANCH   6  13
ENDBRANCH   3   4
ENDBRANCH   1   3
BRANCH   1  19
ATOM     19  C   UNL d   1       4.836  -1.107  -0.095  0.00  0.00     0.141 C 
BRANCH  19  20
ATOM     20  C   UNL d   1       4.684  -2.648   0.001  0.00  0.00     0.141 C 
BRANCH  20  21
ATOM     21  N   UNL d   1       5.457  -3.310   1.075  0.00  0.00    -0.393 N 
ATOM     22  C   UNL d   1       6.334  -4.391   0.611  0.00  0.00     0.148 C 
BRANCH  21  23
ATOM     23  C   UNL d   1       5.298  -3.059   2.427  0.00  0.00     0.089 C 
BRANCH  23  24
ATOM     24  C   UNL d   1       4.289  -2.432   3.040  0.00  0.00     0.068 C 
BRANCH  24  25
ATOM     25  C   UNL d   1       4.224  -2.361   4.448  0.00  0.00     0.139 C 
ATOM     26  N   UNL d   1       3.220  -3.015   5.160  0.00  0.00    -0.225 N 
ATOM     27  N   UNL d   1       3.190  -2.483   6.407  0.00  0.00     0.001 NA
ATOM     28  N   UNL d   1       4.239  -1.678   6.488  0.00  0.00    -0.007 NA
ATOM     29  N   UNL d   1       4.888  -1.590   5.287  0.00  0.00    -0.270 N 
ATOM     30  HN  UNL d   1       5.721  -1.038   5.082  1.00  0.00     0.185 HD
BRANCH  26  31
ATOM     31  C   UNL d   1       2.328  -4.054   4.782  0.00  0.00     0.056 A 
ATOM     32  C   UNL d   1       2.645  -4.957   3.757  0.00  0.00     0.031 A 
ATOM     33  C   UNL d   1       1.743  -5.961   3.396  0.00  0.00     0.002 A 
ATOM     34  C   UNL d   1       0.522  -6.068   4.053  0.00  0.00     0.000 A 
ATOM     35  C   UNL d   1       0.208  -5.189   5.089  0.00  0.00     0.002 A 
ATOM     36  C   UNL d   1       1.113  -4.194   5.467  0.00  0.00     0.031 A 
ENDBRANCH  26  31
ENDBRANCH  24  25
ENDBRANCH  23  24
ENDBRANCH  21  23
ENDBRANCH  20  21
ENDBRANCH  19  20
ENDBRANCH   1  19
TORSDOF 10
