REMARK  11 active torsions:
REMARK  status: ('A' for Active; 'I' for Inactive)
REMARK    1  A    between atoms: C_3  and  C_1 
REMARK    2  A    between atoms: C_7  and  C_2 
REMARK       I    between atoms: N_5  and  C_3 
REMARK    3  A    between atoms: C_4  and  C_8 
REMARK    4  A    between atoms: C_6  and  N_5 
REMARK    5  A    between atoms: O_24  and  C_7 
REMARK    6  A    between atoms: O_15  and  C_9 
REMARK    7  A    between atoms: C_23  and  O_15 
REMARK    8  A    between atoms: C_34  and  O_24 
REMARK    9  A    between atoms: O_30  and  C_25 
REMARK   10  A    between atoms: O_33  and  C_35 
REMARK   11  A    between atoms: C_35  and  C_34 
ROOT
ATOM      1  C   UNL d   1       0.942  -3.800  -0.619  0.00  0.00     0.070 A 
ATOM      2  C   UNL d   1       2.980  -5.162  -0.752  0.00  0.00     0.050 A 
ATOM      3  C   UNL d   1       1.311  -3.379   0.674  0.00  0.00     0.102 A 
ATOM      4  C   UNL d   1       1.774  -4.703  -1.307  0.00  0.00     0.048 A 
ATOM      5  C   UNL d   1       3.372  -4.674   0.498  0.00  0.00     0.019 A 
ATOM      6  C   UNL d   1       2.540  -3.803   1.204  0.00  0.00     0.040 A 
ENDROOT
BRANCH   1   7
ATOM      7  N   UNL d   1      -0.061  -3.165  -1.396  0.00  0.00    -0.319 N 
ATOM      8  C   UNL d   1      -1.400  -3.548  -1.345  0.00  0.00     0.275 C 
ATOM      9  O   UNL d   1      -1.799  -4.553  -0.770  0.00  0.00    -0.266 OA
ATOM     10  H   UNL d   1       0.228  -3.018  -2.357  0.00  0.00     0.169 HD
BRANCH   8  11
ATOM     11  C   UNL d   1      -2.342  -2.755  -2.213  0.00  0.00     0.134 A 
ATOM     12  C   UNL d   1      -2.148  -1.438  -2.607  0.00  0.00     0.141 A 
ATOM     13  N   UNL d   1      -2.935  -0.830  -3.552  0.00  0.00    -0.358 N 
ATOM     14  C   UNL d   1      -3.962  -1.567  -4.029  0.00  0.00     0.105 A 
ATOM     15  HN  UNL d   1      -2.757   0.121  -3.874  1.00  0.00     0.165 HD
ATOM     16  C   UNL d   1      -4.206  -2.856  -3.591  0.00  0.00     0.105 A 
ATOM     17  N   UNL d   1      -3.403  -3.480  -2.701  0.00  0.00    -0.358 N 
ATOM     18  HN  UNL d   1      -3.575  -4.441  -2.406  1.00  0.00     0.165 HD
BRANCH  12  19
ATOM     19  C   UNL d   1      -1.119  -0.578  -1.979  0.00  0.00     0.312 C 
ATOM     20  O   UNL d   1      -0.907  -0.538  -0.779  0.00  0.00    -0.258 OA
BRANCH  19  21
ATOM     21  O   UNL d   1      -0.428   0.093  -2.938  0.00  0.00    -0.314 OA
BRANCH  21  22
ATOM     22  C   UNL d   1       0.713   0.838  -2.473  0.00  0.00     0.205 C 
BRANCH  22  23
ATOM     23  C   UNL d   1       0.358   2.058  -1.620  0.00  0.00     0.193 C 
BRANCH  23  24
ATOM     24  O   UNL d   1      -0.333   3.026  -2.414  0.00  0.00    -0.394 OA
ATOM     25  C   UNL d   1      -0.653   4.182  -1.649  0.00  0.00     0.201 C 
ENDBRANCH  23  24
ENDBRANCH  22  23
ENDBRANCH  21  22
ENDBRANCH  19  21
ENDBRANCH  12  19
ENDBRANCH   8  11
ENDBRANCH   1   7
BRANCH   3  26
ATOM     26  O   UNL d   1       0.754  -2.351   1.401  0.00  0.00    -0.309 OA
BRANCH  26  27
ATOM     27  C   UNL d   1      -0.537  -2.389   1.860  0.00  0.00     0.076 C 
ATOM     28  C   UNL d   1      -1.397  -3.479   1.836  0.00  0.00     0.040 C 
ATOM     29  C   UNL d   1      -2.763  -3.291   2.080  0.00  0.00     0.039 C 
ATOM     30  C   UNL d   1      -3.245  -2.030   2.429  0.00  0.00     0.068 C 
ATOM     31  C   UNL d   1      -2.352  -0.993   2.670  0.00  0.00     0.039 C 
ATOM     32  C   UNL d   1      -1.000  -1.173   2.375  0.00  0.00     0.040 C 
BRANCH  30  33
ATOM     33  O   UNL d   1      -4.578  -1.747   2.558  0.00  0.00    -0.356 OA
ATOM     34  C   UNL d   1      -5.320  -2.145   1.402  0.00  0.00     0.210 C 
ENDBRANCH  30  33
ENDBRANCH  26  27
ENDBRANCH   3  26
BRANCH   2  35
ATOM     35  C   UNL d   1       3.875  -6.115  -1.504  0.00  0.00     0.417 C 
ATOM     36  F   UNL d   1       3.292  -6.645  -2.614  0.00  0.00    -0.166 F 
ATOM     37  F   UNL d   1       5.020  -5.517  -1.935  0.00  0.00    -0.166 F 
ATOM     38  F   UNL d   1       4.269  -7.174  -0.745  0.00  0.00    -0.166 F 
ENDBRANCH   2  35
TORSDOF 11
