REMARK  3 active torsions:
REMARK  status: ('A' for Active; 'I' for Inactive)
REMARK    1  A    between atoms: C_2  and  C_1 
REMARK    2  A    between atoms: C_8  and  C_2 
REMARK    3  A    between atoms: C_13  and  C_8 
ROOT
ATOM      1  C   UNL d   1       2.297  -0.611   0.545  0.00  0.00     0.030 A 
ATOM      2  C   UNL d   1       2.156   0.679   1.074  0.00  0.00     0.027 A 
ATOM      3  C   UNL d   1       1.164  -1.282   0.052  0.00  0.00     0.056 A 
ATOM      4  C   UNL d   1       0.909   1.319   1.025  0.00  0.00     0.059 A 
ATOM      5  C   UNL d   1      -0.082  -0.660   0.060  0.00  0.00     0.103 A 
ATOM      6  C   UNL d   1      -0.201   0.657   0.504  0.00  0.00     0.103 A 
ATOM      7  O   UNL d   1      -1.149  -1.405  -0.370  0.00  0.00    -0.346 OA
ATOM      8  O   UNL d   1      -1.385   1.348   0.494  0.00  0.00    -0.346 OA
ATOM      9 BR   UNL d   1       3.541   1.599   1.990  0.00  0.00    -0.050 Br
ATOM     10  C   UNL d   1      -2.398   0.661  -0.255  0.00  0.00     0.202 C 
ATOM     11  C   UNL d   1      -2.385  -0.824   0.067  0.00  0.00     0.202 C 
ENDROOT
BRANCH   1  12
ATOM     12  C   UNL d   1       3.564  -1.386   0.516  0.00  0.00     0.165 C 
ATOM     13  O   UNL d   1       3.498  -2.570   0.855  0.00  0.00    -0.292 OA
BRANCH  12  14
ATOM     14  C   UNL d   1       4.817  -0.768  -0.091  0.00  0.00     0.122 C 
BRANCH  14  15
ATOM     15  C   UNL d   1       6.083  -0.894   0.733  0.00  0.00    -0.051 A 
ATOM     16  C   UNL d   1       6.424  -2.079   1.401  0.00  0.00     0.007 A 
ATOM     17  C   UNL d   1       7.627  -2.192   2.102  0.00  0.00     0.001 A 
ATOM     18  C   UNL d   1       8.522  -1.127   2.128  0.00  0.00     0.000 A 
ATOM     19  C   UNL d   1       8.212   0.051   1.456  0.00  0.00     0.001 A 
ATOM     20  C   UNL d   1       7.003   0.167   0.760  0.00  0.00     0.007 A 
ENDBRANCH  14  15
ENDBRANCH  12  14
ENDBRANCH   1  12
TORSDOF 3
