REMARK  5 active torsions:
REMARK  status: ('A' for Active; 'I' for Inactive)
REMARK    1  A    between atoms: C_2  and  S_1 
REMARK    2  A    between atoms: N_9  and  S_1 
REMARK    3  A    between atoms: N_3  and  C_13 
REMARK    4  A    between atoms: C_8  and  C_5 
REMARK    5  A    between atoms: O_16  and  C_10 
ROOT
ATOM      1  C   UNL d   1       0.588   1.626   0.715  0.00  0.00     0.074 A 
ATOM      2  C   UNL d   1      -0.054   1.625   1.954  0.00  0.00     0.027 A 
ATOM      3  C   UNL d   1       0.880   2.827   0.069  0.00  0.00     0.027 A 
ATOM      4  C   UNL d   1      -0.196   4.055   1.884  0.00  0.00     0.032 A 
ATOM      5  C   UNL d   1       0.483   4.034   0.658  0.00  0.00     0.031 A 
ATOM      6  C   UNL d   1      -0.430   2.838   2.538  0.00  0.00     0.031 A 
ENDROOT
BRANCH   4   7
ATOM      7  N   UNL d   1      -0.592   5.312   2.383  0.00  0.00    -0.365 N 
ATOM      8  C   UNL d   1      -1.701   5.406   3.049  0.00  0.00     0.102 C 
ATOM      9  HN  UNL d   1      -0.013   6.137   2.223  1.00  0.00     0.165 HD
BRANCH   8  10
ATOM     10  C   UNL d   1      -2.226   6.709   3.505  0.00  0.00     0.012 A 
ATOM     11  C   UNL d   1      -1.614   7.921   3.170  0.00  0.00     0.077 A 
ATOM     12  C   UNL d   1      -2.201   9.128   3.543  0.00  0.00     0.037 A 
ATOM     13  C   UNL d   1      -3.397   9.128   4.262  0.00  0.00     0.003 A 
ATOM     14  C   UNL d   1      -4.000   7.921   4.619  0.00  0.00     0.001 A 
ATOM     15  C   UNL d   1      -3.417   6.710   4.241  0.00  0.00     0.015 A 
BRANCH  11  16
ATOM     16  O   UNL d   1      -0.444   7.993   2.464  0.00  0.00    -0.360 OA
ATOM     17  H   UNL d   1      -0.159   7.068   2.287  0.00  0.00     0.217 HD
ENDBRANCH  11  16
ENDBRANCH   8  10
ENDBRANCH   4   7
BRANCH   1  18
ATOM     18  S   UNL d   1       1.001   0.092  -0.060  0.00  0.00     0.239 S 
ATOM     19  O   UNL d   1       0.399  -0.994   0.686  0.00  0.00    -0.206 OA
ATOM     20  O   UNL d   1       2.397   0.110  -0.414  0.00  0.00    -0.206 OA
BRANCH  18  21
ATOM     21  N   UNL d   1       0.135   0.178  -1.496  0.00  0.00    -0.225 NA
ATOM     22  H   UNL d   1      -0.666  -0.453  -1.457  0.00  0.00     0.136 HD
ATOM     23  H   UNL d   1       0.762  -0.001  -2.281  0.00  0.00     0.136 HD
ENDBRANCH  18  21
ENDBRANCH   1  18
TORSDOF 5
