REMARK  4 active torsions:
REMARK  status: ('A' for Active; 'I' for Inactive)
REMARK       I    between atoms: N_2  and  C_1 
REMARK    1  A    between atoms: C_3  and  C_1 
REMARK    2  A    between atoms: C_4  and  N_2 
REMARK    3  A    between atoms: C_6  and  C_4 
REMARK    4  A    between atoms: C_7  and  C_6 
ROOT
ATOM      1  C   UNL d   1       0.914  -2.370  -0.826  0.00  0.00     0.026 C 
ATOM      2  C   UNL d   1       1.854  -3.003   0.216  0.00  0.00     0.038 C 
ATOM      3  C   UNL d   1      -0.134  -3.464  -1.161  0.00  0.00     0.038 C 
ENDROOT
BRANCH   1   4
ATOM      4  N   UNL d   1       0.226  -1.231  -0.194  0.00  0.00    -0.350 N 
ATOM      5  C   UNL d   1      -0.727  -0.427  -0.805  0.00  0.00     0.251 C 
ATOM      6  O   UNL d   1      -1.125  -0.620  -1.949  0.00  0.00    -0.271 OA
ATOM      7  H   UNL d   1       0.496  -0.983   0.752  0.00  0.00     0.163 HD
BRANCH   5   8
ATOM      8  C   UNL d   1      -1.305   0.709   0.046  0.00  0.00     0.269 C 
ATOM      9 CL   UNL d   1      -2.660   0.074   1.000  0.00  0.00    -0.098 Cl
ATOM     10 CL   UNL d   1      -0.076   1.411   1.124  0.00  0.00    -0.098 Cl
ENDBRANCH   5   8
ENDBRANCH   1   4
BRANCH   1  11
ATOM     11  C   UNL d   1       1.677  -1.989  -2.144  0.00  0.00     0.038 C 
BRANCH  11  12
ATOM     12  C   UNL d   1       2.794  -0.891  -2.198  0.00  0.00    -0.049 C 
ATOM     13  C   UNL d   1       4.085  -1.290  -1.465  0.00  0.00     0.014 C 
ATOM     14  C   UNL d   1       3.184  -0.690  -3.684  0.00  0.00     0.014 C 
ATOM     15  C   UNL d   1       2.320   0.467  -1.668  0.00  0.00     0.014 C 
ENDBRANCH  11  12
ENDBRANCH   1  11
TORSDOF 4
