REMARK  5 active torsions:
REMARK  status: ('A' for Active; 'I' for Inactive)
REMARK    1  A    between atoms: N_4  and  C_1 
REMARK    2  A    between atoms: N_6  and  C_1 
REMARK    3  A    between atoms: C_7  and  N_4 
REMARK    4  A    between atoms: C_13  and  N_6 
REMARK    5  A    between atoms: C_12  and  C_13 
ROOT
ATOM      1  C   UNL d   1       1.095  -0.110   0.092  0.00  0.00     0.172 C 
ATOM      2  S   UNL d   1       0.366   0.480  -1.290  0.00  0.00    -0.041 SA
ENDROOT
BRANCH   1   3
ATOM      3  N   UNL d   1       0.478  -0.594   1.222  0.00  0.00    -0.333 N 
ATOM      4  H   UNL d   1       0.887  -0.243   2.080  0.00  0.00     0.168 HD
BRANCH   3   5
ATOM      5  C   UNL d   1      -0.820  -1.138   1.324  0.00  0.00     0.035 A 
ATOM      6  C   UNL d   1      -1.356  -1.962   0.330  0.00  0.00     0.055 A 
ATOM      7  C   UNL d   1      -2.635  -2.510   0.477  0.00  0.00     0.058 A 
ATOM      8 CL   UNL d   1      -3.215  -3.544  -0.780  0.00  0.00    -0.082 Cl
ATOM      9  C   UNL d   1      -3.387  -2.228   1.621  0.00  0.00     0.055 A 
ATOM     10  C   UNL d   1      -2.841  -1.426   2.628  0.00  0.00     0.028 A 
ATOM     11 CL   UNL d   1      -4.983  -2.844   1.859  0.00  0.00    -0.083 Cl
ATOM     12  C   UNL d   1      -1.552  -0.902   2.490  0.00  0.00     0.031 A 
ENDBRANCH   3   5
ENDBRANCH   1   3
BRANCH   1  13
ATOM     13  N   UNL d   1       2.459  -0.042   0.162  0.00  0.00    -0.363 N 
ATOM     14  H   UNL d   1       2.883   0.363  -0.666  0.00  0.00     0.162 HD
BRANCH  13  15
ATOM     15  C   UNL d   1       3.312  -0.928   0.936  0.00  0.00     0.162 C 
BRANCH  15  16
ATOM     16  C   UNL d   1       4.219  -0.222   1.901  0.00  0.00    -0.025 A 
ATOM     17  C   UNL d   1       5.255  -0.942   2.496  0.00  0.00     0.096 A 
ATOM     18  N   UNL d   1       6.118  -0.434   3.402  0.00  0.00    -0.375 N 
ATOM     19  C   UNL d   1       5.948   0.861   3.739  0.00  0.00     0.087 A 
ATOM     20  HN  UNL d   1       6.861  -1.001   3.811  1.00  0.00     0.164 HD
ATOM     21  C   UNL d   1       4.952   1.667   3.215  0.00  0.00     0.018 A 
ATOM     22  C   UNL d   1       4.073   1.114   2.284  0.00  0.00     0.011 A 
ENDBRANCH  15  16
ENDBRANCH  13  15
ENDBRANCH   1  13
TORSDOF 5
