REMARK  2 active torsions:
REMARK  status: ('A' for Active; 'I' for Inactive)
REMARK    1  A    between atoms: C_6  and  C_1 
REMARK    2  A    between atoms: O_13  and  N_7 
ROOT
ATOM      1  C   UNL d   1       4.503   1.191   0.010  0.00  0.00     0.036 A 
ATOM      2  S   UNL d   1       3.614   2.654  -0.027  0.00  0.00    -0.087 SA
ATOM      3  C   UNL d   1       5.875   1.435   0.001  0.00  0.00    -0.031 A 
ATOM      4  C   UNL d   1       6.173   2.859  -0.004  0.00  0.00    -0.010 A 
ATOM      5  C   UNL d   1       5.015   3.634  -0.010  0.00  0.00     0.016 A 
ATOM      6  C   UNL d   1       7.421   3.538  -0.002  0.00  0.00     0.037 A 
ATOM      7  C   UNL d   1       5.060   5.043  -0.008  0.00  0.00     0.021 A 
ATOM      8  C   UNL d   1       7.468   4.934  -0.001  0.00  0.00     0.035 A 
ATOM      9  C   UNL d   1       6.965   0.405   0.019  0.00  0.00     0.050 C 
ATOM     10  C   UNL d   1       6.301   5.682  -0.002  0.00  0.00     0.025 A 
ATOM     11 CL   UNL d   1       8.993   5.733   0.003  0.00  0.00    -0.084 Cl
ENDROOT
BRANCH   1  12
ATOM     12  C   UNL d   1       3.779  -0.081  -0.002  0.00  0.00     0.045 C 
ATOM     13  N   UNL d   1       4.337  -1.103  -0.593  0.00  0.00    -0.272 N 
ATOM     14  HN  UNL d   1       5.248  -1.070  -1.050  1.00  0.00     0.194 HD
ATOM     15  C   UNL d   1       2.415  -0.194   0.659  0.00  0.00     0.071 C 
BRANCH  13  16
ATOM     16  O   UNL d   1       3.537  -2.250  -0.523  0.00  0.00    -0.290 OA
ATOM     17  H   UNL d   1       4.073  -2.910  -1.002  0.00  0.00     0.244 HD
ENDBRANCH  13  16
ENDBRANCH   1  12
TORSDOF 2
