REMARK  2 active torsions:
REMARK  status: ('A' for Active; 'I' for Inactive)
REMARK    1  A    between atoms: C_12  and  C_2 
REMARK    2  A    between atoms: O_13  and  C_12 
ROOT
ATOM      1  C   UNL d   1       0.762   0.743   1.119  0.00  0.00     0.019 C 
ATOM      2  C   UNL d   1      -1.518   0.300   0.111  0.00  0.00    -0.017 C 
ATOM      3  C   UNL d   1       0.260  -1.516   0.147  0.00  0.00    -0.012 C 
ATOM      4  C   UNL d   1       0.540   0.480  -1.368  0.00  0.00    -0.012 C 
ATOM      5  C   UNL d   1      -0.741   1.041   1.231  0.00  0.00     0.032 C 
ATOM      6  C   UNL d   1       1.003  -0.766   1.266  0.00  0.00     0.025 C 
ATOM      7  C   UNL d   1       1.281   1.225  -0.244  0.00  0.00     0.025 C 
ATOM      8  C   UNL d   1      -0.968   0.771  -1.259  0.00  0.00     0.016 C 
ATOM      9  C   UNL d   1      -1.247  -1.219   0.251  0.00  0.00     0.016 C 
ATOM     10  C   UNL d   1       0.778  -1.032  -1.218  0.00  0.00     0.009 C 
ATOM     11 BR   UNL d   1       1.709   1.689   2.541  0.00  0.00    -0.085 Br
ENDROOT
BRANCH   2  12
ATOM     12  C   UNL d   1      -3.030   0.570   0.213  0.00  0.00     0.173 C 
BRANCH  12  13
ATOM     13  O   UNL d   1      -3.330   1.953   0.071  0.00  0.00    -0.400 OA
ATOM     14  H   UNL d   1      -2.978   2.419   0.847  0.00  0.00     0.209 HD
ENDBRANCH  12  13
ENDBRANCH   2  12
TORSDOF 2
