REMARK  4 active torsions:
REMARK  status: ('A' for Active; 'I' for Inactive)
REMARK    1  A    between atoms: S_6  and  C_1 
REMARK       I    between atoms: C_4  and  N_7 
REMARK    2  A    between atoms: C_11  and  C_4 
REMARK    3  A    between atoms: C_15  and  S_6 
REMARK    4  A    between atoms: N_7  and  C_16 
ROOT
ATOM      1  C   UNL d   1      -3.255  -2.859   0.594  0.00  0.00     0.033 C 
ATOM      2  C   UNL d   1      -3.492  -2.984  -0.784  0.00  0.00     0.052 C 
ATOM      3  C   UNL d   1      -4.459  -3.906  -1.241  0.00  0.00     0.031 C 
ATOM      4  C   UNL d   1      -3.845  -3.826   1.442  0.00  0.00     0.021 C 
ATOM      5  C   UNL d   1      -5.075  -4.805  -0.371  0.00  0.00     0.002 C 
ATOM      6  C   UNL d   1      -4.729  -4.796   0.969  0.00  0.00     0.002 C 
ENDROOT
BRANCH   1   7
ATOM      7  S   UNL d   1      -2.457  -1.582   1.541  0.00  0.00    -0.069 SA
BRANCH   7   8
ATOM      8  C   UNL d   1      -2.018  -0.168   0.600  0.00  0.00     0.089 A 
ATOM      9  C   UNL d   1      -2.854   0.598  -0.244  0.00  0.00     0.038 A 
ATOM     10  C   UNL d   1      -2.211   1.695  -0.819  0.00  0.00     0.088 A 
ATOM     11  C   UNL d   1      -4.256   0.595  -0.654  0.00  0.00    -0.040 C 
ATOM     12  S   UNL d   1      -3.160   2.538  -1.949  0.00  0.00    -0.083 SA
ATOM     13  N   UNL d   1      -0.967   2.138  -0.580  0.00  0.00    -0.346 N 
ATOM     14  C   UNL d   1      -4.503   1.558  -1.621  0.00  0.00     0.059 C 
ATOM     15  C   UNL d   1      -0.327   1.408   0.326  0.00  0.00     0.182 A 
ATOM     16  HN  UNL d   1      -0.558   2.949  -1.044  1.00  0.00     0.167 HD
ATOM     17  N   UNL d   1      -0.776   0.297   0.903  0.00  0.00    -0.346 N 
ATOM     18  HN  UNL d   1      -0.191  -0.205   1.571  1.00  0.00     0.167 HD
ATOM     19  C   UNL d   1      -5.358  -0.277  -0.147  0.00  0.00     0.049 C 
ENDBRANCH   7   8
ENDBRANCH   1   7
BRANCH   2  20
ATOM     20  N   UNL d   1      -2.822  -2.283  -1.818  0.00  0.00    -0.322 N 
ATOM     21  C   UNL d   1      -1.438  -2.340  -1.929  0.00  0.00     0.256 C 
ATOM     22  O   UNL d   1      -0.655  -2.672  -1.055  0.00  0.00    -0.267 OA
ATOM     23  H   UNL d   1      -3.301  -2.308  -2.710  0.00  0.00     0.169 HD
BRANCH  21  24
ATOM     24  C   UNL d   1      -0.927  -2.150  -3.315  0.00  0.00     0.035 A 
ATOM     25  C   UNL d   1      -1.501  -1.233  -4.203  0.00  0.00     0.041 A 
ATOM     26  C   UNL d   1      -1.047  -1.185  -5.522  0.00  0.00     0.036 A 
ATOM     27 CL   UNL d   1      -1.774  -0.086  -6.630  0.00  0.00    -0.084 Cl
ATOM     28  C   UNL d   1      -0.029  -2.030  -5.962  0.00  0.00     0.047 A 
ATOM     29  C   UNL d   1       0.550  -2.925  -5.065  0.00  0.00     0.036 A 
ATOM     30  C   UNL d   1       0.111  -2.987  -3.745  0.00  0.00     0.041 A 
ATOM     31 CL   UNL d   1       1.794  -3.985  -5.601  0.00  0.00    -0.084 Cl
ENDBRANCH  21  24
ENDBRANCH   2  20
TORSDOF 4
