REMARK  3 active torsions:
REMARK  status: ('A' for Active; 'I' for Inactive)
REMARK    1  A    between atoms: S_2  and  C_1 
REMARK    2  A    between atoms: C_14  and  S_2 
REMARK    3  A    between atoms: N_7  and  C_4 
ROOT
ATOM      1  C   UNL d   1      -0.017   1.351  -0.007  0.00  0.00     0.155 A 
ATOM      2  C   UNL d   1       0.844   0.259  -0.018  0.00  0.00     0.091 A 
ATOM      3  C   UNL d   1      -1.155  -1.120  -0.005  0.00  0.00     0.132 A 
ATOM      4  N   UNL d   1      -1.378   1.259   0.023  0.00  0.00    -0.347 N 
ATOM      5  HN  UNL d   1      -1.956   2.100   0.048  1.00  0.00     0.166 HD
ATOM      6  C   UNL d   1       0.262  -1.032  -0.015  0.00  0.00    -0.003 A 
ATOM      7  C   UNL d   1      -1.947   0.029   0.019  0.00  0.00     0.040 A 
ATOM      8  C   UNL d   1       2.264   0.429   0.029  0.00  0.00     0.103 C 
ATOM      9  N   UNL d   1       3.418   0.527   0.125  0.00  0.00    -0.191 NA
ATOM     10  C   UNL d   1       1.110  -2.285  -0.015  0.00  0.00     0.052 C 
ATOM     11  C   UNL d   1      -3.448   0.051   0.006  0.00  0.00     0.071 C 
ENDROOT
BRANCH   1  12
ATOM     12  S   UNL d   1       0.552   3.048  -0.168  0.00  0.00     0.223 S 
ATOM     13  O   UNL d   1       1.760   3.018  -0.973  0.00  0.00    -0.216 OA
ATOM     14  O   UNL d   1      -0.567   3.864  -0.607  0.00  0.00    -0.216 OA
BRANCH  12  15
ATOM     15  C   UNL d   1       0.981   3.623   1.458  0.00  0.00     0.065 A 
ATOM     16  C   UNL d   1       2.306   3.952   1.762  0.00  0.00     0.024 A 
ATOM     17  C   UNL d   1       2.605   4.506   3.007  0.00  0.00     0.002 A 
ATOM     18  C   UNL d   1       1.589   4.728   3.939  0.00  0.00     0.000 A 
ATOM     19  C   UNL d   1       0.270   4.387   3.635  0.00  0.00     0.002 A 
ATOM     20  C   UNL d   1      -0.040   3.836   2.391  0.00  0.00     0.024 A 
ENDBRANCH  12  15
ENDBRANCH   1  12
BRANCH   3  21
ATOM     21  N   UNL d   1      -1.799  -2.419   0.006  0.00  0.00    -0.113 N 
ATOM     22  O   UNL d   1      -1.653  -3.127  -0.997  0.00  0.00    -0.532 OA
ATOM     23  O   UNL d   1      -2.433  -2.721   1.024  0.00  0.00    -0.532 OA
ENDBRANCH   3  21
TORSDOF 3
