REMARK  4 active torsions:
REMARK  status: ('A' for Active; 'I' for Inactive)
REMARK    1  A    between atoms: C_2  and  C_1 
REMARK       I    between atoms: N_3  and  C_2 
REMARK    2  A    between atoms: N_4  and  N_3 
REMARK    3  A    between atoms: C_7  and  N_4 
REMARK    4  A    between atoms: C_15  and  C_9 
ROOT
ATOM      1  C   UNL d   1       1.267   0.691  -1.984  0.00  0.00     0.271 C 
ATOM      2  N   UNL d   1       2.171   1.727  -1.781  0.00  0.00    -0.282 N 
ATOM      3  O   UNL d   1       0.765   0.033  -1.079  0.00  0.00    -0.266 OA
ATOM      4  H   UNL d   1       2.401   2.401  -2.504  0.00  0.00     0.184 HD
ENDROOT
BRANCH   2   5
ATOM      5  N   UNL d   1       2.449   2.112  -0.459  0.00  0.00    -0.203 NA
ATOM      6  H   UNL d   1       1.707   2.675  -0.056  0.00  0.00     0.153 HD
BRANCH   5   7
ATOM      7  C   UNL d   1       3.768   2.581  -0.232  0.00  0.00     0.034 A 
ATOM      8  C   UNL d   1       4.074   3.467   0.831  0.00  0.00    -0.036 A 
ATOM      9  C   UNL d   1       5.424   3.812   1.065  0.00  0.00     0.009 A 
ATOM     10  C   UNL d   1       6.457   3.296   0.285  0.00  0.00     0.001 A 
ATOM     11  C   UNL d   1       6.165   2.401  -0.732  0.00  0.00     0.002 A 
ATOM     12  C   UNL d   1       4.839   2.040  -0.975  0.00  0.00     0.026 A 
BRANCH   8  13
ATOM     13  C   UNL d   1       3.038   4.024   1.790  0.00  0.00     0.036 C 
ATOM     14  C   UNL d   1       3.034   5.548   1.880  0.00  0.00     0.010 C 
ENDBRANCH   8  13
ENDBRANCH   5   7
ENDBRANCH   2   5
BRANCH   1  15
ATOM     15  C   UNL d   1       0.877   0.435  -3.398  0.00  0.00     0.093 A 
ATOM     16  C   UNL d   1       0.579  -0.851  -3.876  0.00  0.00     0.052 A 
ATOM     17 CL   UNL d   1       0.768  -2.291  -2.941  0.00  0.00    -0.083 Cl
ATOM     18  C   UNL d   1       0.148  -1.026  -5.203  0.00  0.00     0.025 A 
ATOM     19  C   UNL d   1       0.015   0.065  -6.060  0.00  0.00     0.005 A 
ATOM     20  C   UNL d   1       0.320   1.340  -5.596  0.00  0.00     0.043 A 
ATOM     21  C   UNL d   1       0.745   1.514  -4.279  0.00  0.00     0.133 A 
ATOM     22  F   UNL d   1       1.020   2.765  -3.877  0.00  0.00    -0.205 F 
ENDBRANCH   1  15
TORSDOF 4
