REMARK  5 active torsions:
REMARK  status: ('A' for Active; 'I' for Inactive)
REMARK    1  A    between atoms: C_5  and  C_1 
REMARK    2  A    between atoms: C_6  and  C_2 
REMARK    3  A    between atoms: N_10  and  C_6 
REMARK    4  A    between atoms: C_9  and  O_12 
REMARK       I    between atoms: N_13  and  C_9 
REMARK    5  A    between atoms: O_12  and  N_10 
ROOT
ATOM      1  C   UNL d   1       2.229  -4.284  -0.259  0.00  0.00     0.085 A 
ATOM      2  C   UNL d   1       1.638  -2.980  -0.087  0.00  0.00     0.070 A 
ATOM      3  N   UNL d   1       3.553  -4.165  -0.464  0.00  0.00    -0.259 N 
ATOM      4  HN  UNL d   1       4.205  -4.919  -0.679  1.00  0.00     0.195 HD
ATOM      5  O   UNL d   1       3.856  -2.841  -0.329  0.00  0.00    -0.241 OA
ATOM      6  C   UNL d   1       2.731  -2.126  -0.101  0.00  0.00     0.088 A 
ATOM      7  C   UNL d   1       2.978  -0.682   0.079  0.00  0.00     0.080 C 
ENDROOT
BRANCH   2   8
ATOM      8  C   UNL d   1       0.239  -2.614   0.066  0.00  0.00     0.134 C 
ATOM      9  N   UNL d   1      -0.110  -1.444  -0.534  0.00  0.00    -0.383 N 
ATOM     10  H   UNL d   1       0.549  -0.833  -0.992  0.00  0.00     0.157 HD
ATOM     11  H   UNL d   1      -1.046  -1.101  -0.372  0.00  0.00     0.157 HD
BRANCH   8  12
ATOM     12  N   UNL d   1      -0.565  -3.413   0.692  0.00  0.00    -0.239 N 
ATOM     13  HN  UNL d   1      -0.290  -4.270   1.171  1.00  0.00     0.196 HD
BRANCH  12  14
ATOM     14  O   UNL d   1      -1.889  -2.908   0.609  0.00  0.00    -0.179 OA
BRANCH  14  15
ATOM     15  C   UNL d   1      -2.804  -3.795   1.124  0.00  0.00     0.384 C 
ATOM     16  N   UNL d   1      -4.123  -3.373   0.940  0.00  0.00    -0.335 N 
ATOM     17  C   UNL d   1      -4.498  -2.292   0.045  0.00  0.00     0.154 C 
ATOM     18  C   UNL d   1      -5.199  -4.233   1.400  0.00  0.00     0.154 C 
ATOM     19  O   UNL d   1      -2.515  -4.848   1.691  0.00  0.00    -0.236 OA
ENDBRANCH  14  15
ENDBRANCH  12  14
ENDBRANCH   8  12
ENDBRANCH   2   8
BRANCH   1  20
ATOM     20  C   UNL d   1       1.636  -5.632  -0.293  0.00  0.00     0.037 A 
ATOM     21  C   UNL d   1       0.560  -5.955  -1.143  0.00  0.00     0.048 A 
ATOM     22 CL   UNL d   1      -0.121  -4.841  -2.285  0.00  0.00    -0.083 Cl
ATOM     23  C   UNL d   1       0.031  -7.255  -1.178  0.00  0.00     0.025 A 
ATOM     24  C   UNL d   1       0.600  -8.275  -0.423  0.00  0.00     0.003 A 
ATOM     25  C   UNL d   1       1.690  -7.992   0.390  0.00  0.00     0.025 A 
ATOM     26  C   UNL d   1       2.191  -6.685   0.475  0.00  0.00     0.048 A 
ATOM     27 CL   UNL d   1       3.514  -6.471   1.582  0.00  0.00    -0.083 Cl
ENDBRANCH   1  20
TORSDOF 5
