REMARK  5 active torsions:
REMARK  status: ('A' for Active; 'I' for Inactive)
REMARK    1  A    between atoms: C_17  and  C_5 
REMARK    2  A    between atoms: C_8  and  C_10 
REMARK    3  A    between atoms: C_18  and  C_9 
REMARK    4  A    between atoms: C_10  and  O_15 
REMARK    5  A    between atoms: O_15  and  N_11 
ROOT
ATOM      1  S   UNL d   1       1.272  -1.637  -0.327  0.00  0.00    -0.042 SA
ATOM      2  C   UNL d   1       1.717  -0.027   0.225  0.00  0.00     0.099 C 
ATOM      3  C   UNL d   1       0.423  -1.348  -1.827  0.00  0.00     0.156 C 
ATOM      4  N   UNL d   1       0.545   1.040  -1.649  0.00  0.00    -0.222 NA
ATOM      5  C   UNL d   1       0.868   1.176  -0.217  0.00  0.00     0.168 C 
ATOM      6  N   UNL d   1      -0.226  -0.110  -1.949  0.00  0.00    -0.300 N 
ATOM      7  N   UNL d   1       2.677  -0.083   1.097  0.00  0.00    -0.253 N 
ATOM      8  HN  UNL d   1       3.240  -0.918   1.254  1.00  0.00     0.195 HD
ATOM      9  S   UNL d   1       0.319  -2.616  -2.931  0.00  0.00    -0.051 SA
ATOM     10  C   UNL d   1      -1.272   0.086  -2.963  0.00  0.00     0.173 C 
ATOM     11  H   UNL d   1       0.040   1.882  -1.938  0.00  0.00     0.148 HD
ENDROOT
BRANCH   5  12
ATOM     12  C   UNL d   1       1.507   2.562  -0.058  0.00  0.00    -0.032 A 
ATOM     13  C   UNL d   1       2.769   2.841  -0.616  0.00  0.00     0.011 A 
ATOM     14  C   UNL d   1       3.322   4.121  -0.531  0.00  0.00     0.024 A 
ATOM     15  C   UNL d   1       2.611   5.144   0.090  0.00  0.00     0.034 A 
ATOM     16  C   UNL d   1       1.356   4.895   0.638  0.00  0.00     0.024 A 
ATOM     17 CL   UNL d   1       3.280   6.724   0.170  0.00  0.00    -0.084 Cl
ATOM     18  C   UNL d   1       0.802   3.610   0.562  0.00  0.00     0.011 A 
ENDBRANCH   5  12
BRANCH   7  19
ATOM     19  O   UNL d   1       2.866   1.108   1.798  0.00  0.00    -0.194 OA
BRANCH  19  20
ATOM     20  C   UNL d   1       3.966   1.001   2.622  0.00  0.00     0.322 C 
ATOM     21  O   UNL d   1       4.974   0.355   2.381  0.00  0.00    -0.257 OA
BRANCH  20  22
ATOM     22  C   UNL d   1       3.737   1.761   3.841  0.00  0.00     0.082 A 
ATOM     23  S   UNL d   1       2.217   2.472   4.175  0.00  0.00    -0.088 SA
ATOM     24  C   UNL d   1       2.675   2.953   5.758  0.00  0.00    -0.009 A 
ATOM     25  C   UNL d   1       4.002   2.627   5.990  0.00  0.00     0.017 A 
ATOM     26  C   UNL d   1       4.606   1.938   4.894  0.00  0.00     0.026 A 
BRANCH  24  27
ATOM     27  C   UNL d   1       1.651   3.628   6.670  0.00  0.00    -0.018 C 
ATOM     28  C   UNL d   1       0.464   2.681   6.940  0.00  0.00     0.020 C 
ATOM     29  C   UNL d   1       2.276   3.992   8.034  0.00  0.00     0.020 C 
ATOM     30  C   UNL d   1       1.134   4.925   6.027  0.00  0.00     0.020 C 
ENDBRANCH  24  27
ENDBRANCH  20  22
ENDBRANCH  19  20
ENDBRANCH   7  19
TORSDOF 5
