REMARK  3 active torsions:
REMARK  status: ('A' for Active; 'I' for Inactive)
REMARK    1  A    between atoms: C_2  and  C_1 
REMARK       I    between atoms: N_3  and  C_1 
REMARK    2  A    between atoms: C_4  and  N_3 
REMARK    3  A    between atoms: O_10  and  C_7 
ROOT
ATOM      1  C   UNL d   1       1.017   0.210  -0.861  0.00  0.00     0.258 C 
ATOM      2  N   UNL d   1       0.429   0.724   0.274  0.00  0.00    -0.320 N 
ATOM      3  O   UNL d   1       0.483  -0.372  -1.793  0.00  0.00    -0.267 OA
ATOM      4  H   UNL d   1       1.040   0.995   1.034  0.00  0.00     0.169 HD
ENDROOT
BRANCH   2   5
ATOM      5  C   UNL d   1      -0.949   0.830   0.555  0.00  0.00     0.068 A 
ATOM      6  C   UNL d   1      -1.336   1.221   1.848  0.00  0.00     0.095 A 
ATOM      7  C   UNL d   1      -2.685   1.276   2.204  0.00  0.00     0.039 A 
ATOM      8  C   UNL d   1      -3.666   0.986   1.255  0.00  0.00     0.003 A 
ATOM      9  C   UNL d   1      -3.293   0.637  -0.042  0.00  0.00     0.002 A 
ATOM     10  C   UNL d   1      -1.941   0.561  -0.391  0.00  0.00     0.032 A 
BRANCH   6  11
ATOM     11  O   UNL d   1      -0.412   1.436   2.843  0.00  0.00    -0.354 OA
ATOM     12  C   UNL d   1       0.226   2.709   2.732  0.00  0.00     0.210 C 
ENDBRANCH   6  11
ENDBRANCH   2   5
BRANCH   1  13
ATOM     13  C   UNL d   1       2.486   0.339  -0.870  0.00  0.00     0.054 A 
ATOM     14  C   UNL d   1       3.116   1.579  -1.012  0.00  0.00     0.049 A 
ATOM     15 CL   UNL d   1       2.238   3.055  -1.189  0.00  0.00    -0.083 Cl
ATOM     16  C   UNL d   1       4.512   1.644  -1.021  0.00  0.00     0.025 A 
ATOM     17  C   UNL d   1       5.270   0.476  -0.886  0.00  0.00     0.002 A 
ATOM     18  C   UNL d   1       4.637  -0.759  -0.749  0.00  0.00     0.001 A 
ATOM     19  C   UNL d   1       3.244  -0.832  -0.746  0.00  0.00     0.019 A 
ENDBRANCH   1  13
TORSDOF 3
