REMARK  3 active torsions:
REMARK  status: ('A' for Active; 'I' for Inactive)
REMARK    1  A    between atoms: C_6  and  C_1 
REMARK    2  A    between atoms: N_9  and  C_6 
REMARK    3  A    between atoms: O_12  and  C_10 
ROOT
ATOM      1  C   UNL d   1      -1.505  -1.195  -0.060  0.00  0.00    -0.002 A 
ATOM      2  C   UNL d   1      -0.158  -0.707  -0.125  0.00  0.00     0.003 A 
ATOM      3  N   UNL d   1      -1.536   1.038  -0.013  0.00  0.00    -0.365 N 
ATOM      4  C   UNL d   1      -2.324  -0.081   0.008  0.00  0.00     0.098 A 
ATOM      5  C   UNL d   1      -0.210   0.685  -0.073  0.00  0.00     0.043 A 
ATOM      6  C   UNL d   1       1.108  -1.325  -0.207  0.00  0.00     0.051 A 
ATOM      7  C   UNL d   1       0.940   1.484  -0.082  0.00  0.00     0.033 A 
ATOM      8  C   UNL d   1       2.275  -0.549  -0.209  0.00  0.00     0.069 A 
ATOM      9  C   UNL d   1       2.184   0.840  -0.146  0.00  0.00     0.039 A 
ATOM     10  H   UNL d   1      -1.878   1.989   0.024  0.00  0.00     0.165 HD
ENDROOT
BRANCH   1  11
ATOM     11  C   UNL d   1      -1.931  -2.634  -0.021  0.00  0.00     0.312 C 
BRANCH  11  12
ATOM     12  N   UNL d   1      -2.894  -2.948  -1.091  0.00  0.00     0.084 N 
ATOM     13  C   UNL d   1      -2.276  -2.865  -2.418  0.00  0.00     0.309 C 
ATOM     14  C   UNL d   1      -3.422  -4.299  -0.885  0.00  0.00     0.309 C 
ENDBRANCH  11  12
ENDBRANCH   1  11
BRANCH   8  15
ATOM     15  O   UNL d   1       3.433  -1.278  -0.276  0.00  0.00    -0.356 OA
ATOM     16  C   UNL d   1       4.653  -0.558  -0.157  0.00  0.00     0.210 C 
ENDBRANCH   8  15
TORSDOF 3
