REMARK  4 active torsions:
REMARK  status: ('A' for Active; 'I' for Inactive)
REMARK    1  A    between atoms: C_2  and  C_1 
REMARK       I    between atoms: N_9  and  C_2 
REMARK    2  A    between atoms: C_12  and  C_5 
REMARK    3  A    between atoms: C_14  and  N_9 
REMARK    4  A    between atoms: C_17  and  C_13 
ROOT
ATOM      1  C   UNL d   1       1.136  -1.720  -0.090  0.00  0.00     0.073 A 
ATOM      2  N   UNL d   1       2.173   0.387  -0.335  0.00  0.00    -0.298 N 
ATOM      3  HN  UNL d   1       3.016   0.947  -0.460  1.00  0.00     0.187 HD
ATOM      4  C   UNL d   1       2.306  -0.963  -0.273  0.00  0.00     0.075 A 
ATOM      5  N   UNL d   1       0.979   1.037  -0.239  0.00  0.00    -0.299 N 
ATOM      6  HN  UNL d   1       0.954   2.057  -0.251  1.00  0.00     0.187 HD
ATOM      7  C   UNL d   1      -0.149  -1.053  -0.088  0.00  0.00     0.010 A 
ATOM      8  C   UNL d   1      -0.144   0.353  -0.132  0.00  0.00     0.059 A 
ATOM      9  C   UNL d   1      -1.441  -1.658  -0.071  0.00  0.00     0.015 A 
ATOM     10  C   UNL d   1      -1.317   1.092  -0.067  0.00  0.00     0.032 A 
ATOM     11  C   UNL d   1      -2.621  -0.906   0.007  0.00  0.00     0.001 A 
ATOM     12  C   UNL d   1      -2.558   0.476   0.022  0.00  0.00     0.002 A 
ENDROOT
BRANCH   1  13
ATOM     13  C   UNL d   1       1.185  -3.208   0.131  0.00  0.00     0.259 C 
ATOM     14  N   UNL d   1       0.447  -3.687   1.214  0.00  0.00    -0.323 N 
ATOM     15  H   UNL d   1      -0.325  -3.131   1.554  0.00  0.00     0.169 HD
ATOM     16  O   UNL d   1       1.796  -3.921  -0.650  0.00  0.00    -0.267 OA
BRANCH  14  17
ATOM     17  C   UNL d   1       0.467  -5.027   1.662  0.00  0.00     0.035 A 
ATOM     18  C   UNL d   1       1.651  -5.610   2.106  0.00  0.00     0.030 A 
ATOM     19  C   UNL d   1       1.629  -6.866   2.736  0.00  0.00     0.010 A 
ATOM     20  C   UNL d   1       0.435  -7.591   2.872  0.00  0.00    -0.055 A 
ATOM     21  C   UNL d   1      -0.745  -7.003   2.388  0.00  0.00     0.010 A 
ATOM     22  C   UNL d   1      -0.735  -5.719   1.822  0.00  0.00     0.030 A 
BRANCH  20  23
ATOM     23  C   UNL d   1       0.368  -8.953   3.554  0.00  0.00     0.010 C 
ATOM     24  C   UNL d   1       1.576  -9.856   3.279  0.00  0.00     0.015 C 
ATOM     25  C   UNL d   1       0.161  -8.804   5.065  0.00  0.00     0.015 C 
ENDBRANCH  20  23
ENDBRANCH  14  17
ENDBRANCH   1  13
BRANCH   4  26
ATOM     26  C   UNL d   1       3.761  -1.326  -0.401  0.00  0.00    -0.007 A 
ATOM     27  C   UNL d   1       4.678  -0.319  -0.829  0.00  0.00     0.014 A 
ATOM     28  C   UNL d   1       6.059  -0.516  -0.926  0.00  0.00     0.001 A 
ATOM     29  C   UNL d   1       6.590  -1.756  -0.625  0.00  0.00     0.000 A 
ATOM     30  C   UNL d   1       5.735  -2.779  -0.226  0.00  0.00     0.001 A 
ATOM     31  C   UNL d   1       4.349  -2.562  -0.103  0.00  0.00     0.014 A 
ENDBRANCH   4  26
TORSDOF 4
