REMARK  11 active torsions:
REMARK  status: ('A' for Active; 'I' for Inactive)
REMARK    1  A    between atoms: C_1  and  O_7 
REMARK    2  A    between atoms: C_2  and  O_8 
REMARK    3  A    between atoms: C_3  and  O_10 
REMARK    4  A    between atoms: C_4  and  O_9 
REMARK    5  A    between atoms: C_6  and  C_15 
REMARK    6  A    between atoms: C_12  and  O_7 
REMARK    7  A    between atoms: C_11  and  O_8 
REMARK    8  A    between atoms: C_13  and  O_9 
REMARK    9  A    between atoms: C_21  and  O_10 
REMARK   10  A    between atoms: C_14  and  O_16 
REMARK   11  A    between atoms: O_16  and  C_15 
ROOT
ATOM      1  C   UNL d   1       0.903  -1.358  -0.113  0.00  0.00     0.219 C 
ATOM      2  C   UNL d   1       1.739  -0.081   0.118  0.00  0.00     0.198 C 
ATOM      3  C   UNL d   1      -0.562  -1.204   0.366  0.00  0.00     0.299 C 
ATOM      4  C   UNL d   1       1.002   1.180  -0.369  0.00  0.00     0.195 C 
ATOM      5  O   UNL d   1      -1.124  -0.012  -0.218  0.00  0.00    -0.348 OA
ATOM      6  C   UNL d   1      -0.432   1.174   0.198  0.00  0.00     0.181 C 
ENDROOT
BRANCH   3   7
ATOM      7  O   UNL d   1      -1.355  -2.313  -0.099  0.00  0.00    -0.318 OA
BRANCH   7   8
ATOM      8  C   UNL d   1      -1.323  -3.467   0.633  0.00  0.00     0.072 A 
ATOM      9  C   UNL d   1      -1.248  -3.535   2.024  0.00  0.00     0.037 A 
ATOM     10  C   UNL d   1      -1.148  -4.773   2.665  0.00  0.00     0.003 A 
ATOM     11  C   UNL d   1      -1.174  -5.950   1.921  0.00  0.00     0.000 A 
ATOM     12  C   UNL d   1      -1.318  -5.890   0.537  0.00  0.00     0.003 A 
ATOM     13  C   UNL d   1      -1.397  -4.651  -0.103  0.00  0.00     0.037 A 
ENDBRANCH   7   8
ENDBRANCH   3   7
BRANCH   1  14
ATOM     14  O   UNL d   1       1.594  -2.526   0.417  0.00  0.00    -0.308 OA
BRANCH  14  15
ATOM     15  C   UNL d   1       1.778  -2.603   1.763  0.00  0.00     0.255 C 
ATOM     16  O   UNL d   1       1.330  -1.811   2.579  0.00  0.00    -0.266 OA
ATOM     17  C   UNL d   1       2.577  -3.823   2.100  0.00  0.00     0.126 C 
ENDBRANCH  14  15
ENDBRANCH   1  14
BRANCH   2  18
ATOM     18  O   UNL d   1       2.980  -0.244  -0.615  0.00  0.00    -0.311 OA
BRANCH  18  19
ATOM     19  C   UNL d   1       4.039  -0.766   0.057  0.00  0.00     0.255 C 
ATOM     20  O   UNL d   1       4.120  -0.910   1.270  0.00  0.00    -0.266 OA
ATOM     21  C   UNL d   1       5.049  -1.283  -0.919  0.00  0.00     0.126 C 
ENDBRANCH  18  19
ENDBRANCH   2  18
BRANCH   6  22
ATOM     22  C   UNL d   1      -1.252   2.386  -0.264  0.00  0.00     0.213 C 
BRANCH  22  23
ATOM     23  O   UNL d   1      -0.652   3.627   0.146  0.00  0.00    -0.319 OA
BRANCH  23  24
ATOM     24  C   UNL d   1      -0.862   3.974   1.445  0.00  0.00     0.254 C 
ATOM     25  O   UNL d   1      -1.487   3.310   2.259  0.00  0.00    -0.266 OA
ATOM     26  C   UNL d   1      -0.189   5.273   1.768  0.00  0.00     0.126 C 
ENDBRANCH  23  24
ENDBRANCH  22  23
ENDBRANCH   6  22
BRANCH   4  27
ATOM     27  O   UNL d   1       0.945   1.185  -1.816  0.00  0.00    -0.311 OA
BRANCH  27  28
ATOM     28  C   UNL d   1       1.964   1.833  -2.448  0.00  0.00     0.255 C 
ATOM     29  O   UNL d   1       2.876   2.435  -1.899  0.00  0.00    -0.266 OA
ATOM     30  C   UNL d   1       1.850   1.655  -3.931  0.00  0.00     0.126 C 
ENDBRANCH  27  28
ENDBRANCH   4  27
TORSDOF 11
