REMARK  3 active torsions:
REMARK  status: ('A' for Active; 'I' for Inactive)
REMARK    1  A    between atoms: C_9  and  C_1 
REMARK    2  A    between atoms: N_6  and  C_2 
REMARK       I    between atoms: C_7  and  N_6 
REMARK       I    between atoms: N_11  and  C_7 
REMARK    3  A    between atoms: C_10  and  N_11 
ROOT
ATOM      1  N   UNL d   1       2.036  -1.340  -0.358  0.00  0.00    -0.293 N 
ATOM      2  C   UNL d   1       3.394  -0.911  -0.373  0.00  0.00     0.326 C 
ATOM      3  N   UNL d   1       3.639   0.397  -0.666  0.00  0.00    -0.309 N 
ATOM      4  O   UNL d   1       4.186  -1.796  -0.116  0.00  0.00    -0.247 OA
ATOM      5  H   UNL d   1       2.005  -2.339  -0.177  0.00  0.00     0.172 HD
ATOM      6  H   UNL d   1       2.868   0.964  -0.960  0.00  0.00     0.170 HD
ENDROOT
BRANCH   1   7
ATOM      7  C   UNL d   1       0.825  -0.671  -0.406  0.00  0.00     0.126 A 
ATOM      8  C   UNL d   1       0.507   0.657  -0.561  0.00  0.00     0.083 A 
ATOM      9  C   UNL d   1      -0.898   0.731  -0.392  0.00  0.00     0.085 A 
ATOM     10  N   UNL d   1      -1.443  -0.475  -0.220  0.00  0.00    -0.296 N 
ATOM     11  N   UNL d   1      -0.390  -1.304  -0.246  0.00  0.00    -0.285 N 
ATOM     12  HN  UNL d   1      -2.428  -0.710  -0.097  1.00  0.00     0.187 HD
ATOM     13  H   UNL d   1      -0.566  -2.293  -0.109  0.00  0.00     0.188 HD
BRANCH   9  14
ATOM     14  C   UNL d   1      -1.663   2.008  -0.357  0.00  0.00     0.103 A 
ATOM     15  O   UNL d   1      -1.083   3.241  -0.492  0.00  0.00    -0.320 OA
ATOM     16  C   UNL d   1      -2.067   4.166  -0.358  0.00  0.00     0.142 A 
ATOM     17  C   UNL d   1      -3.279   3.551  -0.149  0.00  0.00     0.027 A 
ATOM     18  C   UNL d   1      -3.019   2.158  -0.152  0.00  0.00     0.041 A 
ENDBRANCH   9  14
ENDBRANCH   1   7
BRANCH   3  19
ATOM     19  C   UNL d   1       4.885   1.062  -0.603  0.00  0.00     0.039 A 
ATOM     20  C   UNL d   1       6.098   0.428  -0.320  0.00  0.00     0.053 A 
ATOM     21  C   UNL d   1       7.277   1.175  -0.231  0.00  0.00     0.037 A 
ATOM     22 CL   UNL d   1       8.761   0.377   0.121  0.00  0.00    -0.084 Cl
ATOM     23  C   UNL d   1       7.268   2.553  -0.416  0.00  0.00     0.048 A 
ATOM     24  C   UNL d   1       6.065   3.183  -0.710  0.00  0.00     0.037 A 
ATOM     25  C   UNL d   1       4.881   2.448  -0.813  0.00  0.00     0.053 A 
ATOM     26 CL   UNL d   1       6.026   4.889  -0.928  0.00  0.00    -0.084 Cl
ENDBRANCH   3  19
TORSDOF 3
