REMARK  6 active torsions:
REMARK  status: ('A' for Active; 'I' for Inactive)
REMARK    1  A    between atoms: C_6  and  C_1 
REMARK    2  A    between atoms: C_3  and  C_8 
REMARK    3  A    between atoms: O_19  and  C_3 
REMARK    4  A    between atoms: C_17  and  C_4 
REMARK    5  A    between atoms: C_5  and  C_24 
REMARK    6  A    between atoms: C_24  and  O_19 
ROOT
ATOM      1  N   UNL d   1      -6.506  11.415   5.826  0.00  0.00    -0.191 NA
ATOM      2  C   UNL d   1      -5.797  10.952   5.032  0.00  0.00     0.099 C 
ATOM      3  C   UNL d   1      -3.163   9.293   2.156  0.00  0.00     0.017 A 
ATOM      4  C   UNL d   1      -4.916  10.383   4.053  0.00  0.00     0.044 A 
ATOM      5  C   UNL d   1      -3.882  10.454   1.861  0.00  0.00     0.022 A 
ATOM      6  C   UNL d   1      -3.333   8.668   3.393  0.00  0.00     0.022 A 
ATOM      7  C   UNL d   1      -4.756  11.000   2.808  0.00  0.00     0.024 A 
ATOM      8  C   UNL d   1      -4.207   9.212   4.341  0.00  0.00     0.024 A 
ENDROOT
BRANCH   3   9
ATOM      9  C   UNL d   1      -2.242   8.755   1.201  0.00  0.00    -0.065 C 
ATOM     10  C   UNL d   1      -1.463   8.317   0.397  0.00  0.00    -0.074 C 
BRANCH  10  11
ATOM     11  C   UNL d   1      -0.532   7.796  -0.612  0.00  0.00     0.273 C 
BRANCH  11  12
ATOM     12  O   UNL d   1      -0.136   6.448  -0.313  0.00  0.00    -0.305 OA
BRANCH  12  13
ATOM     13  C   UNL d   1      -1.030   5.509  -0.706  0.00  0.00     0.294 C 
ATOM     14  O   UNL d   1      -2.104   5.714  -1.248  0.00  0.00    -0.259 OA
BRANCH  13  15
ATOM     15  C   UNL d   1      -0.555   4.145  -0.368  0.00  0.00     0.039 A 
ATOM     16  C   UNL d   1       0.803   3.815  -0.294  0.00  0.00     0.018 A 
ATOM     17  C   UNL d   1       1.186   2.488  -0.060  0.00  0.00     0.017 A 
ATOM     18  C   UNL d   1       0.220   1.480   0.108  0.00  0.00     0.048 A 
ATOM     19  C   UNL d   1      -1.137   1.828   0.058  0.00  0.00     0.017 A 
ATOM     20  C   UNL d   1      -1.522   3.148  -0.185  0.00  0.00     0.018 A 
BRANCH  18  21
ATOM     21  C   UNL d   1       0.645   0.043   0.310  0.00  0.00     0.417 C 
ATOM     22  F   UNL d   1      -0.401  -0.817   0.463  0.00  0.00    -0.166 F 
ATOM     23  F   UNL d   1       1.428  -0.121   1.411  0.00  0.00    -0.166 F 
ATOM     24  F   UNL d   1       1.368  -0.435  -0.740  0.00  0.00    -0.166 F 
ENDBRANCH  18  21
ENDBRANCH  13  15
ENDBRANCH  12  13
ENDBRANCH  11  12
ENDBRANCH  10  11
ENDBRANCH   3   9
TORSDOF 6
