REMARK  4 active torsions:
REMARK  status: ('A' for Active; 'I' for Inactive)
REMARK    1  A    between atoms: N_2  and  S_1 
REMARK    2  A    between atoms: C_7  and  S_1 
REMARK    3  A    between atoms: C_5  and  N_4 
REMARK       I    between atoms: C_16  and  N_19 
REMARK    4  A    between atoms: N_19  and  C_25 
ROOT
ATOM      1  N   UNL d   1       0.152   1.053  -0.310  0.00  0.00    -0.203 NA
ATOM      2  N   UNL d   1      -0.649   1.725   2.405  0.00  0.00    -0.378 N 
ATOM      3  C   UNL d   1       0.463   2.408   0.247  0.00  0.00     0.127 C 
ATOM      4  C   UNL d   1      -1.082   0.499   0.324  0.00  0.00     0.127 C 
ATOM      5  C   UNL d   1      -0.901   0.379   1.845  0.00  0.00     0.138 C 
ATOM      6  C   UNL d   1       0.501   2.428   1.797  0.00  0.00     0.138 C 
ENDROOT
BRANCH   1   7
ATOM      7  S   UNL d   1       1.459  -0.031  -0.447  0.00  0.00     0.243 S 
ATOM      8  O   UNL d   1       0.935  -1.370  -0.594  0.00  0.00    -0.206 OA
ATOM      9  O   UNL d   1       2.430   0.294   0.578  0.00  0.00    -0.206 OA
BRANCH   7  10
ATOM     10  C   UNL d   1       2.136   0.429  -2.020  0.00  0.00     0.074 A 
ATOM     11  C   UNL d   1       3.454   0.865  -2.138  0.00  0.00     0.027 A 
ATOM     12  C   UNL d   1       3.949   1.218  -3.400  0.00  0.00     0.031 A 
ATOM     13  C   UNL d   1       3.130   1.143  -4.540  0.00  0.00     0.034 A 
ATOM     14  C   UNL d   1       1.821   0.675  -4.400  0.00  0.00     0.031 A 
ATOM     15  C   UNL d   1       1.322   0.318  -3.147  0.00  0.00     0.027 A 
BRANCH  13  16
ATOM     16  N   UNL d   1       3.679   1.565  -5.770  0.00  0.00    -0.328 N 
ATOM     17  C   UNL d   1       3.022   1.653  -6.987  0.00  0.00     0.218 C 
ATOM     18  O   UNL d   1       1.858   1.346  -7.217  0.00  0.00    -0.274 OA
ATOM     19  C   UNL d   1       3.881   2.209  -8.094  0.00  0.00     0.117 C 
ATOM     20  H   UNL d   1       4.642   1.872  -5.745  0.00  0.00     0.169 HD
ENDBRANCH  13  16
ENDBRANCH   7  10
ENDBRANCH   1   7
BRANCH   2  21
ATOM     21  C   UNL d   1      -1.321   2.160   3.548  0.00  0.00     0.044 A 
ATOM     22  C   UNL d   1      -0.756   2.969   4.591  0.00  0.00     0.017 A 
ATOM     23  C   UNL d   1      -1.629   3.435   5.615  0.00  0.00     0.046 A 
ATOM     24  C   UNL d   1       0.610   3.333   4.720  0.00  0.00     0.018 A 
ATOM     25  C   UNL d   1      -1.157   4.279   6.608  0.00  0.00     0.054 A 
ATOM     26  N   UNL d   1      -2.922   3.106   5.693  0.00  0.00    -0.365 N 
ATOM     27  C   UNL d   1       0.170   4.686   6.647  0.00  0.00     0.036 A 
ATOM     28  C   UNL d   1       1.066   4.204   5.710  0.00  0.00     0.025 A 
ATOM     29 CL   UNL d   1       0.708   5.767   7.869  0.00  0.00    -0.084 Cl
ATOM     30  C   UNL d   1      -3.422   2.308   4.740  0.00  0.00     0.090 A 
ATOM     31  HN  UNL d   1      -3.509   3.451   6.453  1.00  0.00     0.165 HD
ATOM     32  C   UNL d   1      -2.684   1.840   3.672  0.00  0.00     0.047 A 
ENDBRANCH   2  21
TORSDOF 4
