REMARK  6 active torsions:
REMARK  status: ('A' for Active; 'I' for Inactive)
REMARK    1  A    between atoms: C_5  and  N_1 
REMARK    2  A    between atoms: C_3  and  C_2 
REMARK       I    between atoms: N_7  and  C_3 
REMARK       I    between atoms: C_6  and  N_8 
REMARK    3  A    between atoms: C_12  and  C_6 
REMARK    4  A    between atoms: N_8  and  N_7 
REMARK    5  A    between atoms: N_23  and  C_9 
REMARK    6  A    between atoms: N_14  and  C_13 
ROOT
ATOM      1  C   UNL d   1      -2.071   0.544   1.650  0.00  0.00     0.272 C 
ATOM      2  N   UNL d   1      -3.397   0.398   1.291  0.00  0.00    -0.263 N 
ATOM      3  O   UNL d   1      -1.498   1.633   1.586  0.00  0.00    -0.266 OA
ATOM      4  H   UNL d   1      -3.865  -0.493   1.135  0.00  0.00     0.190 HD
ENDROOT
BRANCH   2   5
ATOM      5  N   UNL d   1      -4.092   1.527   0.841  0.00  0.00    -0.263 N 
ATOM      6  C   UNL d   1      -5.414   1.370   0.474  0.00  0.00     0.270 C 
ATOM      7  O   UNL d   1      -5.969   0.272   0.482  0.00  0.00    -0.266 OA
ATOM      8  H   UNL d   1      -3.644   2.425   1.008  0.00  0.00     0.190 HD
BRANCH   6   9
ATOM      9  C   UNL d   1      -6.155   2.599   0.075  0.00  0.00     0.033 A 
ATOM     10  C   UNL d   1      -5.513   3.742  -0.402  0.00  0.00     0.019 A 
ATOM     11  C   UNL d   1      -6.265   4.859  -0.803  0.00  0.00     0.030 A 
ATOM     12  C   UNL d   1      -7.668   4.880  -0.748  0.00  0.00     0.029 A 
ATOM     13  C   UNL d   1      -8.285   3.717  -0.257  0.00  0.00     0.030 A 
ATOM     14  C   UNL d   1      -7.549   2.591   0.142  0.00  0.00     0.019 A 
BRANCH  12  15
ATOM     15  N   UNL d   1      -8.403   5.978  -1.159  0.00  0.00    -0.390 N 
ATOM     16  C   UNL d   1      -7.856   7.329  -1.171  0.00  0.00     0.149 C 
ATOM     17  C   UNL d   1      -9.755   5.839  -1.691  0.00  0.00     0.149 C 
ENDBRANCH  12  15
ENDBRANCH   6   9
ENDBRANCH   2   5
BRANCH   1  18
ATOM     18  C   UNL d   1      -1.349  -0.701   2.067  0.00  0.00     0.062 A 
ATOM     19  C   UNL d   1      -2.070  -1.764   2.638  0.00  0.00     0.055 A 
ATOM     20  C   UNL d   1      -1.404  -2.941   3.007  0.00  0.00     0.104 A 
ATOM     21  C   UNL d   1      -0.029  -3.077   2.798  0.00  0.00     0.038 A 
ATOM     22  C   UNL d   1       0.687  -2.011   2.251  0.00  0.00     0.032 A 
ATOM     23  C   UNL d   1       0.049  -0.818   1.874  0.00  0.00     0.041 A 
BRANCH  20  24
ATOM     24  N   UNL d   1      -2.151  -4.031   3.650  0.00  0.00    -0.116 N 
ATOM     25  O   UNL d   1      -3.355  -3.844   3.875  0.00  0.00    -0.532 OA
ATOM     26  O   UNL d   1      -1.534  -5.067   3.929  0.00  0.00    -0.532 OA
ENDBRANCH  20  24
BRANCH  23  27
ATOM     27  N   UNL d   1       0.861   0.268   1.526  0.00  0.00    -0.398 N 
ATOM     28  H   UNL d   1       1.716   0.061   1.025  0.00  0.00     0.156 HD
ATOM     29  H   UNL d   1       0.352   1.084   1.173  0.00  0.00     0.156 HD
ENDBRANCH  23  27
ENDBRANCH   1  18
TORSDOF 6
