REMARK  5 active torsions:
REMARK  status: ('A' for Active; 'I' for Inactive)
REMARK    1  A    between atoms: C_2  and  N_1 
REMARK    2  A    between atoms: N_3  and  C_11 
REMARK    3  A    between atoms: C_5  and  C_8 
REMARK    4  A    between atoms: O_16  and  C_9 
REMARK    5  A    between atoms: C_11  and  C_10 
ROOT
ATOM      1  N   UNL d   1       1.216  -0.179  -5.152  0.00  0.00     0.092 N 
ATOM      2  C   UNL d   1       3.458  -1.786  -3.894  0.00  0.00     0.025 C 
ATOM      3  C   UNL d   1       3.750  -0.520  -4.722  0.00  0.00     0.040 C 
ATOM      4  C   UNL d   1       2.213  -2.412  -4.558  0.00  0.00     0.040 C 
ATOM      5  C   UNL d   1       2.555   0.410  -4.993  0.00  0.00     0.273 C 
ATOM      6  C   UNL d   1       1.013  -1.471  -4.491  0.00  0.00     0.273 C 
ENDROOT
BRANCH   1   7
ATOM      7  C   UNL d   1       0.141   0.762  -4.762  0.00  0.00     0.311 C 
BRANCH   7   8
ATOM      8  C   UNL d   1      -0.399   1.648  -5.871  0.00  0.00    -0.028 A 
ATOM      9  C   UNL d   1      -0.443   1.211  -7.202  0.00  0.00     0.045 A 
ATOM     10  C   UNL d   1      -1.092   1.979  -8.176  0.00  0.00     0.103 A 
ATOM     11  C   UNL d   1      -1.710   3.191  -7.845  0.00  0.00     0.036 A 
ATOM     12  C   UNL d   1      -1.671   3.633  -6.524  0.00  0.00     0.003 A 
ATOM     13  C   UNL d   1      -1.023   2.868  -5.545  0.00  0.00     0.009 A 
BRANCH  10  14
ATOM     14  N   UNL d   1      -1.163   1.499  -9.563  0.00  0.00    -0.116 N 
ATOM     15  O   UNL d   1      -0.703   0.368  -9.805  0.00  0.00    -0.532 OA
ATOM     16  O   UNL d   1      -1.671   2.241 -10.409  0.00  0.00    -0.532 OA
ENDBRANCH  10  14
ENDBRANCH   7   8
ENDBRANCH   1   7
BRANCH   2  17
ATOM     17  C   UNL d   1       3.336  -1.741  -2.361  0.00  0.00    -0.021 C 
ATOM     18  C   UNL d   1       3.543  -0.616  -1.545  0.00  0.00     0.074 C 
ATOM     19  C   UNL d   1       3.170  -0.655  -0.190  0.00  0.00     0.037 C 
ATOM     20  C   UNL d   1       2.743  -1.838   0.409  0.00  0.00     0.003 C 
ATOM     21  C   UNL d   1       2.728  -3.006  -0.335  0.00  0.00     0.001 C 
ATOM     22  C   UNL d   1       3.014  -2.954  -1.701  0.00  0.00     0.010 C 
BRANCH  18  23
ATOM     23  O   UNL d   1       4.125   0.486  -2.107  0.00  0.00    -0.355 OA
ATOM     24  C   UNL d   1       4.766   1.399  -1.208  0.00  0.00     0.210 C 
ENDBRANCH  18  23
ENDBRANCH   2  17
TORSDOF 5
