REMARK  3 active torsions:
REMARK  status: ('A' for Active; 'I' for Inactive)
REMARK    1  A    between atoms: C_2  and  C_1 
REMARK       I    between atoms: N_3  and  C_1 
REMARK    2  A    between atoms: C_7  and  N_3 
REMARK    3  A    between atoms: N_6  and  C_4 
ROOT
ATOM      1  C   UNL d   1       1.095  -0.274   0.316  0.00  0.00     0.253 C 
ATOM      2  N   UNL d   1       0.358   0.863   0.069  0.00  0.00    -0.352 N 
ATOM      3  O   UNL d   1       0.638  -1.288   0.830  0.00  0.00    -0.268 OA
ATOM      4  H   UNL d   1       0.897   1.693  -0.175  0.00  0.00     0.163 HD
ENDROOT
BRANCH   1   5
ATOM      5  C   UNL d   1       2.544  -0.187  -0.044  0.00  0.00     0.052 A 
ATOM      6  C   UNL d   1       3.040   0.626  -1.088  0.00  0.00     0.021 A 
ATOM      7  C   UNL d   1       4.429   0.765  -1.217  0.00  0.00     0.024 A 
ATOM      8  C   UNL d   1       5.305   0.016  -0.430  0.00  0.00     0.002 A 
ATOM      9  C   UNL d   1       4.806  -0.866   0.525  0.00  0.00     0.001 A 
ATOM     10  C   UNL d   1       3.430  -0.961   0.723  0.00  0.00     0.019 A 
BRANCH   6  11
ATOM     11  N   UNL d   1       2.214   1.461  -1.875  0.00  0.00    -0.302 NA
ATOM     12  H   UNL d   1       1.301   1.031  -2.041  0.00  0.00     0.124 HD
ATOM     13  H   UNL d   1       2.648   1.724  -2.757  0.00  0.00     0.124 HD
ENDBRANCH   6  11
ENDBRANCH   1   5
BRANCH   2  14
ATOM     14  C   UNL d   1      -1.046   1.024   0.419  0.00  0.00     0.084 C 
ATOM     15  C   UNL d   1      -1.958   0.062  -0.356  0.00  0.00     0.025 C 
ATOM     16  C   UNL d   1      -1.969   0.362  -1.854  0.00  0.00     0.002 C 
ATOM     17  C   UNL d   1      -2.345   1.813  -2.140  0.00  0.00     0.000 C 
ATOM     18  C   UNL d   1      -1.505   2.805  -1.341  0.00  0.00     0.002 C 
ATOM     19  C   UNL d   1      -1.486   2.472   0.154  0.00  0.00     0.025 C 
ENDBRANCH   2  14
TORSDOF 3
