REMARK  5 active torsions:
REMARK  status: ('A' for Active; 'I' for Inactive)
REMARK    1  A    between atoms: C_9  and  C_1 
REMARK    2  A    between atoms: C_8  and  C_3 
REMARK    3  A    between atoms: O_20  and  C_9 
REMARK    4  A    between atoms: O_22  and  C_14 
REMARK    5  A    between atoms: O_23  and  C_17 
ROOT
ATOM      1  C   UNL d   1       2.845  -0.816   0.080  0.00  0.00     0.052 C 
ATOM      2  C   UNL d   1       0.298  -0.725   0.059  0.00  0.00     0.023 C 
ATOM      3  C   UNL d   1       1.527  -1.548   0.419  0.00  0.00     0.098 C 
ATOM      4  C   UNL d   1       0.384   0.613  -0.043  0.00  0.00     0.021 C 
ATOM      5  C   UNL d   1       2.833   0.540  -0.052  0.00  0.00     0.018 C 
ATOM      6  N   UNL d   1       1.621   1.222   0.055  0.00  0.00    -0.362 N 
ATOM      7  C   UNL d   1      -0.995  -1.408  -0.208  0.00  0.00     0.159 C 
ATOM      8  C   UNL d   1      -0.804   1.514  -0.257  0.00  0.00     0.067 C 
ATOM      9  C   UNL d   1      -2.163   0.838   0.017  0.00  0.00    -0.036 C 
ATOM     10  C   UNL d   1      -2.179  -0.555  -0.633  0.00  0.00     0.092 C 
ATOM     11  O   UNL d   1      -1.075  -2.635  -0.175  0.00  0.00    -0.293 OA
ATOM     12  C   UNL d   1       3.991   1.462  -0.335  0.00  0.00     0.069 C 
ATOM     13  C   UNL d   1      -3.275   1.712  -0.592  0.00  0.00     0.015 C 
ATOM     14  C   UNL d   1      -2.427   0.719   1.533  0.00  0.00     0.015 C 
ATOM     15  H   UNL d   1       1.650   2.226  -0.111  0.00  0.00     0.165 HD
ENDROOT
BRANCH   3  16
ATOM     16  C   UNL d   1       1.491  -1.902   1.916  0.00  0.00    -0.042 A 
ATOM     17  C   UNL d   1       1.442  -3.239   2.329  0.00  0.00     0.047 A 
ATOM     18  C   UNL d   1       1.421  -3.566   3.694  0.00  0.00     0.099 A 
ATOM     19  C   UNL d   1       1.441  -2.568   4.672  0.00  0.00     0.101 A 
ATOM     20  C   UNL d   1       1.480  -1.235   4.260  0.00  0.00     0.040 A 
ATOM     21  C   UNL d   1       1.506  -0.903   2.904  0.00  0.00     0.011 A 
BRANCH  18  22
ATOM     22  O   UNL d   1       1.380  -4.895   4.027  0.00  0.00    -0.358 OA
ATOM     23  H   UNL d   1       1.342  -5.421   3.211  0.00  0.00     0.217 HD
ENDBRANCH  18  22
BRANCH  19  24
ATOM     24  O   UNL d   1       1.429  -2.707   6.034  0.00  0.00    -0.353 OA
ATOM     25  C   UNL d   1       1.396  -4.023   6.564  0.00  0.00     0.210 C 
ENDBRANCH  19  24
ENDBRANCH   3  16
BRANCH   1  26
ATOM     26  C   UNL d   1       4.003  -1.742  -0.090  0.00  0.00     0.291 C 
ATOM     27  O   UNL d   1       3.881  -2.940  -0.311  0.00  0.00    -0.260 OA
BRANCH  26  28
ATOM     28  O   UNL d   1       5.187  -1.103   0.037  0.00  0.00    -0.323 OA
ATOM     29  C   UNL d   1       6.355  -1.900  -0.166  0.00  0.00     0.213 C 
ENDBRANCH  26  28
ENDBRANCH   1  26
TORSDOF 5
