REMARK  2 active torsions:
REMARK  status: ('A' for Active; 'I' for Inactive)
REMARK    1  A    between atoms: C_10  and  C_5 
REMARK    2  A    between atoms: C_9  and  C_6 
ROOT
ATOM      1  N   UNL d   1       1.190   1.409  -0.131  0.00  0.00    -0.352 N 
ATOM      2  HN  UNL d   1       1.187   2.425  -0.211  1.00  0.00     0.166 HD
ATOM      3  N   UNL d   1       1.183  -1.391   0.083  0.00  0.00    -0.352 N 
ATOM      4  HN  UNL d   1       1.179  -2.410   0.142  1.00  0.00     0.166 HD
ATOM      5  C   UNL d   1       2.360   0.711  -0.068  0.00  0.00     0.071 A 
ATOM      6  C   UNL d   1       2.355  -0.692   0.069  0.00  0.00     0.071 A 
ATOM      7  C   UNL d   1       0.037   0.713  -0.083  0.00  0.00     0.059 A 
ATOM      8  C   UNL d   1       0.037  -0.696   0.016  0.00  0.00     0.059 A 
ATOM      9  C   UNL d   1      -1.180   1.385  -0.119  0.00  0.00     0.032 A 
ATOM     10  C   UNL d   1      -1.179  -1.370   0.059  0.00  0.00     0.032 A 
ATOM     11  C   UNL d   1      -2.393   0.701  -0.067  0.00  0.00     0.002 A 
ATOM     12  C   UNL d   1      -2.393  -0.685   0.019  0.00  0.00     0.002 A 
ENDROOT
BRANCH   5  13
ATOM     13  C   UNL d   1       3.570   1.567  -0.111  0.00  0.00    -0.007 A 
ATOM     14  C   UNL d   1       3.616   2.758   0.638  0.00  0.00     0.014 A 
ATOM     15  C   UNL d   1       4.785   3.521   0.723  0.00  0.00     0.001 A 
ATOM     16  C   UNL d   1       5.934   3.111   0.055  0.00  0.00     0.000 A 
ATOM     17  C   UNL d   1       5.899   1.969  -0.740  0.00  0.00     0.001 A 
ATOM     18  C   UNL d   1       4.720   1.224  -0.845  0.00  0.00     0.014 A 
ENDBRANCH   5  13
BRANCH   6  19
ATOM     19  C   UNL d   1       3.553  -1.548   0.217  0.00  0.00    -0.007 A 
ATOM     20  C   UNL d   1       4.602  -1.230   1.100  0.00  0.00     0.014 A 
ATOM     21  C   UNL d   1       5.774  -1.992   1.139  0.00  0.00     0.001 A 
ATOM     22  C   UNL d   1       5.899  -3.120   0.333  0.00  0.00     0.000 A 
ATOM     23  C   UNL d   1       4.847  -3.496  -0.498  0.00  0.00     0.001 A 
ATOM     24  C   UNL d   1       3.687  -2.718  -0.553  0.00  0.00     0.014 A 
ENDBRANCH   6  19
TORSDOF 2
