REMARK  4 active torsions:
REMARK  status: ('A' for Active; 'I' for Inactive)
REMARK    1  A    between atoms: C_2  and  C_1 
REMARK    2  A    between atoms: C_3  and  C_1 
REMARK    3  A    between atoms: O_14  and  C_8 
REMARK    4  A    between atoms: O_15  and  C_9 
ROOT
ATOM      1  C   UNL d   1       0.915  -0.038  -0.104  0.00  0.00     0.007 C 
ATOM      2  C   UNL d   1       0.423  -0.404   1.328  0.00  0.00     0.025 C 
ATOM      3  C   UNL d   1       2.471  -0.063  -0.035  0.00  0.00     0.025 C 
ENDROOT
BRANCH   1   4
ATOM      4  C   UNL d   1       0.411   1.391  -0.451  0.00  0.00    -0.045 A 
ATOM      5  C   UNL d   1       1.230   2.330  -1.112  0.00  0.00     0.017 A 
ATOM      6  C   UNL d   1       0.822   3.659  -1.324  0.00  0.00    -0.028 A 
ATOM      7  C   UNL d   1       1.755   4.646  -1.964  0.00  0.00     0.051 C 
ATOM      8  C   UNL d   1      -0.449   4.046  -0.901  0.00  0.00     0.071 A 
ATOM      9  C   UNL d   1      -1.308   3.131  -0.304  0.00  0.00     0.037 A 
ATOM     10  C   UNL d   1      -0.883   1.815  -0.089  0.00  0.00     0.011 A 
BRANCH   8  11
ATOM     11  O   UNL d   1      -0.834   5.344  -1.080  0.00  0.00    -0.360 OA
ATOM     12  H   UNL d   1      -1.707   5.467  -0.673  0.00  0.00     0.217 HD
ENDBRANCH   8  11
ENDBRANCH   1   4
BRANCH   1  13
ATOM     13  C   UNL d   1       0.464  -1.145  -1.090  0.00  0.00    -0.045 A 
ATOM     14  C   UNL d   1      -0.309  -0.884  -2.237  0.00  0.00     0.017 A 
ATOM     15  C   UNL d   1      -0.689  -1.913  -3.122  0.00  0.00    -0.028 A 
ATOM     16  C   UNL d   1      -1.528  -1.607  -4.330  0.00  0.00     0.051 C 
ATOM     17  C   UNL d   1      -0.278  -3.220  -2.861  0.00  0.00     0.071 A 
ATOM     18  C   UNL d   1       0.483  -3.514  -1.737  0.00  0.00     0.037 A 
ATOM     19  C   UNL d   1       0.842  -2.486  -0.862  0.00  0.00     0.011 A 
BRANCH  17  20
ATOM     20  O   UNL d   1      -0.628  -4.213  -3.731  0.00  0.00    -0.360 OA
ATOM     21  H   UNL d   1      -0.210  -5.040  -3.444  0.00  0.00     0.217 HD
ENDBRANCH  17  20
ENDBRANCH   1  13
TORSDOF 4
