REMARK  2 active torsions:
REMARK  status: ('A' for Active; 'I' for Inactive)
REMARK    1  A    between atoms: C_3  and  C_4 
REMARK    2  A    between atoms: C_11  and  C_5 
ROOT
ATOM      1  N   UNL d   1       0.960  -0.083  -1.038  0.00  0.00    -0.352 N 
ATOM      2  HN  UNL d   1       1.544  -0.187  -1.867  1.00  0.00     0.166 HD
ATOM      3  C   UNL d   1       1.230   0.790   0.010  0.00  0.00     0.025 A 
ATOM      4  C   UNL d   1      -0.151  -0.760  -0.818  0.00  0.00     0.084 A 
ATOM      5  S   UNL d   1      -0.960  -0.344   0.646  0.00  0.00    -0.081 SA
ATOM      6  C   UNL d   1       0.275   0.775   1.011  0.00  0.00     0.077 A 
ENDROOT
BRANCH   3   7
ATOM      7  C   UNL d   1       2.474   1.662  -0.027  0.00  0.00     0.004 C 
ATOM      8  C   UNL d   1       3.342   1.385  -1.288  0.00  0.00     0.020 C 
ATOM      9  C   UNL d   1       4.590   2.285  -1.309  0.00  0.00    -0.013 C 
ATOM     10  C   UNL d   1       4.152   3.758  -1.315  0.00  0.00     0.009 C 
ATOM     11  C   UNL d   1       5.434   2.010  -0.055  0.00  0.00     0.009 C 
ATOM     12  C   UNL d   1       3.324   4.064  -0.058  0.00  0.00    -0.013 C 
ATOM     13  C   UNL d   1       2.077   3.164  -0.043  0.00  0.00     0.020 C 
ATOM     14  C   UNL d   1       4.169   3.778   1.193  0.00  0.00     0.009 C 
ATOM     15  C   UNL d   1       4.610   2.305   1.207  0.00  0.00    -0.013 C 
ATOM     16  C   UNL d   1       3.363   1.403   1.222  0.00  0.00     0.020 C 
ENDBRANCH   3   7
BRANCH   4  17
ATOM     17  C   UNL d   1      -0.722  -1.754  -1.747  0.00  0.00    -0.002 A 
ATOM     18  C   UNL d   1      -1.538  -2.814  -1.313  0.00  0.00     0.016 A 
ATOM     19  C   UNL d   1      -2.080  -3.725  -2.227  0.00  0.00     0.024 A 
ATOM     20  C   UNL d   1      -1.808  -3.590  -3.584  0.00  0.00     0.034 A 
ATOM     21  C   UNL d   1      -0.988  -2.560  -4.036  0.00  0.00     0.024 A 
ATOM     22 CL   UNL d   1      -2.489  -4.702  -4.706  0.00  0.00    -0.084 Cl
ATOM     23  C   UNL d   1      -0.444  -1.652  -3.121  0.00  0.00     0.016 A 
ENDBRANCH   4  17
TORSDOF 2
