REMARK  9 active torsions:
REMARK  status: ('A' for Active; 'I' for Inactive)
REMARK    1  A    between atoms: C_3  and  C_1 
REMARK    2  A    between atoms: C_4  and  C_1 
REMARK    3  A    between atoms: N_5  and  C_2 
REMARK    4  A    between atoms: S_6  and  C_2 
REMARK    5  A    between atoms: O_10  and  C_3 
REMARK    6  A    between atoms: O_11  and  C_4 
REMARK    7  A    between atoms: C_9  and  N_5 
REMARK    8  A    between atoms: C_19  and  O_10 
REMARK    9  A    between atoms: C_20  and  O_11 
ROOT
ATOM      1  C   UNL d   1       0.893   0.254   0.099  0.00  0.00     0.142 C 
ATOM      2  C   UNL d   1       0.151   0.652  -0.975  0.00  0.00     0.072 C 
ENDROOT
BRANCH   2   3
ATOM      3  N   UNL d   1      -1.252   0.750  -0.937  0.00  0.00    -0.253 NA
ATOM      4  H   UNL d   1      -1.628   0.095  -0.243  0.00  0.00     0.134 HD
BRANCH   3   5
ATOM      5  C   UNL d   1      -1.964   1.970  -0.748  0.00  0.00     0.013 A 
ATOM      6  C   UNL d   1      -1.403   3.238  -0.945  0.00  0.00     0.025 A 
ATOM      7  C   UNL d   1      -2.187   4.392  -0.823  0.00  0.00     0.025 A 
ATOM      8  C   UNL d   1      -3.540   4.286  -0.510  0.00  0.00     0.034 A 
ATOM      9  C   UNL d   1      -4.120   3.036  -0.324  0.00  0.00     0.025 A 
ATOM     10 CL   UNL d   1      -4.503   5.704  -0.370  0.00  0.00    -0.084 Cl
ATOM     11  C   UNL d   1      -3.337   1.887  -0.456  0.00  0.00     0.025 A 
ENDBRANCH   3   5
ENDBRANCH   2   3
BRANCH   2  12
ATOM     12  S   UNL d   1       0.994   0.880  -2.540  0.00  0.00    -0.121 SA
ATOM     13  C   UNL d   1      -0.322   1.247  -3.714  0.00  0.00     0.097 C 
ENDBRANCH   2  12
BRANCH   1  14
ATOM     14  C   UNL d   1       0.318  -0.099   1.435  0.00  0.00     0.301 C 
ATOM     15  O   UNL d   1       0.991  -0.208   2.443  0.00  0.00    -0.259 OA
BRANCH  14  16
ATOM     16  O   UNL d   1      -1.016  -0.345   1.384  0.00  0.00    -0.318 OA
BRANCH  16  17
ATOM     17  C   UNL d   1      -1.610  -0.911   2.569  0.00  0.00     0.174 C 
ATOM     18  C   UNL d   1      -1.747   0.090   3.708  0.00  0.00     0.034 C 
ENDBRANCH  16  17
ENDBRANCH  14  16
ENDBRANCH   1  14
BRANCH   1  19
ATOM     19  C   UNL d   1       2.375   0.142   0.026  0.00  0.00     0.301 C 
ATOM     20  O   UNL d   1       3.138   1.009  -0.369  0.00  0.00    -0.259 OA
BRANCH  19  21
ATOM     21  O   UNL d   1       2.730  -1.100   0.454  0.00  0.00    -0.318 OA
BRANCH  21  22
ATOM     22  C   UNL d   1       4.118  -1.454   0.362  0.00  0.00     0.174 C 
ATOM     23  C   UNL d   1       4.200  -2.663  -0.548  0.00  0.00     0.034 C 
ENDBRANCH  21  22
ENDBRANCH  19  21
ENDBRANCH   1  19
TORSDOF 9
