REMARK  7 active torsions:
REMARK  status: ('A' for Active; 'I' for Inactive)
REMARK    1  A    between atoms: O_2  and  C_1 
REMARK    2  A    between atoms: C_3  and  C_1 
REMARK    3  A    between atoms: C_6  and  O_2 
REMARK       I    between atoms: C_4  and  N_5 
REMARK    4  A    between atoms: C_13  and  C_4 
REMARK    5  A    between atoms: N_5  and  C_8 
REMARK    6  A    between atoms: S_11  and  C_13 
REMARK    7  A    between atoms: C_14  and  S_11 
ROOT
ATOM      1  C   UNL d   1       0.779  -0.772  -2.313  0.00  0.00     0.077 A 
ATOM      2  C   UNL d   1       2.155  -0.669  -2.538  0.00  0.00     0.066 A 
ATOM      3  C   UNL d   1       2.755  -1.342  -3.607  0.00  0.00     0.037 A 
ATOM      4  C   UNL d   1       0.599  -2.292  -4.186  0.00  0.00     0.005 A 
ATOM      5  C   UNL d   1       0.012  -1.614  -3.118  0.00  0.00     0.037 A 
ATOM      6  C   UNL d   1       1.962  -2.134  -4.442  0.00  0.00     0.029 A 
ENDROOT
BRANCH   3   7
ATOM      7  N   UNL d   1       4.121  -1.216  -3.922  0.00  0.00    -0.326 N 
ATOM      8  C   UNL d   1       5.113  -0.622  -3.159  0.00  0.00     0.231 C 
ATOM      9  O   UNL d   1       5.000  -0.280  -1.982  0.00  0.00    -0.272 OA
ATOM     10  H   UNL d   1       4.409  -1.561  -4.834  0.00  0.00     0.169 HD
BRANCH   8  11
ATOM     11  C   UNL d   1       6.468  -0.518  -3.850  0.00  0.00     0.182 C 
BRANCH  11  12
ATOM     12  S   UNL d   1       6.281  -0.063  -5.610  0.00  0.00    -0.121 SA
BRANCH  12  13
ATOM     13  C   UNL d   1       7.977  -0.006  -6.151  0.00  0.00     0.001 A 
ATOM     14  C   UNL d   1       8.864  -1.070  -5.953  0.00  0.00     0.020 A 
ATOM     15  C   UNL d   1      10.146  -1.033  -6.511  0.00  0.00     0.020 A 
ATOM     16  C   UNL d   1      10.542   0.068  -7.269  0.00  0.00     0.011 A 
ATOM     17  C   UNL d   1       9.675   1.141  -7.458  0.00  0.00     0.020 A 
ATOM     18 BR   UNL d   1      12.250   0.088  -8.077  0.00  0.00    -0.051 Br
ATOM     19  C   UNL d   1       8.394   1.101  -6.900  0.00  0.00     0.020 A 
ENDBRANCH  12  13
ENDBRANCH  11  12
ENDBRANCH   8  11
ENDBRANCH   3   7
BRANCH   1  20
ATOM     20  O   UNL d   1       0.084  -0.095  -1.347  0.00  0.00    -0.279 OA
BRANCH  20  21
ATOM     21  C   UNL d   1       0.672   1.114  -0.847  0.00  0.00     0.418 C 
ATOM     22  F   UNL d   1       1.200   1.839  -1.867  0.00  0.00    -0.169 F 
ATOM     23  F   UNL d   1       1.681   0.778  -0.001  0.00  0.00    -0.169 F 
BRANCH  21  24
ATOM     24  C   UNL d   1      -0.372   1.941  -0.098  0.00  0.00     0.455 C 
ATOM     25  F   UNL d   1       0.165   3.092   0.387  0.00  0.00    -0.205 F 
ATOM     26  F   UNL d   1      -1.390   2.314  -0.922  0.00  0.00    -0.205 F 
ENDBRANCH  21  24
ENDBRANCH  20  21
ENDBRANCH   1  20
TORSDOF 7
