REMARK  7 active torsions:
REMARK  status: ('A' for Active; 'I' for Inactive)
REMARK    1  A    between atoms: C_2  and  S_1 
REMARK    2  A    between atoms: N_3  and  S_1 
REMARK    3  A    between atoms: S_6  and  N_3 
REMARK    4  A    between atoms: C_10  and  C_5 
REMARK    5  A    between atoms: C_14  and  S_6 
REMARK    6  A    between atoms: O_16  and  C_7 
REMARK    7  A    between atoms: O_18  and  C_10 
ROOT
ATOM      1  S   UNL d   1       0.810  -0.070   0.190  0.00  0.00     0.278 S 
ATOM      2  O   UNL d   1       0.042   1.000  -0.424  0.00  0.00    -0.199 OA
ATOM      3  O   UNL d   1       2.254   0.030   0.217  0.00  0.00    -0.199 OA
ENDROOT
BRANCH   1   4
ATOM      4  C   UNL d   1       0.421  -1.507  -0.787  0.00  0.00     0.155 C 
ATOM      5  C   UNL d   1      -0.642  -1.830  -1.614  0.00  0.00     0.115 C 
ATOM      6  C   UNL d   1      -0.344  -2.929  -2.490  0.00  0.00     0.081 C 
ATOM      7  C   UNL d   1       0.799  -3.583  -2.067  0.00  0.00     0.071 C 
ATOM      8  S   UNL d   1       1.605  -2.747  -0.819  0.00  0.00    -0.085 SA
BRANCH   5   9
ATOM      9  O   UNL d   1      -1.771  -1.085  -1.724  0.00  0.00    -0.353 OA
ATOM     10  C   UNL d   1      -2.511  -0.996  -0.505  0.00  0.00     0.210 C 
ENDBRANCH   5   9
BRANCH   6  11
ATOM     11  C   UNL d   1      -1.069  -3.346  -3.686  0.00  0.00     0.296 C 
ATOM     12  O   UNL d   1      -0.987  -4.472  -4.163  0.00  0.00    -0.259 OA
BRANCH  11  13
ATOM     13  O   UNL d   1      -1.735  -2.311  -4.272  0.00  0.00    -0.322 OA
ATOM     14  C   UNL d   1      -2.272  -2.594  -5.564  0.00  0.00     0.213 C 
ENDBRANCH  11  13
ENDBRANCH   6  11
ENDBRANCH   1   4
BRANCH   1  15
ATOM     15  N   UNL d   1       0.253  -0.223   1.767  0.00  0.00    -0.235 N 
ATOM     16  HN  UNL d   1      -0.112   0.620   2.212  1.00  0.00     0.189 HD
BRANCH  15  17
ATOM     17  S   UNL d   1       0.241  -1.606   2.665  0.00  0.00     0.061 S 
ATOM     18  O   UNL d   1      -0.677  -2.584   2.134  0.00  0.00    -0.244 OA
ATOM     19  C   UNL d   1      -0.269  -1.068   4.269  0.00  0.00     0.143 C 
BRANCH  17  20
ATOM     20  C   UNL d   1       1.855  -2.253   2.802  0.00  0.00     0.038 A 
ATOM     21  C   UNL d   1       2.964  -1.410   2.860  0.00  0.00     0.022 A 
ATOM     22  C   UNL d   1       4.244  -1.965   2.871  0.00  0.00     0.001 A 
ATOM     23  C   UNL d   1       4.409  -3.351   2.849  0.00  0.00     0.000 A 
ATOM     24  C   UNL d   1       3.295  -4.189   2.822  0.00  0.00     0.001 A 
ATOM     25  C   UNL d   1       2.014  -3.640   2.796  0.00  0.00     0.022 A 
ENDBRANCH  17  20
ENDBRANCH  15  17
ENDBRANCH   1  15
TORSDOF 7
