REMARK  2 active torsions:
REMARK  status: ('A' for Active; 'I' for Inactive)
REMARK    1  A    between atoms: C_9  and  N_1 
REMARK    2  A    between atoms: C_17  and  C_11 
ROOT
ATOM      1  N   UNL d   1       2.342  -0.689   0.150  0.00  0.00    -0.205 N 
ATOM      2  N   UNL d   1       1.316  -1.458  -0.343  0.00  0.00    -0.232 N 
ATOM      3  HN  UNL d   1       1.542  -2.285  -0.896  1.00  0.00     0.209 HD
ATOM      4  C   UNL d   1       2.127   0.526   0.790  0.00  0.00     0.280 A 
ATOM      5  N   UNL d   1       0.115  -1.178  -0.138  0.00  0.00    -0.285 N 
ATOM      6  HN  UNL d   1      -0.621  -1.776  -0.513  1.00  0.00     0.188 HD
ATOM      7  C   UNL d   1       0.732   0.861   1.051  0.00  0.00     0.062 A 
ATOM      8  C   UNL d   1      -0.217  -0.042   0.606  0.00  0.00     0.065 A 
ATOM      9  O   UNL d   1       2.981   1.337   1.151  0.00  0.00    -0.265 OA
ATOM     10  C   UNL d   1       0.374   2.022   1.750  0.00  0.00     0.019 A 
ATOM     11  C   UNL d   1      -1.561   0.211   0.907  0.00  0.00     0.032 A 
ATOM     12  C   UNL d   1      -0.966   2.268   2.034  0.00  0.00     0.001 A 
ATOM     13  C   UNL d   1      -1.934   1.355   1.622  0.00  0.00     0.002 A 
ENDROOT
BRANCH   1  14
ATOM     14  C   UNL d   1       3.646  -1.245  -0.055  0.00  0.00     0.061 A 
ATOM     15  C   UNL d   1       4.723  -0.887   0.766  0.00  0.00     0.032 A 
ATOM     16  C   UNL d   1       6.000  -1.418   0.567  0.00  0.00     0.010 A 
ATOM     17  C   UNL d   1       6.250  -2.314  -0.476  0.00  0.00    -0.055 A 
ATOM     18  C   UNL d   1       5.175  -2.704  -1.285  0.00  0.00     0.010 A 
ATOM     19  C   UNL d   1       3.888  -2.186  -1.068  0.00  0.00     0.032 A 
BRANCH  17  20
ATOM     20  C   UNL d   1       7.649  -2.839  -0.741  0.00  0.00     0.010 C 
ATOM     21  C   UNL d   1       8.635  -1.692  -0.992  0.00  0.00     0.015 C 
ATOM     22  C   UNL d   1       8.141  -3.732   0.401  0.00  0.00     0.015 C 
ENDBRANCH  17  20
ENDBRANCH   1  14
TORSDOF 2
