REMARK  5 active torsions:
REMARK  status: ('A' for Active; 'I' for Inactive)
REMARK    1  A    between atoms: C_5  and  C_1 
REMARK    2  A    between atoms: C_6  and  C_2 
REMARK       I    between atoms: N_8  and  C_5 
REMARK    3  A    between atoms: C_7  and  C_13 
REMARK       I    between atoms: N_11  and  C_7 
REMARK    4  A    between atoms: C_20  and  N_11 
REMARK    5  A    between atoms: C_13  and  N_12 
ROOT
ATOM      1  C   UNL d   1       0.566  -2.812  -0.059  0.00  0.00     0.258 C 
ATOM      2  N   UNL d   1      -0.544  -3.671  -0.174  0.00  0.00    -0.344 N 
ATOM      3  N   UNL d   1      -3.147  -5.110   0.016  0.00  0.00     0.100 N 
ATOM      4  O   UNL d   1       1.333  -2.866   0.904  0.00  0.00    -0.267 OA
ATOM      5  C   UNL d   1      -1.498  -3.680  -1.292  0.00  0.00     0.156 C 
ATOM      6  C   UNL d   1      -0.694  -4.792   0.755  0.00  0.00     0.156 C 
ATOM      7  C   UNL d   1      -2.943  -3.930  -0.841  0.00  0.00     0.293 C 
ATOM      8  C   UNL d   1      -2.170  -5.085   1.128  0.00  0.00     0.293 C 
ENDROOT
BRANCH   1   9
ATOM      9  C   UNL d   1       0.780  -1.827  -1.103  0.00  0.00     0.092 C 
ATOM     10  C   UNL d   1       1.038  -0.412  -1.034  0.00  0.00     0.086 C 
ATOM     11  N   UNL d   1       0.999   0.108  -2.273  0.00  0.00    -0.259 N 
ATOM     12  O   UNL d   1       0.992  -0.944  -3.147  0.00  0.00    -0.241 OA
ATOM     13  HN  UNL d   1       0.978   1.099  -2.515  1.00  0.00     0.195 HD
ATOM     14  C   UNL d   1       0.929  -2.104  -2.453  0.00  0.00     0.090 C 
ATOM     15  C   UNL d   1       1.033  -3.329  -3.266  0.00  0.00     0.080 C 
BRANCH  10  16
ATOM     16  C   UNL d   1       1.319   0.495   0.092  0.00  0.00     0.037 A 
ATOM     17  C   UNL d   1       2.429   1.377   0.023  0.00  0.00     0.048 A 
ATOM     18 CL   UNL d   1       3.595   1.356  -1.268  0.00  0.00    -0.083 Cl
ATOM     19  C   UNL d   1       2.677   2.328   1.026  0.00  0.00     0.025 A 
ATOM     20  C   UNL d   1       1.856   2.397   2.142  0.00  0.00     0.003 A 
ATOM     21  C   UNL d   1       0.777   1.522   2.246  0.00  0.00     0.025 A 
ATOM     22  C   UNL d   1       0.496   0.593   1.228  0.00  0.00     0.048 A 
ATOM     23 CL   UNL d   1      -0.951  -0.336   1.432  0.00  0.00    -0.083 Cl
ENDBRANCH  10  16
ENDBRANCH   1   9
BRANCH   3  24
ATOM     24  C   UNL d   1      -3.138  -6.403  -0.705  0.00  0.00     0.375 C 
BRANCH  24  25
ATOM     25  C   UNL d   1      -4.103  -6.484  -1.913  0.00  0.00     0.252 C 
ATOM     26  N   UNL d   1      -5.446  -6.130  -1.742  0.00  0.00    -0.321 N 
ATOM     27  C   UNL d   1      -5.995  -5.645  -0.477  0.00  0.00     0.159 C 
ATOM     28  O   UNL d   1      -3.632  -6.859  -2.997  0.00  0.00    -0.271 OA
BRANCH  26  29
ATOM     29  C   UNL d   1      -6.348  -6.127  -2.856  0.00  0.00     0.036 A 
ATOM     30  C   UNL d   1      -6.439  -7.231  -3.712  0.00  0.00     0.029 A 
ATOM     31  C   UNL d   1      -7.389  -7.257  -4.739  0.00  0.00     0.002 A 
ATOM     32  C   UNL d   1      -8.231  -6.165  -4.946  0.00  0.00     0.000 A 
ATOM     33  C   UNL d   1      -8.127  -5.048  -4.122  0.00  0.00     0.002 A 
ATOM     34  C   UNL d   1      -7.204  -5.037  -3.072  0.00  0.00     0.029 A 
ENDBRANCH  26  29
ENDBRANCH  24  25
ENDBRANCH   3  24
TORSDOF 5
