REMARK  11 active torsions:
REMARK  status: ('A' for Active; 'I' for Inactive)
REMARK       I    between atoms: N_2  and  C_1 
REMARK    1  A    between atoms: O_10  and  C_1 
REMARK    2  A    between atoms: C_4  and  N_2 
REMARK    3  A    between atoms: C_3  and  C_4 
REMARK       I    between atoms: N_11  and  C_3 
REMARK    4  A    between atoms: C_13  and  C_4 
REMARK    5  A    between atoms: O_17  and  C_5 
REMARK    6  A    between atoms: O_18  and  C_6 
REMARK    7  A    between atoms: C_15  and  O_10 
REMARK    8  A    between atoms: C_19  and  N_11 
REMARK    9  A    between atoms: C_14  and  C_21 
REMARK   10  A    between atoms: C_20  and  C_15 
REMARK   11  A    between atoms: C_21  and  C_19 
ROOT
ATOM      1  C   UNL d   1       1.657   0.915  -2.867  0.00  0.00     0.240 C 
ATOM      2  O   UNL d   1       1.093   0.637  -3.923  0.00  0.00    -0.271 OA
ATOM      3  N   UNL d   1       2.865   0.323  -2.593  0.00  0.00    -0.359 N 
ATOM      4  H   UNL d   1       3.119  -0.364  -3.296  0.00  0.00     0.162 HD
ENDROOT
BRANCH   1   5
ATOM      5  C   UNL d   1       1.031   1.835  -1.787  0.00  0.00     0.182 C 
BRANCH   5   6
ATOM      6  N   UNL d   1       0.428   0.937  -0.795  0.00  0.00    -0.323 N 
ATOM      7  C   UNL d   1       0.680   0.880   0.544  0.00  0.00     0.361 C 
ATOM      8  O   UNL d   1       0.210  -0.016   1.233  0.00  0.00    -0.238 OA
ATOM      9  H   UNL d   1      -0.134   0.168  -1.138  0.00  0.00     0.165 HD
BRANCH   7  10
ATOM     10  O   UNL d   1       1.468   1.886   0.996  0.00  0.00    -0.299 OA
BRANCH  10  11
ATOM     11  C   UNL d   1       1.584   1.985   2.427  0.00  0.00     0.219 C 
BRANCH  11  12
ATOM     12  C   UNL d   1       2.997   1.733   2.896  0.00  0.00    -0.034 A 
ATOM     13  C   UNL d   1       4.054   2.554   2.478  0.00  0.00     0.009 A 
ATOM     14  C   UNL d   1       5.347   2.362   2.973  0.00  0.00     0.001 A 
ATOM     15  C   UNL d   1       5.601   1.347   3.894  0.00  0.00     0.000 A 
ATOM     16  C   UNL d   1       4.561   0.521   4.319  0.00  0.00     0.001 A 
ATOM     17  C   UNL d   1       3.268   0.712   3.825  0.00  0.00     0.009 A 
ENDBRANCH  11  12
ENDBRANCH  10  11
ENDBRANCH   7  10
ENDBRANCH   5   6
BRANCH   5  18
ATOM     18  C   UNL d   1      -0.023   2.788  -2.398  0.00  0.00     0.009 C 
ATOM     19  C   UNL d   1      -0.724   3.616  -1.315  0.00  0.00     0.012 C 
ATOM     20  C   UNL d   1       0.625   3.748  -3.407  0.00  0.00     0.012 C 
ENDBRANCH   5  18
ENDBRANCH   1   5
BRANCH   3  21
ATOM     21  C   UNL d   1       3.440   0.195  -1.266  0.00  0.00     0.127 C 
BRANCH  21  22
ATOM     22  C   UNL d   1       4.785  -0.521  -1.245  0.00  0.00     0.058 C 
BRANCH  22  23
ATOM     23  C   UNL d   1       4.707  -1.957  -1.708  0.00  0.00    -0.054 A 
ATOM     24  C   UNL d   1       5.479  -2.374  -2.802  0.00  0.00     0.046 A 
ATOM     25  C   UNL d   1       5.463  -3.704  -3.243  0.00  0.00     0.102 A 
ATOM     26  C   UNL d   1       4.666  -4.635  -2.555  0.00  0.00     0.101 A 
ATOM     27  C   UNL d   1       3.863  -4.212  -1.490  0.00  0.00     0.040 A 
ATOM     28  C   UNL d   1       3.888  -2.887  -1.061  0.00  0.00     0.010 A 
BRANCH  25  29
ATOM     29  O   UNL d   1       6.167  -4.143  -4.333  0.00  0.00    -0.353 OA
ATOM     30  C   UNL d   1       6.925  -3.186  -5.062  0.00  0.00     0.210 C 
ENDBRANCH  25  29
BRANCH  26  31
ATOM     31  O   UNL d   1       4.545  -5.972  -2.839  0.00  0.00    -0.353 OA
ATOM     32  C   UNL d   1       5.741  -6.621  -3.258  0.00  0.00     0.210 C 
ENDBRANCH  26  31
ENDBRANCH  22  23
ENDBRANCH  21  22
ENDBRANCH   3  21
TORSDOF 11
