REMARK  5 active torsions:
REMARK  status: ('A' for Active; 'I' for Inactive)
REMARK    1  A    between atoms: S_2  and  C_1 
REMARK    2  A    between atoms: C_8  and  S_2 
REMARK    3  A    between atoms: C_7  and  C_3 
REMARK    4  A    between atoms: N_11  and  C_4 
REMARK    5  A    between atoms: O_15  and  C_7 
ROOT
ATOM      1  C   UNL d   1      -0.641  -1.248  -0.033  0.00  0.00     0.098 A 
ATOM      2  C   UNL d   1      -0.296   1.075  -0.059  0.00  0.00     0.107 A 
ATOM      3  C   UNL d   1      -1.238   0.053  -0.101  0.00  0.00     0.071 A 
ATOM      4  S   UNL d   1       1.300   0.429   0.004  0.00  0.00    -0.092 SA
ATOM      5  C   UNL d   1       0.735  -1.178   0.024  0.00  0.00     0.076 A 
ENDROOT
BRANCH   1   6
ATOM      6  S   UNL d   1      -1.495  -2.761   0.007  0.00  0.00     0.209 S 
ATOM      7  O   UNL d   1      -0.570  -3.680   0.643  0.00  0.00    -0.217 OA
ATOM      8  O   UNL d   1      -2.796  -2.463   0.572  0.00  0.00    -0.217 OA
BRANCH   6   9
ATOM      9  C   UNL d   1      -1.728  -3.270  -1.675  0.00  0.00     0.064 A 
ATOM     10  C   UNL d   1      -1.249  -4.518  -2.092  0.00  0.00     0.025 A 
ATOM     11  C   UNL d   1      -1.426  -4.919  -3.418  0.00  0.00     0.025 A 
ATOM     12  C   UNL d   1      -2.090  -4.080  -4.314  0.00  0.00     0.034 A 
ATOM     13  C   UNL d   1      -2.591  -2.848  -3.893  0.00  0.00     0.025 A 
ATOM     14 CL   UNL d   1      -2.287  -4.566  -5.953  0.00  0.00    -0.084 Cl
ATOM     15  C   UNL d   1      -2.414  -2.440  -2.568  0.00  0.00     0.025 A 
ENDBRANCH   6   9
ENDBRANCH   1   6
BRANCH   3  16
ATOM     16  N   UNL d   1      -2.575   0.265  -0.183  0.00  0.00    -0.397 N 
ATOM     17  H   UNL d   1      -2.948   1.198   0.003  0.00  0.00     0.156 HD
ATOM     18  H   UNL d   1      -3.227  -0.466   0.122  0.00  0.00     0.156 HD
ENDBRANCH   3  16
BRANCH   2  19
ATOM     19  C   UNL d   1      -0.436   2.526  -0.047  0.00  0.00     0.302 C 
ATOM     20  O   UNL d   1       0.476   3.345  -0.028  0.00  0.00    -0.259 OA
BRANCH  19  21
ATOM     21  O   UNL d   1      -1.762   2.876  -0.044  0.00  0.00    -0.322 OA
ATOM     22  C   UNL d   1      -2.000   4.284  -0.020  0.00  0.00     0.213 C 
ENDBRANCH  19  21
ENDBRANCH   2  19
TORSDOF 5
