REMARK  4 active torsions:
REMARK  status: ('A' for Active; 'I' for Inactive)
REMARK    1  A    between atoms: C_5  and  C_1 
REMARK    2  A    between atoms: C_7  and  C_2 
REMARK       I    between atoms: N_9  and  C_7 
REMARK    3  A    between atoms: N_12  and  N_9 
REMARK    4  A    between atoms: C_13  and  N_12 
ROOT
ATOM      1  C   UNL d   1      -1.423  -0.716   0.107  0.00  0.00     0.088 A 
ATOM      2  C   UNL d   1      -0.146  -1.376   0.077  0.00  0.00     0.094 A 
ATOM      3  N   UNL d   1      -1.250   0.607  -0.042  0.00  0.00    -0.259 N 
ATOM      4  HN  UNL d   1      -1.984   1.313  -0.085  1.00  0.00     0.195 HD
ATOM      5  O   UNL d   1       0.100   0.830  -0.124  0.00  0.00    -0.241 OA
ATOM      6  C   UNL d   1       0.762  -0.346  -0.059  0.00  0.00     0.090 A 
ATOM      7  C   UNL d   1       2.235  -0.249  -0.116  0.00  0.00     0.080 C 
ENDROOT
BRANCH   2   8
ATOM      8  C   UNL d   1       0.219  -2.775   0.145  0.00  0.00     0.271 C 
ATOM      9  N   UNL d   1      -0.442  -3.506   1.127  0.00  0.00    -0.282 N 
ATOM     10  H   UNL d   1      -0.806  -2.997   1.925  0.00  0.00     0.184 HD
ATOM     11  O   UNL d   1       1.097  -3.266  -0.562  0.00  0.00    -0.266 OA
BRANCH   9  12
ATOM     12  N   UNL d   1       0.120  -4.763   1.423  0.00  0.00    -0.203 NA
ATOM     13  H   UNL d   1       0.705  -5.112   0.650  0.00  0.00     0.153 HD
BRANCH  12  14
ATOM     14  C   UNL d   1      -0.756  -5.746   1.938  0.00  0.00     0.030 A 
ATOM     15  C   UNL d   1      -1.992  -5.447   2.525  0.00  0.00     0.049 A 
ATOM     16  C   UNL d   1      -2.739  -6.443   3.162  0.00  0.00     0.037 A 
ATOM     17 CL   UNL d   1      -4.253  -6.038   3.875  0.00  0.00    -0.084 Cl
ATOM     18  C   UNL d   1      -2.267  -7.748   3.245  0.00  0.00     0.047 A 
ATOM     19  C   UNL d   1      -1.037  -8.053   2.674  0.00  0.00     0.037 A 
ATOM     20  C   UNL d   1      -0.285  -7.066   2.032  0.00  0.00     0.049 A 
ATOM     21 CL   UNL d   1      -0.421  -9.656   2.788  0.00  0.00    -0.084 Cl
ENDBRANCH  12  14
ENDBRANCH   9  12
ENDBRANCH   2   8
BRANCH   1  22
ATOM     22  C   UNL d   1      -2.780  -1.269   0.199  0.00  0.00     0.054 A 
ATOM     23  C   UNL d   1      -3.104  -2.439  -0.502  0.00  0.00     0.130 A 
ATOM     24  F   UNL d   1      -2.186  -3.063  -1.252  0.00  0.00    -0.205 F 
ATOM     25  C   UNL d   1      -4.385  -2.996  -0.468  0.00  0.00     0.043 A 
ATOM     26  C   UNL d   1      -5.395  -2.368   0.248  0.00  0.00     0.005 A 
ATOM     27  C   UNL d   1      -5.111  -1.195   0.942  0.00  0.00     0.025 A 
ATOM     28  C   UNL d   1      -3.815  -0.654   0.934  0.00  0.00     0.049 A 
ATOM     29 CL   UNL d   1      -3.586   0.755   1.917  0.00  0.00    -0.083 Cl
ENDBRANCH   1  22
TORSDOF 4
