REMARK  8 active torsions:
REMARK  status: ('A' for Active; 'I' for Inactive)
REMARK    1  A    between atoms: C_2  and  C_1 
REMARK    2  A    between atoms: S_9  and  C_3 
REMARK    3  A    between atoms: C_6  and  N_16 
REMARK    4  A    between atoms: N_12  and  C_6 
REMARK    5  A    between atoms: C_14  and  C_7 
REMARK    6  A    between atoms: C_21  and  S_9 
REMARK    7  A    between atoms: N_16  and  N_10 
REMARK    8  A    between atoms: C_17  and  N_12 
ROOT
ATOM      1  C   UNL d   1       0.615   0.623  -1.136  0.00  0.00     0.064 A 
ATOM      2  C   UNL d   1      -0.140  -0.156  -3.317  0.00  0.00     0.034 A 
ATOM      3  N   UNL d   1      -0.019   2.231  -2.833  0.00  0.00    -0.363 N 
ATOM      4  HN  UNL d   1      -0.161   3.199  -3.122  1.00  0.00     0.165 HD
ATOM      5  C   UNL d   1      -0.280   1.190  -3.674  0.00  0.00     0.066 A 
ATOM      6  C   UNL d   1       0.310  -0.423  -2.017  0.00  0.00     0.038 A 
ATOM      7  C   UNL d   1       0.439   1.920  -1.596  0.00  0.00     0.104 A 
ENDROOT
BRANCH   5   8
ATOM      8  C   UNL d   1      -0.751   1.627  -5.011  0.00  0.00     0.138 C 
ATOM      9  N   UNL d   1      -0.329   1.051  -6.089  0.00  0.00    -0.307 N 
ATOM     10  HN  UNL d   1       0.404   0.342  -6.059  1.00  0.00     0.186 HD
BRANCH   9  11
ATOM     11  N   UNL d   1      -0.901   1.427  -7.269  0.00  0.00    -0.277 N 
ATOM     12  H   UNL d   1      -1.827   1.834  -7.255  0.00  0.00     0.189 HD
BRANCH  11  13
ATOM     13  C   UNL d   1      -0.332   1.043  -8.450  0.00  0.00     0.187 C 
ATOM     14  S   UNL d   1       1.313   0.820  -8.695  0.00  0.00    -0.040 SA
BRANCH  13  15
ATOM     15  N   UNL d   1      -1.139   0.784  -9.511  0.00  0.00    -0.358 N 
ATOM     16  H   UNL d   1      -0.583   0.557 -10.329  0.00  0.00     0.162 HD
BRANCH  15  17
ATOM     17  C   UNL d   1      -2.592   0.561  -9.657  0.00  0.00     0.021 C 
ATOM     18  C   UNL d   1      -3.328   1.894  -9.830  0.00  0.00     0.037 C 
ATOM     19  C   UNL d   1      -2.787  -0.279 -10.938  0.00  0.00     0.037 C 
ATOM     20  C   UNL d   1      -3.196  -0.237  -8.488  0.00  0.00     0.037 C 
ENDBRANCH  15  17
ENDBRANCH  13  15
ENDBRANCH  11  13
ENDBRANCH   9  11
ENDBRANCH   5   8
BRANCH   2  21
ATOM     21  S   UNL d   1      -0.652  -1.542  -4.315  0.00  0.00    -0.088 SA
BRANCH  21  22
ATOM     22  C   UNL d   1       0.873  -2.169  -4.999  0.00  0.00     0.005 A 
ATOM     23  C   UNL d   1       0.948  -3.543  -5.265  0.00  0.00     0.020 A 
ATOM     24  C   UNL d   1       2.086  -4.096  -5.862  0.00  0.00     0.025 A 
ATOM     25  C   UNL d   1       3.157  -3.273  -6.199  0.00  0.00     0.034 A 
ATOM     26  C   UNL d   1       3.100  -1.908  -5.941  0.00  0.00     0.025 A 
ATOM     27 CL   UNL d   1       4.549  -3.948  -6.952  0.00  0.00    -0.084 Cl
ATOM     28  C   UNL d   1       1.960  -1.357  -5.345  0.00  0.00     0.020 A 
ENDBRANCH  21  22
ENDBRANCH   2  21
BRANCH   1  29
ATOM     29  C   UNL d   1       1.091   0.385   0.264  0.00  0.00     0.418 C 
ATOM     30  F   UNL d   1       1.112  -0.928   0.613  0.00  0.00    -0.166 F 
ATOM     31  F   UNL d   1       0.310   1.006   1.190  0.00  0.00    -0.166 F 
ATOM     32  F   UNL d   1       2.355   0.848   0.469  0.00  0.00    -0.166 F 
ENDBRANCH   1  29
TORSDOF 8
