REMARK  6 active torsions:
REMARK  status: ('A' for Active; 'I' for Inactive)
REMARK    1  A    between atoms: N_7  and  C_1 
REMARK    2  A    between atoms: C_12  and  N_7 
REMARK    3  A    between atoms: N_11  and  C_15 
REMARK    4  A    between atoms: C_16  and  N_11 
REMARK    5  A    between atoms: C_17  and  N_11 
REMARK    6  A    between atoms: C_15  and  C_12 
ROOT
ATOM      1  C   UNL d   1      -1.828  -1.488   0.342  0.00  0.00     0.086 A 
ATOM      2  C   UNL d   1      -0.696  -0.768   0.450  0.00  0.00     0.110 A 
ATOM      3  C   UNL d   1      -2.934  -1.258   1.333  0.00  0.00     0.206 A 
ATOM      4  C   UNL d   1      -0.463   0.218   1.537  0.00  0.00     0.206 A 
ATOM      5  C   UNL d   1      -2.686  -0.367   2.481  0.00  0.00     0.030 A 
ATOM      6  C   UNL d   1      -1.490   0.335   2.585  0.00  0.00     0.030 A 
ATOM      7  O   UNL d   1       0.549   0.908   1.604  0.00  0.00    -0.286 OA
ATOM      8  O   UNL d   1      -4.005  -1.839   1.214  0.00  0.00    -0.285 OA
ATOM      9 CL   UNL d   1       0.598  -0.949  -0.693  0.00  0.00    -0.078 Cl
ATOM     10  C   UNL d   1      -3.658  -0.241   3.486  0.00  0.00     0.016 A 
ATOM     11  C   UNL d   1      -1.256   1.154   3.700  0.00  0.00     0.016 A 
ATOM     12  C   UNL d   1      -2.218   1.270   4.703  0.00  0.00     0.001 A 
ATOM     13  C   UNL d   1      -3.421   0.575   4.595  0.00  0.00     0.001 A 
ENDROOT
BRANCH   1  14
ATOM     14  N   UNL d   1      -2.086  -2.472  -0.632  0.00  0.00    -0.286 NA
ATOM     15  H   UNL d   1      -3.104  -2.550  -0.769  0.00  0.00     0.127 HD
BRANCH  14  16
ATOM     16  C   UNL d   1      -1.559  -3.835  -0.424  0.00  0.00     0.123 C 
BRANCH  16  17
ATOM     17  C   UNL d   1      -2.673  -4.908  -0.537  0.00  0.00     0.287 C 
BRANCH  17  18
ATOM     18  N   UNL d   1      -3.387  -4.992  -1.833  0.00  0.00     0.088 N 
BRANCH  18  19
ATOM     19  C   UNL d   1      -2.487  -5.206  -2.979  0.00  0.00     0.268 C 
ATOM     20  C   UNL d   1      -1.762  -6.550  -3.033  0.00  0.00     0.037 C 
ENDBRANCH  18  19
BRANCH  18  21
ATOM     21  C   UNL d   1      -4.471  -5.988  -1.732  0.00  0.00     0.268 C 
ATOM     22  C   UNL d   1      -5.339  -6.117  -2.981  0.00  0.00     0.037 C 
ENDBRANCH  18  21
ENDBRANCH  17  18
ENDBRANCH  16  17
ENDBRANCH  14  16
ENDBRANCH   1  14
TORSDOF 6
