REMARK  5 active torsions:
REMARK  status: ('A' for Active; 'I' for Inactive)
REMARK    1  A    between atoms: N_3  and  S_1 
REMARK    2  A    between atoms: C_4  and  S_1 
REMARK    3  A    between atoms: C_2  and  C_6 
REMARK    4  A    between atoms: C_14  and  N_3 
REMARK    5  A    between atoms: N_5  and  C_10 
ROOT
ATOM      1  N   UNL d   1       0.493  -1.345   0.804  0.00  0.00    -0.281 N 
ATOM      2  H   UNL d   1       0.752  -0.561   0.210  0.00  0.00     0.179 HD
ENDROOT
BRANCH   1   3
ATOM      3  S   UNL d   1       0.753  -1.000   2.449  0.00  0.00     0.263 S 
ATOM      4  O   UNL d   1       0.136  -2.018   3.267  0.00  0.00    -0.200 OA
ATOM      5  O   UNL d   1       0.436   0.403   2.624  0.00  0.00    -0.200 OA
BRANCH   3   6
ATOM      6  C   UNL d   1       2.525  -1.155   2.619  0.00  0.00     0.080 A 
ATOM      7  C   UNL d   1       3.090  -2.365   3.043  0.00  0.00     0.041 A 
ATOM      8  C   UNL d   1       4.487  -2.503   3.099  0.00  0.00     0.049 A 
ATOM      9  C   UNL d   1       5.293  -1.399   2.764  0.00  0.00     0.016 A 
ATOM     10  C   UNL d   1       4.721  -0.183   2.385  0.00  0.00     0.002 A 
ATOM     11  C   UNL d   1       3.335  -0.056   2.314  0.00  0.00     0.025 A 
BRANCH   8  12
ATOM     12  C   UNL d   1       5.138  -3.811   3.482  0.00  0.00     0.417 C 
ATOM     13  F   UNL d   1       4.253  -4.803   3.771  0.00  0.00    -0.166 F 
ATOM     14  F   UNL d   1       5.930  -4.299   2.486  0.00  0.00    -0.166 F 
ATOM     15  F   UNL d   1       5.943  -3.692   4.573  0.00  0.00    -0.166 F 
ENDBRANCH   8  12
ENDBRANCH   3   6
ENDBRANCH   1   3
BRANCH   1  16
ATOM     16  C   UNL d   1       0.832  -2.649   0.345  0.00  0.00     0.042 A 
ATOM     17  C   UNL d   1      -0.111  -3.664   0.430  0.00  0.00     0.032 A 
ATOM     18  C   UNL d   1       0.255  -4.981   0.129  0.00  0.00     0.031 A 
ATOM     19  C   UNL d   1       1.577  -5.314  -0.204  0.00  0.00     0.030 A 
ATOM     20  C   UNL d   1       2.495  -4.261  -0.326  0.00  0.00     0.031 A 
ATOM     21  C   UNL d   1       2.127  -2.936  -0.076  0.00  0.00     0.032 A 
BRANCH  19  22
ATOM     22  N   UNL d   1       1.957  -6.635  -0.325  0.00  0.00    -0.381 N 
ATOM     23  C   UNL d   1       3.265  -7.086   0.143  0.00  0.00     0.123 C 
ATOM     24  C   UNL d   1       3.072  -8.389   0.920  0.00  0.00     0.020 C 
ATOM     25  C   UNL d   1       2.342  -9.436   0.080  0.00  0.00     0.003 C 
ATOM     26  C   UNL d   1       1.033  -8.886  -0.491  0.00  0.00     0.020 C 
ATOM     27  C   UNL d   1       1.235  -7.550  -1.207  0.00  0.00     0.123 C 
ENDBRANCH  19  22
ENDBRANCH   1  16
TORSDOF 5
