REMARK  10 active torsions:
REMARK  status: ('A' for Active; 'I' for Inactive)
REMARK    1  A    between atoms: C_6  and  C_1 
REMARK    2  A    between atoms: C_2  and  C_5 
REMARK    3  A    between atoms: N_8  and  C_3 
REMARK    4  A    between atoms: C_4  and  N_7 
REMARK    5  A    between atoms: N_21  and  C_4 
REMARK    6  A    between atoms: N_7  and  C_14 
REMARK    7  A    between atoms: C_13  and  N_8 
REMARK    8  A    between atoms: C_29  and  N_21 
REMARK    9  A    between atoms: N_22  and  C_30 
REMARK   10  A    between atoms: C_30  and  C_29 
ROOT
ATOM      1  C   UNL d   1      -1.738  -5.796  -3.231  0.00  0.00     0.141 C 
ENDROOT
BRANCH   1   2
ATOM      2  N   UNL d   1      -2.400  -5.779  -1.932  0.00  0.00    -0.365 N 
ATOM      3  H   UNL d   1      -3.159  -6.441  -1.774  0.00  0.00     0.161 HD
BRANCH   2   4
ATOM      4  C   UNL d   1      -2.005  -5.098  -0.806  0.00  0.00     0.172 C 
ATOM      5  S   UNL d   1      -2.846  -5.419   0.594  0.00  0.00    -0.041 SA
BRANCH   4   6
ATOM      6  N   UNL d   1      -0.956  -4.239  -1.016  0.00  0.00    -0.333 N 
ATOM      7  H   UNL d   1      -0.881  -3.927  -1.973  0.00  0.00     0.168 HD
BRANCH   6   8
ATOM      8  C   UNL d   1       0.033  -3.699  -0.169  0.00  0.00     0.035 A 
ATOM      9  C   UNL d   1       0.970  -2.854  -0.786  0.00  0.00     0.045 A 
ATOM     10  C   UNL d   1       2.078  -2.351  -0.087  0.00  0.00     0.050 A 
ATOM     11  C   UNL d   1       2.226  -2.676   1.266  0.00  0.00     0.016 A 
ATOM     12  C   UNL d   1       1.291  -3.494   1.893  0.00  0.00     0.003 A 
ATOM     13  C   UNL d   1       0.206  -4.013   1.176  0.00  0.00     0.029 A 
BRANCH  10  14
ATOM     14  C   UNL d   1       3.118  -1.514  -0.783  0.00  0.00     0.417 C 
ATOM     15  F   UNL d   1       2.824  -1.259  -2.090  0.00  0.00    -0.166 F 
ATOM     16  F   UNL d   1       4.345  -2.107  -0.792  0.00  0.00    -0.166 F 
ATOM     17  F   UNL d   1       3.294  -0.298  -0.200  0.00  0.00    -0.166 F 
ENDBRANCH  10  14
ENDBRANCH   6   8
ENDBRANCH   4   6
ENDBRANCH   2   4
ENDBRANCH   1   2
BRANCH   1  18
ATOM     18  C   UNL d   1      -2.396  -6.741  -4.233  0.00  0.00     0.141 C 
BRANCH  18  19
ATOM     19  N   UNL d   1      -2.185  -8.150  -3.922  0.00  0.00    -0.365 N 
ATOM     20  C   UNL d   1      -2.665  -9.191  -4.660  0.00  0.00     0.172 C 
ATOM     21  S   UNL d   1      -3.982  -9.116  -5.689  0.00  0.00    -0.041 SA
ATOM     22  H   UNL d   1      -1.637  -8.392  -3.103  0.00  0.00     0.161 HD
BRANCH  20  23
ATOM     23  N   UNL d   1      -2.028 -10.393  -4.534  0.00  0.00    -0.333 N 
ATOM     24  H   UNL d   1      -2.581 -11.160  -4.903  0.00  0.00     0.168 HD
BRANCH  23  25
ATOM     25  C   UNL d   1      -0.639 -10.662  -4.465  0.00  0.00     0.035 A 
ATOM     26  C   UNL d   1       0.351  -9.678  -4.416  0.00  0.00     0.045 A 
ATOM     27  C   UNL d   1       1.715 -10.010  -4.501  0.00  0.00     0.050 A 
ATOM     28  C   UNL d   1       2.082 -11.355  -4.632  0.00  0.00     0.016 A 
ATOM     29  C   UNL d   1       1.103 -12.347  -4.672  0.00  0.00     0.003 A 
ATOM     30  C   UNL d   1      -0.247 -12.001  -4.586  0.00  0.00     0.029 A 
BRANCH  27  31
ATOM     31  C   UNL d   1       2.767  -8.929  -4.507  0.00  0.00     0.417 C 
ATOM     32  F   UNL d   1       2.256  -7.675  -4.342  0.00  0.00    -0.166 F 
ATOM     33  F   UNL d   1       3.689  -9.087  -3.518  0.00  0.00    -0.166 F 
ATOM     34  F   UNL d   1       3.468  -8.892  -5.673  0.00  0.00    -0.166 F 
ENDBRANCH  27  31
ENDBRANCH  23  25
ENDBRANCH  20  23
ENDBRANCH  18  19
ENDBRANCH   1  18
TORSDOF 10
