REMARK  5 active torsions:
REMARK  status: ('A' for Active; 'I' for Inactive)
REMARK    1  A    between atoms: S_13  and  C_2 
REMARK    2  A    between atoms: N_15  and  C_3 
REMARK    3  A    between atoms: C_16  and  C_8 
REMARK    4  A    between atoms: O_11  and  C_16 
REMARK    5  A    between atoms: C_12  and  O_11 
ROOT
ATOM      1  C   UNL d   1      -0.502  -0.356  -0.149  0.00  0.00     0.116 A 
ATOM      2  C   UNL d   1       0.315  -1.473  -0.100  0.00  0.00     0.095 A 
ATOM      3  C   UNL d   1       0.147   0.865  -0.182  0.00  0.00     0.103 A 
ATOM      4  N   UNL d   1       1.664  -1.389  -0.082  0.00  0.00    -0.337 N 
ATOM      5  HN  UNL d   1       2.247  -2.224  -0.033  1.00  0.00     0.168 HD
ATOM      6  N   UNL d   1       1.484   0.975  -0.180  0.00  0.00    -0.334 N 
ATOM      7  HN  UNL d   1       1.939   1.888  -0.213  1.00  0.00     0.168 HD
ATOM      8  C   UNL d   1       2.205  -0.161  -0.133  0.00  0.00     0.108 A 
ATOM      9  C   UNL d   1      -1.928  -0.431  -0.132  0.00  0.00     0.105 C 
ATOM     10  N   UNL d   1      -3.086  -0.460  -0.079  0.00  0.00    -0.191 NA
ENDROOT
BRANCH   2  11
ATOM     11  S   UNL d   1      -0.368  -3.132  -0.013  0.00  0.00    -0.115 SA
ATOM     12  C   UNL d   1       1.145  -4.130   0.005  0.00  0.00     0.097 C 
ENDBRANCH   2  11
BRANCH   3  13
ATOM     13  N   UNL d   1      -0.527   2.083  -0.266  0.00  0.00    -0.287 NA
ATOM     14  H   UNL d   1      -1.253   2.206   0.433  0.00  0.00     0.125 HD
ATOM     15  H   UNL d   1       0.158   2.835  -0.240  0.00  0.00     0.125 HD
ENDBRANCH   3  13
BRANCH   8  16
ATOM     16  C   UNL d   1       3.710  -0.032  -0.027  0.00  0.00     0.252 C 
BRANCH  16  17
ATOM     17  O   UNL d   1       4.310   0.054  -1.324  0.00  0.00    -0.342 OA
BRANCH  17  18
ATOM     18  C   UNL d   1       5.671   0.238  -1.333  0.00  0.00     0.090 A 
ATOM     19  C   UNL d   1       6.409  -0.335  -2.380  0.00  0.00     0.067 A 
ATOM     20 CL   UNL d   1       5.650  -1.306  -3.591  0.00  0.00    -0.081 Cl
ATOM     21  C   UNL d   1       7.794  -0.146  -2.463  0.00  0.00     0.026 A 
ATOM     22  C   UNL d   1       8.452   0.627  -1.507  0.00  0.00     0.002 A 
ATOM     23  C   UNL d   1       7.727   1.214  -0.475  0.00  0.00     0.003 A 
ATOM     24  C   UNL d   1       6.345   1.027  -0.392  0.00  0.00     0.038 A 
ENDBRANCH  17  18
ENDBRANCH  16  17
ENDBRANCH   8  16
TORSDOF 5
