REMARK  4 active torsions:
REMARK  status: ('A' for Active; 'I' for Inactive)
REMARK       I    between atoms: C_2  and  N_1 
REMARK    1  A    between atoms: O_14  and  C_2 
REMARK       I    between atoms: C_3  and  N_5 
REMARK       I    between atoms: N_4  and  C_3 
REMARK    2  A    between atoms: C_13  and  N_4 
REMARK    3  A    between atoms: N_5  and  C_12 
REMARK    4  A    between atoms: C_21  and  O_14 
ROOT
ATOM      1  C   UNL d   1      -1.302  -0.372  -2.939  0.00  0.00     0.321 C 
ATOM      2  N   UNL d   1      -2.071  -0.012  -4.023  0.00  0.00    -0.309 N 
ATOM      3  N   UNL d   1      -1.845   0.094  -1.768  0.00  0.00    -0.338 N 
ATOM      4  O   UNL d   1      -0.268  -1.020  -2.986  0.00  0.00    -0.247 OA
ATOM      5  H   UNL d   1      -2.640   0.812  -3.904  0.00  0.00     0.170 HD
ATOM      6  H   UNL d   1      -2.777   0.478  -1.820  0.00  0.00     0.164 HD
ENDROOT
BRANCH   3   7
ATOM      7  C   UNL d   1      -1.242   0.022  -0.436  0.00  0.00     0.089 C 
ATOM      8  C   UNL d   1      -0.299   1.205  -0.182  0.00  0.00     0.045 C 
ATOM      9  C   UNL d   1       1.132   0.903  -0.590  0.00  0.00     0.130 C 
ATOM     10  N   UNL d   1       1.572  -0.296   0.096  0.00  0.00    -0.328 N 
ATOM     11  C   UNL d   1       2.695  -0.261   0.896  0.00  0.00     0.362 C 
ATOM     12  C   UNL d   1       0.849  -1.511  -0.252  0.00  0.00     0.130 C 
ATOM     13  O   UNL d   1       3.362   0.747   1.097  0.00  0.00    -0.238 OA
ATOM     14  C   UNL d   1      -0.656  -1.345  -0.031  0.00  0.00     0.045 C 
BRANCH  11  15
ATOM     15  O   UNL d   1       2.986  -1.478   1.427  0.00  0.00    -0.304 OA
BRANCH  15  16
ATOM     16  C   UNL d   1       4.273  -1.594   2.045  0.00  0.00     0.176 C 
ATOM     17  C   UNL d   1       5.271  -2.011   0.981  0.00  0.00     0.034 C 
ENDBRANCH  15  16
ENDBRANCH  11  15
ENDBRANCH   3   7
BRANCH   2  18
ATOM     18  C   UNL d   1      -1.953  -0.518  -5.332  0.00  0.00     0.036 A 
ATOM     19  C   UNL d   1      -1.254  -1.690  -5.638  0.00  0.00     0.032 A 
ATOM     20  C   UNL d   1      -1.219  -2.175  -6.947  0.00  0.00     0.044 A 
ATOM     21  C   UNL d   1      -1.884  -1.484  -7.949  0.00  0.00     0.116 A 
ATOM     22  C   UNL d   1      -2.579  -0.316  -7.669  0.00  0.00     0.044 A 
ATOM     23  F   UNL d   1      -1.863  -1.953  -9.206  0.00  0.00    -0.206 F 
ATOM     24  C   UNL d   1      -2.619   0.167  -6.358  0.00  0.00     0.032 A 
ENDBRANCH   2  18
TORSDOF 4
