REMARK  5 active torsions:
REMARK  status: ('A' for Active; 'I' for Inactive)
REMARK    1  A    between atoms: C_3  and  C_1 
REMARK       I    between atoms: N_9  and  C_3 
REMARK    2  A    between atoms: C_6  and  O_12 
REMARK       I    between atoms: C_8  and  N_10 
REMARK    3  A    between atoms: C_11  and  C_8 
REMARK    4  A    between atoms: N_10  and  N_9 
REMARK    5  A    between atoms: O_12  and  C_15 
ROOT
ATOM      1  C   UNL d   1      -2.392  -0.258  -0.011  0.00  0.00     0.103 A 
ATOM      2  N   UNL d   1      -1.624   0.892   0.012  0.00  0.00    -0.351 N 
ATOM      3  C   UNL d   1      -1.499  -1.316   0.023  0.00  0.00     0.049 A 
ATOM      4  C   UNL d   1      -0.174  -0.792   0.016  0.00  0.00    -0.004 A 
ATOM      5  C   UNL d   1      -0.281   0.595   0.019  0.00  0.00     0.043 A 
ATOM      6  C   UNL d   1       1.113  -1.366   0.004  0.00  0.00     0.051 A 
ATOM      7  C   UNL d   1       2.253  -0.548  -0.020  0.00  0.00     0.079 A 
ATOM      8  C   UNL d   1       0.840   1.435   0.032  0.00  0.00     0.033 A 
ATOM      9  C   UNL d   1       2.111   0.837   0.028  0.00  0.00     0.039 A 
ATOM     10  H   UNL d   1      -2.015   1.824   0.002  0.00  0.00     0.166 HD
ENDROOT
BRANCH   1  11
ATOM     11  C   UNL d   1      -3.838  -0.196  -0.079  0.00  0.00     0.286 C 
ATOM     12  N   UNL d   1      -4.506  -1.408  -0.065  0.00  0.00    -0.262 N 
ATOM     13  H   UNL d   1      -4.052  -2.305   0.084  0.00  0.00     0.190 HD
ATOM     14  O   UNL d   1      -4.447   0.869  -0.157  0.00  0.00    -0.264 OA
BRANCH  12  15
ATOM     15  N   UNL d   1      -5.910  -1.409  -0.113  0.00  0.00    -0.263 N 
ATOM     16  C   UNL d   1      -6.573  -2.620  -0.076  0.00  0.00     0.270 C 
ATOM     17  O   UNL d   1      -5.991  -3.699  -0.013  0.00  0.00    -0.266 OA
ATOM     18  H   UNL d   1      -6.354  -0.530  -0.372  0.00  0.00     0.190 HD
BRANCH  16  19
ATOM     19  C   UNL d   1      -8.062  -2.563  -0.123  0.00  0.00     0.033 A 
ATOM     20  C   UNL d   1      -8.764  -3.631  -0.704  0.00  0.00     0.019 A 
ATOM     21  C   UNL d   1     -10.162  -3.635  -0.712  0.00  0.00     0.025 A 
ATOM     22  C   UNL d   1     -10.863  -2.580  -0.130  0.00  0.00     0.034 A 
ATOM     23  C   UNL d   1     -10.174  -1.515   0.453  0.00  0.00     0.025 A 
ATOM     24 CL   UNL d   1     -12.583  -2.596  -0.113  0.00  0.00    -0.084 Cl
ATOM     25  C   UNL d   1      -8.775  -1.504   0.456  0.00  0.00     0.019 A 
ENDBRANCH  16  19
ENDBRANCH  12  15
ENDBRANCH   1  11
BRANCH   7  26
ATOM     26  O   UNL d   1       3.435  -1.224   0.006  0.00  0.00    -0.255 OA
BRANCH  26  27
ATOM     27  C   UNL d   1       4.559  -0.718  -0.700  0.00  0.00     0.530 C 
ATOM     28  F   UNL d   1       4.356   0.468  -1.310  0.00  0.00    -0.144 F 
ATOM     29  F   UNL d   1       5.593  -0.585   0.161  0.00  0.00    -0.144 F 
ATOM     30  F   UNL d   1       4.918  -1.616  -1.645  0.00  0.00    -0.144 F 
ENDBRANCH  26  27
ENDBRANCH   7  26
TORSDOF 5
