REMARK  5 active torsions:
REMARK  status: ('A' for Active; 'I' for Inactive)
REMARK    1  A    between atoms: C_2  and  C_1 
REMARK    2  A    between atoms: S_5  and  C_1 
REMARK    3  A    between atoms: C_4  and  C_2 
REMARK    4  A    between atoms: N_13  and  C_3 
REMARK    5  A    between atoms: C_15  and  S_5 
ROOT
ATOM      1  C   UNL d   1       0.875   0.152  -0.002  0.00  0.00     0.071 C 
ATOM      2  C   UNL d   1       0.074  -0.904  -0.251  0.00  0.00     0.107 C 
ENDROOT
BRANCH   1   3
ATOM      3  C   UNL d   1       2.381   0.018  -0.107  0.00  0.00     0.200 C 
ATOM      4  O   UNL d   1       3.126   0.680   0.626  0.00  0.00    -0.286 OA
BRANCH   3   5
ATOM      5  C   UNL d   1       3.030  -0.905  -1.086  0.00  0.00     0.018 A 
ATOM      6  C   UNL d   1       2.421  -1.338  -2.273  0.00  0.00     0.055 A 
ATOM      7  C   UNL d   1       3.086  -2.236  -3.114  0.00  0.00     0.103 A 
ATOM      8  O   UNL d   1       2.388  -2.684  -4.208  0.00  0.00    -0.346 OA
ATOM      9  C   UNL d   1       4.395  -2.636  -2.832  0.00  0.00     0.102 A 
ATOM     10  C   UNL d   1       3.013  -3.839  -4.786  0.00  0.00     0.202 C 
ATOM     11  C   UNL d   1       4.508  -3.615  -4.929  0.00  0.00     0.202 C 
ATOM     12  O   UNL d   1       5.118  -3.474  -3.640  0.00  0.00    -0.346 OA
ATOM     13  C   UNL d   1       5.024  -2.184  -1.677  0.00  0.00     0.040 A 
ATOM     14  C   UNL d   1       4.343  -1.325  -0.808  0.00  0.00     0.018 A 
ENDBRANCH   3   5
ENDBRANCH   1   3
BRANCH   1  15
ATOM     15  S   UNL d   1       0.310   1.779   0.237  0.00  0.00    -0.085 SA
BRANCH  15  16
ATOM     16  C   UNL d   1       0.112   1.922   2.012  0.00  0.00     0.005 A 
ATOM     17  C   UNL d   1       0.992   1.381   2.956  0.00  0.00     0.020 A 
ATOM     18  C   UNL d   1       0.813   1.623   4.326  0.00  0.00     0.025 A 
ATOM     19  C   UNL d   1      -0.250   2.411   4.761  0.00  0.00     0.034 A 
ATOM     20  C   UNL d   1      -1.140   2.951   3.839  0.00  0.00     0.025 A 
ATOM     21 CL   UNL d   1      -0.449   2.737   6.437  0.00  0.00    -0.084 Cl
ATOM     22  C   UNL d   1      -0.956   2.709   2.474  0.00  0.00     0.020 A 
ENDBRANCH  15  16
ENDBRANCH   1  15
BRANCH   2  23
ATOM     23  N   UNL d   1      -1.303  -1.087  -0.363  0.00  0.00    -0.397 N 
ATOM     24  C   UNL d   1      -2.311  -0.335   0.376  0.00  0.00     0.148 C 
ATOM     25  C   UNL d   1      -1.859  -1.995  -1.370  0.00  0.00     0.148 C 
ENDBRANCH   2  23
TORSDOF 5
