REMARK  5 active torsions:
REMARK  status: ('A' for Active; 'I' for Inactive)
REMARK       I    between atoms: C_2  and  N_1 
REMARK    1  A    between atoms: C_5  and  N_1 
REMARK    2  A    between atoms: C_9  and  N_1 
REMARK    3  A    between atoms: C_3  and  C_2 
REMARK    4  A    between atoms: C_4  and  C_5 
REMARK    5  A    between atoms: C_17  and  C_9 
ROOT
ATOM      1  N   UNL d   1       0.781  -0.002  -0.237  0.00  0.00    -0.339 N 
ATOM      2  C   UNL d   1       0.154  -0.508  -1.389  0.00  0.00     0.261 C 
ATOM      3  O   UNL d   1       0.766  -1.309  -2.103  0.00  0.00    -0.267 OA
ENDROOT
BRANCH   1   4
ATOM      4  C   UNL d   1       0.154   0.804   0.813  0.00  0.00     0.166 C 
BRANCH   4   5
ATOM      5  C   UNL d   1      -0.558   0.061   1.927  0.00  0.00    -0.018 A 
ATOM      6  C   UNL d   1      -1.164   0.800   2.968  0.00  0.00     0.043 A 
ATOM      7  C   UNL d   1      -1.769   0.168   4.057  0.00  0.00     0.048 A 
ATOM      8 CL   UNL d   1      -1.181   2.532   2.958  0.00  0.00    -0.084 Cl
ATOM      9  C   UNL d   1      -1.786  -1.219   4.119  0.00  0.00     0.035 A 
ATOM     10  C   UNL d   1      -1.224  -1.975   3.092  0.00  0.00     0.024 A 
ATOM     11 CL   UNL d   1      -2.492  -2.002   5.479  0.00  0.00    -0.084 Cl
ATOM     12  C   UNL d   1      -0.614  -1.341   2.002  0.00  0.00     0.012 A 
ENDBRANCH   4   5
ENDBRANCH   1   4
BRANCH   1  13
ATOM     13  C   UNL d   1       2.217  -0.248  -0.095  0.00  0.00     0.166 C 
BRANCH  13  14
ATOM     14  C   UNL d   1       3.039   0.944  -0.525  0.00  0.00    -0.025 A 
ATOM     15  C   UNL d   1       3.813   1.651   0.389  0.00  0.00     0.096 A 
ATOM     16  N   UNL d   1       4.576   2.722   0.074  0.00  0.00    -0.375 N 
ATOM     17  C   UNL d   1       4.577   3.109  -1.219  0.00  0.00     0.087 A 
ATOM     18  HN  UNL d   1       5.125   3.213   0.779  1.00  0.00     0.164 HD
ATOM     19  C   UNL d   1       3.842   2.481  -2.210  0.00  0.00     0.018 A 
ATOM     20  C   UNL d   1       3.061   1.383  -1.855  0.00  0.00     0.011 A 
ENDBRANCH  13  14
ENDBRANCH   1  13
BRANCH   2  21
ATOM     21  C   UNL d   1      -1.193  -0.081  -1.742  0.00  0.00     0.072 A 
ATOM     22  S   UNL d   1      -2.262  -1.246  -2.425  0.00  0.00    -0.097 SA
ATOM     23  C   UNL d   1      -3.496  -0.089  -2.666  0.00  0.00     0.050 A 
ATOM     24  C   UNL d   1      -3.119   1.162  -2.238  0.00  0.00     0.009 A 
ATOM     25  C   UNL d   1      -1.778   1.175  -1.752  0.00  0.00     0.025 A 
ENDBRANCH   2  21
TORSDOF 5
