REMARK  5 active torsions:
REMARK  status: ('A' for Active; 'I' for Inactive)
REMARK    1  A    between atoms: O_16  and  C_1 
REMARK    2  A    between atoms: C_2  and  O_15 
REMARK    3  A    between atoms: O_15  and  C_19 
REMARK    4  A    between atoms: C_20  and  O_16 
REMARK    5  A    between atoms: C_19  and  C_20 
ROOT
ATOM      1  C   UNL d   1       3.281  -3.885   0.185  0.00  0.00     0.202 C 
ENDROOT
BRANCH   1   2
ATOM      2  O   UNL d   1       4.698  -4.031   0.076  0.00  0.00    -0.347 OA
BRANCH   2   3
ATOM      3  C   UNL d   1       5.174  -5.317   0.103  0.00  0.00     0.092 A 
ATOM      4  C   UNL d   1       4.484  -6.403  -0.446  0.00  0.00     0.062 A 
ATOM      5  C   UNL d   1       5.049  -7.679  -0.419  0.00  0.00     0.036 A 
ATOM      6 CL   UNL d   1       4.187  -9.004  -1.098  0.00  0.00    -0.084 Cl
ATOM      7  C   UNL d   1       6.306  -7.889   0.144  0.00  0.00     0.026 A 
ATOM      8  C   UNL d   1       7.010  -6.810   0.678  0.00  0.00     0.028 A 
ATOM      9  C   UNL d   1       6.449  -5.528   0.652  0.00  0.00     0.067 A 
ATOM     10 CL   UNL d   1       7.365  -4.228   1.330  0.00  0.00    -0.081 Cl
ENDBRANCH   2   3
ENDBRANCH   1   2
BRANCH   1  11
ATOM     11  C   UNL d   1       2.935  -2.397   0.199  0.00  0.00     0.202 C 
BRANCH  11  12
ATOM     12  O   UNL d   1       1.523  -2.275   0.306  0.00  0.00    -0.347 OA
BRANCH  12  13
ATOM     13  C   UNL d   1       0.916  -1.051   0.311  0.00  0.00     0.092 A 
ATOM     14  C   UNL d   1      -0.477  -1.184   0.460  0.00  0.00     0.062 A 
ATOM     15  C   UNL d   1      -1.313  -0.069   0.493  0.00  0.00     0.036 A 
ATOM     16 CL   UNL d   1      -3.010  -0.273   0.679  0.00  0.00    -0.084 Cl
ATOM     17  C   UNL d   1      -0.779   1.206   0.377  0.00  0.00     0.026 A 
ATOM     18  C   UNL d   1       0.600   1.357   0.226  0.00  0.00     0.028 A 
ATOM     19  C   UNL d   1       1.453   0.240   0.192  0.00  0.00     0.067 A 
ATOM     20 CL   UNL d   1       3.127   0.619  -0.004  0.00  0.00    -0.081 Cl
ENDBRANCH  12  13
ENDBRANCH  11  12
ENDBRANCH   1  11
TORSDOF 5
