REMARK  6 active torsions:
REMARK  status: ('A' for Active; 'I' for Inactive)
REMARK    1  A    between atoms: C_4  and  C_1 
REMARK    2  A    between atoms: C_15  and  C_2 
REMARK    3  A    between atoms: C_10  and  C_5 
REMARK    4  A    between atoms: N_12  and  N_8 
REMARK    5  A    between atoms: C_17  and  C_11 
REMARK    6  A    between atoms: C_16  and  N_12 
ROOT
ATOM      1  N   UNL d   1       5.627  -2.844  -0.257  0.00  0.00    -0.310 N 
ATOM      2  HN  UNL d   1       4.737  -3.333  -0.357  1.00  0.00     0.186 HD
ATOM      3  C   UNL d   1       5.699  -1.556  -0.131  0.00  0.00     0.126 C 
ENDROOT
BRANCH   3   4
ATOM      4  C   UNL d   1       4.505  -0.745  -0.088  0.00  0.00     0.023 A 
ATOM      5  C   UNL d   1       3.176  -1.127  -0.137  0.00  0.00     0.041 A 
ATOM      6  C   UNL d   1       2.287  -0.012  -0.071  0.00  0.00     0.025 A 
ATOM      7  C   UNL d   1       2.970   1.180   0.029  0.00  0.00     0.071 A 
ATOM      8  S   UNL d   1       4.665   0.953   0.048  0.00  0.00    -0.099 SA
BRANCH   6   9
ATOM      9  C   UNL d   1       0.858  -0.073  -0.115  0.00  0.00    -0.061 C 
ATOM     10  C   UNL d   1      -0.345  -0.079  -0.178  0.00  0.00    -0.061 C 
BRANCH  10  11
ATOM     11  C   UNL d   1      -1.771  -0.063  -0.299  0.00  0.00     0.018 A 
ATOM     12  C   UNL d   1      -2.474  -1.260  -0.455  0.00  0.00     0.020 A 
ATOM     13  C   UNL d   1      -3.861  -1.242  -0.624  0.00  0.00     0.001 A 
ATOM     14  C   UNL d   1      -4.550  -0.029  -0.633  0.00  0.00     0.000 A 
ATOM     15  C   UNL d   1      -3.854   1.166  -0.463  0.00  0.00     0.001 A 
ATOM     16  C   UNL d   1      -2.466   1.151  -0.295  0.00  0.00     0.020 A 
ENDBRANCH  10  11
ENDBRANCH   6   9
ENDBRANCH   3   4
BRANCH   1  17
ATOM     17  N   UNL d   1       6.829  -3.504  -0.245  0.00  0.00    -0.301 N 
ATOM     18  H   UNL d   1       7.530  -3.193   0.427  0.00  0.00     0.187 HD
BRANCH  17  19
ATOM     19  C   UNL d   1       6.756  -4.916  -0.328  0.00  0.00     0.048 A 
ATOM     20  C   UNL d   1       5.728  -5.548  -1.034  0.00  0.00     0.031 A 
ATOM     21  C   UNL d   1       5.649  -6.942  -1.109  0.00  0.00     0.010 A 
ATOM     22  C   UNL d   1       6.603  -7.749  -0.477  0.00  0.00    -0.055 A 
ATOM     23  C   UNL d   1       7.671  -7.119   0.178  0.00  0.00     0.010 A 
ATOM     24  C   UNL d   1       7.753  -5.719   0.239  0.00  0.00     0.031 A 
BRANCH  22  25
ATOM     25  C   UNL d   1       6.472  -9.263  -0.466  0.00  0.00     0.010 C 
ATOM     26  C   UNL d   1       5.144  -9.699   0.167  0.00  0.00     0.015 C 
ATOM     27  C   UNL d   1       6.614  -9.872  -1.863  0.00  0.00     0.015 C 
ENDBRANCH  22  25
ENDBRANCH  17  19
ENDBRANCH   1  17
TORSDOF 6
