REMARK  3 active torsions:
REMARK  status: ('A' for Active; 'I' for Inactive)
REMARK    1  A    between atoms: N_10  and  C_3 
REMARK    2  A    between atoms: C_11  and  C_8 
REMARK    3  A    between atoms: O_14  and  C_9 
ROOT
ATOM      1  N   UNL d   1      -0.678   1.155   0.018  0.00  0.00    -0.176 N 
ATOM      2  HN  UNL d   1      -1.168   2.050   0.034  1.00  0.00     0.186 HD
ATOM      3  C   UNL d   1      -1.341  -0.001   0.022  0.00  0.00     0.684 A 
ATOM      4  N   UNL d   1      -0.717  -1.172   0.002  0.00  0.00    -0.155 N 
ATOM      5  HN  UNL d   1      -1.220  -2.060   0.003  1.00  0.00     0.188 HD
ATOM      6  N   UNL d   1       1.363  -0.035  -0.027  0.00  0.00    -0.307 N 
ATOM      7  HN  UNL d   1       2.382  -0.065  -0.045  1.00  0.00     0.171 HD
ATOM      8  C   UNL d   1       0.657   1.093  -0.007  0.00  0.00     0.134 A 
ATOM      9  C   UNL d   1       0.600  -1.107  -0.020  0.00  0.00     0.237 A 
ENDROOT
BRANCH   8  10
ATOM     10  C   UNL d   1       1.406   2.369  -0.025  0.00  0.00     0.009 A 
ATOM     11  C   UNL d   1       2.815   2.394  -0.095  0.00  0.00     0.017 A 
ATOM     12  C   UNL d   1       3.527   3.598  -0.125  0.00  0.00     0.025 A 
ATOM     13  C   UNL d   1       2.842   4.807  -0.082  0.00  0.00     0.034 A 
ATOM     14  C   UNL d   1       1.453   4.820  -0.006  0.00  0.00     0.025 A 
ATOM     15 CL   UNL d   1       3.713   6.288  -0.123  0.00  0.00    -0.084 Cl
ATOM     16  C   UNL d   1       0.745   3.612   0.021  0.00  0.00     0.017 A 
ENDBRANCH   8  10
BRANCH   9  17
ATOM     17  O   UNL d   1       1.281  -2.285  -0.035  0.00  0.00    -0.332 OA
ATOM     18  H   UNL d   1       2.190  -1.946  -0.038  0.00  0.00     0.221 HD
ENDBRANCH   9  17
BRANCH   3  19
ATOM     19  N   UNL d   1      -2.717   0.019   0.068  0.00  0.00    -0.226 N 
ATOM     20  C   UNL d   1      -3.473  -1.219   0.025  0.00  0.00     0.168 C 
ATOM     21  C   UNL d   1      -3.455   1.262  -0.006  0.00  0.00     0.168 C 
ENDBRANCH   3  19
TORSDOF 3
