REMARK  3 active torsions:
REMARK  status: ('A' for Active; 'I' for Inactive)
REMARK    1  A    between atoms: C_7  and  C_6 
REMARK       I    between atoms: N_10  and  C_7 
REMARK    2  A    between atoms: C_17  and  N_10 
REMARK    3  A    between atoms: C_11  and  C_17 
ROOT
ATOM      1  C   UNL d   1      -0.756   0.760   0.062  0.00  0.00     0.005 A 
ATOM      2  C   UNL d   1      -1.162  -0.594   0.023  0.00  0.00     0.027 A 
ATOM      3  C   UNL d   1       0.035  -1.440  -0.131  0.00  0.00     0.194 A 
ATOM      4  C   UNL d   1       0.701   0.792  -0.064  0.00  0.00    -0.010 A 
ATOM      5  C   UNL d   1       1.187  -0.527  -0.161  0.00  0.00     0.026 A 
ATOM      6  C   UNL d   1      -1.750   1.722   0.228  0.00  0.00     0.044 A 
ATOM      7  O   UNL d   1       0.059  -2.651  -0.210  0.00  0.00    -0.287 OA
ATOM      8  C   UNL d   1      -2.468  -1.032   0.148  0.00  0.00     0.016 A 
ATOM      9  C   UNL d   1       1.627   1.822  -0.072  0.00  0.00     0.013 A 
ATOM     10  C   UNL d   1       2.527  -0.865  -0.241  0.00  0.00     0.016 A 
ATOM     11  C   UNL d   1      -3.083   1.291   0.423  0.00  0.00     0.018 A 
ATOM     12  C   UNL d   1      -3.441  -0.066   0.363  0.00  0.00     0.002 A 
ATOM     13  C   UNL d   1       2.995   1.512  -0.147  0.00  0.00     0.001 A 
ATOM     14  C   UNL d   1       3.443   0.182  -0.228  0.00  0.00     0.001 A 
ENDROOT
BRANCH   6  15
ATOM     15  C   UNL d   1      -1.472   3.175   0.309  0.00  0.00     0.252 C 
ATOM     16  O   UNL d   1      -0.640   3.594   1.107  0.00  0.00    -0.268 OA
ATOM     17  N   UNL d   1      -2.167   4.061  -0.481  0.00  0.00    -0.353 N 
ATOM     18  H   UNL d   1      -1.959   5.029  -0.265  0.00  0.00     0.163 HD
BRANCH  17  19
ATOM     19  C   UNL d   1      -3.239   3.797  -1.417  0.00  0.00     0.149 C 
BRANCH  19  20
ATOM     20  C   UNL d   1      -3.432   5.002  -2.277  0.00  0.00    -0.018 C 
ATOM     21  C   UNL d   1      -4.546   5.748  -2.296  0.00  0.00     0.008 C 
ENDBRANCH  19  20
ENDBRANCH  17  19
ENDBRANCH   6  15
TORSDOF 3
