REMARK  6 active torsions:
REMARK  status: ('A' for Active; 'I' for Inactive)
REMARK    1  A    between atoms: S_9  and  C_2 
REMARK    2  A    between atoms: C_11  and  C_3 
REMARK       I    between atoms: C_8  and  N_10 
REMARK    3  A    between atoms: C_12  and  C_8 
REMARK    4  A    between atoms: C_17  and  S_9 
REMARK    5  A    between atoms: N_10  and  C_11 
REMARK    6  A    between atoms: C_22  and  C_17 
ROOT
ATOM      1  N   UNL d   1       0.864   0.077  -0.010  0.00  0.00    -0.318 N 
ATOM      2  C   UNL d   1       0.007   1.143   0.046  0.00  0.00     0.162 A 
ATOM      3  C   UNL d   1       0.060  -1.042  -0.093  0.00  0.00     0.117 A 
ATOM      4  N   UNL d   1      -1.232   0.715  -0.026  0.00  0.00    -0.278 N 
ATOM      5  HN  UNL d   1      -2.069   1.298  -0.013  1.00  0.00     0.189 HD
ATOM      6  N   UNL d   1      -1.202  -0.654  -0.120  0.00  0.00    -0.285 N 
ATOM      7  HN  UNL d   1      -2.014  -1.267  -0.198  1.00  0.00     0.188 HD
ATOM      8  C   UNL d   1       2.304   0.076   0.043  0.00  0.00     0.160 C 
ENDROOT
BRANCH   3   9
ATOM      9  C   UNL d   1       0.534  -2.451  -0.067  0.00  0.00     0.201 C 
BRANCH   9  10
ATOM     10  N   UNL d   1       0.633  -2.984  -1.407  0.00  0.00    -0.350 N 
ATOM     11  C   UNL d   1       1.844  -3.159  -2.032  0.00  0.00     0.252 C 
ATOM     12  O   UNL d   1       2.908  -2.759  -1.569  0.00  0.00    -0.268 OA
ATOM     13  H   UNL d   1      -0.231  -3.161  -1.906  0.00  0.00     0.163 HD
BRANCH  11  14
ATOM     14  C   UNL d   1       1.827  -3.886  -3.327  0.00  0.00     0.032 A 
ATOM     15  C   UNL d   1       2.726  -3.500  -4.331  0.00  0.00     0.018 A 
ATOM     16  C   UNL d   1       2.787  -4.216  -5.529  0.00  0.00     0.025 A 
ATOM     17  C   UNL d   1       1.965  -5.326  -5.716  0.00  0.00     0.034 A 
ATOM     18  C   UNL d   1       1.073  -5.721  -4.718  0.00  0.00     0.025 A 
ATOM     19 CL   UNL d   1       2.065  -6.228  -7.177  0.00  0.00    -0.084 Cl
ATOM     20  C   UNL d   1       1.000  -5.000  -3.522  0.00  0.00     0.018 A 
ENDBRANCH  11  14
ENDBRANCH   9  10
ENDBRANCH   3   9
BRANCH   2  21
ATOM     21  S   UNL d   1       0.500   2.796   0.203  0.00  0.00    -0.088 SA
BRANCH  21  22
ATOM     22  C   UNL d   1      -1.032   3.528   0.855  0.00  0.00     0.121 C 
BRANCH  22  23
ATOM     23  C   UNL d   1      -0.929   5.022   1.060  0.00  0.00    -0.049 A 
ATOM     24  C   UNL d   1      -1.446   5.908   0.102  0.00  0.00     0.008 A 
ATOM     25  C   UNL d   1      -1.412   7.288   0.316  0.00  0.00     0.001 A 
ATOM     26  C   UNL d   1      -0.852   7.800   1.485  0.00  0.00     0.000 A 
ATOM     27  C   UNL d   1      -0.314   6.933   2.434  0.00  0.00     0.001 A 
ATOM     28  C   UNL d   1      -0.349   5.552   2.223  0.00  0.00     0.008 A 
ENDBRANCH  22  23
ENDBRANCH  21  22
ENDBRANCH   2  21
TORSDOF 6
