REMARK  7 active torsions:
REMARK  status: ('A' for Active; 'I' for Inactive)
REMARK    1  A    between atoms: C_5  and  N_1 
REMARK    2  A    between atoms: N_2  and  C_3 
REMARK       I    between atoms: C_4  and  N_2 
REMARK    3  A    between atoms: C_9  and  C_4 
REMARK    4  A    between atoms: C_6  and  C_11 
REMARK    5  A    between atoms: O_13  and  C_6 
REMARK    6  A    between atoms: C_7  and  C_9 
REMARK    7  A    between atoms: C_11  and  C_7 
ROOT
ATOM      1  N   UNL d   1      -1.461   1.698  -2.442  0.00  0.00    -0.325 N 
ATOM      2  C   UNL d   1      -0.373   1.179  -3.139  0.00  0.00     0.222 C 
ATOM      3  O   UNL d   1      -0.203  -0.004  -3.423  0.00  0.00    -0.273 OA
ATOM      4  H   UNL d   1      -1.725   2.613  -2.790  0.00  0.00     0.169 HD
ENDROOT
BRANCH   1   5
ATOM      5  C   UNL d   1      -2.579   0.895  -2.087  0.00  0.00     0.061 A 
ATOM      6  C   UNL d   1      -2.616   0.040  -0.954  0.00  0.00     0.057 A 
ATOM      7  C   UNL d   1      -3.854  -0.592  -0.695  0.00  0.00     0.031 A 
ATOM      8  C   UNL d   1      -4.970  -0.451  -1.524  0.00  0.00     0.002 A 
ATOM      9  C   UNL d   1      -4.891   0.356  -2.650  0.00  0.00     0.002 A 
ATOM     10  C   UNL d   1      -3.712   1.048  -2.911  0.00  0.00     0.032 A 
BRANCH   6  11
ATOM     11  N   UNL d   1      -1.535  -0.214  -0.124  0.00  0.00    -0.375 N 
ATOM     12  C   UNL d   1      -1.449  -1.467   0.647  0.00  0.00     0.149 C 
ATOM     13  C   UNL d   1       0.016  -1.919   0.682  0.00  0.00     0.187 C 
ATOM     14  O   UNL d   1       0.861  -0.907   1.260  0.00  0.00    -0.388 OA
ATOM     15  C   UNL d   1       0.773   0.310   0.493  0.00  0.00     0.187 C 
ATOM     16  C   UNL d   1      -0.672   0.842   0.422  0.00  0.00     0.149 C 
ENDBRANCH   6  11
ENDBRANCH   1   5
BRANCH   2  17
ATOM     17  C   UNL d   1       0.594   2.297  -3.562  0.00  0.00     0.112 C 
BRANCH  17  18
ATOM     18  C   UNL d   1       1.818   1.923  -4.447  0.00  0.00    -0.030 C 
ATOM     19  C   UNL d   1       2.677   3.198  -4.665  0.00  0.00     0.016 C 
ATOM     20  C   UNL d   1       2.728   0.909  -3.723  0.00  0.00     0.016 C 
BRANCH  18  21
ATOM     21  C   UNL d   1       1.413   1.317  -5.819  0.00  0.00     0.119 C 
BRANCH  21  22
ATOM     22  C   UNL d   1       0.496   2.168  -6.675  0.00  0.00     0.140 C 
ATOM     23  O   UNL d   1       0.437   3.386  -6.658  0.00  0.00    -0.650 OA
BRANCH  22  24
ATOM     24  O   UNL d   1      -0.259   1.433  -7.523  0.00  0.00    -0.776 OA
ATOM     25  H   UNL d   1      -0.124   0.469  -7.441  0.00  0.00     0.167 HD
ENDBRANCH  22  24
ENDBRANCH  21  22
ENDBRANCH  18  21
ENDBRANCH  17  18
ENDBRANCH   2  17
TORSDOF 7
