REMARK  0 active torsions:
REMARK  status: ('A' for Active; 'I' for Inactive)
ROOT
ATOM      1  N   UNL d   1      -0.004   1.283  -0.002  0.00  0.00    -0.355 N 
ATOM      2  HN  UNL d   1      -0.008   2.303  -0.002  1.00  0.00     0.166 HD
ATOM      3  C   UNL d   1       0.006  -1.482  -0.001  0.00  0.00     0.069 A 
ATOM      4  C   UNL d   1       1.236  -0.783  -0.001  0.00  0.00     0.012 A 
ATOM      5  C   UNL d   1      -1.230  -0.793  -0.001  0.00  0.00     0.012 A 
ATOM      6  C   UNL d   1      -1.165   0.610  -0.002  0.00  0.00     0.044 A 
ATOM      7  C   UNL d   1       1.161   0.619  -0.001  0.00  0.00     0.044 A 
ATOM      8  C   UNL d   1       0.011  -2.918  -0.001  0.00  0.00     0.101 C 
ATOM      9  N   UNL d   1       0.016  -4.079  -0.001  0.00  0.00    -0.191 NA
ATOM     10  C   UNL d   1       2.515  -1.403  -0.000  0.00  0.00     0.015 A 
ATOM     11  C   UNL d   1      -2.503  -1.421  -0.001  0.00  0.00     0.015 A 
ATOM     12  C   UNL d   1      -2.351   1.335  -0.002  0.00  0.00     0.030 A 
ATOM     13  C   UNL d   1       2.342   1.352  -0.001  0.00  0.00     0.030 A 
ATOM     14  C   UNL d   1      -3.678  -0.672  -0.001  0.00  0.00     0.001 A 
ATOM     15  C   UNL d   1       3.684  -0.645   0.000  0.00  0.00     0.001 A 
ATOM     16  C   UNL d   1      -3.602   0.712  -0.001  0.00  0.00     0.002 A 
ATOM     17  C   UNL d   1       3.597   0.738  -0.001  0.00  0.00     0.002 A 
ENDROOT
TORSDOF 0
