REMARK  4 active torsions:
REMARK  status: ('A' for Active; 'I' for Inactive)
REMARK    1  A    between atoms: C_11  and  C_6 
REMARK    2  A    between atoms: O_14  and  C_15 
REMARK    3  A    between atoms: C_16  and  O_14 
REMARK    4  A    between atoms: C_21  and  C_16 
ROOT
ATOM      1  C   UNL d   1      -1.289   1.424   0.637  0.00  0.00     0.058 C 
ATOM      2  C   UNL d   1       1.268   1.602   0.645  0.00  0.00     0.058 C 
ATOM      3  N   UNL d   1      -0.101   2.725   2.226  0.00  0.00    -0.361 N 
ATOM      4  C   UNL d   1       1.155   2.382   1.747  0.00  0.00     0.023 C 
ATOM      5  C   UNL d   1      -1.290   2.209   1.739  0.00  0.00     0.023 C 
ATOM      6  C   UNL d   1       0.015   1.159  -0.119  0.00  0.00     0.110 C 
ATOM      7  C   UNL d   1       2.534   1.177   0.142  0.00  0.00     0.098 C 
ATOM      8  C   UNL d   1      -2.491   0.849   0.124  0.00  0.00     0.098 C 
ATOM      9  N   UNL d   1      -3.468   0.376  -0.283  0.00  0.00    -0.192 NA
ATOM     10  N   UNL d   1       3.564   0.818  -0.257  0.00  0.00    -0.192 NA
ATOM     11  C   UNL d   1      -2.554   2.578   2.476  0.00  0.00     0.069 C 
ATOM     12  C   UNL d   1       2.322   2.947   2.519  0.00  0.00     0.069 C 
ATOM     13  H   UNL d   1      -0.139   3.266   3.087  0.00  0.00     0.165 HD
ENDROOT
BRANCH   6  14
ATOM     14  C   UNL d   1      -0.037   1.846  -1.486  0.00  0.00    -0.044 A 
ATOM     15  C   UNL d   1      -0.023   1.105  -2.676  0.00  0.00     0.011 A 
ATOM     16  C   UNL d   1      -0.064   1.760  -3.910  0.00  0.00     0.037 A 
ATOM     17  C   UNL d   1      -0.108   3.154  -3.969  0.00  0.00     0.069 A 
ATOM     18  C   UNL d   1      -0.174   3.892  -2.789  0.00  0.00     0.037 A 
ATOM     19  C   UNL d   1      -0.122   3.246  -1.560  0.00  0.00     0.011 A 
BRANCH  17  20
ATOM     20  O   UNL d   1      -0.075   3.706  -5.222  0.00  0.00    -0.347 OA
BRANCH  20  21
ATOM     21  C   UNL d   1       0.404   5.053  -5.254  0.00  0.00     0.214 C 
BRANCH  21  22
ATOM     22  C   UNL d   1       0.884   5.390  -6.639  0.00  0.00    -0.034 A 
ATOM     23  C   UNL d   1      -0.007   5.405  -7.719  0.00  0.00     0.009 A 
ATOM     24  C   UNL d   1       0.440   5.747  -8.994  0.00  0.00     0.001 A 
ATOM     25  C   UNL d   1       1.780   6.076  -9.200  0.00  0.00     0.000 A 
ATOM     26  C   UNL d   1       2.675   6.060  -8.132  0.00  0.00     0.001 A 
ATOM     27  C   UNL d   1       2.230   5.718  -6.857  0.00  0.00     0.009 A 
ENDBRANCH  21  22
ENDBRANCH  20  21
ENDBRANCH  17  20
ENDBRANCH   6  14
TORSDOF 4
