REMARK  7 active torsions:
REMARK  status: ('A' for Active; 'I' for Inactive)
REMARK    1  A    between atoms: C_2  and  S_1 
REMARK    2  A    between atoms: N_6  and  S_1 
REMARK    3  A    between atoms: S_3  and  C_4 
REMARK    4  A    between atoms: C_14  and  S_3 
REMARK    5  A    between atoms: C_9  and  C_17 
REMARK    6  A    between atoms: O_21  and  C_9 
REMARK    7  A    between atoms: C_24  and  O_21 
ROOT
ATOM      1  C   UNL d   1       0.605  -0.205  -1.905  0.00  0.00     0.116 A 
ATOM      2  C   UNL d   1       0.786  -0.878  -4.279  0.00  0.00     0.106 A 
ATOM      3  S   UNL d   1       1.806  -0.902  -2.906  0.00  0.00    -0.065 SA
ATOM      4  C   UNL d   1      -0.548   0.064  -2.619  0.00  0.00     0.034 A 
ATOM      5  C   UNL d   1      -0.450  -0.337  -3.981  0.00  0.00     0.033 A 
ENDROOT
BRANCH   1   6
ATOM      6  S   UNL d   1       1.006   0.049  -0.173  0.00  0.00     0.250 S 
ATOM      7  O   UNL d   1       0.168   1.164   0.211  0.00  0.00    -0.205 OA
ATOM      8  O   UNL d   1       2.450   0.123  -0.088  0.00  0.00    -0.205 OA
BRANCH   6   9
ATOM      9  N   UNL d   1       0.470  -1.342   0.694  0.00  0.00    -0.206 NA
ATOM     10  C   UNL d   1      -1.005  -1.497   0.712  0.00  0.00     0.108 C 
ATOM     11  C   UNL d   1      -1.431  -2.686   1.562  0.00  0.00     0.030 C 
ATOM     12  C   UNL d   1      -0.751  -3.972   1.098  0.00  0.00     0.088 C 
ATOM     13  C   UNL d   1       0.765  -3.778   1.193  0.00  0.00     0.030 C 
ATOM     14  C   UNL d   1       1.252  -2.570   0.395  0.00  0.00     0.108 C 
BRANCH  12  15
ATOM     15  C   UNL d   1      -1.170  -4.368  -0.310  0.00  0.00     0.263 C 
ATOM     16  O   UNL d   1      -0.394  -4.550  -1.239  0.00  0.00    -0.265 OA
BRANCH  15  17
ATOM     17  O   UNL d   1      -2.523  -4.492  -0.400  0.00  0.00    -0.322 OA
BRANCH  17  18
ATOM     18  C   UNL d   1      -3.018  -4.854  -1.700  0.00  0.00     0.174 C 
ATOM     19  C   UNL d   1      -3.131  -3.622  -2.580  0.00  0.00     0.034 C 
ENDBRANCH  17  18
ENDBRANCH  15  17
ENDBRANCH  12  15
ENDBRANCH   6   9
ENDBRANCH   1   6
BRANCH   2  20
ATOM     20  S   UNL d   1       1.478  -1.453  -5.819  0.00  0.00     0.213 S 
ATOM     21  O   UNL d   1       2.388  -2.535  -5.504  0.00  0.00    -0.217 OA
ATOM     22  O   UNL d   1       0.332  -1.643  -6.688  0.00  0.00    -0.217 OA
BRANCH  20  23
ATOM     23  C   UNL d   1       2.404  -0.064  -6.416  0.00  0.00     0.064 A 
ATOM     24  C   UNL d   1       3.761   0.045  -6.106  0.00  0.00     0.024 A 
ATOM     25  C   UNL d   1       4.466   1.174  -6.521  0.00  0.00     0.002 A 
ATOM     26  C   UNL d   1       3.821   2.173  -7.253  0.00  0.00     0.000 A 
ATOM     27  C   UNL d   1       2.471   2.042  -7.585  0.00  0.00     0.002 A 
ATOM     28  C   UNL d   1       1.757   0.919  -7.172  0.00  0.00     0.024 A 
ENDBRANCH  20  23
ENDBRANCH   2  20
TORSDOF 7
