REMARK  4 active torsions:
REMARK  status: ('A' for Active; 'I' for Inactive)
REMARK       I    between atoms: N_2  and  C_1 
REMARK    1  A    between atoms: C_5  and  C_1 
REMARK    2  A    between atoms: C_6  and  N_2 
REMARK    3  A    between atoms: C_3  and  C_4 
REMARK    4  A    between atoms: O_12  and  C_3 
ROOT
ATOM      1  C   UNL d   1       1.073  -0.121  -0.181  0.00  0.00     0.256 C 
ATOM      2  N   UNL d   1       0.478   1.052   0.256  0.00  0.00    -0.323 N 
ATOM      3  O   UNL d   1       2.265  -0.277  -0.430  0.00  0.00    -0.267 OA
ATOM      4  H   UNL d   1      -0.457   0.980   0.640  0.00  0.00     0.169 HD
ENDROOT
BRANCH   2   5
ATOM      5  C   UNL d   1       1.142   2.281   0.454  0.00  0.00     0.036 A 
ATOM      6  C   UNL d   1       2.397   2.554  -0.094  0.00  0.00     0.048 A 
ATOM      7  C   UNL d   1       3.067   3.738   0.227  0.00  0.00     0.039 A 
ATOM      8  C   UNL d   1       2.444   4.693   1.037  0.00  0.00     0.018 A 
ATOM      9  C   UNL d   1       1.163   4.453   1.534  0.00  0.00     0.003 A 
ATOM     10  C   UNL d   1       0.514   3.250   1.244  0.00  0.00     0.029 A 
BRANCH   7  11
ATOM     11  C   UNL d   1       4.427   4.023  -0.292  0.00  0.00     0.176 C 
ATOM     12  O   UNL d   1       4.829   5.158  -0.487  0.00  0.00    -0.646 OA
BRANCH  11  13
ATOM     13  O   UNL d   1       5.194   2.928  -0.476  0.00  0.00    -0.773 OA
ATOM     14  H   UNL d   1       4.812   2.082  -0.170  0.00  0.00     0.167 HD
ENDBRANCH  11  13
ENDBRANCH   7  11
ENDBRANCH   2   5
BRANCH   1  15
ATOM     15  C   UNL d   1       0.172  -1.300  -0.259  0.00  0.00     0.032 A 
ATOM     16  C   UNL d   1      -1.168  -1.181  -0.642  0.00  0.00     0.017 A 
ATOM     17  C   UNL d   1      -1.982  -2.315  -0.680  0.00  0.00     0.007 A 
ATOM     18  C   UNL d   1      -1.466  -3.574  -0.343  0.00  0.00    -0.062 A 
ATOM     19  C   UNL d   1      -0.118  -3.689   0.016  0.00  0.00     0.007 A 
ATOM     20  C   UNL d   1      -2.357  -4.781  -0.375  0.00  0.00     0.048 C 
ATOM     21  C   UNL d   1       0.698  -2.558   0.053  0.00  0.00     0.017 A 
ENDBRANCH   1  15
TORSDOF 4
