REMARK  5 active torsions:
REMARK  status: ('A' for Active; 'I' for Inactive)
REMARK    1  A    between atoms: C_11  and  C_1 
REMARK    2  A    between atoms: N_15  and  C_3 
REMARK    3  A    between atoms: C_14  and  C_6 
REMARK    4  A    between atoms: C_13  and  C_11 
REMARK    5  A    between atoms: C_17  and  C_12 
ROOT
ATOM      1  C   UNL d   1      -2.536  -0.729  -0.025  0.00  0.00     0.085 A 
ATOM      2  C   UNL d   1      -0.171  -1.014  -0.005  0.00  0.00     0.040 A 
ATOM      3  C   UNL d   1      -1.480  -1.629  -0.091  0.00  0.00     0.061 A 
ATOM      4  C   UNL d   1      -0.338   0.364   0.023  0.00  0.00     0.103 A 
ATOM      5  S   UNL d   1      -1.957   0.874  -0.034  0.00  0.00    -0.064 SA
ATOM      6  C   UNL d   1       1.181  -1.483   0.037  0.00  0.00     0.018 A 
ATOM      7  N   UNL d   1       1.887   0.845   0.124  0.00  0.00    -0.298 N 
ATOM      8  HN  UNL d   1       2.647   1.524   0.169  1.00  0.00     0.187 HD
ATOM      9  N   UNL d   1       0.646   1.275   0.078  0.00  0.00    -0.292 N 
ATOM     10  HN  UNL d   1       0.436   2.273   0.083  1.00  0.00     0.187 HD
ATOM     11  C   UNL d   1       2.182  -0.483   0.113  0.00  0.00     0.070 A 
ENDROOT
BRANCH   1  12
ATOM     12  C   UNL d   1      -3.959  -1.057  -0.078  0.00  0.00     0.201 C 
ATOM     13  O   UNL d   1      -4.361  -2.092  -0.612  0.00  0.00    -0.286 OA
BRANCH  12  14
ATOM     14  C   UNL d   1      -5.013  -0.199   0.544  0.00  0.00     0.015 A 
ATOM     15  C   UNL d   1      -4.796   0.563   1.698  0.00  0.00     0.017 A 
ATOM     16  C   UNL d   1      -5.845   1.301   2.260  0.00  0.00     0.025 A 
ATOM     17  C   UNL d   1      -7.117   1.255   1.689  0.00  0.00     0.034 A 
ATOM     18  C   UNL d   1      -7.353   0.476   0.560  0.00  0.00     0.025 A 
ATOM     19 CL   UNL d   1      -8.405   2.149   2.394  0.00  0.00    -0.084 Cl
ATOM     20  C   UNL d   1      -6.304  -0.250  -0.010  0.00  0.00     0.017 A 
ENDBRANCH  12  14
ENDBRANCH   1  12
BRANCH   3  21
ATOM     21  N   UNL d   1      -1.707  -2.961  -0.205  0.00  0.00    -0.397 N 
ATOM     22  H   UNL d   1      -1.002  -3.580  -0.600  0.00  0.00     0.156 HD
ATOM     23  H   UNL d   1      -2.652  -3.281  -0.443  0.00  0.00     0.156 HD
ENDBRANCH   3  21
BRANCH   6  24
ATOM     24  C   UNL d   1       1.469  -2.930  -0.022  0.00  0.00    -0.023 A 
ATOM     25  C   UNL d   1       2.287  -3.469  -1.032  0.00  0.00     0.012 A 
ATOM     26  C   UNL d   1       2.585  -4.833  -1.070  0.00  0.00     0.001 A 
ATOM     27  C   UNL d   1       2.040  -5.694  -0.122  0.00  0.00     0.000 A 
ATOM     28  C   UNL d   1       1.222  -5.186   0.883  0.00  0.00     0.001 A 
ATOM     29  C   UNL d   1       0.963  -3.815   0.947  0.00  0.00     0.012 A 
ENDBRANCH   6  24
BRANCH  11  30
ATOM     30  C   UNL d   1       3.646  -0.740   0.164  0.00  0.00    -0.007 A 
ATOM     31  C   UNL d   1       4.529   0.033  -0.618  0.00  0.00     0.014 A 
ATOM     32  C   UNL d   1       5.907  -0.212  -0.628  0.00  0.00     0.001 A 
ATOM     33  C   UNL d   1       6.435  -1.240   0.146  0.00  0.00     0.000 A 
ATOM     34  C   UNL d   1       5.592  -1.999   0.951  0.00  0.00     0.001 A 
ATOM     35  C   UNL d   1       4.218  -1.736   0.975  0.00  0.00     0.014 A 
ENDBRANCH  11  30
TORSDOF 5
