REMARK  5 active torsions:
REMARK  status: ('A' for Active; 'I' for Inactive)
REMARK    1  A    between atoms: C_3  and  C_1 
REMARK    2  A    between atoms: C_2  and  C_14 
REMARK       I    between atoms: N_13  and  C_3 
REMARK    3  A    between atoms: O_20  and  C_5 
REMARK    4  A    between atoms: N_19  and  C_7 
REMARK    5  A    between atoms: N_8  and  N_13 
ROOT
ATOM      1  C   UNL d   1       2.961   2.640   0.282  0.00  0.00     0.272 C 
ATOM      2  N   UNL d   1       4.210   2.969  -0.208  0.00  0.00    -0.266 N 
ATOM      3  O   UNL d   1       2.355   3.437   0.999  0.00  0.00    -0.266 OA
ATOM      4  H   UNL d   1       4.601   3.811   0.194  0.00  0.00     0.190 HD
ENDROOT
BRANCH   2   5
ATOM      5  N   UNL d   1       4.961   2.159  -0.991  0.00  0.00    -0.308 N 
ATOM      6  C   UNL d   1       6.164   2.525  -1.342  0.00  0.00     0.121 C 
ATOM      7  HN  UNL d   1       4.588   1.264  -1.307  1.00  0.00     0.186 HD
BRANCH   6   8
ATOM      8  C   UNL d   1       6.881   3.810  -1.156  0.00  0.00     0.017 A 
ATOM      9  C   UNL d   1       8.271   3.798  -0.963  0.00  0.00     0.099 A 
ATOM     10  C   UNL d   1       8.977   5.000  -0.868  0.00  0.00     0.069 A 
ATOM     11 CL   UNL d   1      10.691   4.994  -0.648  0.00  0.00    -0.081 Cl
ATOM     12  C   UNL d   1       8.314   6.223  -0.966  0.00  0.00     0.050 A 
ATOM     13  C   UNL d   1       6.936   6.231  -1.175  0.00  0.00     0.036 A 
ATOM     14  C   UNL d   1       6.219   5.037  -1.286  0.00  0.00     0.039 A 
ATOM     15 CL   UNL d   1       6.112   7.734  -1.321  0.00  0.00    -0.084 Cl
BRANCH   9  16
ATOM     16  O   UNL d   1       8.931   2.599  -0.869  0.00  0.00    -0.358 OA
ATOM     17  H   UNL d   1       9.882   2.788  -0.737  0.00  0.00     0.217 HD
ENDBRANCH   9  16
ENDBRANCH   6   8
ENDBRANCH   2   5
BRANCH   1  18
ATOM     18  C   UNL d   1       2.299   1.375  -0.104  0.00  0.00     0.061 A 
ATOM     19  C   UNL d   1       2.576   0.103   0.444  0.00  0.00     0.043 A 
ATOM     20  C   UNL d   1       1.682  -0.940   0.096  0.00  0.00     0.032 A 
ATOM     21  C   UNL d   1       0.586  -0.750  -0.751  0.00  0.00     0.026 A 
ATOM     22  C   UNL d   1       0.345   0.509  -1.275  0.00  0.00     0.035 A 
ATOM     23  C   UNL d   1       1.190   1.567  -0.960  0.00  0.00     0.043 A 
ATOM     24 CL   UNL d   1      -1.035   0.770  -2.269  0.00  0.00    -0.084 Cl
BRANCH  19  25
ATOM     25  N   UNL d   1       3.499  -0.240   1.438  0.00  0.00    -0.393 N 
ATOM     26  C   UNL d   1       4.662   0.553   1.773  0.00  0.00     0.146 C 
ATOM     27  H   UNL d   1       3.727  -1.231   1.412  0.00  0.00     0.159 HD
ENDBRANCH  19  25
ENDBRANCH   1  18
TORSDOF 5
