REMARK  9 active torsions:
REMARK  status: ('A' for Active; 'I' for Inactive)
REMARK    1  A    between atoms: C_7  and  N_1 
REMARK    2  A    between atoms: C_13  and  C_7 
REMARK    3  A    between atoms: C_15  and  C_13 
REMARK    4  A    between atoms: O_21  and  C_13 
REMARK    5  A    between atoms: N_17  and  C_15 
REMARK    6  A    between atoms: C_22  and  N_17 
REMARK    7  A    between atoms: C_23  and  N_17 
REMARK    8  A    between atoms: C_24  and  C_22 
REMARK    9  A    between atoms: C_25  and  C_23 
ROOT
ATOM      1  N   UNL d   1       0.021  -1.095   0.502  0.00  0.00    -0.342 N 
ATOM      2  C   UNL d   1       1.156  -0.306   0.325  0.00  0.00     0.064 C 
ATOM      3  C   UNL d   1       0.763   0.997   0.695  0.00  0.00     0.006 C 
ATOM      4  C   UNL d   1      -0.659   1.036   0.713  0.00  0.00     0.005 A 
ATOM      5  C   UNL d   1      -1.110  -0.259   0.489  0.00  0.00     0.046 A 
ATOM      6  C   UNL d   1       2.483  -0.502  -0.126  0.00  0.00     0.040 C 
ATOM      7  C   UNL d   1       3.430   0.519   0.044  0.00  0.00     0.040 C 
ATOM      8  C   UNL d   1      -2.483  -0.555   0.393  0.00  0.00     0.032 A 
ATOM      9  C   UNL d   1       1.730   2.014   0.856  0.00  0.00     0.033 C 
ATOM     10  C   UNL d   1      -1.600   2.083   0.843  0.00  0.00     0.033 A 
ATOM     11  C   UNL d   1       3.062   1.747   0.567  0.00  0.00     0.013 C 
ATOM     12 BR   UNL d   1       3.042  -1.943  -1.226  0.00  0.00    -0.049 Br
ATOM     13  C   UNL d   1      -2.960   1.798   0.718  0.00  0.00     0.011 A 
ATOM     14  C   UNL d   1      -3.400   0.499   0.492  0.00  0.00     0.021 A 
ATOM     15 BR   UNL d   1       4.351   3.115   0.760  0.00  0.00    -0.051 Br
ATOM     16 BR   UNL d   1      -4.220   3.205   0.834  0.00  0.00    -0.051 Br
ENDROOT
BRANCH   1  17
ATOM     17  C   UNL d   1      -0.125  -2.439   1.072  0.00  0.00     0.163 C 
BRANCH  17  18
ATOM     18  C   UNL d   1       0.880  -3.568   0.842  0.00  0.00     0.164 C 
BRANCH  18  19
ATOM     19  C   UNL d   1       2.107  -3.572   1.799  0.00  0.00     0.305 C 
BRANCH  19  20
ATOM     20  N   UNL d   1       1.910  -3.687   3.254  0.00  0.00     0.090 N 
BRANCH  20  21
ATOM     21  C   UNL d   1       1.193  -4.888   3.733  0.00  0.00     0.272 C 
BRANCH  21  22
ATOM     22  C   UNL d   1       1.934  -6.237   3.865  0.00  0.00     0.026 C 
ATOM     23  C   UNL d   1       2.296  -6.943   2.569  0.00  0.00     0.007 C 
ENDBRANCH  21  22
ENDBRANCH  20  21
BRANCH  20  24
ATOM     24  C   UNL d   1       3.156  -3.487   4.025  0.00  0.00     0.272 C 
BRANCH  24  25
ATOM     25  C   UNL d   1       3.957  -2.200   3.774  0.00  0.00     0.026 C 
ATOM     26  C   UNL d   1       3.171  -0.921   4.009  0.00  0.00     0.007 C 
ENDBRANCH  24  25
ENDBRANCH  20  24
ENDBRANCH  19  20
ENDBRANCH  18  19
BRANCH  18  27
ATOM     27  O   UNL d   1       0.185  -4.829   0.891  0.00  0.00    -0.392 OA
ATOM     28  H   UNL d   1       0.841  -5.523   0.711  0.00  0.00     0.210 HD
ENDBRANCH  18  27
ENDBRANCH  17  18
ENDBRANCH   1  17
TORSDOF 9
