REMARK  7 active torsions:
REMARK  status: ('A' for Active; 'I' for Inactive)
REMARK    1  A    between atoms: N_2  and  S_1 
REMARK    2  A    between atoms: C_5  and  S_1 
REMARK    3  A    between atoms: N_3  and  N_2 
REMARK    4  A    between atoms: C_4  and  N_3 
REMARK    5  A    between atoms: N_8  and  C_4 
REMARK    6  A    between atoms: C_12  and  N_8 
REMARK    7  A    between atoms: C_21  and  C_16 
ROOT
ATOM      1  N   UNL d   1       0.687   1.667  -1.880  0.00  0.00    -0.266 N 
ATOM      2  H   UNL d   1       0.576   0.664  -1.735  0.00  0.00     0.190 HD
ENDROOT
BRANCH   1   3
ATOM      3  N   UNL d   1       1.140   2.453  -0.768  0.00  0.00    -0.221 N 
ATOM      4  H   UNL d   1       1.245   3.469  -0.842  0.00  0.00     0.200 HD
BRANCH   3   5
ATOM      5  S   UNL d   1       1.590   1.712   0.675  0.00  0.00     0.276 S 
ATOM      6  O   UNL d   1       0.626   0.657   0.932  0.00  0.00    -0.199 OA
ATOM      7  O   UNL d   1       1.879   2.749   1.636  0.00  0.00    -0.199 OA
BRANCH   5   8
ATOM      8  C   UNL d   1       3.124   0.953   0.204  0.00  0.00     0.081 A 
ATOM      9  C   UNL d   1       4.187   1.768  -0.198  0.00  0.00     0.026 A 
ATOM     10  C   UNL d   1       5.379   1.179  -0.623  0.00  0.00     0.008 A 
ATOM     11  C   UNL d   1       5.516  -0.216  -0.639  0.00  0.00    -0.062 A 
ATOM     12  C   UNL d   1       4.448  -1.018  -0.212  0.00  0.00     0.008 A 
ATOM     13  C   UNL d   1       6.804  -0.832  -1.101  0.00  0.00     0.048 C 
ATOM     14  C   UNL d   1       3.252  -0.437   0.208  0.00  0.00     0.026 A 
ENDBRANCH   5   8
ENDBRANCH   3   5
ENDBRANCH   1   3
BRANCH   1  15
ATOM     15  C   UNL d   1       0.517   2.193  -3.135  0.00  0.00     0.191 C 
ATOM     16  S   UNL d   1       1.054   3.702  -3.617  0.00  0.00    -0.039 SA
BRANCH  15  17
ATOM     17  N   UNL d   1      -0.067   1.361  -4.054  0.00  0.00    -0.332 N 
ATOM     18  H   UNL d   1       0.092   1.624  -5.022  0.00  0.00     0.168 HD
BRANCH  17  19
ATOM     19  C   UNL d   1      -1.130   0.452  -3.849  0.00  0.00     0.034 A 
ATOM     20  C   UNL d   1      -1.944   0.476  -2.714  0.00  0.00     0.030 A 
ATOM     21  C   UNL d   1      -3.098  -0.314  -2.654  0.00  0.00     0.009 A 
ATOM     22  C   UNL d   1      -3.452  -1.140  -3.726  0.00  0.00    -0.058 A 
ATOM     23  C   UNL d   1      -2.593  -1.220  -4.827  0.00  0.00     0.009 A 
ATOM     24  C   UNL d   1      -1.450  -0.417  -4.895  0.00  0.00     0.030 A 
BRANCH  22  25
ATOM     25  C   UNL d   1      -4.770  -1.874  -3.720  0.00  0.00     0.034 C 
ATOM     26  C   UNL d   1      -4.694  -3.252  -3.088  0.00  0.00     0.010 C 
ENDBRANCH  22  25
ENDBRANCH  17  19
ENDBRANCH  15  17
ENDBRANCH   1  15
TORSDOF 7
