REMARK  7 active torsions:
REMARK  status: ('A' for Active; 'I' for Inactive)
REMARK    1  A    between atoms: N_6  and  C_1 
REMARK       I    between atoms: C_2  and  N_5 
REMARK    2  A    between atoms: C_8  and  C_2 
REMARK    3  A    between atoms: N_5  and  C_4 
REMARK    4  A    between atoms: O_17  and  C_7 
REMARK    5  A    between atoms: O_18  and  C_10 
REMARK    6  A    between atoms: C_23  and  O_17 
REMARK    7  A    between atoms: C_24  and  O_18 
ROOT
ATOM      1  C   UNL d   1       1.788  -0.304   0.001  0.00  0.00     0.067 A 
ATOM      2  C   UNL d   1       0.903  -1.402   0.000  0.00  0.00     0.071 A 
ATOM      3  C   UNL d   1      -1.064   0.013  -0.197  0.00  0.00     0.071 A 
ATOM      4  C   UNL d   1       1.200   0.968  -0.136  0.00  0.00     0.097 A 
ATOM      5  C   UNL d   1      -0.195   1.110  -0.226  0.00  0.00     0.071 A 
ATOM      6  C   UNL d   1      -0.501  -1.268  -0.073  0.00  0.00     0.097 A 
ENDROOT
BRANCH   3   7
ATOM      7  N   UNL d   1      -2.475   0.156  -0.299  0.00  0.00    -0.319 N 
ATOM      8  C   UNL d   1      -3.197   1.337  -0.204  0.00  0.00     0.280 C 
ATOM      9  O   UNL d   1      -2.712   2.436   0.067  0.00  0.00    -0.265 OA
ATOM     10  H   UNL d   1      -3.006  -0.704  -0.396  0.00  0.00     0.169 HD
BRANCH   8  11
ATOM     11  C   UNL d   1      -4.630   1.215  -0.419  0.00  0.00     0.142 A 
ATOM     12  O   UNL d   1      -5.189   0.029  -0.814  0.00  0.00    -0.317 OA
ATOM     13  C   UNL d   1      -6.527   0.249  -0.953  0.00  0.00     0.143 A 
ATOM     14  C   UNL d   1      -6.842   1.553  -0.642  0.00  0.00     0.027 A 
ATOM     15  C   UNL d   1      -5.621   2.176  -0.306  0.00  0.00     0.045 A 
ENDBRANCH   8  11
ENDBRANCH   3   7
BRANCH   6  16
ATOM     16  O   UNL d   1      -1.373  -2.341   0.007  0.00  0.00    -0.349 OA
BRANCH  16  17
ATOM     17  C   UNL d   1      -0.780  -3.589   0.393  0.00  0.00     0.171 C 
ATOM     18  C   UNL d   1      -1.851  -4.617   0.708  0.00  0.00     0.034 C 
ENDBRANCH  16  17
ENDBRANCH   6  16
BRANCH   4  19
ATOM     19  O   UNL d   1       1.858   2.175  -0.173  0.00  0.00    -0.349 OA
BRANCH  19  20
ATOM     20  C   UNL d   1       3.054   2.235  -0.946  0.00  0.00     0.171 C 
ATOM     21  C   UNL d   1       3.139   3.595  -1.613  0.00  0.00     0.034 C 
ENDBRANCH  19  20
ENDBRANCH   4  19
BRANCH   1  22
ATOM     22  N   UNL d   1       3.159  -0.500   0.143  0.00  0.00    -0.374 N 
ATOM     23  C   UNL d   1       3.836  -1.694  -0.387  0.00  0.00     0.149 C 
ATOM     24  C   UNL d   1       4.250  -2.650   0.741  0.00  0.00     0.187 C 
ATOM     25  O   UNL d   1       5.040  -1.980   1.734  0.00  0.00    -0.388 OA
ATOM     26  C   UNL d   1       4.280  -0.916   2.332  0.00  0.00     0.187 C 
ATOM     27  C   UNL d   1       3.844   0.126   1.293  0.00  0.00     0.149 C 
ENDBRANCH   1  22
TORSDOF 7
