REMARK  2 active torsions:
REMARK  status: ('A' for Active; 'I' for Inactive)
REMARK       I    between atoms: N_2  and  C_1 
REMARK    1  A    between atoms: O_3  and  C_1 
REMARK    2  A    between atoms: C_5  and  O_3 
ROOT
ATOM      1  C   UNL d   1       1.022   0.026   0.025  0.00  0.00     0.368 C 
ATOM      2  N   UNL d   1       0.234   0.888   0.775  0.00  0.00    -0.328 N 
ATOM      3  O   UNL d   1       1.942   0.417  -0.690  0.00  0.00    -0.238 OA
ATOM      4  C   UNL d   1      -0.838   0.453   1.664  0.00  0.00     0.128 C 
ATOM      5  C   UNL d   1       0.619   2.289   0.875  0.00  0.00     0.128 C 
ATOM      6  C   UNL d   1      -2.070   1.345   1.512  0.00  0.00     0.020 C 
ATOM      7  C   UNL d   1      -0.585   3.197   0.662  0.00  0.00     0.020 C 
ATOM      8  C   UNL d   1      -1.721   2.830   1.615  0.00  0.00     0.003 C 
ENDROOT
BRANCH   1   9
ATOM      9  O   UNL d   1       0.666  -1.313   0.181  0.00  0.00    -0.261 OA
BRANCH   9  10
ATOM     10  C   UNL d   1       1.513  -2.281  -0.385  0.00  0.00     0.081 A 
ATOM     11  C   UNL d   1       2.893  -2.262  -0.173  0.00  0.00     0.037 A 
ATOM     12  C   UNL d   1       3.688  -3.265  -0.722  0.00  0.00     0.003 A 
ATOM     13  C   UNL d   1       3.101  -4.296  -1.457  0.00  0.00     0.000 A 
ATOM     14  C   UNL d   1       1.716  -4.327  -1.640  0.00  0.00     0.003 A 
ATOM     15  C   UNL d   1       0.916  -3.319  -1.098  0.00  0.00     0.037 A 
ENDBRANCH   9  10
ENDBRANCH   1   9
TORSDOF 2
