REMARK  5 active torsions:
REMARK  status: ('A' for Active; 'I' for Inactive)
REMARK    1  A    between atoms: C_2  and  C_1 
REMARK       I    between atoms: N_3  and  C_1 
REMARK    2  A    between atoms: C_5  and  N_3 
REMARK    3  A    between atoms: C_11  and  C_4 
REMARK    4  A    between atoms: C_14  and  C_6 
REMARK    5  A    between atoms: S_13  and  C_12 
ROOT
ATOM      1  C   UNL d   1       1.120  -0.067  -0.079  0.00  0.00     0.245 C 
ATOM      2  N   UNL d   1       0.339   0.098  -1.211  0.00  0.00    -0.324 N 
ATOM      3  O   UNL d   1       2.311   0.184   0.042  0.00  0.00    -0.268 OA
ATOM      4  H   UNL d   1      -0.641  -0.139  -1.142  0.00  0.00     0.169 HD
ENDROOT
BRANCH   1   5
ATOM      5  C   UNL d   1       0.346  -0.623   1.069  0.00  0.00     0.075 C 
ATOM      6  C   UNL d   1       0.993  -0.919   2.206  0.00  0.00     0.017 C 
BRANCH   6   7
ATOM      7  C   UNL d   1       0.318  -1.506   3.363  0.00  0.00    -0.036 A 
ATOM      8  C   UNL d   1       0.184  -2.892   3.463  0.00  0.00     0.012 A 
ATOM      9  C   UNL d   1      -0.431  -3.462   4.581  0.00  0.00     0.008 A 
ATOM     10  C   UNL d   1      -0.928  -2.658   5.618  0.00  0.00    -0.055 A 
ATOM     11  C   UNL d   1      -0.795  -1.266   5.504  0.00  0.00     0.008 A 
ATOM     12  C   UNL d   1      -0.177  -0.694   4.385  0.00  0.00     0.012 A 
BRANCH  10  13
ATOM     13  C   UNL d   1      -1.587  -3.265   6.846  0.00  0.00     0.010 C 
ATOM     14  C   UNL d   1      -2.837  -4.069   6.474  0.00  0.00     0.015 C 
ATOM     15  C   UNL d   1      -0.610  -4.132   7.645  0.00  0.00     0.015 C 
ENDBRANCH  10  13
ENDBRANCH   6   7
ENDBRANCH   1   5
BRANCH   2  16
ATOM     16  C   UNL d   1       0.768   0.574  -2.473  0.00  0.00     0.036 A 
ATOM     17  C   UNL d   1       2.089   0.942  -2.750  0.00  0.00     0.048 A 
ATOM     18  C   UNL d   1       2.468   1.431  -4.007  0.00  0.00     0.002 A 
ATOM     19  C   UNL d   1       1.494   1.535  -5.005  0.00  0.00     0.018 A 
ATOM     20  C   UNL d   1       0.175   1.156  -4.752  0.00  0.00     0.004 A 
ATOM     21  C   UNL d   1      -0.186   0.678  -3.490  0.00  0.00     0.029 A 
BRANCH  18  22
ATOM     22  S   UNL d   1       4.134   1.941  -4.426  0.00  0.00    -0.134 SA
ATOM     23  C   UNL d   1       5.052   1.669  -2.882  0.00  0.00     0.095 C 
ENDBRANCH  18  22
ENDBRANCH   2  16
TORSDOF 5
