REMARK  4 active torsions:
REMARK  status: ('A' for Active; 'I' for Inactive)
REMARK    1  A    between atoms: C_8  and  C_6 
REMARK    2  A    between atoms: C_11  and  C_8 
REMARK    3  A    between atoms: C_9  and  C_11 
REMARK    4  A    between atoms: O_17  and  C_10 
ROOT
ATOM      1  C   UNL d   1      -3.234  -0.343   0.829  0.00  0.00     0.257 A 
ATOM      2  C   UNL d   1      -2.848   1.123   1.054  0.00  0.00     0.046 A 
ATOM      3  N   UNL d   1      -3.320  -0.904   2.084  0.00  0.00    -0.322 N 
ATOM      4  C   UNL d   1      -2.780   1.282   2.531  0.00  0.00     0.007 A 
ATOM      5  C   UNL d   1      -3.070   0.023   3.078  0.00  0.00     0.046 A 
ATOM      6  C   UNL d   1      -2.593   1.996   0.047  0.00  0.00    -0.067 C 
ATOM      7  O   UNL d   1      -3.425  -0.943  -0.207  0.00  0.00    -0.267 OA
ATOM      8  C   UNL d   1      -2.533   2.331   3.400  0.00  0.00     0.015 A 
ATOM      9  C   UNL d   1      -3.110  -0.240   4.436  0.00  0.00     0.030 A 
ATOM     10  C   UNL d   1      -2.705   1.650  -1.428  0.00  0.00     0.044 C 
ATOM     11  C   UNL d   1      -2.580   2.097   4.787  0.00  0.00     0.001 A 
ATOM     12  C   UNL d   1      -2.862   0.822   5.300  0.00  0.00     0.002 A 
ATOM     13  H   UNL d   1      -3.557  -1.875   2.221  0.00  0.00     0.169 HD
ENDROOT
BRANCH   6  14
ATOM     14  C   UNL d   1      -2.131   3.442   0.217  0.00  0.00     0.039 C 
BRANCH  14  15
ATOM     15  C   UNL d   1      -0.597   3.525   0.168  0.00  0.00     0.043 C 
BRANCH  15  16
ATOM     16  C   UNL d   1       0.072   4.881   0.147  0.00  0.00    -0.058 A 
ATOM     17  C   UNL d   1      -0.596   6.102   0.024  0.00  0.00     0.010 A 
ATOM     18  C   UNL d   1       0.130   7.301  -0.041  0.00  0.00     0.037 A 
ATOM     19  C   UNL d   1       1.525   7.304   0.029  0.00  0.00     0.068 A 
ATOM     20  C   UNL d   1       2.198   6.092   0.138  0.00  0.00     0.037 A 
ATOM     21  C   UNL d   1       1.477   4.897   0.196  0.00  0.00     0.010 A 
BRANCH  19  22
ATOM     22  O   UNL d   1       2.121   8.532  -0.070  0.00  0.00    -0.356 OA
ATOM     23  C   UNL d   1       3.414   8.646   0.517  0.00  0.00     0.210 C 
ENDBRANCH  19  22
ENDBRANCH  15  16
ENDBRANCH  14  15
ENDBRANCH   6  14
TORSDOF 4
