REMARK  1 active torsions:
REMARK  status: ('A' for Active; 'I' for Inactive)
REMARK    1  A    between atoms: C_7  and  C_1 
ROOT
ATOM      1  C   UNL d   1       1.639  -1.610  -0.042  0.00  0.00     0.164 A 
ATOM      2  N   UNL d   1       0.388  -1.919  -0.102  0.00  0.00    -0.335 N 
ATOM      3  HN  UNL d   1       0.086  -2.890  -0.179  1.00  0.00     0.168 HD
ATOM      4  O   UNL d   1       2.151  -0.361   0.032  0.00  0.00    -0.256 OA
ATOM      5  C   UNL d   1       1.317   0.708   0.006  0.00  0.00     0.302 A 
ATOM      6  C   UNL d   1      -0.127   0.444  -0.019  0.00  0.00     0.066 A 
ATOM      7  C   UNL d   1      -0.533  -0.880  -0.060  0.00  0.00     0.050 A 
ATOM      8  O   UNL d   1       1.744   1.856   0.011  0.00  0.00    -0.259 OA
ATOM      9  C   UNL d   1      -1.064   1.484   0.006  0.00  0.00     0.020 A 
ATOM     10  C   UNL d   1      -1.897  -1.175  -0.056  0.00  0.00     0.030 A 
ATOM     11  C   UNL d   1      -2.426   1.182   0.004  0.00  0.00     0.001 A 
ATOM     12  C   UNL d   1      -2.843  -0.148  -0.022  0.00  0.00     0.002 A 
ENDROOT
BRANCH   1  13
ATOM     13  C   UNL d   1       2.731  -2.614  -0.062  0.00  0.00     0.037 A 
ATOM     14  C   UNL d   1       2.590  -3.889   0.508  0.00  0.00     0.048 A 
ATOM     15 CL   UNL d   1       1.205  -4.391   1.414  0.00  0.00    -0.083 Cl
ATOM     16  C   UNL d   1       3.630  -4.822   0.399  0.00  0.00     0.025 A 
ATOM     17  C   UNL d   1       4.812  -4.492  -0.264  0.00  0.00     0.002 A 
ATOM     18  C   UNL d   1       4.966  -3.224  -0.817  0.00  0.00     0.001 A 
ATOM     19  C   UNL d   1       3.933  -2.290  -0.720  0.00  0.00     0.017 A 
ENDBRANCH   1  13
TORSDOF 1
