REMARK  1 active torsions:
REMARK  status: ('A' for Active; 'I' for Inactive)
REMARK       I    between atoms: C_5  and  N_7 
REMARK       I    between atoms: N_10  and  C_5 
REMARK    1  A    between atoms: C_17  and  N_10 
ROOT
ATOM      1  C   UNL d   1      -3.087   0.109   0.284  0.00  0.00     0.148 A 
ATOM      2  N   UNL d   1      -2.372   0.772  -0.600  0.00  0.00    -0.336 N 
ATOM      3  HN  UNL d   1      -2.768   1.376  -1.320  1.00  0.00     0.168 HD
ATOM      4  S   UNL d   1      -2.127  -0.842   1.367  0.00  0.00    -0.052 SA
ATOM      5  C   UNL d   1      -8.455  -0.731  -0.423  0.00  0.00     0.319 C 
ATOM      6  N   UNL d   1      -4.449   0.160   0.313  0.00  0.00    -0.358 N 
ATOM      7  N   UNL d   1      -7.070  -0.730  -0.420  0.00  0.00    -0.331 N 
ATOM      8  C   UNL d   1      -0.684  -0.328   0.592  0.00  0.00     0.036 A 
ATOM      9  C   UNL d   1      -1.018   0.551  -0.434  0.00  0.00     0.051 A 
ATOM     10  N   UNL d   1      -9.070  -0.185  -1.505  0.00  0.00    -0.335 N 
ATOM     11  C   UNL d   1       0.649  -0.673   0.874  0.00  0.00     0.045 A 
ATOM     12  O   UNL d   1      -9.097  -1.204   0.519  0.00  0.00    -0.247 OA
ATOM     13  C   UNL d   1      -5.299  -0.452   1.341  0.00  0.00     0.145 C 
ATOM     14  C   UNL d   1      -5.175   0.830  -0.774  0.00  0.00     0.145 C 
ATOM     15  C   UNL d   1      -6.363  -1.373   0.703  0.00  0.00     0.147 C 
ATOM     16  C   UNL d   1      -6.152  -0.169  -1.427  0.00  0.00     0.147 C 
ATOM     17  C   UNL d   1       0.015   1.123  -1.204  0.00  0.00     0.032 A 
ATOM     18  C   UNL d   1       1.652  -0.090   0.097  0.00  0.00     0.035 A 
ATOM     19  C   UNL d   1       1.349   0.800  -0.928  0.00  0.00     0.026 A 
ATOM     20 CL   UNL d   1       3.299  -0.480   0.418  0.00  0.00    -0.084 Cl
ATOM     21  H   UNL d   1      -8.498   0.379  -2.102  0.00  0.00     0.165 HD
ENDROOT
BRANCH  10  22
ATOM     22  C   UNL d   1     -10.526   0.042  -1.643  0.00  0.00     0.023 C 
ATOM     23  C   UNL d   1     -11.053   0.974  -0.534  0.00  0.00     0.037 C 
ATOM     24  C   UNL d   1     -10.761   0.681  -3.029  0.00  0.00     0.037 C 
ATOM     25  C   UNL d   1     -11.334  -1.268  -1.603  0.00  0.00     0.037 C 
ENDBRANCH  10  22
TORSDOF 1
