REMARK  7 active torsions:
REMARK  status: ('A' for Active; 'I' for Inactive)
REMARK    1  A    between atoms: N_6  and  C_1 
REMARK       I    between atoms: C_5  and  N_7 
REMARK    2  A    between atoms: C_15  and  C_5 
REMARK    3  A    between atoms: N_7  and  N_6 
REMARK    4  A    between atoms: C_10  and  C_16 
REMARK    5  A    between atoms: O_14  and  C_10 
REMARK    6  A    between atoms: O_13  and  C_15 
REMARK    7  A    between atoms: C_16  and  O_13 
ROOT
ATOM      1  C   UNL d   1       0.192  -1.138  -0.605  0.00  0.00     0.119 A 
ATOM      2  C   UNL d   1      -1.083  -0.864  -1.118  0.00  0.00     0.084 A 
ATOM      3  C   UNL d   1      -2.099  -1.874  -1.179  0.00  0.00     0.103 C 
ATOM      4  N   UNL d   1      -2.937  -2.671  -1.206  0.00  0.00    -0.191 NA
ATOM      5  N   UNL d   1       1.164  -0.182  -0.566  0.00  0.00    -0.354 N 
ATOM      6  HN  UNL d   1       2.095  -0.392  -0.206  1.00  0.00     0.166 HD
ATOM      7  C   UNL d   1      -1.368   0.424  -1.583  0.00  0.00     0.027 A 
ATOM      8  C   UNL d   1       0.854   1.055  -1.022  0.00  0.00     0.089 A 
ATOM      9  C   UNL d   1      -0.384   1.403  -1.534  0.00  0.00     0.019 A 
ENDROOT
BRANCH   1  10
ATOM     10  N   UNL d   1       0.528  -2.454  -0.213  0.00  0.00    -0.186 NA
ATOM     11  H   UNL d   1      -0.169  -2.892   0.393  0.00  0.00     0.154 HD
BRANCH  10  12
ATOM     12  N   UNL d   1       1.830  -2.587   0.310  0.00  0.00    -0.284 N 
ATOM     13  C   UNL d   1       2.296  -3.887   0.444  0.00  0.00     0.255 C 
ATOM     14  O   UNL d   1       1.576  -4.878   0.327  0.00  0.00    -0.270 OA
ATOM     15  H   UNL d   1       2.443  -1.793   0.118  0.00  0.00     0.184 HD
BRANCH  13  16
ATOM     16  C   UNL d   1       3.789  -3.979   0.803  0.00  0.00     0.272 C 
BRANCH  16  17
ATOM     17  O   UNL d   1       4.413  -5.263   0.769  0.00  0.00    -0.372 OA
BRANCH  17  18
ATOM     18  C   UNL d   1       4.402  -5.858  -0.527  0.00  0.00     0.277 C 
BRANCH  18  19
ATOM     19  C   UNL d   1       5.327  -5.133  -1.493  0.00  0.00     0.164 C 
ATOM     20  O   UNL d   1       4.987  -4.668  -2.569  0.00  0.00    -0.648 OA
BRANCH  19  21
ATOM     21  O   UNL d   1       6.584  -5.009  -0.999  0.00  0.00    -0.775 OA
ATOM     22  H   UNL d   1       6.645  -5.390  -0.098  0.00  0.00     0.167 HD
ENDBRANCH  19  21
ENDBRANCH  18  19
ENDBRANCH  17  18
ENDBRANCH  16  17
ENDBRANCH  13  16
ENDBRANCH  10  12
ENDBRANCH   1  10
TORSDOF 7
