REMARK  6 active torsions:
REMARK  status: ('A' for Active; 'I' for Inactive)
REMARK    1  A    between atoms: C_13  and  C_1 
REMARK    2  A    between atoms: N_8  and  C_2 
REMARK    3  A    between atoms: C_5  and  C_6 
REMARK       I    between atoms: C_6  and  N_8 
REMARK    4  A    between atoms: N_9  and  C_17 
REMARK    5  A    between atoms: O_25  and  C_13 
REMARK    6  A    between atoms: C_28  and  O_25 
ROOT
ATOM      1  C   UNL d   1       2.072  -0.744  -0.504  0.00  0.00     0.138 C 
ATOM      2  C   UNL d   1       1.018  -1.645  -0.346  0.00  0.00     0.081 C 
ATOM      3  N   UNL d   1       1.550   0.514  -0.232  0.00  0.00    -0.344 N 
ATOM      4  C   UNL d   1      -0.190  -0.878  -0.225  0.00  0.00     0.022 A 
ATOM      5  C   UNL d   1       0.169   0.466  -0.159  0.00  0.00     0.047 A 
ATOM      6  C   UNL d   1      -1.560  -1.215  -0.135  0.00  0.00     0.052 A 
ATOM      7  C   UNL d   1      -2.512  -0.186  -0.022  0.00  0.00     0.103 A 
ATOM      8  C   UNL d   1      -0.777   1.498  -0.033  0.00  0.00     0.033 A 
ATOM      9  C   UNL d   1      -2.129   1.155   0.028  0.00  0.00     0.038 A 
ATOM     10  C   UNL d   1       2.282   1.764  -0.142  0.00  0.00     0.157 C 
ENDROOT
BRANCH   2  11
ATOM     11  N   UNL d   1       1.013  -3.041  -0.349  0.00  0.00    -0.320 N 
ATOM     12  C   UNL d   1       2.078  -3.867  -0.048  0.00  0.00     0.260 C 
ATOM     13  O   UNL d   1       3.185  -3.480   0.310  0.00  0.00    -0.267 OA
ATOM     14  H   UNL d   1       0.107  -3.470  -0.469  0.00  0.00     0.169 HD
BRANCH  12  15
ATOM     15  C   UNL d   1       1.800  -5.293  -0.173  0.00  0.00     0.087 A 
ATOM     16  C   UNL d   1       0.639  -5.999   0.083  0.00  0.00     0.090 A 
ATOM     17  O   UNL d   1       0.830  -7.311  -0.219  0.00  0.00    -0.242 OA
ATOM     18  C   UNL d   1      -0.694  -5.696   0.643  0.00  0.00     0.080 C 
ATOM     19  N   UNL d   1       2.135  -7.515  -0.604  0.00  0.00    -0.265 N 
ATOM     20  C   UNL d   1       2.730  -6.320  -0.523  0.00  0.00     0.047 A 
ATOM     21  HN  UNL d   1       2.560  -8.396  -0.892  1.00  0.00     0.194 HD
ATOM     22  C   UNL d   1       4.181  -6.210  -0.802  0.00  0.00     0.071 C 
ENDBRANCH  12  15
ENDBRANCH   2  11
BRANCH   1  23
ATOM     23  C   UNL d   1       3.446  -0.957  -0.922  0.00  0.00     0.312 C 
ATOM     24  O   UNL d   1       4.416  -0.316  -0.536  0.00  0.00    -0.258 OA
BRANCH  23  25
ATOM     25  O   UNL d   1       3.485  -1.874  -1.935  0.00  0.00    -0.317 OA
BRANCH  25  26
ATOM     26  C   UNL d   1       4.792  -2.157  -2.455  0.00  0.00     0.175 C 
ATOM     27  C   UNL d   1       5.101  -1.239  -3.624  0.00  0.00     0.034 C 
ENDBRANCH  25  26
ENDBRANCH  23  25
ENDBRANCH   1  23
BRANCH   7  28
ATOM     28  N   UNL d   1      -3.938  -0.533   0.036  0.00  0.00    -0.116 N 
ATOM     29  O   UNL d   1      -4.237  -1.736  -0.006  0.00  0.00    -0.532 OA
ATOM     30  O   UNL d   1      -4.756   0.393   0.121  0.00  0.00    -0.532 OA
ENDBRANCH   7  28
TORSDOF 6
