REMARK  2 active torsions:
REMARK  status: ('A' for Active; 'I' for Inactive)
REMARK    1  A    between atoms: N_6  and  C_1 
REMARK       I    between atoms: C_5  and  N_9 
REMARK    2  A    between atoms: C_7  and  C_5 
ROOT
ATOM      1  C   UNL d   1      -8.401   1.562   0.460  0.00  0.00     0.254 C 
ATOM      2  N   UNL d   1      -4.584   0.259   0.109  0.00  0.00    -0.360 N 
ATOM      3  N   UNL d   1      -7.041   1.828   0.691  0.00  0.00    -0.346 N 
ATOM      4  C   UNL d   1      -5.377   0.868  -0.969  0.00  0.00     0.145 C 
ATOM      5  C   UNL d   1      -6.180   2.095  -0.479  0.00  0.00     0.146 C 
ATOM      6  O   UNL d   1      -8.883   1.571  -0.670  0.00  0.00    -0.267 OA
ATOM      7  C   UNL d   1      -5.569   0.573   2.336  0.00  0.00     0.040 C 
ATOM      8  C   UNL d   1      -5.331  -0.390   1.174  0.00  0.00     0.126 C 
ATOM      9  C   UNL d   1      -6.332   1.860   1.978  0.00  0.00     0.127 C 
ENDROOT
BRANCH   2  10
ATOM     10  C   UNL d   1      -3.216   0.281   0.064  0.00  0.00     0.147 A 
ATOM     11  N   UNL d   1      -2.526   0.854  -0.898  0.00  0.00    -0.336 N 
ATOM     12  C   UNL d   1      -1.162   0.703  -0.705  0.00  0.00     0.051 A 
ATOM     13  HN  UNL d   1      -2.942   1.347  -1.688  1.00  0.00     0.168 HD
ATOM     14  C   UNL d   1      -0.143   1.182  -1.554  0.00  0.00     0.032 A 
ATOM     15  C   UNL d   1      -0.797   0.013   0.447  0.00  0.00     0.036 A 
ATOM     16  C   UNL d   1       1.201   0.963  -1.224  0.00  0.00     0.026 A 
ATOM     17  C   UNL d   1       1.532   0.272  -0.063  0.00  0.00     0.035 A 
ATOM     18  C   UNL d   1       0.545  -0.220   0.794  0.00  0.00     0.045 A 
ATOM     19 CL   UNL d   1       3.189   0.019   0.333  0.00  0.00    -0.084 Cl
ATOM     20  S   UNL d   1      -2.216  -0.450   1.282  0.00  0.00    -0.052 SA
ENDBRANCH   2  10
BRANCH   1  21
ATOM     21  C   UNL d   1      -9.351   1.281   1.583  0.00  0.00     0.035 A 
ATOM     22  C   UNL d   1     -10.667   1.760   1.498  0.00  0.00     0.041 A 
ATOM     23  C   UNL d   1     -11.565   1.529   2.545  0.00  0.00     0.036 A 
ATOM     24 CL   UNL d   1     -13.188   2.087   2.423  0.00  0.00    -0.084 Cl
ATOM     25  C   UNL d   1     -11.164   0.851   3.692  0.00  0.00     0.047 A 
ATOM     26  C   UNL d   1      -9.881   0.332   3.749  0.00  0.00     0.036 A 
ATOM     27  C   UNL d   1      -9.003   0.497   2.679  0.00  0.00     0.041 A 
ATOM     28 CL   UNL d   1      -9.341  -0.505   5.152  0.00  0.00    -0.084 Cl
ENDBRANCH   1  21
TORSDOF 2
