REMARK  4 active torsions:
REMARK  status: ('A' for Active; 'I' for Inactive)
REMARK    1  A    between atoms: C_2  and  N_1 
REMARK    2  A    between atoms: S_4  and  C_3 
REMARK    3  A    between atoms: C_9  and  S_4 
REMARK    4  A    between atoms: C_11  and  C_9 
ROOT
ATOM      1  C   UNL d   1      -1.063  -2.507   0.736  0.00  0.00     0.136 A 
ATOM      2  C   UNL d   1      -0.620  -1.514  -0.132  0.00  0.00     0.103 A 
ATOM      3  N   UNL d   1       0.509  -0.814   0.160  0.00  0.00    -0.359 N 
ATOM      4  HN  UNL d   1       0.844  -0.085  -0.470  1.00  0.00     0.166 HD
ATOM      5  C   UNL d   1      -0.363  -2.788   1.920  0.00  0.00     0.040 A 
ATOM      6  C   UNL d   1       1.182  -1.099   1.300  0.00  0.00     0.089 A 
ATOM      7  C   UNL d   1       0.787  -2.066   2.206  0.00  0.00     0.020 A 
ENDROOT
BRANCH   2   8
ATOM      8  S   UNL d   1      -1.450  -1.014  -1.641  0.00  0.00    -0.105 SA
BRANCH   8   9
ATOM      9  C   UNL d   1      -0.342   0.328  -2.204  0.00  0.00     0.119 C 
BRANCH   9  10
ATOM     10  C   UNL d   1      -0.739   0.923  -3.537  0.00  0.00    -0.049 A 
ATOM     11  C   UNL d   1      -1.538   2.075  -3.603  0.00  0.00     0.008 A 
ATOM     12  C   UNL d   1      -1.851   2.654  -4.837  0.00  0.00     0.001 A 
ATOM     13  C   UNL d   1      -1.375   2.088  -6.018  0.00  0.00     0.000 A 
ATOM     14  C   UNL d   1      -0.589   0.939  -5.967  0.00  0.00     0.001 A 
ATOM     15  C   UNL d   1      -0.275   0.358  -4.736  0.00  0.00     0.008 A 
ENDBRANCH   9  10
ENDBRANCH   8   9
ENDBRANCH   2   8
BRANCH   1  16
ATOM     16  N   UNL d   1      -2.243  -3.290   0.468  0.00  0.00    -0.113 N 
ATOM     17  O   UNL d   1      -2.235  -4.008  -0.541  0.00  0.00    -0.532 OA
ATOM     18  O   UNL d   1      -3.137  -3.263   1.324  0.00  0.00    -0.532 OA
ENDBRANCH   1  16
TORSDOF 4
