REMARK  2 active torsions:
REMARK  status: ('A' for Active; 'I' for Inactive)
REMARK    1  A    between atoms: N_2  and  C_1 
REMARK    2  A    between atoms: C_3  and  N_2 
ROOT
ATOM      1  C   UNL d   1       0.992   1.899   1.680  0.00  0.00     0.073 A 
ATOM      2  C   UNL d   1       2.186   2.526   1.293  0.00  0.00     0.145 A 
ATOM      3  C   UNL d   1       2.886   3.358   2.157  0.00  0.00     0.086 A 
ATOM      4  C   UNL d   1       0.535   2.080   2.988  0.00  0.00     0.036 A 
ATOM      5  C   UNL d   1       2.401   3.543   3.442  0.00  0.00     0.119 A 
ATOM      6  F   UNL d   1       2.658   2.340   0.050  0.00  0.00    -0.204 F 
ATOM      7  C   UNL d   1       1.239   2.907   3.869  0.00  0.00     0.044 A 
ATOM      8  F   UNL d   1       3.065   4.338   4.291  0.00  0.00    -0.206 F 
ENDROOT
BRANCH   1   9
ATOM      9  N   UNL d   1       0.357   1.068   0.734  0.00  0.00    -0.331 N 
ATOM     10  H   UNL d   1       0.939   0.782  -0.050  0.00  0.00     0.168 HD
BRANCH   9  11
ATOM     11  C   UNL d   1      -0.899   0.562   0.697  0.00  0.00     0.170 C 
ATOM     12  S   UNL d   1      -1.289  -0.686  -0.328  0.00  0.00    -0.041 SA
ATOM     13  N   UNL d   1      -1.853   1.127   1.466  0.00  0.00    -0.376 N 
ATOM     14  H   UNL d   1      -1.770   2.117   1.659  0.00  0.00     0.158 HD
ATOM     15  H   UNL d   1      -2.800   0.806   1.297  0.00  0.00     0.158 HD
ENDBRANCH   9  11
ENDBRANCH   1   9
TORSDOF 2
