REMARK  6 active torsions:
REMARK  status: ('A' for Active; 'I' for Inactive)
REMARK    1  A    between atoms: C_3  and  S_1 
REMARK    2  A    between atoms: N_9  and  S_1 
REMARK    3  A    between atoms: S_2  and  C_10 
REMARK    4  A    between atoms: N_18  and  S_2 
REMARK    5  A    between atoms: C_4  and  C_8 
REMARK    6  A    between atoms: C_11  and  N_9 
ROOT
ATOM      1  S   UNL d   1       0.168  -0.093  -0.114  0.00  0.00     0.252 S 
ATOM      2  O   UNL d   1      -0.945  -0.293  -1.013  0.00  0.00    -0.205 OA
ATOM      3  O   UNL d   1       0.055   0.800   1.023  0.00  0.00    -0.205 OA
ENDROOT
BRANCH   1   4
ATOM      4  C   UNL d   1       1.516   0.580  -1.069  0.00  0.00     0.116 A 
ATOM      5  S   UNL d   1       1.505   0.263  -2.752  0.00  0.00    -0.075 SA
ATOM      6  C   UNL d   1       2.977   1.089  -2.994  0.00  0.00     0.033 A 
ATOM      7  C   UNL d   1       3.469   1.615  -1.818  0.00  0.00     0.023 A 
ATOM      8  C   UNL d   1       2.613   1.344  -0.711  0.00  0.00     0.034 A 
BRANCH   6   9
ATOM      9  C   UNL d   1       3.681   1.242  -4.308  0.00  0.00     0.056 A 
ATOM     10  N   UNL d   1       4.931   1.835  -4.368  0.00  0.00    -0.353 N 
ATOM     11  C   UNL d   1       5.364   1.847  -5.610  0.00  0.00     0.047 A 
ATOM     12  HN  UNL d   1       5.442   2.207  -3.567  1.00  0.00     0.166 HD
ATOM     13  C   UNL d   1       6.690   2.378  -6.027  0.00  0.00     0.076 C 
ATOM     14  S   UNL d   1       4.285   1.194  -6.776  0.00  0.00    -0.087 SA
ATOM     15  C   UNL d   1       3.175   0.824  -5.522  0.00  0.00     0.082 A 
ENDBRANCH   6   9
ENDBRANCH   1   4
BRANCH   1  16
ATOM     16  N   UNL d   1       0.629  -1.599   0.529  0.00  0.00    -0.180 NA
ATOM     17  H   UNL d   1      -0.032  -1.820   1.277  0.00  0.00     0.146 HD
BRANCH  16  18
ATOM     18  C   UNL d   1       0.825  -2.682  -0.389  0.00  0.00     0.030 A 
ATOM     19  C   UNL d   1      -0.275  -3.425  -0.829  0.00  0.00     0.050 A 
ATOM     20  C   UNL d   1      -0.082  -4.455  -1.757  0.00  0.00     0.081 A 
ATOM     21  C   UNL d   1       1.191  -4.751  -2.245  0.00  0.00     0.026 A 
ATOM     22  C   UNL d   1       2.283  -4.014  -1.797  0.00  0.00     0.010 A 
ATOM     23  C   UNL d   1       2.117  -2.995  -0.844  0.00  0.00    -0.040 A 
ATOM     24  C   UNL d   1       3.353  -2.308  -0.335  0.00  0.00     0.050 C 
BRANCH  20  25
ATOM     25  S   UNL d   1      -1.457  -5.456  -2.291  0.00  0.00     0.260 S 
ATOM     26  O   UNL d   1      -0.914  -6.696  -2.800  0.00  0.00    -0.200 OA
ATOM     27  O   UNL d   1      -2.431  -5.449  -1.220  0.00  0.00    -0.200 OA
BRANCH  25  28
ATOM     28  N   UNL d   1      -2.078  -4.570  -3.606  0.00  0.00    -0.315 N 
ATOM     29  C   UNL d   1      -2.803  -3.333  -3.271  0.00  0.00     0.162 C 
ATOM     30  C   UNL d   1      -1.189  -4.426  -4.774  0.00  0.00     0.162 C 
ENDBRANCH  25  28
ENDBRANCH  20  25
ENDBRANCH  16  18
ENDBRANCH   1  16
TORSDOF 6
