REMARK  4 active torsions:
REMARK  status: ('A' for Active; 'I' for Inactive)
REMARK    1  A    between atoms: N_2  and  S_1 
REMARK    2  A    between atoms: C_5  and  S_1 
REMARK    3  A    between atoms: N_8  and  C_4 
REMARK    4  A    between atoms: S_9  and  C_4 
ROOT
ATOM      1  S   UNL d   1      -0.659  -0.721  -2.534  0.00  0.00     0.264 S 
ATOM      2  O   UNL d   1       0.195  -1.296  -3.559  0.00  0.00    -0.200 OA
ATOM      3  O   UNL d   1      -2.000  -0.261  -2.849  0.00  0.00    -0.200 OA
ENDROOT
BRANCH   1   4
ATOM      4  N   UNL d   1       0.127   0.412  -1.704  0.00  0.00    -0.260 N 
ATOM      5  C   UNL d   1       0.574   1.526  -2.201  0.00  0.00     0.150 C 
ATOM      6  HN  UNL d   1       0.287   0.241  -0.712  1.00  0.00     0.181 HD
BRANCH   5   7
ATOM      7  N   UNL d   1       1.304   2.393  -1.385  0.00  0.00    -0.370 N 
ATOM      8  C   UNL d   1       1.885   3.671  -1.785  0.00  0.00     0.151 C 
ATOM      9  C   UNL d   1       1.782   1.943  -0.074  0.00  0.00     0.151 C 
ENDBRANCH   5   7
BRANCH   5  10
ATOM     10  S   UNL d   1       0.346   1.989  -3.891  0.00  0.00    -0.098 SA
ATOM     11  C   UNL d   1      -1.272   2.787  -3.785  0.00  0.00     0.099 C 
ENDBRANCH   5  10
ENDBRANCH   1   4
BRANCH   1  12
ATOM     12  C   UNL d   1      -0.855  -2.014  -1.315  0.00  0.00     0.080 A 
ATOM     13  C   UNL d   1      -2.130  -2.437  -0.933  0.00  0.00     0.026 A 
ATOM     14  C   UNL d   1      -2.259  -3.443   0.024  0.00  0.00     0.008 A 
ATOM     15  C   UNL d   1      -1.121  -4.026   0.603  0.00  0.00    -0.062 A 
ATOM     16  C   UNL d   1       0.151  -3.596   0.203  0.00  0.00     0.008 A 
ATOM     17  C   UNL d   1      -1.284  -5.101   1.637  0.00  0.00     0.048 C 
ATOM     18  C   UNL d   1       0.288  -2.591  -0.754  0.00  0.00     0.026 A 
ENDBRANCH   1  12
TORSDOF 4
