REMARK  6 active torsions:
REMARK  status: ('A' for Active; 'I' for Inactive)
REMARK    1  A    between atoms: N_3  and  C_1 
REMARK    2  A    between atoms: C_16  and  N_2 
REMARK    3  A    between atoms: C_7  and  C_10 
REMARK    4  A    between atoms: C_10  and  O_19 
REMARK    5  A    between atoms: C_22  and  C_16 
REMARK    6  A    between atoms: O_19  and  C_22 
ROOT
ATOM      1  C   UNL d   1       1.932  -2.967   0.131  0.00  0.00     0.199 C 
ENDROOT
BRANCH   1   2
ATOM      2  O   UNL d   1       3.204  -3.499  -0.282  0.00  0.00    -0.316 OA
BRANCH   2   3
ATOM      3  C   UNL d   1       3.983  -4.013   0.701  0.00  0.00     0.295 C 
ATOM      4  O   UNL d   1       3.593  -4.421   1.778  0.00  0.00    -0.259 OA
BRANCH   3   5
ATOM      5  C   UNL d   1       5.402  -3.817   0.292  0.00  0.00     0.061 A 
ATOM      6  C   UNL d   1       6.383  -3.458   1.228  0.00  0.00     0.051 A 
ATOM      7  C   UNL d   1       7.680  -3.144   0.799  0.00  0.00     0.048 A 
ATOM      8 CL   UNL d   1       6.078  -3.297   2.921  0.00  0.00    -0.083 Cl
ATOM      9  C   UNL d   1       7.995  -3.182  -0.556  0.00  0.00     0.035 A 
ATOM     10  C   UNL d   1       7.037  -3.557  -1.494  0.00  0.00     0.025 A 
ATOM     11 CL   UNL d   1       9.571  -2.736  -1.078  0.00  0.00    -0.084 Cl
ATOM     12  C   UNL d   1       5.745  -3.882  -1.073  0.00  0.00     0.021 A 
ENDBRANCH   3   5
ENDBRANCH   2   3
ENDBRANCH   1   2
BRANCH   1  13
ATOM     13  C   UNL d   1       2.078  -1.448   0.067  0.00  0.00     0.159 C 
BRANCH  13  14
ATOM     14  N   UNL d   1       0.948  -0.706   0.577  0.00  0.00    -0.315 N 
ATOM     15  C   UNL d   1      -0.118  -0.194  -0.117  0.00  0.00     0.193 A 
ATOM     16  C   UNL d   1      -0.809   0.598   0.763  0.00  0.00     0.144 A 
ATOM     17  N   UNL d   1      -0.222   0.550   1.997  0.00  0.00    -0.352 N 
ATOM     18  C   UNL d   1       0.824  -0.245   1.880  0.00  0.00     0.081 A 
ATOM     19  HN  UNL d   1      -0.531   1.034   2.840  1.00  0.00     0.166 HD
ATOM     20  C   UNL d   1       1.745  -0.574   3.005  0.00  0.00     0.089 C 
BRANCH  15  21
ATOM     21  N   UNL d   1      -0.430  -0.438  -1.485  0.00  0.00    -0.096 N 
ATOM     22  O   UNL d   1       0.207  -1.319  -2.072  0.00  0.00    -0.530 OA
ATOM     23  O   UNL d   1      -1.334   0.246  -1.978  0.00  0.00    -0.530 OA
ENDBRANCH  15  21
ENDBRANCH  13  14
ENDBRANCH   1  13
TORSDOF 6
