REMARK  2 active torsions:
REMARK  status: ('A' for Active; 'I' for Inactive)
REMARK    1  A    between atoms: C_6  and  C_4 
REMARK    2  A    between atoms: C_7  and  C_5 
ROOT
ATOM      1  C   UNL d   1       0.768  -0.210   0.179  0.00  0.00    -0.006 A 
ATOM      2  C   UNL d   1       0.285   2.110  -0.094  0.00  0.00    -0.006 A 
ATOM      3  C   UNL d   1       1.379   1.113  -0.080  0.00  0.00     0.184 A 
ATOM      4  C   UNL d   1       1.529  -1.308   0.298  0.00  0.00     0.030 C 
ATOM      5  C   UNL d   1       0.548   3.417  -0.231  0.00  0.00     0.030 C 
ATOM      6  C   UNL d   1      -0.718  -0.067   0.293  0.00  0.00     0.047 A 
ATOM      7  C   UNL d   1      -1.030   1.418   0.091  0.00  0.00     0.047 A 
ATOM      8  O   UNL d   1       2.563   1.341  -0.241  0.00  0.00    -0.287 OA
ENDROOT
BRANCH   4   9
ATOM      9  C   UNL d   1       0.952  -2.583   0.538  0.00  0.00     0.005 A 
ATOM     10  S   UNL d   1       0.674  -3.126   2.145  0.00  0.00    -0.102 SA
ATOM     11  C   UNL d   1       0.011  -4.607   1.607  0.00  0.00     0.050 A 
ATOM     12  C   UNL d   1       0.020  -4.708   0.234  0.00  0.00     0.008 A 
ATOM     13  C   UNL d   1       0.570  -3.545  -0.380  0.00  0.00     0.019 A 
ENDBRANCH   4   9
BRANCH   5  14
ATOM     14  C   UNL d   1      -0.484   4.390  -0.164  0.00  0.00     0.005 A 
ATOM     15  S   UNL d   1      -1.345   4.857  -1.576  0.00  0.00    -0.102 SA
ATOM     16  C   UNL d   1      -2.320   5.958  -0.704  0.00  0.00     0.050 A 
ATOM     17  C   UNL d   1      -1.990   5.994   0.632  0.00  0.00     0.008 A 
ATOM     18  C   UNL d   1      -0.926   5.097   0.939  0.00  0.00     0.019 A 
ENDBRANCH   5  14
TORSDOF 2
