REMARK  4 active torsions:
REMARK  status: ('A' for Active; 'I' for Inactive)
REMARK    1  A    between atoms: C_9  and  N_1 
REMARK    2  A    between atoms: C_12  and  N_2 
REMARK    3  A    between atoms: C_16  and  C_12 
REMARK    4  A    between atoms: O_24  and  C_18 
ROOT
ATOM      1  N   UNL d   1       0.917  -1.411   0.112  0.00  0.00    -0.245 N 
ATOM      2  N   UNL d   1       2.096   0.675   0.022  0.00  0.00    -0.260 N 
ATOM      3  C   UNL d   1       2.147  -0.734   0.112  0.00  0.00     0.338 A 
ATOM      4  C   UNL d   1      -0.261  -0.707   0.004  0.00  0.00     0.150 A 
ATOM      5  C   UNL d   1      -0.251   0.652  -0.069  0.00  0.00     0.147 A 
ATOM      6  C   UNL d   1       0.930   1.438  -0.083  0.00  0.00     0.282 A 
ATOM      7  N   UNL d   1      -1.541  -1.188  -0.015  0.00  0.00    -0.336 N 
ATOM      8  HN  UNL d   1      -1.839  -2.163   0.017  1.00  0.00     0.168 HD
ATOM      9  N   UNL d   1      -1.558   1.034  -0.118  0.00  0.00    -0.345 N 
ATOM     10  C   UNL d   1      -2.304  -0.116  -0.083  0.00  0.00     0.182 A 
ATOM     11  O   UNL d   1       3.229  -1.331   0.121  0.00  0.00    -0.246 OA
ATOM     12  O   UNL d   1       0.894   2.658  -0.206  0.00  0.00    -0.265 OA
ATOM     13  H   UNL d   1      -1.905   1.984  -0.162  0.00  0.00     0.167 HD
ENDROOT
BRANCH   2  14
ATOM     14  C   UNL d   1       3.364   1.389  -0.019  0.00  0.00     0.175 C 
BRANCH  14  15
ATOM     15  C   UNL d   1       3.827   1.808   1.358  0.00  0.00    -0.040 A 
ATOM     16  C   UNL d   1       4.671   0.980   2.110  0.00  0.00     0.011 A 
ATOM     17  C   UNL d   1       5.070   1.349   3.400  0.00  0.00     0.037 A 
ATOM     18  C   UNL d   1       4.620   2.545   3.958  0.00  0.00     0.068 A 
ATOM     19  C   UNL d   1       3.790   3.378   3.208  0.00  0.00     0.037 A 
ATOM     20  C   UNL d   1       3.394   3.016   1.919  0.00  0.00     0.011 A 
BRANCH  18  21
ATOM     21  O   UNL d   1       4.917   3.011   5.210  0.00  0.00    -0.356 OA
ATOM     22  C   UNL d   1       5.622   2.125   6.069  0.00  0.00     0.210 C 
ENDBRANCH  18  21
ENDBRANCH  14  15
ENDBRANCH   2  14
BRANCH   1  23
ATOM     23  C   UNL d   1       0.852  -2.826   0.142  0.00  0.00     0.067 A 
ATOM     24  C   UNL d   1       1.364  -3.574   1.216  0.00  0.00     0.061 A 
ATOM     25 CL   UNL d   1       1.887  -2.829   2.689  0.00  0.00    -0.082 Cl
ATOM     26  C   UNL d   1       1.386  -4.972   1.154  0.00  0.00     0.026 A 
ATOM     27  C   UNL d   1       0.910  -5.633   0.021  0.00  0.00     0.002 A 
ATOM     28  C   UNL d   1       0.381  -4.901  -1.040  0.00  0.00     0.002 A 
ATOM     29  C   UNL d   1       0.340  -3.507  -0.976  0.00  0.00     0.032 A 
ENDBRANCH   1  23
TORSDOF 4
