REMARK  6 active torsions:
REMARK  status: ('A' for Active; 'I' for Inactive)
REMARK    1  A    between atoms: S_11  and  C_3 
REMARK    2  A    between atoms: C_4  and  C_5 
REMARK    3  A    between atoms: C_7  and  C_19 
REMARK       I    between atoms: N_10  and  C_7 
REMARK    4  A    between atoms: C_20  and  N_10 
REMARK    5  A    between atoms: C_19  and  S_11 
REMARK    6  A    between atoms: C_23  and  C_14 
ROOT
ATOM      1  S   UNL d   1       0.124   2.792   0.710  0.00  0.00    -0.085 SA
ENDROOT
BRANCH   1   2
ATOM      2  C   UNL d   1      -0.313   1.080   0.483  0.00  0.00     0.145 A 
ATOM      3  N   UNL d   1      -1.188   0.747  -0.481  0.00  0.00    -0.336 N 
ATOM      4  C   UNL d   1      -1.410  -0.576  -0.670  0.00  0.00     0.052 A 
ATOM      5  HN  UNL d   1      -1.661   1.454  -1.043  1.00  0.00     0.168 HD
ATOM      6  C   UNL d   1      -0.756  -1.550   0.060  0.00  0.00     0.048 A 
ATOM      7  C   UNL d   1       0.106  -1.099   1.027  0.00  0.00     0.092 A 
ATOM      8  N   UNL d   1       0.343   0.203   1.259  0.00  0.00    -0.347 N 
ATOM      9  HN  UNL d   1       0.988   0.510   1.987  1.00  0.00     0.167 HD
BRANCH   4  10
ATOM     10  C   UNL d   1      -2.381  -0.891  -1.733  0.00  0.00     0.031 A 
ATOM     11  S   UNL d   1      -3.228  -2.393  -1.758  0.00  0.00    -0.100 SA
ATOM     12  C   UNL d   1      -4.081  -1.990  -3.177  0.00  0.00     0.050 A 
ATOM     13  C   UNL d   1      -3.749  -0.735  -3.637  0.00  0.00     0.008 A 
ATOM     14  C   UNL d   1      -2.779  -0.103  -2.803  0.00  0.00     0.021 A 
ENDBRANCH   4  10
ENDBRANCH   1   2
BRANCH   1  15
ATOM     15  C   UNL d   1      -1.386   3.576   0.094  0.00  0.00     0.185 C 
BRANCH  15  16
ATOM     16  C   UNL d   1      -1.386   5.091   0.244  0.00  0.00     0.231 C 
ATOM     17  N   UNL d   1      -0.187   5.743  -0.003  0.00  0.00    -0.327 N 
ATOM     18  H   UNL d   1       0.592   5.162  -0.281  0.00  0.00     0.169 HD
ATOM     19  O   UNL d   1      -2.459   5.653   0.482  0.00  0.00    -0.272 OA
BRANCH  17  20
ATOM     20  C   UNL d   1       0.077   7.126   0.167  0.00  0.00     0.034 A 
ATOM     21  C   UNL d   1      -0.838   8.015   0.733  0.00  0.00     0.030 A 
ATOM     22  C   UNL d   1      -0.500   9.354   0.958  0.00  0.00     0.010 A 
ATOM     23  C   UNL d   1       0.762   9.850   0.619  0.00  0.00    -0.055 A 
ATOM     24  C   UNL d   1       1.668   8.971   0.009  0.00  0.00     0.010 A 
ATOM     25  C   UNL d   1       1.332   7.622  -0.208  0.00  0.00     0.030 A 
BRANCH  23  26
ATOM     26  C   UNL d   1       1.160  11.277   0.959  0.00  0.00     0.010 C 
ATOM     27  C   UNL d   1       0.253  12.316   0.291  0.00  0.00     0.015 C 
ATOM     28  C   UNL d   1       1.175  11.488   2.479  0.00  0.00     0.015 C 
ENDBRANCH  23  26
ENDBRANCH  17  20
ENDBRANCH  15  16
ENDBRANCH   1  15
TORSDOF 6
