REMARK  6 active torsions:
REMARK  status: ('A' for Active; 'I' for Inactive)
REMARK    1  A    between atoms: C_2  and  N_1 
REMARK    2  A    between atoms: N_7  and  C_2 
REMARK    3  A    between atoms: N_4  and  C_9 
REMARK    4  A    between atoms: C_14  and  N_7 
REMARK    5  A    between atoms: C_9  and  C_10 
REMARK    6  A    between atoms: C_10  and  C_14 
ROOT
ATOM      1  N   UNL d   1       2.452   2.478  -1.325  0.00  0.00    -0.367 N 
ATOM      2  H   UNL d   1       2.838   1.548  -1.224  0.00  0.00     0.161 HD
ENDROOT
BRANCH   1   3
ATOM      3  C   UNL d   1       1.146   2.575  -0.895  0.00  0.00     0.170 C 
ATOM      4  S   UNL d   1       0.041   3.613  -1.621  0.00  0.00    -0.041 SA
BRANCH   3   5
ATOM      5  N   UNL d   1       0.855   1.690   0.164  0.00  0.00    -0.350 N 
ATOM      6  C   UNL d   1      -0.534   1.177   0.354  0.00  0.00     0.083 C 
ATOM      7  C   UNL d   1      -1.194   1.772   1.611  0.00  0.00     0.025 C 
ATOM      8  C   UNL d   1      -0.567  -0.355   0.349  0.00  0.00     0.032 C 
ATOM      9  C   UNL d   1      -0.323   1.599   2.848  0.00  0.00     0.004 C 
ATOM     10  C   UNL d   1       1.069   2.160   2.598  0.00  0.00     0.025 C 
ATOM     11  C   UNL d   1       1.736   1.521   1.364  0.00  0.00     0.083 C 
ATOM     12  C   UNL d   1       3.182   2.033   1.311  0.00  0.00     0.032 C 
ENDBRANCH   3   5
ENDBRANCH   1   3
BRANCH   1  13
ATOM     13  C   UNL d   1       3.145   3.384  -2.234  0.00  0.00     0.123 C 
BRANCH  13  14
ATOM     14  C   UNL d   1       4.605   2.974  -2.436  0.00  0.00     0.050 C 
BRANCH  14  15
ATOM     15  C   UNL d   1       5.342   3.998  -3.310  0.00  0.00     0.274 C 
BRANCH  15  16
ATOM     16  N   UNL d   1       6.779   3.723  -3.475  0.00  0.00     0.092 N 
ATOM     17  C   UNL d   1       7.444   4.818  -4.226  0.00  0.00     0.298 C 
ATOM     18  C   UNL d   1       7.136   4.819  -5.735  0.00  0.00     0.198 C 
ATOM     19  O   UNL d   1       7.468   3.562  -6.338  0.00  0.00    -0.388 OA
ATOM     20  C   UNL d   1       6.777   2.488  -5.688  0.00  0.00     0.198 C 
ATOM     21  C   UNL d   1       7.080   2.457  -4.182  0.00  0.00     0.298 C 
ENDBRANCH  15  16
ENDBRANCH  14  15
ENDBRANCH  13  14
ENDBRANCH   1  13
TORSDOF 6
