REMARK  8 active torsions:
REMARK  status: ('A' for Active; 'I' for Inactive)
REMARK    1  A    between atoms: N_2  and  S_1 
REMARK    2  A    between atoms: C_10  and  S_1 
REMARK    3  A    between atoms: N_3  and  N_2 
REMARK    4  A    between atoms: C_4  and  N_3 
REMARK    5  A    between atoms: N_6  and  C_4 
REMARK    6  A    between atoms: C_5  and  N_6 
REMARK    7  A    between atoms: O_19  and  C_9 
REMARK    8  A    between atoms: O_20  and  C_12 
ROOT
ATOM      1  C   UNL d   1       0.463   2.737  -2.730  0.00  0.00     0.191 C 
ATOM      2  S   UNL d   1       0.592   4.405  -2.783  0.00  0.00    -0.039 SA
ENDROOT
BRANCH   1   3
ATOM      3  N   UNL d   1       0.850   1.963  -1.659  0.00  0.00    -0.266 N 
ATOM      4  H   UNL d   1       0.525   0.999  -1.594  0.00  0.00     0.190 HD
BRANCH   3   5
ATOM      5  N   UNL d   1       1.291   2.556  -0.406  0.00  0.00    -0.221 N 
ATOM      6  H   UNL d   1       1.356   3.577  -0.346  0.00  0.00     0.200 HD
BRANCH   5   7
ATOM      7  S   UNL d   1       1.010   1.675   1.019  0.00  0.00     0.276 S 
ATOM      8  O   UNL d   1       2.001   0.619   1.087  0.00  0.00    -0.199 OA
ATOM      9  O   UNL d   1      -0.405   1.374   1.059  0.00  0.00    -0.199 OA
BRANCH   7  10
ATOM     10  C   UNL d   1       1.370   2.869   2.274  0.00  0.00     0.081 A 
ATOM     11  C   UNL d   1       0.331   3.582   2.878  0.00  0.00     0.026 A 
ATOM     12  C   UNL d   1       0.625   4.494   3.894  0.00  0.00     0.008 A 
ATOM     13  C   UNL d   1       1.949   4.693   4.312  0.00  0.00    -0.062 A 
ATOM     14  C   UNL d   1       2.976   3.951   3.715  0.00  0.00     0.008 A 
ATOM     15  C   UNL d   1       2.246   5.670   5.412  0.00  0.00     0.048 C 
ATOM     16  C   UNL d   1       2.692   3.038   2.699  0.00  0.00     0.026 A 
ENDBRANCH   7  10
ENDBRANCH   5   7
ENDBRANCH   3   5
ENDBRANCH   1   3
BRANCH   1  17
ATOM     17  N   UNL d   1      -0.178   2.082  -3.753  0.00  0.00    -0.330 N 
ATOM     18  H   UNL d   1      -0.864   2.639  -4.255  0.00  0.00     0.168 HD
BRANCH  17  19
ATOM     19  C   UNL d   1      -0.174   0.702  -4.054  0.00  0.00     0.070 A 
ATOM     20  C   UNL d   1       0.966  -0.081  -3.844  0.00  0.00     0.071 A 
ATOM     21  C   UNL d   1       0.958  -1.457  -4.098  0.00  0.00     0.092 A 
ATOM     22  C   UNL d   1      -0.230  -2.054  -4.541  0.00  0.00     0.070 A 
ATOM     23  C   UNL d   1      -1.354  -1.258  -4.813  0.00  0.00     0.065 A 
ATOM     24 CL   UNL d   1      -0.446  -3.759  -4.699  0.00  0.00    -0.081 Cl
ATOM     25  C   UNL d   1      -1.332   0.122  -4.598  0.00  0.00     0.096 A 
BRANCH  21  26
ATOM     26  O   UNL d   1       2.142  -2.067  -3.785  0.00  0.00    -0.354 OA
ATOM     27  C   UNL d   1       2.581  -3.110  -4.647  0.00  0.00     0.210 C 
ENDBRANCH  21  26
BRANCH  25  28
ATOM     28  O   UNL d   1      -2.388   0.970  -4.819  0.00  0.00    -0.354 OA
ATOM     29  C   UNL d   1      -3.575   0.400  -5.360  0.00  0.00     0.210 C 
ENDBRANCH  25  28
ENDBRANCH  17  19
ENDBRANCH   1  17
TORSDOF 8
