REMARK  3 active torsions:
REMARK  status: ('A' for Active; 'I' for Inactive)
REMARK    1  A    between atoms: S_9  and  C_3 
REMARK    2  A    between atoms: C_11  and  S_9 
REMARK    3  A    between atoms: C_13  and  C_11 
ROOT
ATOM      1  N   UNL d   1       1.013   1.477   0.464  0.00  0.00    -0.339 N 
ATOM      2  HN  UNL d   1       0.889   2.342   0.990  1.00  0.00     0.167 HD
ATOM      3  C   UNL d   1       2.200   1.117   0.111  0.00  0.00     0.138 C 
ATOM      4  C   UNL d   1      -0.178  -0.702   0.123  0.00  0.00     0.060 A 
ATOM      5  C   UNL d   1       0.986  -1.587   0.381  0.00  0.00     0.268 C 
ATOM      6  N   UNL d   1       2.261  -1.188   0.036  0.00  0.00    -0.281 N 
ATOM      7  C   UNL d   1      -0.111   0.703   0.140  0.00  0.00     0.049 A 
ATOM      8  N   UNL d   1       2.555   0.015  -0.632  0.00  0.00    -0.181 NA
ATOM      9  O   UNL d   1       0.811  -2.702   0.868  0.00  0.00    -0.266 OA
ATOM     10  C   UNL d   1      -1.416  -1.341  -0.090  0.00  0.00     0.019 A 
ATOM     11  C   UNL d   1      -1.294   1.426  -0.082  0.00  0.00     0.030 A 
ATOM     12  C   UNL d   1      -2.578  -0.599  -0.301  0.00  0.00     0.001 A 
ATOM     13  C   UNL d   1      -2.516   0.788  -0.303  0.00  0.00     0.002 A 
ATOM     14  H   UNL d   1       3.037  -1.819   0.222  0.00  0.00     0.184 HD
ATOM     15  H   UNL d   1       2.060   0.018  -1.524  0.00  0.00     0.155 HD
ENDROOT
BRANCH   3  16
ATOM     16  S   UNL d   1       3.548   2.149   0.568  0.00  0.00    -0.094 SA
BRANCH  16  17
ATOM     17  C   UNL d   1       2.846   2.936   2.049  0.00  0.00     0.120 C 
BRANCH  17  18
ATOM     18  C   UNL d   1       3.803   3.933   2.660  0.00  0.00    -0.048 A 
ATOM     19  C   UNL d   1       3.722   5.293   2.324  0.00  0.00     0.009 A 
ATOM     20  C   UNL d   1       4.612   6.216   2.879  0.00  0.00     0.019 A 
ATOM     21  C   UNL d   1       5.592   5.781   3.769  0.00  0.00     0.011 A 
ATOM     22  C   UNL d   1       5.686   4.434   4.112  0.00  0.00     0.019 A 
ATOM     23 BR   UNL d   1       6.807   7.027   4.509  0.00  0.00    -0.051 Br
ATOM     24  C   UNL d   1       4.795   3.513   3.559  0.00  0.00     0.009 A 
ENDBRANCH  17  18
ENDBRANCH  16  17
ENDBRANCH   3  16
TORSDOF 3
