REMARK  4 active torsions:
REMARK  status: ('A' for Active; 'I' for Inactive)
REMARK    1  A    between atoms: N_4  and  C_1 
REMARK       I    between atoms: C_3  and  N_4 
REMARK    2  A    between atoms: C_7  and  C_3 
REMARK       I    between atoms: C_10  and  N_11 
REMARK    3  A    between atoms: C_16  and  C_10 
REMARK    4  A    between atoms: N_11  and  C_13 
ROOT
ATOM      1  C   UNL d   1       3.788  -1.628  -0.032  0.00  0.00     0.059 A 
ATOM      2  C   UNL d   1       2.834  -2.154  -0.919  0.00  0.00     0.050 A 
ATOM      3  C   UNL d   1       4.571  -2.495   0.753  0.00  0.00     0.019 A 
ATOM      4  C   UNL d   1       2.691  -3.548  -0.999  0.00  0.00     0.030 A 
ATOM      5  C   UNL d   1       4.412  -3.876   0.662  0.00  0.00     0.001 A 
ATOM      6  C   UNL d   1       3.473  -4.403  -0.217  0.00  0.00     0.002 A 
ENDROOT
BRANCH   1   7
ATOM      7  C   UNL d   1       3.959  -0.176   0.238  0.00  0.00     0.259 C 
ATOM      8  N   UNL d   1       2.785   0.539   0.341  0.00  0.00    -0.302 N 
ATOM      9  H   UNL d   1       1.890   0.074   0.274  0.00  0.00     0.171 HD
ATOM     10  O   UNL d   1       5.095   0.247   0.413  0.00  0.00    -0.267 OA
BRANCH   8  11
ATOM     11  C   UNL d   1       2.785   1.825   0.814  0.00  0.00     0.168 A 
ATOM     12  S   UNL d   1       1.239   2.465   1.158  0.00  0.00    -0.038 SA
ATOM     13  C   UNL d   1       2.048   3.844   1.798  0.00  0.00     0.066 A 
ATOM     14  C   UNL d   1       1.311   4.945   2.467  0.00  0.00     0.078 C 
ATOM     15  N   UNL d   1       3.356   3.808   1.659  0.00  0.00    -0.296 N 
ATOM     16  N   UNL d   1       3.784   2.627   1.083  0.00  0.00    -0.279 N 
ATOM     17  HN  UNL d   1       3.981   4.563   1.943  1.00  0.00     0.187 HD
ATOM     18  HN  UNL d   1       4.762   2.407   0.891  1.00  0.00     0.189 HD
ENDBRANCH   8  11
ENDBRANCH   1   7
BRANCH   2  19
ATOM     19  N   UNL d   1       2.048  -1.321  -1.760  0.00  0.00    -0.322 N 
ATOM     20  C   UNL d   1       0.720  -1.594  -2.032  0.00  0.00     0.256 C 
ATOM     21  O   UNL d   1       0.056  -2.466  -1.475  0.00  0.00    -0.267 OA
ATOM     22  H   UNL d   1       2.411  -0.401  -1.996  0.00  0.00     0.169 HD
BRANCH  20  23
ATOM     23  C   UNL d   1       0.027  -0.693  -2.980  0.00  0.00     0.032 A 
ATOM     24  C   UNL d   1       0.627  -0.275  -4.172  0.00  0.00     0.017 A 
ATOM     25  C   UNL d   1      -0.115   0.475  -5.088  0.00  0.00     0.001 A 
ATOM     26  C   UNL d   1      -1.443   0.813  -4.812  0.00  0.00     0.000 A 
ATOM     27  C   UNL d   1      -2.037   0.406  -3.617  0.00  0.00     0.001 A 
ATOM     28  C   UNL d   1      -1.304  -0.353  -2.706  0.00  0.00     0.017 A 
ENDBRANCH  20  23
ENDBRANCH   2  19
TORSDOF 4
