REMARK  5 active torsions:
REMARK  status: ('A' for Active; 'I' for Inactive)
REMARK    1  A    between atoms: N_5  and  C_1 
REMARK    2  A    between atoms: N_8  and  C_1 
REMARK    3  A    between atoms: N_3  and  N_5 
REMARK    4  A    between atoms: C_6  and  C_9 
REMARK    5  A    between atoms: C_10  and  C_7 
ROOT
ATOM      1  N   UNL d   1      -1.314   0.788  -0.783  0.00  0.00    -0.310 N 
ATOM      2  HN  UNL d   1      -1.863   0.154  -0.203  1.00  0.00     0.186 HD
ATOM      3  C   UNL d   1      -1.876   1.646  -1.571  0.00  0.00     0.107 C 
ENDROOT
BRANCH   1   4
ATOM      4  N   UNL d   1       0.049   0.775  -0.766  0.00  0.00    -0.277 N 
ATOM      5  H   UNL d   1       0.590   1.412  -1.343  0.00  0.00     0.189 HD
BRANCH   4   6
ATOM      6  C   UNL d   1       0.719  -0.107   0.064  0.00  0.00     0.186 C 
ATOM      7  S   UNL d   1       2.382  -0.119   0.103  0.00  0.00    -0.040 SA
BRANCH   6   8
ATOM      8  N   UNL d   1      -0.134  -0.898   0.787  0.00  0.00    -0.370 N 
ATOM      9  C   UNL d   1       0.156  -1.934   1.748  0.00  0.00     0.148 C 
ATOM     10  H   UNL d   1      -1.105  -0.683   0.575  0.00  0.00     0.161 HD
ENDBRANCH   6   8
ENDBRANCH   4   6
ENDBRANCH   1   4
BRANCH   3  11
ATOM     11  C   UNL d   1      -3.348   1.710  -1.599  0.00  0.00     0.019 C 
ATOM     12  C   UNL d   1      -4.021   2.597  -2.345  0.00  0.00     0.013 C 
BRANCH  12  13
ATOM     13  C   UNL d   1      -5.491   2.680  -2.322  0.00  0.00    -0.036 A 
ATOM     14  C   UNL d   1      -6.234   2.395  -1.166  0.00  0.00     0.011 A 
ATOM     15  C   UNL d   1      -7.627   2.497  -1.164  0.00  0.00     0.001 A 
ATOM     16  C   UNL d   1      -8.295   2.903  -2.314  0.00  0.00     0.000 A 
ATOM     17  C   UNL d   1      -7.571   3.210  -3.465  0.00  0.00     0.001 A 
ATOM     18  C   UNL d   1      -6.176   3.103  -3.468  0.00  0.00     0.011 A 
ENDBRANCH  12  13
ENDBRANCH   3  11
TORSDOF 5
