REMARK  4 active torsions:
REMARK  status: ('A' for Active; 'I' for Inactive)
REMARK    1  A    between atoms: C_2  and  C_1 
REMARK    2  A    between atoms: O_11  and  C_2 
REMARK    3  A    between atoms: O_13  and  C_3 
REMARK       I    between atoms: C_5  and  N_6 
REMARK    4  A    between atoms: N_6  and  C_7 
ROOT
ATOM      1  C   UNL d   1       0.339   1.316  -0.025  0.00  0.00     0.072 A 
ATOM      2  C   UNL d   1       0.919   0.045   0.019  0.00  0.00     0.082 A 
ATOM      3  C   UNL d   1      -1.058   1.440  -0.042  0.00  0.00     0.050 A 
ATOM      4  C   UNL d   1      -1.873   0.305   0.008  0.00  0.00     0.035 A 
ATOM      5  C   UNL d   1       0.121  -1.090   0.088  0.00  0.00     0.040 A 
ATOM      6  C   UNL d   1      -1.270  -0.959   0.076  0.00  0.00     0.032 A 
ENDROOT
BRANCH   4   7
ATOM      7  N   UNL d   1      -3.284   0.347  -0.009  0.00  0.00    -0.327 N 
ATOM      8  C   UNL d   1      -4.087   1.472  -0.035  0.00  0.00     0.218 C 
ATOM      9  O   UNL d   1      -3.712   2.639  -0.025  0.00  0.00    -0.274 OA
ATOM     10  C   UNL d   1      -5.562   1.154  -0.075  0.00  0.00     0.117 C 
ATOM     11  H   UNL d   1      -3.754  -0.550   0.010  0.00  0.00     0.169 HD
ENDBRANCH   4   7
BRANCH   1  12
ATOM     12  C   UNL d   1       1.147   2.558  -0.063  0.00  0.00     0.179 C 
ATOM     13  O   UNL d   1       0.806   3.563  -0.659  0.00  0.00    -0.646 OA
BRANCH  12  14
ATOM     14  O   UNL d   1       2.308   2.460   0.623  0.00  0.00    -0.773 OA
ATOM     15  H   UNL d   1       2.396   1.637   1.149  0.00  0.00     0.167 HD
ENDBRANCH  12  14
ENDBRANCH   1  12
BRANCH   2  16
ATOM     16  O   UNL d   1       2.272  -0.149  -0.002  0.00  0.00    -0.360 OA
ATOM     17  H   UNL d   1       2.649   0.427  -0.698  0.00  0.00     0.217 HD
ENDBRANCH   2  16
TORSDOF 4
