REMARK  3 active torsions:
REMARK  status: ('A' for Active; 'I' for Inactive)
REMARK    1  A    between atoms: C_11  and  C_2 
REMARK    2  A    between atoms: C_13  and  C_10 
REMARK    3  A    between atoms: C_14  and  C_12 
ROOT
ATOM      1  N   UNL d   1       0.312   0.627   0.022  0.00  0.00    -0.235 N 
ATOM      2  C   UNL d   1      -0.806   1.452   0.018  0.00  0.00     0.144 A 
ATOM      3  C   UNL d   1       0.158  -0.763   0.025  0.00  0.00     0.130 A 
ATOM      4  N   UNL d   1       1.622   0.966   0.035  0.00  0.00    -0.291 N 
ATOM      5  HN  UNL d   1       2.011   1.908   0.064  1.00  0.00     0.187 HD
ATOM      6  N   UNL d   1      -1.062  -1.372   0.058  0.00  0.00    -0.340 N 
ATOM      7  HN  UNL d   1      -1.152  -2.387   0.084  1.00  0.00     0.167 HD
ATOM      8  C   UNL d   1      -2.038   0.900   0.027  0.00  0.00     0.067 A 
ATOM      9  C   UNL d   1       1.424  -1.291  -0.006  0.00  0.00     0.082 A 
ATOM     10  C   UNL d   1       2.304  -0.186   0.001  0.00  0.00     0.062 A 
ATOM     11  C   UNL d   1      -2.107  -0.596   0.053  0.00  0.00     0.046 A 
ENDROOT
BRANCH  10  12
ATOM     12  C   UNL d   1       3.766  -0.216  -0.003  0.00  0.00    -0.008 A 
ATOM     13  C   UNL d   1       4.502   0.801   0.620  0.00  0.00     0.014 A 
ATOM     14  C   UNL d   1       5.898   0.747   0.657  0.00  0.00     0.007 A 
ATOM     15  C   UNL d   1       6.582  -0.319   0.062  0.00  0.00    -0.062 A 
ATOM     16  C   UNL d   1       5.851  -1.323  -0.582  0.00  0.00     0.007 A 
ATOM     17  C   UNL d   1       8.079  -0.382   0.130  0.00  0.00     0.048 C 
ATOM     18  C   UNL d   1       4.455  -1.272  -0.613  0.00  0.00     0.014 A 
ENDBRANCH  10  12
BRANCH   2  19
ATOM     19  C   UNL d   1      -0.624   2.923   0.013  0.00  0.00     0.434 C 
ATOM     20  F   UNL d   1       0.645   3.387  -0.004  0.00  0.00    -0.165 F 
ATOM     21  F   UNL d   1      -1.247   3.475  -1.066  0.00  0.00    -0.165 F 
ATOM     22  F   UNL d   1      -1.221   3.481   1.103  0.00  0.00    -0.165 F 
ENDBRANCH   2  19
BRANCH  11  23
ATOM     23  C   UNL d   1      -3.465  -1.211   0.119  0.00  0.00    -0.009 A 
ATOM     24  C   UNL d   1      -3.618  -2.412   0.830  0.00  0.00     0.015 A 
ATOM     25  C   UNL d   1      -4.874  -3.015   0.934  0.00  0.00     0.024 A 
ATOM     26  C   UNL d   1      -5.976  -2.425   0.321  0.00  0.00     0.034 A 
ATOM     27  C   UNL d   1      -5.832  -1.244  -0.406  0.00  0.00     0.024 A 
ATOM     28 CL   UNL d   1      -7.526  -3.160   0.456  0.00  0.00    -0.084 Cl
ATOM     29  C   UNL d   1      -4.575  -0.638  -0.513  0.00  0.00     0.015 A 
ENDBRANCH  11  23
TORSDOF 3
