REMARK  4 active torsions:
REMARK  status: ('A' for Active; 'I' for Inactive)
REMARK    1  A    between atoms: C_2  and  S_1 
REMARK    2  A    between atoms: N_5  and  S_1 
REMARK    3  A    between atoms: C_13  and  N_5 
REMARK    4  A    between atoms: C_22  and  C_17 
ROOT
ATOM      1  N   UNL d   1       4.346   5.757   3.846  0.00  0.00    -0.197 NA
ATOM      2  C   UNL d   1       3.486   5.986   3.099  0.00  0.00     0.063 C 
ATOM      3  C   UNL d   1       2.396   6.297   2.163  0.00  0.00     0.162 C 
ENDROOT
BRANCH   3   4
ATOM      4  C   UNL d   1       1.823   5.059   1.513  0.00  0.00    -0.045 A 
ATOM      5  C   UNL d   1       0.756   4.375   2.114  0.00  0.00     0.010 A 
ATOM      6  C   UNL d   1       0.243   3.216   1.531  0.00  0.00     0.030 A 
ATOM      7  C   UNL d   1       0.812   2.712   0.363  0.00  0.00     0.042 A 
ATOM      8  C   UNL d   1       1.863   3.384  -0.252  0.00  0.00     0.030 A 
ATOM      9  C   UNL d   1       2.369   4.555   0.322  0.00  0.00     0.010 A 
BRANCH   7  10
ATOM     10  N   UNL d   1       0.275   1.540  -0.215  0.00  0.00    -0.281 N 
ATOM     11  H   UNL d   1      -0.485   1.590  -0.891  0.00  0.00     0.179 HD
BRANCH  10  12
ATOM     12  S   UNL d   1       0.962   0.042   0.058  0.00  0.00     0.265 S 
ATOM     13  O   UNL d   1       0.181  -0.934  -0.670  0.00  0.00    -0.200 OA
ATOM     14  O   UNL d   1       2.389   0.153  -0.162  0.00  0.00    -0.200 OA
BRANCH  12  15
ATOM     15  C   UNL d   1       0.699  -0.260   1.787  0.00  0.00     0.103 A 
ATOM     16  C   UNL d   1       1.825  -0.501   2.592  0.00  0.00     0.052 A 
ATOM     17  C   UNL d   1       1.674  -0.736   3.961  0.00  0.00     0.057 A 
ATOM     18 CL   UNL d   1       3.099  -1.038   4.888  0.00  0.00    -0.083 Cl
ATOM     19  C   UNL d   1       0.399  -0.722   4.532  0.00  0.00     0.057 A 
ATOM     20  C   UNL d   1      -0.722  -0.490   3.727  0.00  0.00     0.051 A 
ATOM     21 CL   UNL d   1       0.134  -0.979   6.219  0.00  0.00    -0.082 Cl
ATOM     22  C   UNL d   1      -0.579  -0.271   2.350  0.00  0.00     0.059 A 
ATOM     23 CL   UNL d   1      -2.032  -0.002   1.459  0.00  0.00    -0.083 Cl
ENDBRANCH  12  15
ENDBRANCH  10  12
ENDBRANCH   7  10
ENDBRANCH   3   4
TORSDOF 4
