REMARK  8 active torsions:
REMARK  status: ('A' for Active; 'I' for Inactive)
REMARK    1  A    between atoms: N_2  and  S_1 
REMARK    2  A    between atoms: C_5  and  S_1 
REMARK       I    between atoms: C_3  and  N_4 
REMARK    3  A    between atoms: O_6  and  C_3 
REMARK    4  A    between atoms: C_14  and  O_6 
REMARK    5  A    between atoms: C_23  and  C_19 
REMARK    6  A    between atoms: C_24  and  C_23 
REMARK    7  A    between atoms: C_26  and  C_24 
REMARK    8  A    between atoms: C_25  and  C_26 
ROOT
ATOM      1  S   UNL d   1       0.933   0.008  -0.283  0.00  0.00     0.243 S 
ATOM      2  O   UNL d   1       0.050  -0.845  -1.054  0.00  0.00    -0.206 OA
ATOM      3  O   UNL d   1       2.367  -0.125  -0.384  0.00  0.00    -0.206 OA
ENDROOT
BRANCH   1   4
ATOM      4  N   UNL d   1       0.504  -0.146   1.362  0.00  0.00    -0.203 NA
ATOM      5  C   UNL d   1       1.229   0.721   2.345  0.00  0.00     0.127 C 
ATOM      6  C   UNL d   1       2.618   0.178   2.705  0.00  0.00     0.143 C 
ATOM      7  N   UNL d   1       2.601  -1.245   3.044  0.00  0.00    -0.326 N 
ATOM      8  C   UNL d   1       3.464  -1.696   4.024  0.00  0.00     0.363 C 
ATOM      9  C   UNL d   1       1.863  -2.119   2.128  0.00  0.00     0.143 C 
ATOM     10  O   UNL d   1       4.050  -0.941   4.789  0.00  0.00    -0.238 OA
ATOM     11  C   UNL d   1       0.456  -1.561   1.857  0.00  0.00     0.127 C 
BRANCH   8  12
ATOM     12  O   UNL d   1       3.574  -3.051   4.057  0.00  0.00    -0.294 OA
BRANCH  12  13
ATOM     13  C   UNL d   1       4.339  -3.690   5.115  0.00  0.00     0.061 C 
ATOM     14  C   UNL d   1       3.668  -3.438   6.472  0.00  0.00     0.046 C 
ATOM     15  C   UNL d   1       4.287  -5.195   4.805  0.00  0.00     0.046 C 
ATOM     16  C   UNL d   1       5.812  -3.259   5.120  0.00  0.00     0.046 C 
ENDBRANCH  12  13
ENDBRANCH   8  12
ENDBRANCH   1   4
BRANCH   1  17
ATOM     17  C   UNL d   1       0.503   1.688  -0.654  0.00  0.00     0.074 A 
ATOM     18  C   UNL d   1       1.491   2.595  -1.044  0.00  0.00     0.025 A 
ATOM     19  C   UNL d   1       1.144   3.924  -1.292  0.00  0.00     0.009 A 
ATOM     20  C   UNL d   1      -0.186   4.346  -1.155  0.00  0.00    -0.058 A 
ATOM     21  C   UNL d   1      -1.171   3.410  -0.802  0.00  0.00     0.009 A 
ATOM     22  C   UNL d   1      -0.830   2.084  -0.543  0.00  0.00     0.025 A 
BRANCH  20  23
ATOM     23  C   UNL d   1      -0.556   5.797  -1.355  0.00  0.00     0.038 C 
BRANCH  23  24
ATOM     24  C   UNL d   1      -1.073   6.413  -0.051  0.00  0.00     0.005 C 
BRANCH  24  25
ATOM     25  C   UNL d   1      -1.459   7.880  -0.222  0.00  0.00    -0.000 C 
BRANCH  25  26
ATOM     26  C   UNL d   1      -2.017   8.440   1.087  0.00  0.00    -0.005 C 
ATOM     27  C   UNL d   1      -2.420   9.897   0.947  0.00  0.00     0.005 C 
ENDBRANCH  25  26
ENDBRANCH  24  25
ENDBRANCH  23  24
ENDBRANCH  20  23
ENDBRANCH   1  17
TORSDOF 8
