REMARK  4 active torsions:
REMARK  status: ('A' for Active; 'I' for Inactive)
REMARK    1  A    between atoms: N_3  and  C_1 
REMARK    2  A    between atoms: S_12  and  C_4 
REMARK    3  A    between atoms: C_5  and  S_12 
REMARK    4  A    between atoms: C_17  and  C_7 
ROOT
ATOM      1  C   UNL d   1       1.564  -3.588   0.015  0.00  0.00     0.210 A 
ATOM      2  O   UNL d   1       2.509  -3.536   1.007  0.00  0.00    -0.267 OA
ATOM      3  C   UNL d   1       3.551  -4.230   0.450  0.00  0.00     0.175 A 
ATOM      4  N   UNL d   1       3.271  -4.676  -0.758  0.00  0.00    -0.277 N 
ATOM      5  HN  UNL d   1       3.884  -5.217  -1.367  1.00  0.00     0.189 HD
ATOM      6  N   UNL d   1       1.981  -4.265  -1.036  0.00  0.00    -0.272 N 
ATOM      7  HN  UNL d   1       1.454  -4.449  -1.890  1.00  0.00     0.189 HD
ENDROOT
BRANCH   1   8
ATOM      8  S   UNL d   1      -0.052  -2.996   0.211  0.00  0.00    -0.019 SA
BRANCH   8   9
ATOM      9  C   UNL d   1       0.203  -1.365  -0.367  0.00  0.00     0.122 A 
ATOM     10  S   UNL d   1      -1.070  -0.493  -1.134  0.00  0.00    -0.039 SA
ATOM     11  C   UNL d   1      -0.061   0.869  -1.218  0.00  0.00     0.161 A 
ATOM     12  C   UNL d   1       1.173   0.599  -0.676  0.00  0.00     0.133 A 
ATOM     13  N   UNL d   1       1.320  -0.690  -0.181  0.00  0.00    -0.352 N 
ATOM     14  HN  UNL d   1       2.163  -1.058   0.260  1.00  0.00     0.166 HD
BRANCH  11  15
ATOM     15  N   UNL d   1      -0.509   2.105  -1.777  0.00  0.00    -0.107 N 
ATOM     16  O   UNL d   1       0.302   3.040  -1.758  0.00  0.00    -0.531 OA
ATOM     17  O   UNL d   1      -1.658   2.160  -2.230  0.00  0.00    -0.531 OA
ENDBRANCH  11  15
ENDBRANCH   8   9
ENDBRANCH   1   8
BRANCH   3  18
ATOM     18  C   UNL d   1       4.763  -4.372   1.249  0.00  0.00     0.017 A 
ATOM     19  C   UNL d   1       4.879  -3.786   2.521  0.00  0.00     0.017 A 
ATOM     20  C   UNL d   1       6.058  -3.912   3.263  0.00  0.00     0.025 A 
ATOM     21  C   UNL d   1       7.132  -4.628   2.743  0.00  0.00     0.034 A 
ATOM     22  C   UNL d   1       7.034  -5.228   1.490  0.00  0.00     0.025 A 
ATOM     23 CL   UNL d   1       8.586  -4.767   3.650  0.00  0.00    -0.084 Cl
ATOM     24  C   UNL d   1       5.854  -5.102   0.748  0.00  0.00     0.017 A 
ENDBRANCH   3  18
TORSDOF 4
