REMARK  2 active torsions:
REMARK  status: ('A' for Active; 'I' for Inactive)
REMARK    1  A    between atoms: C_7  and  C_8 
REMARK    2  A    between atoms: O_13  and  C_7 
ROOT
ATOM      1  N   UNL d   1      -2.231  -0.006   0.004  0.00  0.00    -0.022 NA
ATOM      2  N   UNL d   1      -1.469   1.081   0.003  0.00  0.00    -0.282 N 
ATOM      3  HN  UNL d   1      -1.802   2.045   0.005  1.00  0.00     0.184 HD
ATOM      4  C   UNL d   1      -0.159   0.683   0.001  0.00  0.00     0.074 A 
ATOM      5  N   UNL d   1      -1.413  -1.071   0.002  0.00  0.00    -0.282 N 
ATOM      6  C   UNL d   1      -0.096  -0.703  -0.000  0.00  0.00     0.074 A 
ATOM      7  C   UNL d   1       2.252   0.743  -0.001  0.00  0.00     0.041 A 
ATOM      8  C   UNL d   1       1.026   1.430   0.001  0.00  0.00     0.050 A 
ATOM      9  C   UNL d   1       1.099  -1.421  -0.003  0.00  0.00     0.034 A 
ATOM     10  C   UNL d   1       2.280  -0.664  -0.003  0.00  0.00     0.020 A 
ATOM     11  H   UNL d   1      -1.821  -1.997   0.003  0.00  0.00     0.184 HD
ENDROOT
BRANCH   7  12
ATOM     12  C   UNL d   1       3.495   1.563   0.003  0.00  0.00     0.293 C 
ATOM     13  O   UNL d   1       3.494   2.784   0.004  0.00  0.00    -0.259 OA
BRANCH  12  14
ATOM     14  O   UNL d   1       4.599   0.773   0.006  0.00  0.00    -0.323 OA
ATOM     15  C   UNL d   1       5.828   1.503   0.015  0.00  0.00     0.213 C 
ENDBRANCH  12  14
ENDBRANCH   7  12
TORSDOF 2
