REMARK  8 active torsions:
REMARK  status: ('A' for Active; 'I' for Inactive)
REMARK    1  A    between atoms: C_4  and  C_3 
REMARK    2  A    between atoms: S_12  and  C_5 
REMARK    3  A    between atoms: C_6  and  O_16 
REMARK       I    between atoms: C_8  and  N_13 
REMARK       I    between atoms: N_14  and  C_8 
REMARK    4  A    between atoms: C_11  and  C_19 
REMARK       I    between atoms: N_15  and  C_11 
REMARK    5  A    between atoms: C_19  and  S_12 
REMARK    6  A    between atoms: N_13  and  N_15 
REMARK    7  A    between atoms: C_26  and  N_14 
REMARK    8  A    between atoms: O_16  and  C_27 
ROOT
ATOM      1  C   UNL d   1       0.188  -5.404  -0.248  0.00  0.00     0.245 C 
ATOM      2  N   UNL d   1      -0.883  -5.923  -0.945  0.00  0.00    -0.265 N 
ATOM      3  O   UNL d   1       1.114  -6.125   0.134  0.00  0.00    -0.271 OA
ATOM      4  H   UNL d   1      -1.741  -5.400  -1.126  0.00  0.00     0.190 HD
ENDROOT
BRANCH   1   5
ATOM      5  C   UNL d   1       0.245  -3.889  -0.092  0.00  0.00     0.184 C 
BRANCH   5   6
ATOM      6  S   UNL d   1      -1.391  -3.131   0.187  0.00  0.00    -0.120 SA
BRANCH   6   7
ATOM      7  C   UNL d   1      -0.904  -1.458   0.661  0.00  0.00     0.015 A 
ATOM      8  C   UNL d   1      -0.408  -0.483  -0.244  0.00  0.00     0.007 A 
ATOM      9  C   UNL d   1      -0.128   0.795   0.290  0.00  0.00     0.044 A 
ATOM     10  C   UNL d   1      -0.195  -0.686  -1.631  0.00  0.00     0.015 A 
ATOM     11  N   UNL d   1      -0.317   1.110   1.578  0.00  0.00    -0.352 N 
ATOM     12  C   UNL d   1       0.354   1.794  -0.545  0.00  0.00     0.030 A 
ATOM     13  C   UNL d   1      -0.816   0.176   2.429  0.00  0.00     0.118 A 
ATOM     14  HN  UNL d   1      -0.087   2.044   1.918  1.00  0.00     0.166 HD
ATOM     15  C   UNL d   1      -1.115  -1.113   2.000  0.00  0.00     0.053 A 
ATOM     16  C   UNL d   1       0.571   1.578  -1.905  0.00  0.00     0.002 A 
ATOM     17  C   UNL d   1       0.297   0.336  -2.447  0.00  0.00     0.001 A 
BRANCH  13  18
ATOM     18  C   UNL d   1      -1.073   0.556   3.882  0.00  0.00     0.432 C 
ATOM     19  F   UNL d   1      -0.742   1.841   4.197  0.00  0.00    -0.165 F 
ATOM     20  F   UNL d   1      -2.385   0.416   4.232  0.00  0.00    -0.165 F 
ATOM     21  F   UNL d   1      -0.378  -0.230   4.755  0.00  0.00    -0.165 F 
ENDBRANCH  13  18
ENDBRANCH   6   7
ENDBRANCH   5   6
ENDBRANCH   1   5
BRANCH   2  22
ATOM     22  N   UNL d   1      -0.915  -7.308  -1.198  0.00  0.00    -0.249 N 
ATOM     23  C   UNL d   1      -2.113  -7.865  -1.640  0.00  0.00     0.339 C 
ATOM     24  N   UNL d   1      -2.002  -9.229  -1.828  0.00  0.00    -0.308 N 
ATOM     25  O   UNL d   1      -3.099  -7.165  -1.851  0.00  0.00    -0.245 OA
ATOM     26  H   UNL d   1      -1.071  -9.608  -1.737  0.00  0.00     0.170 HD
ATOM     27  H   UNL d   1      -0.259  -7.861  -0.647  0.00  0.00     0.192 HD
BRANCH  24  28
ATOM     28  C   UNL d   1      -3.006 -10.130  -2.248  0.00  0.00     0.036 A 
ATOM     29  C   UNL d   1      -4.339  -9.776  -2.463  0.00  0.00     0.032 A 
ATOM     30  C   UNL d   1      -5.287 -10.731  -2.874  0.00  0.00     0.039 A 
ATOM     31  C   UNL d   1      -4.904 -12.051  -3.101  0.00  0.00     0.078 A 
ATOM     32  C   UNL d   1      -3.576 -12.412  -2.863  0.00  0.00     0.039 A 
ATOM     33  C   UNL d   1      -2.634 -11.464  -2.446  0.00  0.00     0.032 A 
BRANCH  31  34
ATOM     34  O   UNL d   1      -5.688 -13.072  -3.547  0.00  0.00    -0.255 OA
BRANCH  34  35
ATOM     35  C   UNL d   1      -6.988 -12.789  -4.037  0.00  0.00     0.530 C 
ATOM     36  F   UNL d   1      -7.034 -11.661  -4.776  0.00  0.00    -0.144 F 
ATOM     37  F   UNL d   1      -7.374 -13.814  -4.832  0.00  0.00    -0.144 F 
ATOM     38  F   UNL d   1      -7.865 -12.695  -3.016  0.00  0.00    -0.144 F 
ENDBRANCH  34  35
ENDBRANCH  31  34
ENDBRANCH  24  28
ENDBRANCH   2  22
TORSDOF 8
