REMARK  4 active torsions:
REMARK  status: ('A' for Active; 'I' for Inactive)
REMARK    1  A    between atoms: C_9  and  C_1 
REMARK    2  A    between atoms: C_10  and  C_1 
REMARK    3  A    between atoms: N_11  and  C_6 
REMARK    4  A    between atoms: C_12  and  C_7 
ROOT
ATOM      1  C   UNL d   1       1.411  -0.224   0.034  0.00  0.00     0.308 C 
ATOM      2  N   UNL d   1       0.795   1.090  -0.256  0.00  0.00    -0.314 N 
ATOM      3  HN  UNL d   1       1.389   1.890  -0.473  1.00  0.00     0.166 HD
ATOM      4  N   UNL d   1       0.426  -1.320  -0.120  0.00  0.00    -0.328 N 
ATOM      5  HN  UNL d   1       0.728  -2.285  -0.260  1.00  0.00     0.164 HD
ATOM      6  C   UNL d   1      -0.470   1.230  -0.238  0.00  0.00     0.226 C 
ATOM      7  C   UNL d   1      -0.817  -1.016  -0.071  0.00  0.00     0.161 C 
ATOM      8  O   UNL d   1      -1.331   0.221  -0.019  0.00  0.00    -0.262 OA
ENDROOT
BRANCH   1   9
ATOM      9  C   UNL d   1       2.580  -0.449  -0.982  0.00  0.00     0.441 C 
ATOM     10  F   UNL d   1       2.785   0.646  -1.767  0.00  0.00    -0.166 F 
ATOM     11  F   UNL d   1       3.779  -0.762  -0.457  0.00  0.00    -0.166 F 
ATOM     12  F   UNL d   1       2.281  -1.456  -1.853  0.00  0.00    -0.166 F 
ENDBRANCH   1   9
BRANCH   1  13
ATOM     13  C   UNL d   1       1.978  -0.231   1.496  0.00  0.00     0.441 C 
ATOM     14  F   UNL d   1       1.839   0.984   2.097  0.00  0.00    -0.166 F 
ATOM     15  F   UNL d   1       1.272  -1.095   2.284  0.00  0.00    -0.166 F 
ATOM     16  F   UNL d   1       3.270  -0.578   1.639  0.00  0.00    -0.166 F 
ENDBRANCH   1  13
BRANCH   6  17
ATOM     17  N   UNL d   1      -1.085   2.440  -0.474  0.00  0.00    -0.343 N 
ATOM     18  C   UNL d   1      -2.531   2.671  -0.429  0.00  0.00     0.152 C 
ATOM     19  C   UNL d   1      -2.965   3.487  -1.657  0.00  0.00     0.187 C 
ATOM     20  O   UNL d   1      -2.235   4.720  -1.753  0.00  0.00    -0.388 OA
ATOM     21  C   UNL d   1      -0.827   4.456  -1.868  0.00  0.00     0.187 C 
ATOM     22  C   UNL d   1      -0.304   3.678  -0.652  0.00  0.00     0.152 C 
ENDBRANCH   6  17
BRANCH   7  23
ATOM     23  C   UNL d   1      -1.859  -2.055  -0.091  0.00  0.00     0.030 A 
ATOM     24  C   UNL d   1      -3.128  -1.847   0.433  0.00  0.00     0.103 A 
ATOM     25  N   UNL d   1      -4.076  -2.814   0.516  0.00  0.00    -0.374 N 
ATOM     26  C   UNL d   1      -3.737  -4.042   0.061  0.00  0.00     0.087 A 
ATOM     27  HN  UNL d   1      -5.001  -2.624   0.902  1.00  0.00     0.164 HD
ATOM     28  C   UNL d   1      -2.506  -4.343  -0.498  0.00  0.00     0.018 A 
ATOM     29  C   UNL d   1      -1.555  -3.330  -0.578  0.00  0.00     0.018 A 
ENDBRANCH   7  23
TORSDOF 4
