REMARK  4 active torsions:
REMARK  status: ('A' for Active; 'I' for Inactive)
REMARK    1  A    between atoms: C_3  and  C_1 
REMARK    2  A    between atoms: C_2  and  N_7 
REMARK       I    between atoms: N_7  and  C_3 
REMARK    3  A    between atoms: O_22  and  C_4 
REMARK    4  A    between atoms: C_14  and  C_10 
ROOT
ATOM      1  C   UNL d   1      -4.521   0.701  -0.018  0.00  0.00     0.151 A 
ATOM      2  N   UNL d   1      -4.119  -0.218   0.817  0.00  0.00    -0.335 N 
ATOM      3  HN  UNL d   1      -3.353  -0.105   1.482  1.00  0.00     0.168 HD
ATOM      4  C   UNL d   1      -4.878  -1.366   0.675  0.00  0.00     0.051 A 
ATOM      5  S   UNL d   1      -5.875   0.302  -0.976  0.00  0.00    -0.063 SA
ATOM      6  C   UNL d   1      -5.855  -1.284  -0.300  0.00  0.00     0.083 A 
ENDROOT
BRANCH   1   7
ATOM      7  N   UNL d   1      -3.993   1.944  -0.238  0.00  0.00    -0.303 N 
ATOM      8  C   UNL d   1      -2.729   2.261   0.221  0.00  0.00     0.261 C 
ATOM      9  O   UNL d   1      -1.969   1.506   0.820  0.00  0.00    -0.267 OA
ATOM     10  H   UNL d   1      -4.482   2.550  -0.877  0.00  0.00     0.171 HD
BRANCH   8  11
ATOM     11  C   UNL d   1      -2.309   3.631  -0.094  0.00  0.00     0.074 A 
ATOM     12  C   UNL d   1      -0.973   4.020  -0.495  0.00  0.00     0.113 A 
ATOM     13  C   UNL d   1      -0.873   5.386  -0.651  0.00  0.00     0.108 A 
ATOM     14 CL   UNL d   1       0.453   6.355  -1.169  0.00  0.00    -0.073 Cl
ATOM     15  S   UNL d   1      -2.324   6.202  -0.309  0.00  0.00    -0.086 SA
ATOM     16  C   UNL d   1      -3.133   4.737   0.032  0.00  0.00     0.071 A 
BRANCH  12  17
ATOM     17  O   UNL d   1      -0.023   3.089  -0.787  0.00  0.00    -0.353 OA
ATOM     18  C   UNL d   1       1.294   3.386  -0.339  0.00  0.00     0.210 C 
ENDBRANCH  12  17
ENDBRANCH   8  11
ENDBRANCH   1   7
BRANCH   4  19
ATOM     19  C   UNL d   1      -4.594  -2.537   1.499  0.00  0.00    -0.006 A 
ATOM     20  C   UNL d   1      -5.539  -3.548   1.720  0.00  0.00     0.059 A 
ATOM     21  C   UNL d   1      -5.223  -4.626   2.546  0.00  0.00     0.155 A 
ATOM     22  F   UNL d   1      -6.142  -5.579   2.755  0.00  0.00    -0.203 F 
ATOM     23  C   UNL d   1      -3.977  -4.715   3.156  0.00  0.00     0.154 A 
ATOM     24  C   UNL d   1      -3.027  -3.725   2.950  0.00  0.00     0.046 A 
ATOM     25  F   UNL d   1      -3.686  -5.753   3.952  0.00  0.00    -0.203 F 
ATOM     26  C   UNL d   1      -3.337  -2.639   2.127  0.00  0.00     0.017 A 
ENDBRANCH   4  19
TORSDOF 4
