REMARK  8 active torsions:
REMARK  status: ('A' for Active; 'I' for Inactive)
REMARK    1  A    between atoms: N_4  and  C_1 
REMARK       I    between atoms: C_2  and  N_7 
REMARK    2  A    between atoms: O_9  and  C_2 
REMARK       I    between atoms: C_3  and  N_5 
REMARK    3  A    between atoms: C_13  and  C_3 
REMARK    4  A    between atoms: N_5  and  N_4 
REMARK    5  A    between atoms: N_7  and  C_13 
REMARK    6  A    between atoms: C_14  and  N_8 
REMARK    7  A    between atoms: C_12  and  O_9 
REMARK    8  A    between atoms: C_15  and  C_14 
ROOT
ATOM      1  C   UNL d   1      -0.082   0.101  -3.587  0.00  0.00     0.253 C 
ATOM      2  N   UNL d   1       0.737  -0.024  -2.477  0.00  0.00    -0.267 N 
ATOM      3  O   UNL d   1      -1.307   0.184  -3.515  0.00  0.00    -0.270 OA
ATOM      4  H   UNL d   1       1.753   0.027  -2.569  0.00  0.00     0.190 HD
ENDROOT
BRANCH   2   5
ATOM      5  N   UNL d   1       0.190   0.256  -1.214  0.00  0.00    -0.274 N 
ATOM      6  H   UNL d   1      -0.773  -0.049  -1.078  0.00  0.00     0.189 HD
BRANCH   5   7
ATOM      7  C   UNL d   1       0.995   0.458  -0.124  0.00  0.00     0.186 C 
ATOM      8  S   UNL d   1       2.666   0.363  -0.123  0.00  0.00    -0.040 SA
ATOM      9  N   UNL d   1       0.374   0.829   1.032  0.00  0.00    -0.362 N 
ATOM     10  H   UNL d   1       1.011   0.980   1.804  0.00  0.00     0.162 HD
BRANCH   9  11
ATOM     11  C   UNL d   1      -0.924   1.474   1.139  0.00  0.00     0.160 C 
BRANCH  11  12
ATOM     12  C   UNL d   1      -2.038   0.513   1.455  0.00  0.00    -0.041 A 
ATOM     13  C   UNL d   1      -1.992  -0.287   2.606  0.00  0.00     0.009 A 
ATOM     14  C   UNL d   1      -3.049  -1.144   2.917  0.00  0.00     0.001 A 
ATOM     15  C   UNL d   1      -4.165  -1.207   2.085  0.00  0.00     0.000 A 
ATOM     16  C   UNL d   1      -4.226  -0.412   0.943  0.00  0.00     0.001 A 
ATOM     17  C   UNL d   1      -3.170   0.445   0.629  0.00  0.00     0.009 A 
ENDBRANCH  11  12
ENDBRANCH   9  11
ENDBRANCH   5   7
ENDBRANCH   2   5
BRANCH   1  18
ATOM     18  C   UNL d   1       0.665   0.056  -4.919  0.00  0.00     0.229 C 
BRANCH  18  19
ATOM     19  N   UNL d   1       1.581   1.169  -5.071  0.00  0.00    -0.328 N 
ATOM     20  C   UNL d   1       2.894   1.117  -4.724  0.00  0.00     0.361 C 
ATOM     21  O   UNL d   1       3.423   0.143  -4.205  0.00  0.00    -0.238 OA
ATOM     22  H   UNL d   1       1.256   2.045  -5.458  0.00  0.00     0.165 HD
BRANCH  20  23
ATOM     23  O   UNL d   1       3.486   2.284  -5.051  0.00  0.00    -0.294 OA
BRANCH  23  24
ATOM     24  C   UNL d   1       4.922   2.468  -4.907  0.00  0.00     0.061 C 
ATOM     25  C   UNL d   1       5.690   1.469  -5.782  0.00  0.00     0.046 C 
ATOM     26  C   UNL d   1       5.190   3.894  -5.419  0.00  0.00     0.046 C 
ATOM     27  C   UNL d   1       5.356   2.386  -3.440  0.00  0.00     0.046 C 
ENDBRANCH  23  24
ENDBRANCH  20  23
ENDBRANCH  18  19
ENDBRANCH   1  18
TORSDOF 8
