REMARK  5 active torsions:
REMARK  status: ('A' for Active; 'I' for Inactive)
REMARK    1  A    between atoms: C_3  and  C_1 
REMARK    2  A    between atoms: N_2  and  C_5 
REMARK    3  A    between atoms: C_4  and  C_10 
REMARK    4  A    between atoms: O_8  and  C_4 
REMARK    5  A    between atoms: C_21  and  O_8 
ROOT
ATOM      1  N   UNL d   1      -0.675  -2.845   4.526  0.00  0.00    -0.367 N 
ATOM      2  C   UNL d   1      -0.772  -3.325   7.364  0.00  0.00     0.089 C 
ATOM      3  C   UNL d   1      -1.986  -3.026   5.143  0.00  0.00     0.125 C 
ATOM      4  C   UNL d   1       0.452  -3.525   5.164  0.00  0.00     0.125 C 
ATOM      5  C   UNL d   1      -1.915  -2.620   6.619  0.00  0.00     0.034 C 
ATOM      6  C   UNL d   1       0.544  -3.076   6.619  0.00  0.00     0.034 C 
ENDROOT
BRANCH   1   7
ATOM      7  C   UNL d   1      -0.475  -2.309   3.270  0.00  0.00     0.102 A 
ATOM      8  C   UNL d   1      -1.513  -2.029   2.383  0.00  0.00     0.049 A 
ATOM      9  C   UNL d   1      -1.249  -1.434   1.143  0.00  0.00     0.021 A 
ATOM     10  C   UNL d   1       0.060  -1.115   0.794  0.00  0.00     0.063 A 
ATOM     11  C   UNL d   1       1.039  -1.428   1.712  0.00  0.00     0.106 A 
ATOM     12  N   UNL d   1       0.794  -2.009   2.910  0.00  0.00    -0.352 N 
ATOM     13  HN  UNL d   1       1.567  -2.220   3.541  1.00  0.00     0.166 HD
BRANCH  10  14
ATOM     14  C   UNL d   1       0.401  -0.468  -0.510  0.00  0.00     0.418 C 
ATOM     15  F   UNL d   1       1.736  -0.264  -0.686  0.00  0.00    -0.166 F 
ATOM     16  F   UNL d   1      -0.185   0.752  -0.656  0.00  0.00    -0.166 F 
ATOM     17  F   UNL d   1      -0.007  -1.206  -1.580  0.00  0.00    -0.166 F 
ENDBRANCH  10  14
ENDBRANCH   1   7
BRANCH   2  18
ATOM     18  C   UNL d   1      -1.101  -4.802   7.584  0.00  0.00     0.268 C 
ATOM     19  O   UNL d   1      -2.237  -5.243   7.699  0.00  0.00    -0.264 OA
BRANCH  18  20
ATOM     20  O   UNL d   1       0.074  -5.543   7.714  0.00  0.00    -0.279 OA
BRANCH  20  21
ATOM     21  C   UNL d   1       0.086  -6.881   8.164  0.00  0.00     0.079 A 
ATOM     22  C   UNL d   1       1.099  -7.693   7.645  0.00  0.00     0.040 A 
ATOM     23  C   UNL d   1       1.286  -8.976   8.165  0.00  0.00     0.045 A 
ATOM     24  C   UNL d   1       0.464  -9.423   9.196  0.00  0.00     0.116 A 
ATOM     25  C   UNL d   1      -0.553  -8.623   9.701  0.00  0.00     0.045 A 
ATOM     26  F   UNL d   1       0.671 -10.636   9.723  0.00  0.00    -0.206 F 
ATOM     27  C   UNL d   1      -0.747  -7.337   9.187  0.00  0.00     0.040 A 
ENDBRANCH  20  21
ENDBRANCH  18  20
ENDBRANCH   2  18
TORSDOF 5
