REMARK  2 active torsions:
REMARK  status: ('A' for Active; 'I' for Inactive)
REMARK    1  A    between atoms: C_6  and  C_1 
REMARK    2  A    between atoms: O_14  and  C_7 
ROOT
ATOM      1  C   UNL d   1      -0.683   1.093   0.013  0.00  0.00     0.124 A 
ATOM      2  N   UNL d   1      -1.396  -0.044   0.024  0.00  0.00    -0.322 N 
ATOM      3  HN  UNL d   1      -2.416  -0.054   0.040  1.00  0.00     0.169 HD
ATOM      4  N   UNL d   1       0.664   1.169  -0.013  0.00  0.00    -0.345 N 
ATOM      5  HN  UNL d   1       1.149   2.066  -0.026  1.00  0.00     0.167 HD
ATOM      6  C   UNL d   1      -0.667  -1.158   0.013  0.00  0.00     0.143 A 
ATOM      7  C   UNL d   1       0.700  -1.220  -0.007  0.00  0.00     0.080 A 
ATOM      8  C   UNL d   1       1.342  -0.001  -0.021  0.00  0.00     0.011 A 
ATOM      9  C   UNL d   1       2.838   0.081  -0.034  0.00  0.00     0.068 C 
ENDROOT
BRANCH   1  10
ATOM     10  C   UNL d   1      -1.409   2.368   0.051  0.00  0.00     0.049 A 
ATOM     11  S   UNL d   1      -3.126   2.407   0.180  0.00  0.00    -0.098 SA
ATOM     12  C   UNL d   1      -3.168   4.114   0.187  0.00  0.00     0.050 A 
ATOM     13  C   UNL d   1      -1.911   4.661   0.086  0.00  0.00     0.009 A 
ATOM     14  C   UNL d   1      -0.901   3.658   0.006  0.00  0.00     0.023 A 
ENDBRANCH   1  10
BRANCH   6  15
ATOM     15  O   UNL d   1      -1.403  -2.299   0.029  0.00  0.00    -0.346 OA
ATOM     16  H   UNL d   1      -2.304  -1.927   0.045  0.00  0.00     0.219 HD
ENDBRANCH   6  15
TORSDOF 2
