REMARK  4 active torsions:
REMARK  status: ('A' for Active; 'I' for Inactive)
REMARK    1  A    between atoms: C_6  and  C_1 
REMARK       I    between atoms: N_12  and  C_6 
REMARK    2  A    between atoms: C_13  and  N_12 
REMARK    3  A    between atoms: C_16  and  C_13 
REMARK    4  A    between atoms: C_14  and  C_16 
ROOT
ATOM      1  C   UNL d   1      -2.558   0.170  -0.191  0.00  0.00     0.102 A 
ATOM      2  N   UNL d   1      -1.751  -0.913   0.100  0.00  0.00    -0.351 N 
ATOM      3  C   UNL d   1      -1.764   1.290  -0.027  0.00  0.00     0.049 A 
ATOM      4  C   UNL d   1      -0.512  -0.506   0.544  0.00  0.00     0.044 A 
ATOM      5  C   UNL d   1      -0.488   0.884   0.467  0.00  0.00    -0.001 A 
ATOM      6  C   UNL d   1       0.668   1.585   0.880  0.00  0.00    -0.049 A 
ATOM      7  C   UNL d   1       0.572  -1.258   1.023  0.00  0.00     0.037 A 
ATOM      8  C   UNL d   1       1.748   0.832   1.386  0.00  0.00     0.014 A 
ATOM      9  C   UNL d   1       1.708  -0.564   1.465  0.00  0.00    -0.059 A 
ATOM     10  C   UNL d   1       0.785   3.083   0.858  0.00  0.00     0.049 C 
ATOM     11  C   UNL d   1       2.878  -1.295   2.062  0.00  0.00     0.048 C 
ATOM     12  H   UNL d   1      -2.067  -1.872   0.055  0.00  0.00     0.166 HD
ENDROOT
BRANCH   1  13
ATOM     13  C   UNL d   1      -3.954   0.011  -0.549  0.00  0.00     0.268 C 
ATOM     14  O   UNL d   1      -4.499  -1.087  -0.574  0.00  0.00    -0.266 OA
ATOM     15  N   UNL d   1      -4.630   1.180  -0.835  0.00  0.00    -0.355 N 
ATOM     16  H   UNL d   1      -4.115   2.046  -0.873  0.00  0.00     0.162 HD
BRANCH  15  17
ATOM     17  C   UNL d   1      -6.052   1.182  -1.139  0.00  0.00     0.127 C 
BRANCH  17  18
ATOM     18  C   UNL d   1      -6.601   2.593  -1.368  0.00  0.00     0.058 C 
BRANCH  18  19
ATOM     19  C   UNL d   1      -8.077   2.602  -1.689  0.00  0.00    -0.057 A 
ATOM     20  C   UNL d   1      -9.030   2.708  -0.669  0.00  0.00     0.007 A 
ATOM     21  C   UNL d   1     -10.395   2.716  -0.967  0.00  0.00     0.001 A 
ATOM     22  C   UNL d   1     -10.820   2.615  -2.291  0.00  0.00     0.000 A 
ATOM     23  C   UNL d   1      -9.882   2.503  -3.314  0.00  0.00     0.001 A 
ATOM     24  C   UNL d   1      -8.517   2.494  -3.018  0.00  0.00     0.007 A 
ENDBRANCH  18  19
ENDBRANCH  17  18
ENDBRANCH  15  17
ENDBRANCH   1  13
TORSDOF 4
