REMARK  3 active torsions:
REMARK  status: ('A' for Active; 'I' for Inactive)
REMARK    1  A    between atoms: C_2  and  S_1 
REMARK    2  A    between atoms: N_5  and  S_1 
REMARK    3  A    between atoms: N_4  and  C_3 
ROOT
ATOM      1  C   UNL d   1       0.427   1.745  -0.322  0.00  0.00     0.112 A 
ATOM      2  C   UNL d   1      -0.934   2.051  -0.372  0.00  0.00     0.126 A 
ATOM      3  C   UNL d   1       1.360   2.787  -0.412  0.00  0.00     0.028 A 
ATOM      4  C   UNL d   1      -1.372   3.375  -0.535  0.00  0.00     0.038 A 
ATOM      5  C   UNL d   1       0.928   4.108  -0.561  0.00  0.00     0.002 A 
ATOM      6  C   UNL d   1      -0.434   4.401  -0.632  0.00  0.00     0.003 A 
ENDROOT
BRANCH   1   7
ATOM      7  S   UNL d   1       0.962   0.067  -0.136  0.00  0.00     0.262 S 
ATOM      8  O   UNL d   1       0.721  -0.580  -1.407  0.00  0.00    -0.200 OA
ATOM      9  O   UNL d   1       0.405  -0.408   1.109  0.00  0.00    -0.200 OA
BRANCH   7  10
ATOM     10  N   UNL d   1       2.643   0.203   0.053  0.00  0.00    -0.315 N 
ATOM     11  C   UNL d   1       3.194   0.279   1.411  0.00  0.00     0.162 C 
ATOM     12  C   UNL d   1       3.486  -0.480  -0.938  0.00  0.00     0.162 C 
ENDBRANCH   7  10
ENDBRANCH   1   7
BRANCH   2  13
ATOM     13  N   UNL d   1      -1.958   1.032  -0.244  0.00  0.00    -0.114 N 
ATOM     14  O   UNL d   1      -2.045   0.198  -1.149  0.00  0.00    -0.532 OA
ATOM     15  O   UNL d   1      -2.725   1.137   0.722  0.00  0.00    -0.532 OA
ENDBRANCH   2  13
TORSDOF 3
