REMARK  10 active torsions:
REMARK  status: ('A' for Active; 'I' for Inactive)
REMARK    1  A    between atoms: C_11  and  N_1 
REMARK    2  A    between atoms: C_9  and  C_2 
REMARK    3  A    between atoms: S_12  and  C_5 
REMARK    4  A    between atoms: C_8  and  C_15 
REMARK    5  A    between atoms: C_10  and  C_28 
REMARK    6  A    between atoms: C_31  and  S_12 
REMARK    7  A    between atoms: C_16  and  C_31 
REMARK       I    between atoms: N_18  and  C_16 
REMARK    8  A    between atoms: O_27  and  C_17 
REMARK    9  A    between atoms: C_21  and  N_18 
REMARK   10  A    between atoms: C_28  and  O_27 
ROOT
ATOM      1  N   UNL d   1      -0.183  -1.440   0.299  0.00  0.00    -0.275 N 
ATOM      2  C   UNL d   1       1.029  -0.759   0.148  0.00  0.00     0.140 A 
ATOM      3  N   UNL d   1       0.801   0.541   0.230  0.00  0.00    -0.282 N 
ATOM      4  HN  UNL d   1       1.506   1.273   0.139  1.00  0.00     0.188 HD
ATOM      5  C   UNL d   1      -1.100  -0.429   0.533  0.00  0.00     0.168 A 
ATOM      6  N   UNL d   1      -0.527   0.746   0.455  0.00  0.00    -0.278 N 
ATOM      7  HN  UNL d   1      -0.990   1.650   0.547  1.00  0.00     0.189 HD
ENDROOT
BRANCH   5   8
ATOM      8  S   UNL d   1      -2.718  -0.601   1.133  0.00  0.00    -0.083 SA
BRANCH   8   9
ATOM      9  C   UNL d   1      -2.456  -1.452   2.705  0.00  0.00     0.185 C 
BRANCH   9  10
ATOM     10  C   UNL d   1      -1.580  -0.764   3.745  0.00  0.00     0.231 C 
ATOM     11  N   UNL d   1      -1.313   0.576   3.560  0.00  0.00    -0.327 N 
ATOM     12  H   UNL d   1      -1.668   1.003   2.708  0.00  0.00     0.169 HD
ATOM     13  O   UNL d   1      -1.209  -1.432   4.711  0.00  0.00    -0.272 OA
BRANCH  11  14
ATOM     14  C   UNL d   1      -0.602   1.436   4.428  0.00  0.00     0.035 A 
ATOM     15  C   UNL d   1       0.029   1.014   5.602  0.00  0.00     0.045 A 
ATOM     16  C   UNL d   1       0.667   1.931   6.456  0.00  0.00     0.050 A 
ATOM     17  C   UNL d   1       0.666   3.291   6.118  0.00  0.00     0.016 A 
ATOM     18  C   UNL d   1       0.065   3.718   4.937  0.00  0.00     0.003 A 
ATOM     19  C   UNL d   1      -0.557   2.794   4.092  0.00  0.00     0.029 A 
BRANCH  16  20
ATOM     20  C   UNL d   1       1.319   1.469   7.737  0.00  0.00     0.417 C 
ATOM     21  F   UNL d   1       1.425   0.116   7.848  0.00  0.00    -0.166 F 
ATOM     22  F   UNL d   1       2.585   1.952   7.882  0.00  0.00    -0.166 F 
ATOM     23  F   UNL d   1       0.637   1.882   8.842  0.00  0.00    -0.166 F 
ENDBRANCH  16  20
ENDBRANCH  11  14
ENDBRANCH   9  10
ENDBRANCH   8   9
ENDBRANCH   5   8
BRANCH   1  24
ATOM     24  C   UNL d   1      -0.420  -2.843   0.249  0.00  0.00     0.043 A 
ATOM     25  C   UNL d   1       0.469  -3.738   0.861  0.00  0.00     0.032 A 
ATOM     26  C   UNL d   1       0.275  -5.116   0.734  0.00  0.00     0.026 A 
ATOM     27  C   UNL d   1      -0.816  -5.601   0.019  0.00  0.00     0.034 A 
ATOM     28  C   UNL d   1      -1.728  -4.719  -0.558  0.00  0.00     0.026 A 
ATOM     29 CL   UNL d   1      -1.035  -7.297  -0.162  0.00  0.00    -0.084 Cl
ATOM     30  C   UNL d   1      -1.535  -3.338  -0.444  0.00  0.00     0.032 A 
ENDBRANCH   1  24
BRANCH   2  31
ATOM     31  C   UNL d   1       2.363  -1.323  -0.059  0.00  0.00     0.025 A 
ATOM     32  C   UNL d   1       3.436  -0.798   0.650  0.00  0.00     0.105 A 
ATOM     33  N   UNL d   1       4.687  -1.310   0.622  0.00  0.00    -0.346 N 
ATOM     34  C   UNL d   1       4.919  -2.381  -0.160  0.00  0.00     0.142 A 
ATOM     35  HN  UNL d   1       5.435  -0.896   1.178  1.00  0.00     0.167 HD
ATOM     36  C   UNL d   1       3.925  -2.941  -0.953  0.00  0.00     0.057 A 
ATOM     37  C   UNL d   1       2.641  -2.385  -0.916  0.00  0.00     0.021 A 
BRANCH  34  38
ATOM     38  O   UNL d   1       6.192  -2.836  -0.036  0.00  0.00    -0.327 OA
BRANCH  38  39
ATOM     39  C   UNL d   1       6.685  -3.770  -0.996  0.00  0.00     0.294 C 
BRANCH  39  40
ATOM     40  C   UNL d   1       6.386  -5.227  -0.659  0.00  0.00     0.408 C 
ATOM     41  F   UNL d   1       5.766  -5.380   0.529  0.00  0.00    -0.169 F 
ATOM     42  F   UNL d   1       5.580  -5.771  -1.603  0.00  0.00    -0.169 F 
ATOM     43  F   UNL d   1       7.520  -5.963  -0.629  0.00  0.00    -0.169 F 
ENDBRANCH  39  40
ENDBRANCH  38  39
ENDBRANCH  34  38
ENDBRANCH   2  31
TORSDOF 10
