REMARK  2 active torsions:
REMARK  status: ('A' for Active; 'I' for Inactive)
REMARK    1  A    between atoms: C_2  and  C_1 
REMARK       I    between atoms: N_4  and  C_2 
REMARK    2  A    between atoms: N_7  and  C_3 
REMARK       I    between atoms: C_8  and  N_4 
ROOT
ATOM      1  C   UNL d   1       1.133  -0.072  -0.107  0.00  0.00     0.127 C 
ATOM      2  C   UNL d   1       0.226  -0.311   0.861  0.00  0.00     0.114 C 
ATOM      3  C   UNL d   1       0.789   0.201  -1.453  0.00  0.00     0.106 C 
ATOM      4  N   UNL d   1       0.583   0.437  -2.572  0.00  0.00    -0.191 NA
ENDROOT
BRANCH   1   5
ATOM      5  C   UNL d   1       2.583  -0.056   0.311  0.00  0.00     0.270 C 
ATOM      6  N   UNL d   1       3.503   0.156  -0.706  0.00  0.00    -0.293 N 
ATOM      7  C   UNL d   1       4.874   0.246  -0.665  0.00  0.00     0.220 C 
ATOM      8  H   UNL d   1       3.183   0.251  -1.663  0.00  0.00     0.172 HD
ATOM      9  O   UNL d   1       5.475   0.396  -1.732  0.00  0.00    -0.274 OA
ATOM     10  C   UNL d   1       5.628   0.132   0.632  0.00  0.00     0.117 C 
ATOM     11  O   UNL d   1       2.897  -0.234   1.484  0.00  0.00    -0.266 OA
ENDBRANCH   1   5
BRANCH   2  12
ATOM     12  N   UNL d   1      -1.161  -0.421   0.909  0.00  0.00    -0.384 N 
ATOM     13  C   UNL d   1      -2.103  -0.485  -0.227  0.00  0.00     0.148 C 
ATOM     14  C   UNL d   1      -3.078   0.700  -0.152  0.00  0.00     0.187 C 
ATOM     15  O   UNL d   1      -3.797   0.703   1.096  0.00  0.00    -0.388 OA
ATOM     16  C   UNL d   1      -2.887   0.769   2.207  0.00  0.00     0.187 C 
ATOM     17  C   UNL d   1      -1.897  -0.408   2.199  0.00  0.00     0.148 C 
ENDBRANCH   2  12
TORSDOF 2
