REMARK  3 active torsions:
REMARK  status: ('A' for Active; 'I' for Inactive)
REMARK    1  A    between atoms: C_2  and  S_1 
REMARK    2  A    between atoms: N_3  and  S_1 
REMARK    3  A    between atoms: C_9  and  C_14 
REMARK       I    between atoms: N_18  and  C_9 
ROOT
ATOM      1  N   UNL d   1       0.547  -0.716  -1.508  0.00  0.00    -0.206 NA
ATOM      2  C   UNL d   1       1.117  -0.014  -2.694  0.00  0.00     0.108 C 
ATOM      3  C   UNL d   1       0.893  -2.172  -1.480  0.00  0.00     0.108 C 
ATOM      4  C   UNL d   1       1.081  -2.169  -4.011  0.00  0.00     0.080 C 
ATOM      5  C   UNL d   1       0.677  -0.693  -3.988  0.00  0.00     0.029 C 
ATOM      6  C   UNL d   1       0.485  -2.861  -2.782  0.00  0.00     0.029 C 
ENDROOT
BRANCH   1   7
ATOM      7  S   UNL d   1       0.978   0.042  -0.015  0.00  0.00     0.248 S 
ATOM      8  O   UNL d   1       0.367  -0.704   1.064  0.00  0.00    -0.206 OA
ATOM      9  O   UNL d   1       2.398   0.309  -0.046  0.00  0.00    -0.206 OA
BRANCH   7  10
ATOM     10  C   UNL d   1       0.224   1.567   0.069  0.00  0.00     0.130 A 
ATOM     11  C   UNL d   1      -1.128   1.808   0.095  0.00  0.00     0.097 A 
ATOM     12  O   UNL d   1      -1.332   3.150   0.181  0.00  0.00    -0.241 OA
ATOM     13  C   UNL d   1      -2.341   0.972   0.066  0.00  0.00     0.081 C 
ATOM     14  N   UNL d   1      -0.115   3.803   0.212  0.00  0.00    -0.264 N 
ATOM     15  C   UNL d   1       0.822   2.844   0.157  0.00  0.00     0.054 A 
ATOM     16  HN  UNL d   1       0.041   4.809   0.266  1.00  0.00     0.194 HD
ATOM     17  C   UNL d   1       2.255   3.223   0.188  0.00  0.00     0.072 C 
ENDBRANCH   7  10
ENDBRANCH   1   7
BRANCH   4  18
ATOM     18  C   UNL d   1       2.596  -2.367  -4.080  0.00  0.00     0.219 C 
ATOM     19  O   UNL d   1       3.237  -3.052  -3.292  0.00  0.00    -0.273 OA
ATOM     20  N   UNL d   1       3.229  -1.740  -5.108  0.00  0.00    -0.370 N 
ATOM     21  H   UNL d   1       2.739  -1.387  -5.919  0.00  0.00     0.159 HD
ATOM     22  H   UNL d   1       4.223  -1.925  -5.203  0.00  0.00     0.159 HD
ENDBRANCH   4  18
TORSDOF 3
