REMARK  6 active torsions:
REMARK  status: ('A' for Active; 'I' for Inactive)
REMARK    1  A    between atoms: N_2  and  S_1 
REMARK    2  A    between atoms: C_5  and  S_1 
REMARK    3  A    between atoms: C_6  and  N_2 
REMARK    4  A    between atoms: C_7  and  C_6 
REMARK    5  A    between atoms: C_8  and  C_7 
REMARK    6  A    between atoms: O_9  and  C_7 
ROOT
ATOM      1  N   UNL d   1       0.676  -0.615  -1.434  0.00  0.00    -0.313 N 
ATOM      2  H   UNL d   1      -0.261  -1.014  -1.398  0.00  0.00     0.172 HD
ENDROOT
BRANCH   1   3
ATOM      3  S   UNL d   1       1.217  -0.030   0.038  0.00  0.00     0.258 S 
ATOM      4  O   UNL d   1       0.317  -0.557   1.038  0.00  0.00    -0.201 OA
ATOM      5  O   UNL d   1       1.448   1.390  -0.109  0.00  0.00    -0.201 OA
BRANCH   3   6
ATOM      6  C   UNL d   1       2.779  -0.847   0.250  0.00  0.00     0.079 A 
ATOM      7  C   UNL d   1       3.955  -0.095   0.334  0.00  0.00     0.025 A 
ATOM      8  C   UNL d   1       5.168  -0.739   0.580  0.00  0.00     0.002 A 
ATOM      9  C   UNL d   1       5.203  -2.125   0.742  0.00  0.00     0.000 A 
ATOM     10  C   UNL d   1       4.028  -2.874   0.653  0.00  0.00     0.002 A 
ATOM     11  C   UNL d   1       2.811  -2.236   0.410  0.00  0.00     0.025 A 
ENDBRANCH   3   6
ENDBRANCH   1   3
BRANCH   1  12
ATOM     12  C   UNL d   1       1.123   0.047  -2.672  0.00  0.00     0.169 C 
BRANCH  12  13
ATOM     13  C   UNL d   1       0.547  -0.672  -3.915  0.00  0.00     0.169 C 
BRANCH  13  14
ATOM     14  C   UNL d   1       0.969  -0.019  -5.218  0.00  0.00    -0.028 A 
ATOM     15  C   UNL d   1       2.323   0.147  -5.554  0.00  0.00     0.010 A 
ATOM     16  C   UNL d   1       2.690   0.737  -6.766  0.00  0.00     0.001 A 
ATOM     17  C   UNL d   1       1.712   1.170  -7.657  0.00  0.00     0.000 A 
ATOM     18  C   UNL d   1       0.366   1.015  -7.338  0.00  0.00     0.001 A 
ATOM     19  C   UNL d   1      -0.004   0.422  -6.128  0.00  0.00     0.010 A 
ENDBRANCH  13  14
BRANCH  13  20
ATOM     20  O   UNL d   1       0.935  -2.050  -3.910  0.00  0.00    -0.389 OA
ATOM     21  H   UNL d   1       1.793  -2.123  -4.359  0.00  0.00     0.210 HD
ENDBRANCH  13  20
ENDBRANCH  12  13
ENDBRANCH   1  12
TORSDOF 6
