REMARK  7 active torsions:
REMARK  status: ('A' for Active; 'I' for Inactive)
REMARK    1  A    between atoms: C_6  and  C_1 
REMARK    2  A    between atoms: C_9  and  N_2 
REMARK       I    between atoms: N_8  and  C_6 
REMARK    3  A    between atoms: C_13  and  C_7 
REMARK    4  A    between atoms: C_10  and  C_9 
REMARK    5  A    between atoms: C_12  and  C_18 
REMARK    6  A    between atoms: O_25  and  C_12 
REMARK    7  A    between atoms: C_31  and  O_25 
ROOT
ATOM      1  C   UNL d   1      -0.321  -1.265   0.191  0.00  0.00     0.120 A 
ATOM      2  N   UNL d   1       0.913  -0.703  -0.051  0.00  0.00    -0.282 N 
ATOM      3  N   UNL d   1       0.909   0.650  -0.007  0.00  0.00    -0.301 N 
ATOM      4  HN  UNL d   1       1.713   1.273  -0.075  1.00  0.00     0.187 HD
ATOM      5  C   UNL d   1      -1.163  -0.162   0.321  0.00  0.00     0.064 A 
ATOM      6  C   UNL d   1      -0.371   0.996   0.143  0.00  0.00     0.036 A 
ENDROOT
BRANCH   1   7
ATOM      7  C   UNL d   1      -0.777  -2.642   0.105  0.00  0.00     0.272 C 
ATOM      8  N   UNL d   1      -0.060  -3.711   0.678  0.00  0.00    -0.347 N 
ATOM      9  C   UNL d   1      -0.674  -5.040   0.603  0.00  0.00     0.127 C 
ATOM     10  C   UNL d   1       0.870  -3.577   1.790  0.00  0.00     0.127 C 
ATOM     11  C   UNL d   1       0.362  -6.160   0.530  0.00  0.00     0.034 C 
ATOM     12  C   UNL d   1       1.492  -6.035   1.557  0.00  0.00     0.088 C 
ATOM     13  C   UNL d   1       2.005  -4.590   1.664  0.00  0.00     0.034 C 
ATOM     14  O   UNL d   1      -1.841  -2.881  -0.475  0.00  0.00    -0.266 OA
BRANCH  12  15
ATOM     15  C   UNL d   1       1.145  -6.620   2.922  0.00  0.00     0.263 C 
ATOM     16  O   UNL d   1       1.211  -6.010   3.978  0.00  0.00    -0.265 OA
BRANCH  15  17
ATOM     17  O   UNL d   1       0.887  -7.954   2.802  0.00  0.00    -0.322 OA
BRANCH  17  18
ATOM     18  C   UNL d   1       0.952  -8.732   4.009  0.00  0.00     0.174 C 
ATOM     19  C   UNL d   1      -0.329  -8.655   4.819  0.00  0.00     0.034 C 
ENDBRANCH  17  18
ENDBRANCH  15  17
ENDBRANCH  12  15
ENDBRANCH   1   7
BRANCH   2  20
ATOM     20  C   UNL d   1       2.154  -1.329  -0.510  0.00  0.00     0.189 C 
BRANCH  20  21
ATOM     21  C   UNL d   1       3.360  -1.034   0.375  0.00  0.00    -0.017 A 
ATOM     22  C   UNL d   1       4.665  -1.044  -0.151  0.00  0.00     0.043 A 
ATOM     23  C   UNL d   1       5.780  -0.869   0.677  0.00  0.00     0.048 A 
ATOM     24 CL   UNL d   1       4.969  -1.281  -1.836  0.00  0.00    -0.084 Cl
ATOM     25  C   UNL d   1       5.610  -0.702   2.047  0.00  0.00     0.035 A 
ATOM     26  C   UNL d   1       4.335  -0.667   2.593  0.00  0.00     0.024 A 
ATOM     27 CL   UNL d   1       6.981  -0.545   3.073  0.00  0.00    -0.084 Cl
ATOM     28  C   UNL d   1       3.223  -0.813   1.761  0.00  0.00     0.012 A 
ENDBRANCH  20  21
ENDBRANCH   2  20
BRANCH   6  29
ATOM     29  C   UNL d   1      -0.785   2.460   0.112  0.00  0.00    -0.007 C 
ATOM     30  C   UNL d   1      -0.769   3.035   1.539  0.00  0.00     0.021 C 
ATOM     31  C   UNL d   1       0.177   3.298  -0.764  0.00  0.00     0.021 C 
ATOM     32  C   UNL d   1      -2.200   2.631  -0.478  0.00  0.00     0.021 C 
ENDBRANCH   6  29
TORSDOF 7
