REMARK  4 active torsions:
REMARK  status: ('A' for Active; 'I' for Inactive)
REMARK    1  A    between atoms: N_8  and  C_1 
REMARK    2  A    between atoms: N_4  and  N_8 
REMARK    3  A    between atoms: N_10  and  C_9 
REMARK    4  A    between atoms: C_16  and  C_13 
ROOT
ATOM      1  N   UNL d   1      -0.078  -4.773   0.373  0.00  0.00    -0.311 N 
ATOM      2  HN  UNL d   1      -0.037  -5.739   0.697  1.00  0.00     0.186 HD
ATOM      3  C   UNL d   1      -1.170  -4.251  -0.083  0.00  0.00     0.118 C 
ENDROOT
BRANCH   1   4
ATOM      4  N   UNL d   1       1.011  -3.962   0.398  0.00  0.00    -0.298 N 
ATOM      5  H   UNL d   1       1.029  -3.148  -0.215  0.00  0.00     0.187 HD
BRANCH   4   6
ATOM      6  C   UNL d   1       2.288  -4.587   0.507  0.00  0.00     0.094 A 
ATOM      7  C   UNL d   1       3.391  -3.975  -0.125  0.00  0.00     0.079 A 
ATOM      8 CL   UNL d   1       3.210  -2.525  -1.050  0.00  0.00    -0.080 Cl
ATOM      9  C   UNL d   1       4.653  -4.552  -0.030  0.00  0.00     0.114 A 
ATOM     10  N   UNL d   1       4.912  -5.688   0.651  0.00  0.00    -0.372 N 
ATOM     11  C   UNL d   1       3.850  -6.258   1.271  0.00  0.00     0.114 A 
ATOM     12  HN  UNL d   1       5.847  -6.092   0.697  1.00  0.00     0.164 HD
ATOM     13  C   UNL d   1       2.549  -5.761   1.240  0.00  0.00     0.079 A 
ATOM     14 CL   UNL d   1       1.372  -6.623   2.170  0.00  0.00    -0.080 Cl
ENDBRANCH   4   6
ENDBRANCH   1   4
BRANCH   3  15
ATOM     15  C   UNL d   1      -2.421  -5.034  -0.141  0.00  0.00    -0.019 A 
ATOM     16  C   UNL d   1      -2.544  -6.229   0.562  0.00  0.00     0.015 A 
ATOM     17  C   UNL d   1      -3.742  -6.955   0.514  0.00  0.00     0.030 A 
ATOM     18  C   UNL d   1      -4.848  -6.520  -0.234  0.00  0.00     0.029 A 
ATOM     19  C   UNL d   1      -4.685  -5.307  -0.934  0.00  0.00     0.030 A 
ATOM     20  C   UNL d   1      -3.494  -4.566  -0.893  0.00  0.00     0.015 A 
BRANCH  18  21
ATOM     21  N   UNL d   1      -6.066  -7.189  -0.241  0.00  0.00    -0.390 N 
ATOM     22  C   UNL d   1      -6.833  -7.294  -1.482  0.00  0.00     0.149 C 
ATOM     23  C   UNL d   1      -6.362  -8.229   0.742  0.00  0.00     0.149 C 
ENDBRANCH  18  21
ENDBRANCH   3  15
TORSDOF 4
