REMARK  11 active torsions:
REMARK  status: ('A' for Active; 'I' for Inactive)
REMARK       I    between atoms: N_17  and  C1_1 
REMARK    1  A    between atoms: O1_4  and  C1_1 
REMARK    2  A    between atoms: C2_2  and  C3_3 
REMARK    3  A    between atoms: C3_3  and  O1_4 
REMARK    4  A    between atoms: O6_11  and  C10_9 
REMARK    5  A    between atoms: O7_12  and  C11_10 
REMARK    6  A    between atoms: CA_19  and  N_17 
REMARK    7  A    between atoms: OXT_26  and  C_18 
REMARK    8  A    between atoms: CA_19  and  C_18 
REMARK    9  A    between atoms: CB_23  and  CA_19 
REMARK   10  A    between atoms: CD_20  and  CG_24 
REMARK       I    between atoms: NE2_25  and  CD_20 
REMARK   11  A    between atoms: CG_24  and  CB_23 
ROOT
ATOM      1  C1  <1> d   1       2.086   0.191   2.521  0.00  0.00     0.362 C 
ATOM      2  O2  <1> d   1       2.726  -0.848   2.484  0.00  0.00    -0.238 OA
ATOM      3  N   GLN d   1       2.381   1.236   3.347  0.00  0.00    -0.322 N 
ATOM      4  H   GLN d   1       1.898   2.104   3.144  0.00  0.00     0.165 HD
ENDROOT
BRANCH   1   5
ATOM      5  O1  <1> d   1       1.035   0.516   1.735  0.00  0.00    -0.289 OA
BRANCH   5   6
ATOM      6  C3  <1> d   1       0.656  -0.281   0.573  0.00  0.00     0.092 C 
ATOM      7  C14 <1> d   1       1.571   0.137  -0.592  0.00  0.00     0.052 C 
ATOM      8  C15 <1> d   1       0.794  -1.812   0.756  0.00  0.00     0.052 C 
BRANCH   6   9
ATOM      9  C2  <1> d   1      -0.834   0.040   0.325  0.00  0.00    -0.019 A 
ATOM     10  C7  <1> d   1      -1.300   0.814  -0.758  0.00  0.00     0.047 A 
ATOM     11  C11 <1> d   1      -2.675   0.954  -1.003  0.00  0.00     0.071 A 
ATOM     12  C9  <1> d   1      -3.604   0.295  -0.203  0.00  0.00     0.073 A 
ATOM     13  C10 <1> d   1      -3.162  -0.448   0.884  0.00  0.00     0.071 A 
ATOM     14  C8  <1> d   1      -1.802  -0.522   1.181  0.00  0.00     0.047 A 
BRANCH  11  15
ATOM     15  O7  <1> d   1      -3.196   1.644  -2.065  0.00  0.00    -0.356 OA
ATOM     16  C16 <1> d   1      -2.604   2.923  -2.273  0.00  0.00     0.210 C 
ENDBRANCH  11  15
BRANCH  13  17
ATOM     17  O6  <1> d   1      -4.012  -1.127   1.712  0.00  0.00    -0.356 OA
ATOM     18  C17 <1> d   1      -4.839  -2.052   1.004  0.00  0.00     0.210 C 
ENDBRANCH  13  17
ENDBRANCH   6   9
ENDBRANCH   5   6
ENDBRANCH   1   5
BRANCH   3  19
ATOM     19  CA  GLN d   1       3.529   1.249   4.258  0.00  0.00     0.185 C 
BRANCH  19  20
ATOM     20  CB  GLN d   1       3.373   0.265   5.435  0.00  0.00     0.045 C 
BRANCH  20  21
ATOM     21  CG  GLN d   1       4.473   0.318   6.507  0.00  0.00     0.105 C 
BRANCH  21  22
ATOM     22  CD  GLN d   1       4.655   1.671   7.162  0.00  0.00     0.215 C 
ATOM     23  OE1 GLN d   1       3.896   2.624   7.013  0.00  0.00    -0.274 OA
ATOM     24  NE2 GLN d   1       5.745   1.762   7.976  0.00  0.00    -0.370 N 
ATOM     25 1HE2 GLN d   1       6.430   1.026   8.065  0.00  0.00     0.159 HD
ATOM     26 2HE2 GLN d   1       5.932   2.653   8.421  0.00  0.00     0.159 HD
ENDBRANCH  21  22
ENDBRANCH  20  21
ENDBRANCH  19  20
BRANCH  19  27
ATOM     27  C   GLN d   1       4.852   1.124   3.486  0.00  0.00     0.163 C 
ATOM     28  O   GLN d   1       5.875   0.560   3.843  0.00  0.00    -0.648 OA
BRANCH  27  29
ATOM     29  OXT GLN d   1       4.881   1.894   2.372  0.00  0.00    -0.775 OA
ATOM     30  HXT GLN d   1       5.804   1.795   2.056  0.00  0.00     0.167 HD
ENDBRANCH  27  29
ENDBRANCH  19  27
ENDBRANCH   3  19
TORSDOF 11
