REMARK  7 active torsions:
REMARK  status: ('A' for Active; 'I' for Inactive)
REMARK    1  A    between atoms: S_11  and  C_2 
REMARK    2  A    between atoms: S_10  and  C_3 
REMARK    3  A    between atoms: C_8  and  C_9 
REMARK    4  A    between atoms: O_14  and  C_8 
REMARK    5  A    between atoms: C_9  and  C_13 
REMARK    6  A    between atoms: C_13  and  S_10 
REMARK    7  A    between atoms: C_15  and  O_14 
ROOT
ATOM      1  S   UNL d   1       0.637  -1.134  -0.040  0.00  0.00    -0.038 SA
ATOM      2  C   UNL d   1       1.865   0.057  -0.000  0.00  0.00     0.126 A 
ATOM      3  C   UNL d   1      -0.495   0.154  -0.055  0.00  0.00     0.129 A 
ATOM      4  N   UNL d   1       1.427   1.296   0.008  0.00  0.00    -0.287 N 
ATOM      5  HN  UNL d   1       2.032   2.117   0.034  1.00  0.00     0.188 HD
ATOM      6  N   UNL d   1       0.045   1.353  -0.023  0.00  0.00    -0.287 N 
ATOM      7  HN  UNL d   1      -0.491   2.220  -0.022  1.00  0.00     0.188 HD
ENDROOT
BRANCH   3   8
ATOM      8  S   UNL d   1      -2.220  -0.117  -0.115  0.00  0.00    -0.103 SA
BRANCH   8   9
ATOM      9  C   UNL d   1      -2.842   1.593  -0.047  0.00  0.00     0.091 C 
BRANCH   9  10
ATOM     10  C   UNL d   1      -4.364   1.569  -0.068  0.00  0.00     0.121 C 
BRANCH  10  11
ATOM     11  C   UNL d   1      -4.924   2.951   0.146  0.00  0.00     0.259 C 
ATOM     12  O   UNL d   1      -4.268   3.972   0.272  0.00  0.00    -0.265 OA
BRANCH  11  13
ATOM     13  O   UNL d   1      -6.282   2.866   0.234  0.00  0.00    -0.322 OA
BRANCH  13  14
ATOM     14  C   UNL d   1      -6.952   4.053   0.686  0.00  0.00     0.174 C 
ATOM     15  C   UNL d   1      -7.033   4.016   2.200  0.00  0.00     0.034 C 
ENDBRANCH  13  14
ENDBRANCH  11  13
ENDBRANCH  10  11
ENDBRANCH   9  10
ENDBRANCH   8   9
ENDBRANCH   3   8
BRANCH   2  16
ATOM     16  S   UNL d   1       3.565  -0.326   0.025  0.00  0.00    -0.117 SA
ATOM     17  H   UNL d   1       3.434  -1.659  -0.003  0.00  0.00     0.109 HD
ENDBRANCH   2  16
TORSDOF 7
