REMARK  4 active torsions:
REMARK  status: ('A' for Active; 'I' for Inactive)
REMARK       I    between atoms: C_2  and  N_5 
REMARK    1  A    between atoms: C_9  and  C_2 
REMARK    2  A    between atoms: N_5  and  C_16 
REMARK    3  A    between atoms: C_13  and  N_6 
REMARK    4  A    between atoms: C_17  and  C_13 
ROOT
ATOM      1  C   UNL d   1      -4.208  -3.641   3.191  0.00  0.00     0.035 A 
ATOM      2  C   UNL d   1      -3.081  -1.198   2.288  0.00  0.00    -0.030 A 
ATOM      3  C   UNL d   1      -3.183  -3.624   2.241  0.00  0.00     0.030 A 
ATOM      4  C   UNL d   1      -4.696  -2.412   3.652  0.00  0.00     0.030 A 
ATOM      5  C   UNL d   1      -4.140  -1.200   3.204  0.00  0.00     0.011 A 
ATOM      6  C   UNL d   1      -2.623  -2.424   1.802  0.00  0.00     0.011 A 
ENDROOT
BRANCH   1   7
ATOM      7  N   UNL d   1      -4.764  -4.840   3.712  0.00  0.00    -0.323 N 
ATOM      8  C   UNL d   1      -4.324  -6.125   3.421  0.00  0.00     0.256 C 
ATOM      9  O   UNL d   1      -3.382  -6.408   2.688  0.00  0.00    -0.267 OA
ATOM     10  H   UNL d   1      -5.484  -4.723   4.410  0.00  0.00     0.169 HD
BRANCH   8  11
ATOM     11  C   UNL d   1      -5.035  -7.278   4.052  0.00  0.00     0.032 A 
ATOM     12  C   UNL d   1      -6.340  -7.212   4.553  0.00  0.00     0.018 A 
ATOM     13  C   UNL d   1      -6.966  -8.376   5.023  0.00  0.00     0.025 A 
ATOM     14  C   UNL d   1      -6.296  -9.600   4.991  0.00  0.00     0.034 A 
ATOM     15  C   UNL d   1      -4.992  -9.675   4.515  0.00  0.00     0.025 A 
ATOM     16 CL   UNL d   1      -7.094 -11.032   5.512  0.00  0.00    -0.084 Cl
ATOM     17  C   UNL d   1      -4.366  -8.517   4.051  0.00  0.00     0.018 A 
ENDBRANCH   8  11
ENDBRANCH   1   7
BRANCH   2  18
ATOM     18  C   UNL d   1      -2.440   0.078   1.789  0.00  0.00     0.311 C 
BRANCH  18  19
ATOM     19  N   UNL d   1      -1.800   0.905   2.829  0.00  0.00     0.094 N 
ATOM     20  C   UNL d   1      -0.764   0.221   3.623  0.00  0.00     0.287 C 
ATOM     21  C   UNL d   1       0.475  -0.203   2.857  0.00  0.00     0.170 C 
ATOM     22  S   UNL d   1       1.238   1.189   2.069  0.00  0.00     0.147 S 
ATOM     23  C   UNL d   1      -0.124   2.034   1.307  0.00  0.00     0.170 C 
ATOM     24  O   UNL d   1       2.090   0.687   1.008  0.00  0.00    -0.228 OA
ATOM     25  O   UNL d   1       1.783   2.053   3.100  0.00  0.00    -0.228 OA
ATOM     26  C   UNL d   1      -1.284   2.173   2.280  0.00  0.00     0.287 C 
ENDBRANCH  18  19
ENDBRANCH   2  18
TORSDOF 4
