REMARK  4 active torsions:
REMARK  status: ('A' for Active; 'I' for Inactive)
REMARK    1  A    between atoms: C_2  and  N_1 
REMARK    2  A    between atoms: N_3  and  C_9 
REMARK    3  A    between atoms: N_8  and  C_4 
REMARK       I    between atoms: C_5  and  N_7 
REMARK    4  A    between atoms: C_12  and  C_5 
ROOT
ATOM      1  C   UNL d   1       2.059  -1.287   0.018  0.00  0.00     0.063 A 
ATOM      2  C   UNL d   1       2.044  -2.227  -1.061  0.00  0.00     0.038 A 
ATOM      3  C   UNL d   1       3.289  -1.083   0.686  0.00  0.00     0.068 A 
ATOM      4  C   UNL d   1       4.431  -1.848   0.414  0.00  0.00     0.105 A 
ATOM      5  C   UNL d   1       3.240  -2.951  -1.331  0.00  0.00     0.028 A 
ATOM      6  C   UNL d   1       4.410  -2.794  -0.597  0.00  0.00     0.038 A 
ENDROOT
BRANCH   2   7
ATOM      7  N   UNL d   1       0.936  -2.444  -1.905  0.00  0.00    -0.278 NA
ATOM      8  C   UNL d   1       0.737  -3.823  -2.400  0.00  0.00     0.115 C 
ATOM      9  C   UNL d   1      -0.676  -3.978  -2.971  0.00  0.00     0.141 C 
ATOM     10  N   UNL d   1      -1.005  -2.972  -3.994  0.00  0.00    -0.345 N 
ATOM     11  C   UNL d   1      -2.228  -3.070  -4.696  0.00  0.00     0.260 C 
ATOM     12  C   UNL d   1      -0.566  -1.592  -3.699  0.00  0.00     0.141 C 
ATOM     13  O   UNL d   1      -2.820  -2.052  -5.062  0.00  0.00    -0.267 OA
ATOM     14  C   UNL d   1       0.815  -1.463  -3.012  0.00  0.00     0.115 C 
BRANCH  11  15
ATOM     15  C   UNL d   1      -2.743  -4.402  -4.981  0.00  0.00     0.072 A 
ATOM     16  S   UNL d   1      -4.405  -4.733  -4.714  0.00  0.00    -0.097 SA
ATOM     17  C   UNL d   1      -4.243  -6.346  -5.260  0.00  0.00     0.050 A 
ATOM     18  C   UNL d   1      -2.955  -6.629  -5.658  0.00  0.00     0.009 A 
ATOM     19  C   UNL d   1      -2.092  -5.504  -5.509  0.00  0.00     0.025 A 
ENDBRANCH  11  15
ENDBRANCH   2   7
BRANCH   1  20
ATOM     20  N   UNL d   1       0.914  -0.489   0.445  0.00  0.00    -0.318 N 
ATOM     21  C   UNL d   1       0.894   0.604   1.337  0.00  0.00     0.013 C 
ATOM     22  C   UNL d   1      -0.103   1.454   0.885  0.00  0.00     0.027 C 
ATOM     23  C   UNL d   1       1.698   0.785   2.576  0.00  0.00     0.068 C 
ATOM     24  C   UNL d   1      -0.955   0.679   0.078  0.00  0.00     0.027 C 
ATOM     25  C   UNL d   1      -0.431  -0.603   0.090  0.00  0.00     0.013 C 
ATOM     26  C   UNL d   1      -1.183  -1.871  -0.065  0.00  0.00     0.068 C 
ENDBRANCH   1  20
BRANCH   4  27
ATOM     27  N   UNL d   1       5.650  -1.659   1.212  0.00  0.00    -0.116 N 
ATOM     28  O   UNL d   1       5.624  -0.810   2.115  0.00  0.00    -0.532 OA
ATOM     29  O   UNL d   1       6.629  -2.369   0.944  0.00  0.00    -0.532 OA
ENDBRANCH   4  27
TORSDOF 4
