REMARK  1 active torsions:
REMARK  status: ('A' for Active; 'I' for Inactive)
REMARK    1  A    between atoms: C_5  and  C_1 
ROOT
ATOM      1  C   UNL d   1      -1.891  -0.965   0.001  0.00  0.00     0.193 A 
ATOM      2  N   UNL d   1      -0.806  -1.728   0.002  0.00  0.00    -0.337 N 
ATOM      3  HN  UNL d   1      -0.774  -2.747   0.004  1.00  0.00     0.167 HD
ATOM      4  N   UNL d   1      -1.534   0.369  -0.008  0.00  0.00    -0.332 N 
ATOM      5  C   UNL d   1      -0.160   0.452  -0.004  0.00  0.00     0.062 A 
ATOM      6  C   UNL d   1       0.263  -0.872  -0.002  0.00  0.00     0.060 A 
ATOM      7  C   UNL d   1      -2.414   1.514  -0.025  0.00  0.00     0.158 C 
ATOM      8  C   UNL d   1       0.735   1.530  -0.005  0.00  0.00     0.032 A 
ATOM      9  C   UNL d   1       1.635  -1.161  -0.002  0.00  0.00     0.032 A 
ATOM     10  C   UNL d   1       2.101   1.223  -0.003  0.00  0.00     0.002 A 
ATOM     11  C   UNL d   1       2.547  -0.100  -0.003  0.00  0.00     0.002 A 
ENDROOT
BRANCH   1  12
ATOM     12  C   UNL d   1      -3.313  -1.423   0.010  0.00  0.00     0.449 C 
ATOM     13  F   UNL d   1      -3.445  -2.774   0.012  0.00  0.00    -0.163 F 
ATOM     14  F   UNL d   1      -3.981  -0.962   1.103  0.00  0.00    -0.163 F 
ATOM     15  F   UNL d   1      -3.994  -0.964  -1.074  0.00  0.00    -0.163 F 
ENDBRANCH   1  12
TORSDOF 1
