REMARK  8 active torsions:
REMARK  status: ('A' for Active; 'I' for Inactive)
REMARK    1  A    between atoms: N_3  and  C_1 
REMARK    2  A    between atoms: N_6  and  C_1 
REMARK    3  A    between atoms: C_2  and  C_5 
REMARK    4  A    between atoms: O_14  and  C_2 
REMARK    5  A    between atoms: C_12  and  N_3 
REMARK    6  A    between atoms: C_13  and  N_6 
REMARK    7  A    between atoms: C_17  and  C_13 
REMARK    8  A    between atoms: C_20  and  O_14 
ROOT
ATOM      1  N   UNL d   1       0.185  -1.331   0.720  0.00  0.00    -0.333 N 
ATOM      2  H   UNL d   1      -0.426  -1.496  -0.067  0.00  0.00     0.168 HD
ENDROOT
BRANCH   1   3
ATOM      3  C   UNL d   1       0.117  -0.030   1.217  0.00  0.00     0.172 C 
ATOM      4  S   UNL d   1       1.015   0.664   2.443  0.00  0.00    -0.041 SA
BRANCH   3   5
ATOM      5  N   UNL d   1      -0.875   0.669   0.534  0.00  0.00    -0.363 N 
ATOM      6  H   UNL d   1      -1.359   0.193  -0.211  0.00  0.00     0.162 HD
BRANCH   5   7
ATOM      7  C   UNL d   1      -1.189   2.089   0.637  0.00  0.00     0.160 C 
BRANCH   7   8
ATOM      8  C   UNL d   1      -0.616   2.836  -0.537  0.00  0.00    -0.038 A 
ATOM      9  C   UNL d   1      -1.207   2.738  -1.801  0.00  0.00     0.025 A 
ATOM     10  C   UNL d   1      -0.627   3.418  -2.860  0.00  0.00     0.088 A 
ATOM     11  N   UNL d   1       0.482   4.179  -2.747  0.00  0.00    -0.375 N 
ATOM     12  C   UNL d   1       1.042   4.256  -1.521  0.00  0.00     0.088 A 
ATOM     13  HN  UNL d   1       0.877   4.671  -3.548  1.00  0.00     0.164 HD
ATOM     14  C   UNL d   1       0.540   3.609  -0.402  0.00  0.00     0.025 A 
ENDBRANCH   7   8
ENDBRANCH   5   7
ENDBRANCH   3   5
ENDBRANCH   1   3
BRANCH   1  15
ATOM     15  C   UNL d   1       0.936  -2.475   1.082  0.00  0.00     0.034 A 
ATOM     16  C   UNL d   1       0.688  -3.644   0.344  0.00  0.00     0.030 A 
ATOM     17  C   UNL d   1       1.336  -4.851   0.647  0.00  0.00     0.020 A 
ATOM     18  C   UNL d   1       2.256  -4.903   1.695  0.00  0.00     0.039 A 
ATOM     19  C   UNL d   1       2.527  -3.739   2.417  0.00  0.00     0.020 A 
ATOM     20  C   UNL d   1       1.871  -2.540   2.112  0.00  0.00     0.030 A 
BRANCH  18  21
ATOM     21  C   UNL d   1       2.867  -6.210   2.057  0.00  0.00     0.293 C 
ATOM     22  O   UNL d   1       2.538  -7.274   1.561  0.00  0.00    -0.259 OA
BRANCH  21  23
ATOM     23  O   UNL d   1       3.769  -6.028   3.053  0.00  0.00    -0.318 OA
BRANCH  23  24
ATOM     24  C   UNL d   1       4.232  -7.210   3.716  0.00  0.00     0.174 C 
ATOM     25  C   UNL d   1       3.288  -7.525   4.861  0.00  0.00     0.034 C 
ENDBRANCH  23  24
ENDBRANCH  21  23
ENDBRANCH  18  21
ENDBRANCH   1  15
TORSDOF 8
