REMARK  5 active torsions:
REMARK  status: ('A' for Active; 'I' for Inactive)
REMARK    1  A    between atoms: C_2  and  C_1 
REMARK    2  A    between atoms: O_8  and  C_2 
REMARK    3  A    between atoms: C_5  and  C_7 
REMARK    4  A    between atoms: C_10  and  O_8 
REMARK    5  A    between atoms: N_9  and  C_11 
ROOT
ATOM      1  C   UNL d   1      -4.658   1.092   0.778  0.00  0.00     0.300 C 
ATOM      2  O   UNL d   1      -5.738   1.661   0.781  0.00  0.00    -0.259 OA
ENDROOT
BRANCH   1   3
ATOM      3  C   UNL d   1      -4.348  -0.054   1.677  0.00  0.00     0.062 A 
ATOM      4  C   UNL d   1      -3.068  -0.498   2.023  0.00  0.00     0.022 A 
ATOM      5  N   UNL d   1      -2.871  -1.564   2.852  0.00  0.00    -0.355 N 
ATOM      6  C   UNL d   1      -1.793   0.141   1.559  0.00  0.00     0.069 C 
ATOM      7  C   UNL d   1      -3.943  -2.205   3.394  0.00  0.00     0.117 A 
ATOM      8  HN  UNL d   1      -1.924  -1.879   3.064  1.00  0.00     0.166 HD
ATOM      9  C   UNL d   1      -5.242  -1.775   3.144  0.00  0.00     0.035 A 
ATOM     10  C   UNL d   1      -5.441  -0.698   2.280  0.00  0.00     0.022 A 
BRANCH   7  11
ATOM     11  C   UNL d   1      -3.715  -3.433   4.268  0.00  0.00     0.432 C 
ATOM     12  F   UNL d   1      -2.408  -3.798   4.394  0.00  0.00    -0.165 F 
ATOM     13  F   UNL d   1      -4.181  -3.267   5.540  0.00  0.00    -0.165 F 
ATOM     14  F   UNL d   1      -4.361  -4.535   3.784  0.00  0.00    -0.165 F 
ENDBRANCH   7  11
ENDBRANCH   1   3
BRANCH   1  15
ATOM     15  O   UNL d   1      -3.592   1.376  -0.051  0.00  0.00    -0.273 OA
BRANCH  15  16
ATOM     16  C   UNL d   1      -3.211   2.715  -0.360  0.00  0.00     0.106 A 
ATOM     17  C   UNL d   1      -2.175   2.889  -1.306  0.00  0.00     0.064 A 
ATOM     18  C   UNL d   1      -1.611   4.176  -1.386  0.00  0.00     0.032 A 
ATOM     19  C   UNL d   1      -2.060   5.238  -0.596  0.00  0.00     0.002 A 
ATOM     20  C   UNL d   1      -3.107   5.045   0.295  0.00  0.00     0.003 A 
ATOM     21  C   UNL d   1      -3.679   3.783   0.422  0.00  0.00     0.040 A 
BRANCH  17  22
ATOM     22  N   UNL d   1      -1.700   1.906  -2.163  0.00  0.00    -0.379 N 
ATOM     23  C   UNL d   1      -2.590   0.891  -2.722  0.00  0.00     0.123 C 
ATOM     24  C   UNL d   1      -2.180   0.626  -4.175  0.00  0.00     0.020 C 
ATOM     25  C   UNL d   1      -0.698   0.274  -4.296  0.00  0.00     0.003 C 
ATOM     26  C   UNL d   1       0.175   1.331  -3.615  0.00  0.00     0.020 C 
ATOM     27  C   UNL d   1      -0.273   1.586  -2.175  0.00  0.00     0.123 C 
ENDBRANCH  17  22
ENDBRANCH  15  16
ENDBRANCH   1  15
TORSDOF 5
