REMARK  6 active torsions:
REMARK  status: ('A' for Active; 'I' for Inactive)
REMARK    1  A    between atoms: C_5  and  C_1 
REMARK    2  A    between atoms: O_8  and  C_2 
REMARK    3  A    between atoms: C_20  and  O_8 
REMARK    4  A    between atoms: C_9  and  C_12 
REMARK    5  A    between atoms: O_23  and  C_9 
REMARK    6  A    between atoms: O_26  and  C_21 
ROOT
ATOM      1  C   UNL d   1      -1.833  -1.475   0.008  0.00  0.00     0.197 C 
ATOM      2  C   UNL d   1      -2.315  -0.220   0.073  0.00  0.00     0.165 C 
ATOM      3  O   UNL d   1      -0.482  -1.804   0.043  0.00  0.00    -0.302 OA
ATOM      4  C   UNL d   1      -1.334   0.888   0.282  0.00  0.00     0.221 C 
ATOM      5  C   UNL d   1       0.441  -0.793   0.040  0.00  0.00     0.093 A 
ATOM      6  C   UNL d   1       0.083   0.544   0.126  0.00  0.00     0.051 A 
ATOM      7  C   UNL d   1       1.789  -1.145  -0.035  0.00  0.00     0.075 A 
ATOM      8  C   UNL d   1       1.061   1.542   0.098  0.00  0.00     0.021 A 
ATOM      9  O   UNL d   1      -1.657   2.030   0.581  0.00  0.00    -0.284 OA
ATOM     10  C   UNL d   1       2.780  -0.157  -0.040  0.00  0.00     0.070 A 
ATOM     11  C   UNL d   1       2.410   1.189   0.010  0.00  0.00     0.038 A 
ENDROOT
BRANCH   2  12
ATOM     12  O   UNL d   1      -3.689   0.016   0.051  0.00  0.00    -0.304 OA
BRANCH  12  13
ATOM     13  C   UNL d   1      -4.190   1.148  -0.552  0.00  0.00     0.076 A 
ATOM     14  C   UNL d   1      -3.628   1.728  -1.692  0.00  0.00     0.038 A 
ATOM     15  C   UNL d   1      -4.175   2.899  -2.220  0.00  0.00     0.020 A 
ATOM     16  C   UNL d   1      -5.325   3.462  -1.648  0.00  0.00     0.039 A 
ATOM     17  C   UNL d   1      -5.922   2.847  -0.541  0.00  0.00     0.020 A 
ATOM     18  C   UNL d   1      -5.352   1.692   0.005  0.00  0.00     0.038 A 
BRANCH  16  19
ATOM     19  C   UNL d   1      -5.854   4.708  -2.256  0.00  0.00     0.292 C 
ATOM     20  O   UNL d   1      -5.166   5.489  -2.894  0.00  0.00    -0.259 OA
BRANCH  19  21
ATOM     21  O   UNL d   1      -7.194   4.793  -2.066  0.00  0.00    -0.323 OA
ATOM     22  C   UNL d   1      -7.791   5.899  -2.747  0.00  0.00     0.213 C 
ENDBRANCH  19  21
ENDBRANCH  16  19
ENDBRANCH  12  13
ENDBRANCH   2  12
BRANCH   1  23
ATOM     23  C   UNL d   1      -2.746  -2.658  -0.108  0.00  0.00     0.442 C 
ATOM     24  F   UNL d   1      -2.064  -3.832  -0.172  0.00  0.00    -0.164 F 
ATOM     25  F   UNL d   1      -3.586  -2.761   0.954  0.00  0.00    -0.164 F 
ATOM     26  F   UNL d   1      -3.516  -2.602  -1.224  0.00  0.00    -0.164 F 
ENDBRANCH   1  23
BRANCH  10  27
ATOM     27  O   UNL d   1       4.063  -0.629  -0.091  0.00  0.00    -0.356 OA
ATOM     28  C   UNL d   1       5.106   0.337  -0.039  0.00  0.00     0.210 C 
ENDBRANCH  10  27
TORSDOF 6
