REMARK  0 active torsions:
REMARK  status: ('A' for Active; 'I' for Inactive)
REMARK       I    between atoms: C_9  and  N_7 
ROOT
ATOM      1  C   UNL d   1      -3.143   0.147   0.072  0.00  0.00     0.148 A 
ATOM      2  N   UNL d   1      -2.435   1.078  -0.528  0.00  0.00    -0.336 N 
ATOM      3  HN  UNL d   1      -2.832   1.859  -1.051  1.00  0.00     0.168 HD
ATOM      4  S   UNL d   1      -2.187  -1.096   0.807  0.00  0.00    -0.052 SA
ATOM      5  N   UNL d   1      -4.500   0.096   0.073  0.00  0.00    -0.358 N 
ATOM      6  C   UNL d   1      -0.747  -0.305   0.333  0.00  0.00     0.036 A 
ATOM      7  N   UNL d   1      -7.199  -0.681  -0.351  0.00  0.00    -0.349 N 
ATOM      8  C   UNL d   1      -1.077   0.858  -0.358  0.00  0.00     0.051 A 
ATOM      9  C   UNL d   1      -8.575  -0.647  -0.395  0.00  0.00     0.215 C 
ATOM     10  C   UNL d   1       0.582  -0.693   0.568  0.00  0.00     0.045 A 
ATOM     11  C   UNL d   1      -5.272  -0.450   1.189  0.00  0.00     0.145 C 
ATOM     12  C   UNL d   1      -5.287   0.850  -0.908  0.00  0.00     0.145 C 
ATOM     13  C   UNL d   1      -6.363  -1.381   0.638  0.00  0.00     0.145 C 
ATOM     14  C   UNL d   1      -6.425  -0.051  -1.443  0.00  0.00     0.145 C 
ATOM     15  O   UNL d   1      -9.175  -0.082  -1.312  0.00  0.00    -0.274 OA
ATOM     16  C   UNL d   1      -0.032   1.687  -0.816  0.00  0.00     0.032 A 
ATOM     17  C   UNL d   1       1.594   0.146   0.102  0.00  0.00     0.035 A 
ATOM     18  C   UNL d   1       1.300   1.325  -0.575  0.00  0.00     0.026 A 
ATOM     19 CL   UNL d   1       3.236  -0.292   0.380  0.00  0.00    -0.084 Cl
ATOM     20  C   UNL d   1      -9.389  -1.285   0.701  0.00  0.00     0.117 C 
ENDROOT
TORSDOF 0
