REMARK  2 active torsions:
REMARK  status: ('A' for Active; 'I' for Inactive)
REMARK    1  A    between atoms: C_6  and  C_1 
REMARK    2  A    between atoms: O_9  and  C_4 
ROOT
ATOM      1  C   UNL d   1       2.383  -1.245   0.003  0.00  0.00    -0.025 A 
ATOM      2  C   UNL d   1       0.188  -0.104   0.057  0.00  0.00     0.045 A 
ATOM      3  C   UNL d   1       0.978  -1.274   0.049  0.00  0.00     0.034 A 
ATOM      4  C   UNL d   1       0.805   1.149   0.044  0.00  0.00     0.085 A 
ATOM      5  C   UNL d   1       2.983   0.017  -0.003  0.00  0.00     0.015 A 
ATOM      6  C   UNL d   1       2.209   1.184   0.024  0.00  0.00     0.039 A 
ATOM      7 BR   UNL d   1      -1.684  -0.444   0.085  0.00  0.00    -0.048 Br
ENDROOT
BRANCH   1   8
ATOM      8  C   UNL d   1       3.180  -2.494  -0.052  0.00  0.00    -0.026 A 
ATOM      9  C   UNL d   1       2.712  -3.629  -0.744  0.00  0.00     0.012 A 
ATOM     10  C   UNL d   1       3.453  -4.812  -0.800  0.00  0.00     0.001 A 
ATOM     11  C   UNL d   1       4.693  -4.888  -0.177  0.00  0.00     0.000 A 
ATOM     12  C   UNL d   1       5.186  -3.781   0.508  0.00  0.00     0.001 A 
ATOM     13  C   UNL d   1       4.436  -2.603   0.574  0.00  0.00     0.012 A 
ENDBRANCH   1   8
BRANCH   4  14
ATOM     14  O   UNL d   1       0.293   2.413   0.051  0.00  0.00    -0.355 OA
ATOM     15  C   UNL d   1      -1.100   2.645  -0.011  0.00  0.00     0.210 C 
ENDBRANCH   4  14
TORSDOF 2
