REMARK  4 active torsions:
REMARK  status: ('A' for Active; 'I' for Inactive)
REMARK    1  A    between atoms: C_8  and  C_2 
REMARK    2  A    between atoms: S_9  and  C_5 
REMARK    3  A    between atoms: C_22  and  S_9 
REMARK    4  A    between atoms: C_19  and  C_22 
ROOT
ATOM      1  N   UNL d   1       0.823  -0.020  -0.012  0.00  0.00    -0.315 N 
ATOM      2  C   UNL d   1      -0.009   1.082  -0.105  0.00  0.00     0.134 A 
ATOM      3  N   UNL d   1      -1.256   0.638  -0.143  0.00  0.00    -0.283 N 
ATOM      4  HN  UNL d   1      -2.092   1.222  -0.161  1.00  0.00     0.188 HD
ATOM      5  C   UNL d   1       0.008  -1.121  -0.090  0.00  0.00     0.162 A 
ATOM      6  N   UNL d   1      -1.243  -0.740  -0.157  0.00  0.00    -0.278 N 
ATOM      7  HN  UNL d   1      -2.058  -1.351  -0.209  1.00  0.00     0.189 HD
ATOM      8  C   UNL d   1       2.252  -0.054   0.172  0.00  0.00     0.160 C 
ENDROOT
BRANCH   2   9
ATOM      9  C   UNL d   1       0.386   2.500  -0.131  0.00  0.00     0.010 A 
ATOM     10  C   UNL d   1      -0.402   3.468   0.513  0.00  0.00     0.029 A 
ATOM     11  C   UNL d   1      -0.029   4.833   0.520  0.00  0.00    -0.009 A 
ATOM     12  C   UNL d   1      -0.799   5.826   1.147  0.00  0.00     0.015 A 
ATOM     13  C   UNL d   1       1.158   5.245  -0.120  0.00  0.00     0.042 A 
ATOM     14  C   UNL d   1      -0.373   7.152   1.133  0.00  0.00     0.018 A 
ATOM     15  C   UNL d   1       0.816   7.444   0.496  0.00  0.00     0.088 A 
ATOM     16  N   UNL d   1       1.581   6.521  -0.127  0.00  0.00    -0.365 N 
ATOM     17  HN  UNL d   1       2.452   6.784  -0.588  1.00  0.00     0.165 HD
ATOM     18  C   UNL d   1       1.906   4.288  -0.783  0.00  0.00     0.031 A 
ATOM     19  C   UNL d   1       1.521   2.941  -0.817  0.00  0.00     0.017 A 
ENDBRANCH   2   9
BRANCH   5  20
ATOM     20  S   UNL d   1       0.608  -2.745  -0.064  0.00  0.00    -0.088 SA
BRANCH  20  21
ATOM     21  C   UNL d   1      -0.744  -3.655  -0.867  0.00  0.00     0.121 C 
BRANCH  21  22
ATOM     22  C   UNL d   1      -0.427  -5.132  -0.955  0.00  0.00    -0.043 A 
ATOM     23  C   UNL d   1      -0.829  -6.013   0.062  0.00  0.00     0.050 A 
ATOM     24  C   UNL d   1      -0.520  -7.371  -0.019  0.00  0.00     0.119 A 
ATOM     25  F   UNL d   1      -0.918  -8.194   0.961  0.00  0.00    -0.206 F 
ATOM     26  C   UNL d   1       0.190  -7.886  -1.093  0.00  0.00     0.084 A 
ATOM     27  C   UNL d   1       0.597  -7.015  -2.096  0.00  0.00     0.119 A 
ATOM     28  C   UNL d   1       0.300  -5.654  -2.037  0.00  0.00     0.050 A 
ATOM     29  F   UNL d   1       1.288  -7.492  -3.139  0.00  0.00    -0.206 F 
ENDBRANCH  21  22
ENDBRANCH  20  21
ENDBRANCH   5  20
TORSDOF 4
