REMARK  4 active torsions:
REMARK  status: ('A' for Active; 'I' for Inactive)
REMARK    1  A    between atoms: N_2  and  C_1 
REMARK    2  A    between atoms: N_5  and  C_3 
REMARK    3  A    between atoms: C_4  and  C_8 
REMARK    4  A    between atoms: N_7  and  C_10 
ROOT
ATOM      1  C   UNL d   1      -0.504  -0.787  -0.727  0.00  0.00     0.124 A 
ATOM      2  C   UNL d   1       0.638  -1.292  -0.072  0.00  0.00     0.044 A 
ATOM      3  C   UNL d   1      -0.622   0.556  -1.133  0.00  0.00     0.054 A 
ATOM      4  C   UNL d   1       0.415   1.457  -0.870  0.00  0.00     0.050 A 
ATOM      5  C   UNL d   1       1.639  -0.347   0.223  0.00  0.00     0.027 A 
ATOM      6  C   UNL d   1       1.532   0.997  -0.163  0.00  0.00     0.018 A 
ENDROOT
BRANCH   2   7
ATOM      7  N   UNL d   1       0.803  -2.663   0.228  0.00  0.00    -0.281 NA
ATOM      8  C   UNL d   1       1.657  -2.977   1.387  0.00  0.00     0.098 C 
ATOM      9  C   UNL d   1       1.523  -4.447   1.759  0.00  0.00     0.040 C 
ATOM     10  C   UNL d   1       1.787  -5.375   0.570  0.00  0.00     0.091 C 
ATOM     11  C   UNL d   1       0.975  -4.960  -0.660  0.00  0.00     0.040 C 
ATOM     12  C   UNL d   1       1.071  -3.473  -0.980  0.00  0.00     0.098 C 
BRANCH  10  13
ATOM     13  N   UNL d   1       3.212  -5.590   0.303  0.00  0.00    -0.362 N 
ATOM     14  C   UNL d   1       4.126  -4.693  -0.187  0.00  0.00     0.091 A 
ATOM     15  C   UNL d   1       5.350  -5.317  -0.278  0.00  0.00     0.019 A 
ATOM     16  C   UNL d   1       5.179  -6.642   0.174  0.00  0.00     0.019 A 
ATOM     17  C   UNL d   1       3.856  -6.786   0.526  0.00  0.00     0.091 A 
ENDBRANCH  10  13
ENDBRANCH   2   7
BRANCH   1  18
ATOM     18  N   UNL d   1      -1.642  -1.648  -1.000  0.00  0.00    -0.114 N 
ATOM     19  O   UNL d   1      -2.245  -2.137  -0.033  0.00  0.00    -0.532 OA
ATOM     20  O   UNL d   1      -1.966  -1.786  -2.190  0.00  0.00    -0.532 OA
ENDBRANCH   1  18
BRANCH   4  21
ATOM     21  C   UNL d   1       0.363   2.888  -1.347  0.00  0.00     0.417 C 
ATOM     22  F   UNL d   1      -0.756   3.180  -2.063  0.00  0.00    -0.166 F 
ATOM     23  F   UNL d   1       0.401   3.781  -0.321  0.00  0.00    -0.166 F 
ATOM     24  F   UNL d   1       1.415   3.196  -2.154  0.00  0.00    -0.166 F 
ENDBRANCH   4  21
TORSDOF 4
