REMARK  6 active torsions:
REMARK  status: ('A' for Active; 'I' for Inactive)
REMARK    1  A    between atoms: C_2  and  S_1 
REMARK    2  A    between atoms: N_11  and  S_1 
REMARK    3  A    between atoms: C_7  and  C_13 
REMARK    4  A    between atoms: C_13  and  N_11 
REMARK    5  A    between atoms: S_14  and  C_12 
REMARK    6  A    between atoms: C_21  and  S_14 
ROOT
ATOM      1  N   UNL d   1       0.229  -1.564   0.560  0.00  0.00    -0.311 N 
ATOM      2  H   UNL d   1      -0.719  -1.218   0.408  0.00  0.00     0.172 HD
ENDROOT
BRANCH   1   3
ATOM      3  S   UNL d   1       0.619  -1.691   2.179  0.00  0.00     0.261 S 
ATOM      4  O   UNL d   1      -0.370  -0.945   2.919  0.00  0.00    -0.200 OA
ATOM      5  O   UNL d   1       0.881  -3.083   2.480  0.00  0.00    -0.200 OA
BRANCH   3   6
ATOM      6  C   UNL d   1       2.132  -0.835   2.325  0.00  0.00     0.110 A 
ATOM      7  C   UNL d   1       2.280   0.525   2.015  0.00  0.00     0.108 A 
ATOM      8  C   UNL d   1       3.560   1.203   2.200  0.00  0.00     0.086 A 
ATOM      9  N   UNL d   1       1.409   1.423   1.536  0.00  0.00    -0.238 N 
ATOM     10  N   UNL d   1       3.418   2.483   1.837  0.00  0.00    -0.239 N 
ATOM     11  C   UNL d   1       4.707   0.544   2.687  0.00  0.00     0.034 A 
ATOM     12  O   UNL d   1       2.100   2.617   1.440  0.00  0.00    -0.156 OA
ATOM     13  HN  UNL d   1       4.134   3.209   1.850  1.00  0.00     0.197 HD
ATOM     14  C   UNL d   1       4.526  -0.818   2.986  0.00  0.00     0.004 A 
ATOM     15  C   UNL d   1       3.287  -1.482   2.817  0.00  0.00     0.028 A 
ATOM     16  HN  UNL d   1       0.433   1.259   1.290  1.00  0.00     0.197 HD
ENDBRANCH   3   6
ENDBRANCH   1   3
BRANCH   1  17
ATOM     17  C   UNL d   1       0.777  -2.488  -0.433  0.00  0.00     0.174 C 
BRANCH  17  18
ATOM     18  C   UNL d   1       0.352  -3.943  -0.348  0.00  0.00    -0.001 A 
ATOM     19  C   UNL d   1       1.253  -4.967  -0.738  0.00  0.00     0.015 A 
ATOM     20  C   UNL d   1       0.905  -6.321  -0.587  0.00  0.00     0.019 A 
ATOM     21  C   UNL d   1      -0.334  -6.683  -0.072  0.00  0.00     0.003 A 
ATOM     22  C   UNL d   1      -1.259  -5.694   0.238  0.00  0.00     0.024 A 
ATOM     23  C   UNL d   1      -0.934  -4.342   0.075  0.00  0.00     0.043 A 
ATOM     24 CL   UNL d   1      -2.225  -3.221   0.356  0.00  0.00    -0.084 Cl
BRANCH  19  25
ATOM     25  S   UNL d   1       2.804  -4.629  -1.574  0.00  0.00    -0.090 SA
BRANCH  25  26
ATOM     26  C   UNL d   1       4.065  -4.798  -0.324  0.00  0.00     0.005 A 
ATOM     27  C   UNL d   1       3.815  -4.922   1.047  0.00  0.00     0.020 A 
ATOM     28  C   UNL d   1       4.875  -5.023   1.956  0.00  0.00     0.025 A 
ATOM     29  C   UNL d   1       6.191  -4.992   1.499  0.00  0.00     0.034 A 
ATOM     30  C   UNL d   1       6.458  -4.870   0.140  0.00  0.00     0.025 A 
ATOM     31 CL   UNL d   1       7.489  -5.097   2.621  0.00  0.00    -0.084 Cl
ATOM     32  C   UNL d   1       5.398  -4.774  -0.765  0.00  0.00     0.020 A 
ENDBRANCH  25  26
ENDBRANCH  19  25
ENDBRANCH  17  18
ENDBRANCH   1  17
TORSDOF 6
