REMARK  8 active torsions:
REMARK  status: ('A' for Active; 'I' for Inactive)
REMARK    1  A    between atoms: C_12  and  N_1 
REMARK    2  A    between atoms: C_7  and  C_3 
REMARK    3  A    between atoms: C_19  and  N_5 
REMARK    4  A    between atoms: N_22  and  C_7 
REMARK    5  A    between atoms: C_8  and  O_13 
REMARK    6  A    between atoms: C_9  and  C_8 
REMARK    7  A    between atoms: O_13  and  N_10 
REMARK    8  A    between atoms: C_23  and  C_12 
ROOT
ATOM      1  N   UNL d   1       5.665  -2.495   0.033  0.00  0.00    -0.261 N 
ATOM      2  C   UNL d   1       4.957  -3.681   0.221  0.00  0.00     0.332 C 
ATOM      3  C   UNL d   1       3.592  -1.217  -0.115  0.00  0.00     0.088 C 
ATOM      4  C   UNL d   1       5.072  -1.249  -0.094  0.00  0.00     0.266 C 
ATOM      5  N   UNL d   1       3.577  -3.601   0.014  0.00  0.00    -0.304 N 
ATOM      6  C   UNL d   1       2.937  -2.382  -0.089  0.00  0.00     0.116 C 
ATOM      7  O   UNL d   1       5.505  -4.732   0.558  0.00  0.00    -0.246 OA
ATOM      8  O   UNL d   1       5.702  -0.191  -0.174  0.00  0.00    -0.267 OA
ENDROOT
BRANCH   3   9
ATOM      9  C   UNL d   1       2.807   0.066  -0.126  0.00  0.00     0.116 C 
ATOM     10  N   UNL d   1       1.599   0.033  -0.626  0.00  0.00    -0.245 N 
ATOM     11  HN  UNL d   1       1.163  -0.805  -1.012  1.00  0.00     0.196 HD
BRANCH  10  12
ATOM     12  O   UNL d   1       0.970   1.299  -0.569  0.00  0.00    -0.193 OA
BRANCH  12  13
ATOM     13  C   UNL d   1      -0.295   1.226  -1.116  0.00  0.00     0.322 C 
ATOM     14  O   UNL d   1      -0.799   0.220  -1.609  0.00  0.00    -0.257 OA
BRANCH  13  15
ATOM     15  C   UNL d   1      -0.976   2.513  -1.044  0.00  0.00     0.082 A 
ATOM     16  S   UNL d   1      -0.282   3.899  -0.309  0.00  0.00    -0.096 SA
ATOM     17  C   UNL d   1      -1.660   4.856  -0.645  0.00  0.00     0.050 A 
ATOM     18  C   UNL d   1      -2.634   4.146  -1.306  0.00  0.00     0.009 A 
ATOM     19  C   UNL d   1      -2.240   2.795  -1.535  0.00  0.00     0.026 A 
ENDBRANCH  13  15
ENDBRANCH  12  13
ENDBRANCH  10  12
BRANCH   9  20
ATOM     20  N   UNL d   1       3.362   1.221   0.375  0.00  0.00    -0.286 NA
ATOM     21  H   UNL d   1       4.381   1.270   0.312  0.00  0.00     0.125 HD
ATOM     22  H   UNL d   1       2.902   2.070   0.068  0.00  0.00     0.125 HD
ENDBRANCH   9  20
ENDBRANCH   3   9
BRANCH   1  23
ATOM     23  C   UNL d   1       7.122  -2.573   0.025  0.00  0.00     0.175 C 
BRANCH  23  24
ATOM     24  C   UNL d   1       7.653  -3.067  -1.308  0.00  0.00    -0.040 A 
ATOM     25  C   UNL d   1       7.929  -2.172  -2.351  0.00  0.00     0.009 A 
ATOM     26  C   UNL d   1       8.358  -2.644  -3.594  0.00  0.00     0.001 A 
ATOM     27  C   UNL d   1       8.507  -4.014  -3.811  0.00  0.00     0.000 A 
ATOM     28  C   UNL d   1       8.245  -4.912  -2.780  0.00  0.00     0.001 A 
ATOM     29  C   UNL d   1       7.827  -4.441  -1.536  0.00  0.00     0.009 A 
ENDBRANCH  23  24
ENDBRANCH   1  23
BRANCH   5  30
ATOM     30  C   UNL d   1       2.788  -4.853   0.058  0.00  0.00     0.086 C 
ATOM     31  C   UNL d   1       2.156  -5.069   1.433  0.00  0.00     0.032 C 
ATOM     32  C   UNL d   1       1.743  -4.959  -1.059  0.00  0.00     0.032 C 
ENDBRANCH   5  30
TORSDOF 8
