REMARK  4 active torsions:
REMARK  status: ('A' for Active; 'I' for Inactive)
REMARK    1  A    between atoms: C_2  and  S_1 
REMARK    2  A    between atoms: C_3  and  S_1 
REMARK    3  A    between atoms: C_7  and  C_4 
REMARK    4  A    between atoms: C_5  and  C_6 
ROOT
ATOM      1  C   UNL d   1       0.472  -0.514   1.668  0.00  0.00     0.146 C 
ATOM      2  C   UNL d   1      -0.393   0.282   2.326  0.00  0.00     0.066 C 
ATOM      3  C   UNL d   1       1.018  -0.206   0.398  0.00  0.00     0.112 C 
ATOM      4  N   UNL d   1       1.450   0.072  -0.643  0.00  0.00    -0.191 NA
ENDROOT
BRANCH   1   5
ATOM      5  S   UNL d   1       0.923  -2.031   2.363  0.00  0.00     0.218 S 
ATOM      6  O   UNL d   1       0.579  -3.073   1.411  0.00  0.00    -0.216 OA
ATOM      7  O   UNL d   1       0.442  -2.148   3.729  0.00  0.00    -0.216 OA
BRANCH   5   8
ATOM      8  C   UNL d   1       2.701  -1.987   2.462  0.00  0.00     0.086 A 
ATOM      9  C   UNL d   1       3.373  -1.045   3.245  0.00  0.00     0.056 A 
ATOM     10 CL   UNL d   1       2.592   0.198   4.150  0.00  0.00    -0.083 Cl
ATOM     11  C   UNL d   1       4.771  -1.085   3.318  0.00  0.00     0.025 A 
ATOM     12  C   UNL d   1       5.492  -2.059   2.624  0.00  0.00     0.002 A 
ATOM     13  C   UNL d   1       4.820  -2.999   1.849  0.00  0.00     0.002 A 
ATOM     14  C   UNL d   1       3.428  -2.966   1.764  0.00  0.00     0.025 A 
ENDBRANCH   5   8
ENDBRANCH   1   5
BRANCH   2  15
ATOM     15  C   UNL d   1      -0.788   1.586   1.798  0.00  0.00     0.056 A 
ATOM     16  N   UNL d   1       0.077   2.579   2.115  0.00  0.00    -0.364 N 
ATOM     17  C   UNL d   1      -0.127   3.788   1.542  0.00  0.00     0.104 A 
ATOM     18  HN  UNL d   1       0.852   2.422   2.759  1.00  0.00     0.165 HD
ATOM     19  C   UNL d   1      -1.156   4.057   0.651  0.00  0.00     0.065 A 
ATOM     20  C   UNL d   1      -2.057   3.024   0.365  0.00  0.00     0.043 A 
ATOM     21  C   UNL d   1      -1.876   1.770   0.945  0.00  0.00     0.061 A 
ATOM     22 CL   UNL d   1      -2.969   0.498   0.549  0.00  0.00    -0.082 Cl
BRANCH  19  23
ATOM     23  C   UNL d   1      -1.252   5.412   0.020  0.00  0.00     0.418 C 
ATOM     24  F   UNL d   1      -2.263   5.517  -0.884  0.00  0.00    -0.166 F 
ATOM     25  F   UNL d   1      -1.461   6.397   0.935  0.00  0.00    -0.166 F 
ATOM     26  F   UNL d   1      -0.116   5.754  -0.647  0.00  0.00    -0.166 F 
ENDBRANCH  19  23
ENDBRANCH   2  15
TORSDOF 4
