REMARK  4 active torsions:
REMARK  status: ('A' for Active; 'I' for Inactive)
REMARK    1  A    between atoms: S_12  and  C_1 
REMARK    2  A    between atoms: C_7  and  C_6 
REMARK    3  A    between atoms: C_11  and  C_7 
REMARK    4  A    between atoms: C_8  and  S_12 
ROOT
ATOM      1  C   UNL d   1       1.938  -5.256  -0.003  0.00  0.00     0.063 C 
ATOM      2  C   UNL d   1       1.605  -3.967  -0.161  0.00  0.00     0.057 C 
ENDROOT
BRANCH   2   3
ATOM      3  S   UNL d   1      -0.059  -3.486  -0.059  0.00  0.00    -0.066 SA
BRANCH   3   4
ATOM      4  C   UNL d   1       0.036  -1.710  -0.175  0.00  0.00     0.148 A 
ATOM      5  N   UNL d   1       1.005  -1.142  -0.915  0.00  0.00    -0.341 N 
ATOM      6  C   UNL d   1       0.987   0.201  -1.018  0.00  0.00     0.009 A 
ATOM      7  HN  UNL d   1       1.721  -1.703  -1.377  1.00  0.00     0.167 HD
ATOM      8  C   UNL d   1       2.056   0.847  -1.847  0.00  0.00     0.068 C 
ATOM      9  C   UNL d   1       0.025   0.979  -0.402  0.00  0.00     0.049 A 
ATOM     10  C   UNL d   1      -0.931   0.311   0.335  0.00  0.00     0.009 A 
ATOM     11  N   UNL d   1      -0.939  -1.030   0.456  0.00  0.00    -0.341 N 
ATOM     12  C   UNL d   1      -2.021   1.072   1.028  0.00  0.00     0.068 C 
ATOM     13  HN  UNL d   1      -1.654  -1.511   1.002  1.00  0.00     0.167 HD
ENDBRANCH   3   4
ENDBRANCH   2   3
BRANCH   1  14
ATOM     14  C   UNL d   1       3.360  -5.678  -0.086  0.00  0.00     0.182 C 
ATOM     15  O   UNL d   1       4.215  -4.982  -0.622  0.00  0.00    -0.288 OA
BRANCH  14  16
ATOM     16  C   UNL d   1       3.722  -7.005   0.482  0.00  0.00     0.014 A 
ATOM     17  C   UNL d   1       4.800  -7.703  -0.085  0.00  0.00     0.018 A 
ATOM     18  C   UNL d   1       5.200  -8.932   0.445  0.00  0.00     0.043 A 
ATOM     19  C   UNL d   1       4.529  -9.454   1.545  0.00  0.00     0.116 A 
ATOM     20  C   UNL d   1       3.463  -8.773   2.123  0.00  0.00     0.043 A 
ATOM     21  F   UNL d   1       4.921 -10.625   2.063  0.00  0.00    -0.206 F 
ATOM     22  C   UNL d   1       3.057  -7.545   1.594  0.00  0.00     0.018 A 
ENDBRANCH  14  16
ENDBRANCH   1  14
TORSDOF 4
