REMARK  1 active torsions:
REMARK  status: ('A' for Active; 'I' for Inactive)
REMARK    1  A    between atoms: N_12  and  C_6 
ROOT
ATOM      1  C   UNL d   1      -0.192   0.587   0.001  0.00  0.00     0.135 A 
ATOM      2  C   UNL d   1      -0.261  -0.801   0.001  0.00  0.00     0.060 A 
ATOM      3  N   UNL d   1      -2.397   0.054   0.001  0.00  0.00    -0.283 N 
ATOM      4  HN  UNL d   1      -3.414   0.141   0.000  1.00  0.00     0.188 HD
ATOM      5  N   UNL d   1      -1.479   1.033  -0.001  0.00  0.00    -0.283 N 
ATOM      6  C   UNL d   1      -1.666  -1.060   0.004  0.00  0.00     0.128 A 
ATOM      7  N   UNL d   1       0.900   1.371   0.002  0.00  0.00    -0.344 N 
ATOM      8  HN  UNL d   1       0.859   2.390   0.002  1.00  0.00     0.167 HD
ATOM      9  C   UNL d   1       0.964  -1.508   0.001  0.00  0.00    -0.042 A 
ATOM     10  C   UNL d   1       2.133  -0.717   0.003  0.00  0.00     0.032 A 
ATOM     11  C   UNL d   1       2.059   0.677   0.004  0.00  0.00     0.007 A 
ATOM     12  C   UNL d   1       1.128  -3.000   0.001  0.00  0.00     0.049 C 
ATOM     13  C   UNL d   1       3.317   1.497   0.010  0.00  0.00     0.068 C 
ATOM     14  H   UNL d   1      -1.782   1.998  -0.000  0.00  0.00     0.188 HD
ENDROOT
BRANCH   6  15
ATOM     15  N   UNL d   1      -2.250  -2.263   0.012  0.00  0.00    -0.384 N 
ATOM     16  H   UNL d   1      -1.766  -3.146  -0.019  0.00  0.00     0.157 HD
ATOM     17  H   UNL d   1      -3.261  -2.309  -0.008  0.00  0.00     0.157 HD
ENDBRANCH   6  15
TORSDOF 1
