REMARK  1 active torsions:
REMARK  status: ('A' for Active; 'I' for Inactive)
REMARK    1  A    between atoms: O_8  and  N_6 
ROOT
ATOM      1  C   UNL d   1      -0.025   1.794   0.000  0.00  0.00     0.076 A 
ATOM      2  C   UNL d   1       1.159   0.905   0.000  0.00  0.00     0.004 A 
ATOM      3  C   UNL d   1      -1.218   0.904  -0.000  0.00  0.00     0.004 A 
ATOM      4  C   UNL d   1       0.703  -0.420  -0.002  0.00  0.00    -0.012 A 
ATOM      5  C   UNL d   1      -0.743  -0.423  -0.001  0.00  0.00    -0.012 A 
ATOM      6  N   UNL d   1       0.091   3.085   0.001  0.00  0.00    -0.268 N 
ATOM      7  HN  UNL d   1       0.988   3.571   0.002  1.00  0.00     0.194 HD
ATOM      8  C   UNL d   1      -2.573   1.187   0.001  0.00  0.00     0.014 A 
ATOM      9  C   UNL d   1       2.502   1.236   0.001  0.00  0.00     0.014 A 
ATOM     10  C   UNL d   1       1.616  -1.462  -0.002  0.00  0.00     0.013 A 
ATOM     11  C   UNL d   1      -1.632  -1.487  -0.002  0.00  0.00     0.013 A 
ATOM     12  C   UNL d   1      -3.003  -1.211  -0.001  0.00  0.00     0.001 A 
ATOM     13  C   UNL d   1      -3.469   0.114   0.001  0.00  0.00     0.001 A 
ATOM     14  C   UNL d   1       3.421   0.185   0.001  0.00  0.00     0.001 A 
ATOM     15  C   UNL d   1       2.982  -1.152  -0.001  0.00  0.00     0.001 A 
ENDROOT
BRANCH   6  16
ATOM     16  O   UNL d   1      -1.141   3.737   0.001  0.00  0.00    -0.289 OA
ATOM     17  H   UNL d   1      -0.878   4.676   0.001  0.00  0.00     0.244 HD
ENDBRANCH   6  16
TORSDOF 1
