REMARK  1 active torsions:
REMARK  status: ('A' for Active; 'I' for Inactive)
REMARK    1  A    between atoms: O_6  and  N_3 
ROOT
ATOM      1  C   UNL d   1       0.024   0.716   0.056  0.00  0.00    -0.005 A 
ATOM      2  C   UNL d   1      -1.266   1.472   0.067  0.00  0.00     0.042 C 
ATOM      3  N   UNL d   1      -1.256   2.746   0.333  0.00  0.00    -0.273 N 
ATOM      4  HN  UNL d   1      -0.412   3.275   0.551  1.00  0.00     0.194 HD
ATOM      5  C   UNL d   1       0.023  -0.687  -0.023  0.00  0.00    -0.046 A 
ATOM      6  C   UNL d   1      -2.516   0.678  -0.276  0.00  0.00     0.060 C 
ATOM      7  C   UNL d   1      -2.462  -0.693   0.380  0.00  0.00     0.011 C 
ATOM      8  C   UNL d   1       1.238   1.415   0.117  0.00  0.00     0.014 A 
ATOM      9  C   UNL d   1      -1.255  -1.479  -0.115  0.00  0.00     0.040 C 
ATOM     10  C   UNL d   1       1.250  -1.368  -0.063  0.00  0.00     0.008 A 
ATOM     11  C   UNL d   1       2.449   0.724   0.085  0.00  0.00     0.001 A 
ATOM     12  C   UNL d   1       2.455  -0.666  -0.006  0.00  0.00     0.001 A 
ENDROOT
BRANCH   3  13
ATOM     13  O   UNL d   1      -2.536   3.305   0.283  0.00  0.00    -0.290 OA
ATOM     14  H   UNL d   1      -2.371   4.225   0.560  0.00  0.00     0.244 HD
ENDBRANCH   3  13
TORSDOF 1
