REMARK  6 active torsions:
REMARK  status: ('A' for Active; 'I' for Inactive)
REMARK    1  A    between atoms: C_7  and  N_1 
REMARK    2  A    between atoms: C_6  and  C_2 
REMARK    3  A    between atoms: C_14  and  C_7 
REMARK    4  A    between atoms: O_10  and  C_13 
REMARK    5  A    between atoms: C_13  and  C_15 
REMARK    6  A    between atoms: C_15  and  C_14 
ROOT
ATOM      1  N   UNL d   1      -1.514  -1.117   0.086  0.00  0.00    -0.345 N 
ATOM      2  C   UNL d   1      -2.430  -0.053   0.116  0.00  0.00     0.046 A 
ATOM      3  C   UNL d   1      -1.670   1.110   0.137  0.00  0.00     0.044 A 
ATOM      4  C   UNL d   1      -0.206  -0.619   0.074  0.00  0.00     0.045 A 
ATOM      5  C   UNL d   1      -0.300   0.777   0.096  0.00  0.00    -0.007 A 
ATOM      6  C   UNL d   1       1.069  -1.222   0.041  0.00  0.00     0.030 A 
ATOM      7  C   UNL d   1       0.873   1.563   0.071  0.00  0.00     0.014 A 
ATOM      8  C   UNL d   1       2.219  -0.430   0.019  0.00  0.00     0.002 A 
ATOM      9  C   UNL d   1       2.126   0.953   0.029  0.00  0.00     0.001 A 
ENDROOT
BRANCH   1  10
ATOM     10  C   UNL d   1      -1.930  -2.521   0.038  0.00  0.00     0.129 C 
BRANCH  10  11
ATOM     11  C   UNL d   1      -0.882  -3.621  -0.074  0.00  0.00     0.022 C 
BRANCH  11  12
ATOM     12  C   UNL d   1      -1.486  -5.021  -0.090  0.00  0.00     0.028 C 
BRANCH  12  13
ATOM     13  C   UNL d   1      -0.380  -6.071  -0.081  0.00  0.00     0.164 C 
BRANCH  13  14
ATOM     14  O   UNL d   1      -0.960  -7.365  -0.106  0.00  0.00    -0.401 OA
ATOM     15  H   UNL d   1      -0.226  -8.003  -0.099  0.00  0.00     0.209 HD
ENDBRANCH  13  14
ENDBRANCH  12  13
ENDBRANCH  11  12
ENDBRANCH  10  11
ENDBRANCH   1  10
BRANCH   2  16
ATOM     16  C   UNL d   1      -3.913  -0.116   0.061  0.00  0.00    -0.009 A 
ATOM     17  C   UNL d   1      -4.675  -1.091   0.720  0.00  0.00     0.014 A 
ATOM     18  C   UNL d   1      -6.071  -1.119   0.614  0.00  0.00     0.001 A 
ATOM     19  C   UNL d   1      -6.741  -0.137  -0.106  0.00  0.00     0.000 A 
ATOM     20  C   UNL d   1      -6.013   0.875  -0.721  0.00  0.00     0.001 A 
ATOM     21  C   UNL d   1      -4.616   0.878  -0.645  0.00  0.00     0.014 A 
ENDBRANCH   2  16
TORSDOF 6
