REMARK  7 active torsions:
REMARK  status: ('A' for Active; 'I' for Inactive)
REMARK    1  A    between atoms: C_8  and  C_1 
REMARK    2  A    between atoms: C_11  and  N_2 
REMARK    3  A    between atoms: C_10  and  C_5 
REMARK    4  A    between atoms: C_9  and  C_6 
REMARK    5  A    between atoms: O_18  and  C_8 
REMARK    6  A    between atoms: C_12  and  C_9 
REMARK    7  A    between atoms: O_19  and  C_10 
ROOT
ATOM      1  C   UNL d   1      -1.333   0.538  -0.016  0.00  0.00     0.054 C 
ATOM      2  N   UNL d   1       0.257  -1.355  -0.053  0.00  0.00    -0.273 N 
ATOM      3  N   UNL d   1       1.296  -0.460   0.046  0.00  0.00    -0.293 N 
ATOM      4  HN  UNL d   1       2.259  -0.787   0.121  1.00  0.00     0.187 HD
ATOM      5  C   UNL d   1      -1.176  -0.959   0.055  0.00  0.00     0.247 C 
ATOM      6  C   UNL d   1       1.029   0.807   0.044  0.00  0.00     0.100 C 
ATOM      7  C   UNL d   1      -0.312   1.402  -0.037  0.00  0.00     0.051 C 
ENDROOT
BRANCH   6   8
ATOM      8  C   UNL d   1       2.188   1.785   0.099  0.00  0.00     0.210 C 
ATOM      9  O   UNL d   1       2.114   2.817  -0.561  0.00  0.00    -0.285 OA
BRANCH   8  10
ATOM     10  C   UNL d   1       3.381   1.487   0.924  0.00  0.00     0.016 A 
ATOM     11  C   UNL d   1       4.611   2.038   0.539  0.00  0.00     0.017 A 
ATOM     12  C   UNL d   1       5.764   1.755   1.274  0.00  0.00     0.025 A 
ATOM     13  C   UNL d   1       5.684   0.936   2.399  0.00  0.00     0.034 A 
ATOM     14  C   UNL d   1       4.459   0.404   2.801  0.00  0.00     0.025 A 
ATOM     15 CL   UNL d   1       7.105   0.579   3.300  0.00  0.00    -0.084 Cl
ATOM     16  C   UNL d   1       3.304   0.681   2.066  0.00  0.00     0.017 A 
ENDBRANCH   8  10
ENDBRANCH   6   8
BRANCH   2  17
ATOM     17  C   UNL d   1       0.612  -2.720  -0.112  0.00  0.00     0.052 A 
ATOM     18  C   UNL d   1      -0.214  -3.691  -0.703  0.00  0.00     0.031 A 
ATOM     19  C   UNL d   1       0.150  -5.043  -0.735  0.00  0.00     0.002 A 
ATOM     20  C   UNL d   1       1.356  -5.457  -0.184  0.00  0.00     0.000 A 
ATOM     21  C   UNL d   1       2.207  -4.517   0.386  0.00  0.00     0.002 A 
ATOM     22  C   UNL d   1       1.841  -3.166   0.409  0.00  0.00     0.031 A 
ENDBRANCH   2  17
BRANCH   1  23
ATOM     23  C   UNL d   1      -2.730   1.018  -0.067  0.00  0.00     0.291 C 
ATOM     24  O   UNL d   1      -3.672   0.285  -0.321  0.00  0.00    -0.260 OA
BRANCH  23  25
ATOM     25  O   UNL d   1      -2.801   2.338   0.234  0.00  0.00    -0.323 OA
ATOM     26  C   UNL d   1      -4.121   2.882   0.235  0.00  0.00     0.213 C 
ENDBRANCH  23  25
ENDBRANCH   1  23
BRANCH   5  27
ATOM     27  C   UNL d   1      -1.767  -1.438   1.399  0.00  0.00     0.288 C 
ATOM     28  O   UNL d   1      -1.752  -0.797   2.447  0.00  0.00    -0.262 OA
BRANCH  27  29
ATOM     29  O   UNL d   1      -2.317  -2.682   1.266  0.00  0.00    -0.325 OA
ATOM     30  C   UNL d   1      -2.850  -3.246   2.465  0.00  0.00     0.213 C 
ENDBRANCH  27  29
ENDBRANCH   5  27
TORSDOF 7
