REMARK  5 active torsions:
REMARK  status: ('A' for Active; 'I' for Inactive)
REMARK    1  A    between atoms: C_7  and  C_1 
REMARK    2  A    between atoms: O_4  and  C_2 
REMARK    3  A    between atoms: C_6  and  O_4 
REMARK    4  A    between atoms: C_9  and  C_6 
REMARK    5  A    between atoms: O_15  and  C_7 
ROOT
ATOM      1  C   UNL d   1       2.163  -1.257  -0.093  0.00  0.00     0.115 C 
ATOM      2  C   UNL d   1       0.817  -1.237   0.271  0.00  0.00     0.120 C 
ATOM      3  S   UNL d   1       2.802   0.330  -0.247  0.00  0.00    -0.092 SA
ATOM      4  C   UNL d   1       0.396   0.096   0.583  0.00  0.00     0.053 C 
ATOM      5  C   UNL d   1       1.367   1.036   0.321  0.00  0.00     0.072 C 
ATOM      6 BR   UNL d   1      -1.251   0.665   1.315  0.00  0.00    -0.048 Br
ENDROOT
BRANCH   2   7
ATOM      7  O   UNL d   1       0.164  -2.431   0.279  0.00  0.00    -0.272 OA
BRANCH   7   8
ATOM      8  C   UNL d   1      -1.184  -2.521   0.313  0.00  0.00     0.298 C 
ATOM      9  O   UNL d   1      -1.909  -2.246   1.253  0.00  0.00    -0.259 OA
BRANCH   8  10
ATOM     10  C   UNL d   1      -1.698  -3.160  -0.935  0.00  0.00     0.040 A 
ATOM     11  C   UNL d   1      -3.074  -3.080  -1.202  0.00  0.00     0.019 A 
ATOM     12  C   UNL d   1      -3.607  -3.670  -2.353  0.00  0.00     0.025 A 
ATOM     13  C   UNL d   1      -2.769  -4.344  -3.237  0.00  0.00     0.034 A 
ATOM     14  C   UNL d   1      -1.400  -4.434  -2.983  0.00  0.00     0.025 A 
ATOM     15 CL   UNL d   1      -3.424  -5.074  -4.651  0.00  0.00    -0.084 Cl
ATOM     16  C   UNL d   1      -0.864  -3.844  -1.833  0.00  0.00     0.019 A 
ENDBRANCH   8  10
ENDBRANCH   7   8
ENDBRANCH   2   7
BRANCH   1  17
ATOM     17  C   UNL d   1       2.999  -2.423  -0.351  0.00  0.00     0.302 C 
ATOM     18  O   UNL d   1       2.606  -3.585  -0.395  0.00  0.00    -0.259 OA
BRANCH  17  19
ATOM     19  O   UNL d   1       4.311  -2.068  -0.493  0.00  0.00    -0.322 OA
ATOM     20  C   UNL d   1       5.231  -3.156  -0.572  0.00  0.00     0.213 C 
ENDBRANCH  17  19
ENDBRANCH   1  17
TORSDOF 5
