REMARK  6 active torsions:
REMARK  status: ('A' for Active; 'I' for Inactive)
REMARK       I    between atoms: N_5  and  C_1 
REMARK    1  A    between atoms: O_12  and  C_1 
REMARK    2  A    between atoms: N_2  and  N_5 
REMARK    3  A    between atoms: O_14  and  C_4 
REMARK    4  A    between atoms: O_15  and  C_6 
REMARK    5  A    between atoms: C_11  and  C_10 
REMARK    6  A    between atoms: C_16  and  O_12 
ROOT
ATOM      1  C   UNL d   1       2.939  -4.968   3.685  0.00  0.00     0.102 A 
ATOM      2  C   UNL d   1       2.709  -6.337   3.444  0.00  0.00     0.101 A 
ATOM      3  C   UNL d   1       2.071  -4.021   3.113  0.00  0.00     0.052 A 
ATOM      4  C   UNL d   1       1.648  -6.734   2.622  0.00  0.00     0.040 A 
ATOM      5  C   UNL d   1       1.010  -4.436   2.298  0.00  0.00    -0.017 A 
ATOM      6  C   UNL d   1       0.797  -5.792   2.054  0.00  0.00     0.016 A 
ENDROOT
BRANCH   5   7
ATOM      7  C   UNL d   1       0.126  -3.429   1.673  0.00  0.00     0.118 C 
ATOM      8  N   UNL d   1      -0.852  -3.794   0.908  0.00  0.00    -0.307 N 
ATOM      9  HN  UNL d   1      -1.047  -4.777   0.718  1.00  0.00     0.186 HD
BRANCH   8  10
ATOM     10  N   UNL d   1      -1.606  -2.796   0.373  0.00  0.00    -0.246 N 
ATOM     11  C   UNL d   1      -2.694  -3.053  -0.435  0.00  0.00     0.379 C 
ATOM     12  O   UNL d   1      -3.384  -2.149  -0.894  0.00  0.00    -0.237 OA
ATOM     13  H   UNL d   1      -1.404  -1.825   0.567  0.00  0.00     0.192 HD
BRANCH  11  14
ATOM     14  O   UNL d   1      -2.904  -4.381  -0.648  0.00  0.00    -0.303 OA
BRANCH  14  15
ATOM     15  C   UNL d   1      -4.051  -4.726  -1.433  0.00  0.00     0.176 C 
ATOM     16  C   UNL d   1      -3.719  -4.687  -2.912  0.00  0.00     0.034 C 
ENDBRANCH  14  15
ENDBRANCH  11  14
ENDBRANCH   8  10
ENDBRANCH   5   7
BRANCH   1  17
ATOM     17  O   UNL d   1       4.028  -4.636   4.446  0.00  0.00    -0.353 OA
ATOM     18  C   UNL d   1       4.310  -3.262   4.668  0.00  0.00     0.210 C 
ENDBRANCH   1  17
BRANCH   2  19
ATOM     19  O   UNL d   1       3.466  -7.394   3.881  0.00  0.00    -0.353 OA
ATOM     20  C   UNL d   1       4.065  -7.268   5.164  0.00  0.00     0.210 C 
ENDBRANCH   2  19
TORSDOF 6
