REMARK  6 active torsions:
REMARK  status: ('A' for Active; 'I' for Inactive)
REMARK    1  A    between atoms: S_14  and  C_2 
REMARK    2  A    between atoms: C_11  and  C_3 
REMARK    3  A    between atoms: C_16  and  C_8 
REMARK    4  A    between atoms: O_12  and  C_16 
REMARK    5  A    between atoms: C_13  and  O_12 
REMARK    6  A    between atoms: O_23  and  C_20 
ROOT
ATOM      1  C   UNL d   1      -0.637   0.010   0.096  0.00  0.00     0.105 A 
ATOM      2  C   UNL d   1       0.088   1.191   0.163  0.00  0.00     0.094 A 
ATOM      3  C   UNL d   1       0.106  -1.169   0.096  0.00  0.00     0.067 A 
ATOM      4  N   UNL d   1       1.433   1.220   0.200  0.00  0.00    -0.337 N 
ATOM      5  HN  UNL d   1       1.939   2.104   0.258  1.00  0.00     0.168 HD
ATOM      6  N   UNL d   1       1.470  -1.143   0.118  0.00  0.00    -0.342 N 
ATOM      7  HN  UNL d   1       2.009  -2.009   0.105  1.00  0.00     0.167 HD
ATOM      8  C   UNL d   1       2.087   0.050   0.158  0.00  0.00     0.107 A 
ATOM      9  C   UNL d   1      -2.059   0.038  -0.037  0.00  0.00     0.104 C 
ATOM     10  N   UNL d   1      -3.216   0.051  -0.133  0.00  0.00    -0.191 NA
ENDROOT
BRANCH   2  11
ATOM     11  S   UNL d   1      -0.714   2.801   0.158  0.00  0.00    -0.115 SA
ATOM     12  C   UNL d   1       0.721   3.909   0.095  0.00  0.00     0.097 C 
ENDBRANCH   2  11
BRANCH   3  13
ATOM     13  C   UNL d   1      -0.457  -2.548  -0.017  0.00  0.00    -0.008 A 
ATOM     14  C   UNL d   1       0.258  -3.548  -0.708  0.00  0.00     0.016 A 
ATOM     15  C   UNL d   1      -0.257  -4.840  -0.903  0.00  0.00     0.037 A 
ATOM     16  C   UNL d   1      -1.516  -5.170  -0.415  0.00  0.00     0.068 A 
ATOM     17  C   UNL d   1      -2.223  -4.215   0.310  0.00  0.00     0.037 A 
ATOM     18  C   UNL d   1      -1.693  -2.934   0.528  0.00  0.00     0.016 A 
BRANCH  16  19
ATOM     19  O   UNL d   1      -2.157  -6.365  -0.569  0.00  0.00    -0.356 OA
ATOM     20  C   UNL d   1      -1.476  -7.372  -1.308  0.00  0.00     0.210 C 
ENDBRANCH  16  19
ENDBRANCH   3  13
BRANCH   8  21
ATOM     21  C   UNL d   1       3.598   0.119   0.020  0.00  0.00     0.252 C 
BRANCH  21  22
ATOM     22  O   UNL d   1       4.218   0.169   1.302  0.00  0.00    -0.342 OA
BRANCH  22  23
ATOM     23  C   UNL d   1       5.587   0.178   1.378  0.00  0.00     0.090 A 
ATOM     24  C   UNL d   1       6.535   0.714   0.491  0.00  0.00     0.067 A 
ATOM     25 CL   UNL d   1       6.179   1.500  -1.006  0.00  0.00    -0.081 Cl
ATOM     26  C   UNL d   1       7.902   0.679   0.819  0.00  0.00     0.026 A 
ATOM     27  C   UNL d   1       8.339   0.120   2.017  0.00  0.00     0.002 A 
ATOM     28  C   UNL d   1       7.411  -0.414   2.900  0.00  0.00     0.003 A 
ATOM     29  C   UNL d   1       6.050  -0.379   2.583  0.00  0.00     0.038 A 
ENDBRANCH  22  23
ENDBRANCH  21  22
ENDBRANCH   8  21
TORSDOF 6
