REMARK  0 active torsions:
REMARK  status: ('A' for Active; 'I' for Inactive)
ROOT
ATOM      1  C   UNL d   1       2.542   0.011  -0.000  0.00  0.00     0.092 A 
ATOM      2  S   UNL d   1       1.724   1.504   0.001  0.00  0.00    -0.078 SA
ATOM      3  C   UNL d   1       1.675  -1.070  -0.001  0.00  0.00    -0.023 A 
ATOM      4  C   UNL d   1       0.289  -0.637  -0.000  0.00  0.00    -0.011 A 
ATOM      5  C   UNL d   1       0.181   0.756   0.000  0.00  0.00     0.017 A 
ATOM      6  C   UNL d   1       3.971  -0.059   0.000  0.00  0.00     0.107 C 
ATOM      7  N   UNL d   1       5.129  -0.133   0.000  0.00  0.00    -0.191 NA
ATOM      8  C   UNL d   1       2.087  -2.512  -0.003  0.00  0.00     0.051 C 
ATOM      9  C   UNL d   1      -0.916  -1.388  -0.000  0.00  0.00     0.013 A 
ATOM     10  C   UNL d   1      -1.069   1.407   0.000  0.00  0.00     0.020 A 
ATOM     11  C   UNL d   1      -2.160  -0.746  -0.000  0.00  0.00     0.001 A 
ATOM     12  C   UNL d   1      -2.233   0.638  -0.000  0.00  0.00     0.001 A 
ENDROOT
TORSDOF 0
