REMARK  5 active torsions:
REMARK  status: ('A' for Active; 'I' for Inactive)
REMARK    1  A    between atoms: C_8  and  S_1 
REMARK    2  A    between atoms: N_14  and  S_1 
REMARK    3  A    between atoms: C_7  and  C_2 
REMARK    4  A    between atoms: C_3  and  C_4 
REMARK       I    between atoms: C_4  and  N_10 
REMARK    5  A    between atoms: N_10  and  C_12 
ROOT
ATOM      1  C   UNL d   1      -2.689  -2.809   2.977  0.00  0.00     0.261 C 
ATOM      2  N   UNL d   1      -2.068  -3.558   1.973  0.00  0.00    -0.322 N 
ATOM      3  O   UNL d   1      -2.426  -1.647   3.256  0.00  0.00    -0.267 OA
ATOM      4  H   UNL d   1      -2.302  -4.536   1.944  0.00  0.00     0.169 HD
ENDROOT
BRANCH   1   5
ATOM      5  C   UNL d   1      -3.679  -3.530   3.762  0.00  0.00     0.093 A 
ATOM      6  C   UNL d   1      -3.973  -3.423   5.175  0.00  0.00     0.088 A 
ATOM      7  N   UNL d   1      -4.952  -4.285   5.500  0.00  0.00    -0.259 N 
ATOM      8  O   UNL d   1      -5.373  -4.873   4.339  0.00  0.00    -0.241 OA
ATOM      9  HN  UNL d   1      -5.313  -4.466   6.436  1.00  0.00     0.195 HD
ATOM     10  C   UNL d   1      -4.630  -4.426   3.299  0.00  0.00     0.090 A 
ATOM     11  C   UNL d   1      -5.036  -4.952   1.982  0.00  0.00     0.080 C 
BRANCH   6  12
ATOM     12  C   UNL d   1      -3.347  -2.613   6.233  0.00  0.00     0.054 A 
ATOM     13  C   UNL d   1      -4.073  -2.016   7.286  0.00  0.00     0.049 A 
ATOM     14 CL   UNL d   1      -5.803  -2.063   7.411  0.00  0.00    -0.083 Cl
ATOM     15  C   UNL d   1      -3.417  -1.314   8.313  0.00  0.00     0.025 A 
ATOM     16  C   UNL d   1      -2.034  -1.163   8.295  0.00  0.00     0.005 A 
ATOM     17  C   UNL d   1      -1.302  -1.734   7.261  0.00  0.00     0.043 A 
ATOM     18  C   UNL d   1      -1.953  -2.465   6.262  0.00  0.00     0.130 A 
ATOM     19  F   UNL d   1      -1.183  -3.066   5.342  0.00  0.00    -0.205 F 
ENDBRANCH   6  12
ENDBRANCH   1   5
BRANCH   2  20
ATOM     20  C   UNL d   1      -0.979  -3.148   1.148  0.00  0.00     0.042 A 
ATOM     21  C   UNL d   1      -0.553  -1.813   1.074  0.00  0.00     0.055 A 
ATOM     22  C   UNL d   1       0.574  -1.456   0.317  0.00  0.00     0.081 A 
ATOM     23  C   UNL d   1       1.307  -2.427  -0.362  0.00  0.00     0.026 A 
ATOM     24  C   UNL d   1       0.868  -3.747  -0.338  0.00  0.00     0.010 A 
ATOM     25  C   UNL d   1      -0.297  -4.114   0.369  0.00  0.00    -0.035 A 
ATOM     26  C   UNL d   1      -0.775  -5.535   0.211  0.00  0.00     0.050 C 
BRANCH  22  27
ATOM     27  S   UNL d   1       0.946   0.267   0.022  0.00  0.00     0.260 S 
ATOM     28  O   UNL d   1      -0.283   1.011   0.204  0.00  0.00    -0.200 OA
ATOM     29  O   UNL d   1       1.670   0.333  -1.231  0.00  0.00    -0.200 OA
BRANCH  27  30
ATOM     30  N   UNL d   1       2.017   0.692   1.265  0.00  0.00    -0.315 N 
ATOM     31  C   UNL d   1       1.474   0.780   2.628  0.00  0.00     0.162 C 
ATOM     32  C   UNL d   1       3.386   0.164   1.193  0.00  0.00     0.162 C 
ENDBRANCH  27  30
ENDBRANCH  22  27
ENDBRANCH   2  20
TORSDOF 5
