REMARK  8 active torsions:
REMARK  status: ('A' for Active; 'I' for Inactive)
REMARK    1  A    between atoms: C_7  and  C_1 
REMARK    2  A    between atoms: C_2  and  C_4 
REMARK    3  A    between atoms: C_3  and  C_5 
REMARK    4  A    between atoms: C_8  and  N_23 
REMARK    5  A    between atoms: N_19  and  C_8 
REMARK    6  A    between atoms: C_20  and  C_10 
REMARK    7  A    between atoms: N_23  and  N_14 
REMARK    8  A    between atoms: C_22  and  N_19 
ROOT
ATOM      1  C   UNL d   1      -0.243   1.080  -0.262  0.00  0.00     0.086 A 
ATOM      2  O   UNL d   1      -1.096   0.029  -0.048  0.00  0.00    -0.309 OA
ATOM      3  C   UNL d   1       1.013   0.610  -0.583  0.00  0.00     0.041 A 
ATOM      4  C   UNL d   1      -0.387  -1.116  -0.311  0.00  0.00     0.093 A 
ATOM      5  C   UNL d   1       0.910  -0.794  -0.654  0.00  0.00     0.041 A 
ENDROOT
BRANCH   4   6
ATOM      6  C   UNL d   1      -1.036  -2.398  -0.249  0.00  0.00     0.144 C 
ATOM      7  N   UNL d   1      -0.590  -3.353  -1.002  0.00  0.00    -0.307 N 
ATOM      8  HN  UNL d   1       0.154  -3.189  -1.679  1.00  0.00     0.186 HD
BRANCH   7   9
ATOM      9  N   UNL d   1      -1.155  -4.588  -0.853  0.00  0.00    -0.276 N 
ATOM     10  H   UNL d   1      -1.276  -4.946   0.088  0.00  0.00     0.189 HD
BRANCH   9  11
ATOM     11  C   UNL d   1      -1.167  -5.455  -1.916  0.00  0.00     0.191 C 
ATOM     12  S   UNL d   1      -1.530  -5.007  -3.491  0.00  0.00    -0.039 SA
BRANCH  11  13
ATOM     13  N   UNL d   1      -0.959  -6.783  -1.673  0.00  0.00    -0.332 N 
ATOM     14  H   UNL d   1      -1.261  -7.359  -2.454  0.00  0.00     0.168 HD
BRANCH  13  15
ATOM     15  C   UNL d   1      -0.023  -7.407  -0.815  0.00  0.00     0.036 A 
ATOM     16  C   UNL d   1       0.861  -6.722   0.022  0.00  0.00     0.055 A 
ATOM     17  C   UNL d   1       1.834  -7.422   0.753  0.00  0.00     0.058 A 
ATOM     18 CL   UNL d   1       2.891  -6.497   1.762  0.00  0.00    -0.082 Cl
ATOM     19  C   UNL d   1       1.941  -8.810   0.636  0.00  0.00     0.055 A 
ATOM     20  C   UNL d   1       1.062  -9.499  -0.198  0.00  0.00     0.028 A 
ATOM     21 CL   UNL d   1       3.145  -9.725   1.471  0.00  0.00    -0.083 Cl
ATOM     22  C   UNL d   1       0.085  -8.800  -0.915  0.00  0.00     0.031 A 
ENDBRANCH  13  15
ENDBRANCH  11  13
ENDBRANCH   9  11
ENDBRANCH   7   9
ENDBRANCH   4   6
BRANCH   1  23
ATOM     23  C   UNL d   1      -0.791   2.430  -0.202  0.00  0.00    -0.001 A 
ATOM     24  C   UNL d   1       0.004   3.491   0.258  0.00  0.00     0.030 A 
ATOM     25  C   UNL d   1      -0.423   4.827   0.146  0.00  0.00     0.049 A 
ATOM     26  C   UNL d   1      -1.675   5.090  -0.430  0.00  0.00     0.032 A 
ATOM     27  C   UNL d   1      -2.493   4.044  -0.887  0.00  0.00     0.049 A 
ATOM     28  C   UNL d   1      -2.047   2.717  -0.749  0.00  0.00     0.030 A 
BRANCH  25  29
ATOM     29  C   UNL d   1       0.485   5.947   0.598  0.00  0.00     0.417 C 
ATOM     30  F   UNL d   1      -0.006   7.187   0.326  0.00  0.00    -0.166 F 
ATOM     31  F   UNL d   1       0.718   5.921   1.939  0.00  0.00    -0.166 F 
ATOM     32  F   UNL d   1       1.708   5.891   0.003  0.00  0.00    -0.166 F 
ENDBRANCH  25  29
BRANCH  27  33
ATOM     33  C   UNL d   1      -3.805   4.327  -1.580  0.00  0.00     0.417 C 
ATOM     34  F   UNL d   1      -4.082   5.656  -1.693  0.00  0.00    -0.166 F 
ATOM     35  F   UNL d   1      -3.837   3.832  -2.847  0.00  0.00    -0.166 F 
ATOM     36  F   UNL d   1      -4.869   3.777  -0.932  0.00  0.00    -0.166 F 
ENDBRANCH  27  33
ENDBRANCH   1  23
TORSDOF 8
