REMARK  3 active torsions:
REMARK  status: ('A' for Active; 'I' for Inactive)
REMARK    1  A    between atoms: C_2  and  S_1 
REMARK    2  A    between atoms: N_9  and  S_1 
REMARK    3  A    between atoms: C_3  and  C_5 
ROOT
ATOM      1  C   UNL d   1       0.415   0.157   1.700  0.00  0.00     0.102 A 
ATOM      2  C   UNL d   1       0.149  -1.022   2.422  0.00  0.00     0.043 A 
ATOM      3  C   UNL d   1      -0.305  -0.967   3.750  0.00  0.00     0.049 A 
ATOM      4  C   UNL d   1       0.240   1.402   2.306  0.00  0.00     0.057 A 
ATOM      5  C   UNL d   1      -0.482   0.288   4.347  0.00  0.00     0.018 A 
ATOM      6  C   UNL d   1      -0.211   1.459   3.631  0.00  0.00     0.026 A 
ATOM      7 CL   UNL d   1       0.534   2.913   1.527  0.00  0.00    -0.083 Cl
ENDROOT
BRANCH   1   8
ATOM      8  S   UNL d   1       1.021  -0.001   0.043  0.00  0.00     0.260 S 
ATOM      9  O   UNL d   1       0.977  -1.401  -0.323  0.00  0.00    -0.200 OA
ATOM     10  O   UNL d   1       2.250   0.753  -0.054  0.00  0.00    -0.200 OA
BRANCH   8  11
ATOM     11  N   UNL d   1      -0.127   0.793  -0.889  0.00  0.00    -0.320 N 
ATOM     12  C   UNL d   1      -1.313   0.064  -1.321  0.00  0.00     0.159 C 
ATOM     13  H   UNL d   1       0.299   1.451  -1.541  0.00  0.00     0.171 HD
ENDBRANCH   8  11
ENDBRANCH   1   8
BRANCH   3  14
ATOM     14  C   UNL d   1      -0.597  -2.226   4.535  0.00  0.00     0.417 C 
ATOM     15  F   UNL d   1      -0.380  -3.369   3.832  0.00  0.00    -0.166 F 
ATOM     16  F   UNL d   1       0.163  -2.324   5.660  0.00  0.00    -0.166 F 
ATOM     17  F   UNL d   1      -1.893  -2.282   4.951  0.00  0.00    -0.166 F 
ENDBRANCH   3  14
TORSDOF 3
