REMARK  5 active torsions:
REMARK  status: ('A' for Active; 'I' for Inactive)
REMARK    1  A    between atoms: N_4  and  C_1 
REMARK    2  A    between atoms: N_7  and  C_1 
REMARK    3  A    between atoms: C_3  and  N_4 
REMARK    4  A    between atoms: C_5  and  C_14 
REMARK    5  A    between atoms: C_14  and  N_7 
ROOT
ATOM      1  C   UNL d   1       1.028  -0.028   0.092  0.00  0.00     0.172 C 
ATOM      2  S   UNL d   1       0.236   0.486  -1.285  0.00  0.00    -0.041 SA
ENDROOT
BRANCH   1   3
ATOM      3  N   UNL d   1       0.450  -0.472   1.254  0.00  0.00    -0.332 N 
ATOM      4  H   UNL d   1       0.751   0.034   2.082  0.00  0.00     0.168 HD
BRANCH   3   5
ATOM      5  C   UNL d   1      -0.751  -1.211   1.396  0.00  0.00     0.058 A 
ATOM      6  C   UNL d   1      -1.528  -1.079   2.563  0.00  0.00     0.082 A 
ATOM      7  C   UNL d   1      -2.674  -1.870   2.729  0.00  0.00     0.058 A 
ATOM      8 CL   UNL d   1      -1.058   0.086   3.765  0.00  0.00    -0.080 Cl
ATOM      9 CL   UNL d   1      -3.695  -1.749   4.121  0.00  0.00    -0.082 Cl
ATOM     10  C   UNL d   1      -3.030  -2.807   1.754  0.00  0.00     0.026 A 
ATOM     11  C   UNL d   1      -2.250  -2.953   0.609  0.00  0.00     0.004 A 
ATOM     12  C   UNL d   1      -1.117  -2.158   0.432  0.00  0.00     0.031 A 
ENDBRANCH   3   5
ENDBRANCH   1   3
BRANCH   1  13
ATOM     13  N   UNL d   1       2.393   0.039   0.117  0.00  0.00    -0.361 N 
ATOM     14  H   UNL d   1       2.792   0.315  -0.777  0.00  0.00     0.162 HD
BRANCH  13  15
ATOM     15  C   UNL d   1       3.222  -0.862   0.897  0.00  0.00     0.187 C 
BRANCH  15  16
ATOM     16  C   UNL d   1       4.640  -0.682   0.502  0.00  0.00     0.070 A 
ATOM     17  O   UNL d   1       4.918  -0.765  -0.834  0.00  0.00    -0.325 OA
ATOM     18  C   UNL d   1       6.255  -0.583  -0.974  0.00  0.00     0.142 A 
ATOM     19  C   UNL d   1       6.845  -0.389   0.252  0.00  0.00     0.027 A 
ATOM     20  C   UNL d   1       5.803  -0.454   1.208  0.00  0.00     0.036 A 
ENDBRANCH  15  16
ENDBRANCH  13  15
ENDBRANCH   1  13
TORSDOF 5
