REMARK  1 active torsions:
REMARK  status: ('A' for Active; 'I' for Inactive)
REMARK    1  A    between atoms: C_2  and  C_1 
ROOT
ATOM      1  C   UNL d   1      -1.604  -1.276   0.075  0.00  0.00     0.035 A 
ATOM      2  C   UNL d   1      -0.451  -0.799   0.679  0.00  0.00     0.104 A 
ATOM      3  C   UNL d   1      -2.324  -0.121  -0.383  0.00  0.00     0.006 A 
ATOM      4  N   UNL d   1      -0.447   0.567   0.600  0.00  0.00    -0.364 N 
ATOM      5  C   UNL d   1      -1.589   1.009  -0.020  0.00  0.00     0.043 A 
ATOM      6  C   UNL d   1      -3.555   0.069  -1.046  0.00  0.00     0.014 A 
ATOM      7  C   UNL d   1      -2.023   2.314  -0.282  0.00  0.00     0.030 A 
ATOM      8  C   UNL d   1      -4.011   1.365  -1.304  0.00  0.00     0.001 A 
ATOM      9  C   UNL d   1      -3.256   2.471  -0.923  0.00  0.00     0.002 A 
ATOM     10  H   UNL d   1       0.281   1.171   0.957  0.00  0.00     0.165 HD
ENDROOT
BRANCH   1  11
ATOM     11  C   UNL d   1      -1.985  -2.684  -0.054  0.00  0.00     0.109 C 
ATOM     12  N   UNL d   1      -2.652  -3.020  -1.095  0.00  0.00    -0.376 N 
ATOM     13  C   UNL d   1      -3.106  -4.393  -1.295  0.00  0.00     0.121 C 
ATOM     14  HN  UNL d   1      -2.870  -2.314  -1.798  1.00  0.00     0.161 HD
ATOM     15  C   UNL d   1      -3.722  -5.012  -0.045  0.00  0.00     0.021 C 
ATOM     16  C   UNL d   1      -2.691  -5.582   0.934  0.00  0.00     0.021 C 
ATOM     17  C   UNL d   1      -1.355  -4.853   0.944  0.00  0.00     0.121 C 
ATOM     18  N   UNL d   1      -1.552  -3.433   1.006  0.00  0.00    -0.376 N 
ATOM     19  H   UNL d   1      -1.116  -2.950   1.781  0.00  0.00     0.161 HD
ENDBRANCH   1  11
TORSDOF 1
