REMARK  5 active torsions:
REMARK  status: ('A' for Active; 'I' for Inactive)
REMARK    1  A    between atoms: N_4  and  C_1 
REMARK    2  A    between atoms: N_6  and  C_1 
REMARK    3  A    between atoms: C_3  and  N_4 
REMARK    4  A    between atoms: C_11  and  N_6 
REMARK    5  A    between atoms: C_10  and  C_11 
ROOT
ATOM      1  C   UNL d   1       1.163  -0.052   0.105  0.00  0.00     0.172 C 
ATOM      2  S   UNL d   1       0.383  -1.491  -0.232  0.00  0.00    -0.041 SA
ENDROOT
BRANCH   1   3
ATOM      3  N   UNL d   1       0.575   1.168   0.323  0.00  0.00    -0.333 N 
ATOM      4  H   UNL d   1       0.982   1.922  -0.220  0.00  0.00     0.168 HD
BRANCH   3   5
ATOM      5  C   UNL d   1      -0.662   1.421   0.962  0.00  0.00     0.041 A 
ATOM      6  C   UNL d   1      -1.475   2.505   0.574  0.00  0.00    -0.013 A 
ATOM      7  C   UNL d   1      -2.598   2.816   1.373  0.00  0.00     0.042 A 
ATOM      8  C   UNL d   1      -1.210   3.304  -0.677  0.00  0.00     0.052 C 
ATOM      9 CL   UNL d   1      -3.627   4.162   1.016  0.00  0.00    -0.084 Cl
ATOM     10  C   UNL d   1      -2.924   2.050   2.495  0.00  0.00     0.024 A 
ATOM     11  C   UNL d   1      -2.138   0.959   2.843  0.00  0.00     0.004 A 
ATOM     12  C   UNL d   1      -1.012   0.651   2.084  0.00  0.00     0.030 A 
ENDBRANCH   3   5
ENDBRANCH   1   3
BRANCH   1  13
ATOM     13  N   UNL d   1       2.530  -0.057   0.119  0.00  0.00    -0.363 N 
ATOM     14  H   UNL d   1       2.919  -0.978  -0.050  0.00  0.00     0.162 HD
BRANCH  13  15
ATOM     15  C   UNL d   1       3.352   0.839   0.916  0.00  0.00     0.162 C 
BRANCH  15  16
ATOM     16  C   UNL d   1       3.828   2.037   0.154  0.00  0.00    -0.025 A 
ATOM     17  C   UNL d   1       3.673   3.317   0.676  0.00  0.00     0.096 A 
ATOM     18  N   UNL d   1       4.113   4.443   0.070  0.00  0.00    -0.375 N 
ATOM     19  C   UNL d   1       4.753   4.289  -1.108  0.00  0.00     0.087 A 
ATOM     20  HN  UNL d   1       3.967   5.364   0.483  1.00  0.00     0.164 HD
ATOM     21  C   UNL d   1       4.971   3.061  -1.709  0.00  0.00     0.018 A 
ATOM     22  C   UNL d   1       4.501   1.919  -1.066  0.00  0.00     0.011 A 
ENDBRANCH  15  16
ENDBRANCH  13  15
ENDBRANCH   1  13
TORSDOF 5
