REMARK  1 active torsions:
REMARK  status: ('A' for Active; 'I' for Inactive)
REMARK    1  A    between atoms: N_18  and  C_6 
ROOT
ATOM      1  C   UNL d   1       0.994   1.575  -0.022  0.00  0.00     0.144 A 
ATOM      2  C   UNL d   1      -0.288   0.822   0.041  0.00  0.00     0.046 A 
ATOM      3  C   UNL d   1      -0.258  -0.548   0.050  0.00  0.00     0.174 A 
ATOM      4  C   UNL d   1       2.195   0.636  -0.133  0.00  0.00     0.095 A 
ATOM      5  C   UNL d   1       1.145   2.571   1.162  0.00  0.00     0.246 A 
ATOM      6  C   UNL d   1       2.055  -0.716  -0.164  0.00  0.00     0.141 A 
ATOM      7  O   UNL d   1       0.804  -1.344  -0.016  0.00  0.00    -0.279 OA
ATOM      8  N   UNL d   1       1.125   3.858   0.620  0.00  0.00    -0.325 N 
ATOM      9  N   UNL d   1      -1.545  -0.974   0.112  0.00  0.00    -0.279 N 
ATOM     10  N   UNL d   1      -2.429   0.044   0.122  0.00  0.00    -0.303 N 
ATOM     11  HN  UNL d   1      -3.447  -0.013   0.156  1.00  0.00     0.186 HD
ATOM     12  C   UNL d   1       0.895   2.507  -1.208  0.00  0.00    -0.003 A 
ATOM     13  C   UNL d   1      -1.667   1.149   0.078  0.00  0.00     0.034 A 
ATOM     14  C   UNL d   1       1.011   3.825  -0.763  0.00  0.00     0.043 A 
ATOM     15  C   UNL d   1       3.476   1.238  -0.312  0.00  0.00     0.101 C 
ATOM     16  N   UNL d   1       4.516   1.729  -0.470  0.00  0.00    -0.191 NA
ATOM     17  O   UNL d   1       1.277   2.311   2.346  0.00  0.00    -0.271 OA
ATOM     18  C   UNL d   1       0.827   2.210  -2.560  0.00  0.00     0.011 A 
ATOM     19  C   UNL d   1       1.050   4.888  -1.636  0.00  0.00     0.030 A 
ATOM     20  C   UNL d   1      -2.311   2.488   0.044  0.00  0.00     0.070 C 
ATOM     21  C   UNL d   1       0.881   3.272  -3.460  0.00  0.00     0.001 A 
ATOM     22  C   UNL d   1       0.993   4.597  -3.003  0.00  0.00     0.002 A 
ATOM     23  H   UNL d   1       1.244   4.689   1.182  0.00  0.00     0.169 HD
ATOM     24  H   UNL d   1      -1.895  -1.926   0.128  0.00  0.00     0.189 HD
ENDROOT
BRANCH   6  25
ATOM     25  N   UNL d   1       3.074  -1.614  -0.378  0.00  0.00    -0.282 NA
ATOM     26  H   UNL d   1       4.016  -1.286  -0.182  0.00  0.00     0.126 HD
ATOM     27  H   UNL d   1       2.872  -2.536  -0.002  0.00  0.00     0.126 HD
ENDBRANCH   6  25
TORSDOF 1
