REMARK  8 active torsions:
REMARK  status: ('A' for Active; 'I' for Inactive)
REMARK    1  A    between atoms: C_6  and  C_1 
REMARK    2  A    between atoms: C_2  and  C_5 
REMARK       I    between atoms: C_3  and  N_16 
REMARK    3  A    between atoms: C_7  and  C_3 
REMARK    4  A    between atoms: N_4  and  C_6 
REMARK    5  A    between atoms: C_23  and  N_8 
REMARK    6  A    between atoms: N_16  and  C_31 
REMARK    7  A    between atoms: C_24  and  C_23 
REMARK    8  A    between atoms: C_31  and  C_24 
ROOT
ATOM      1  C   UNL d   1      -4.788   3.221  -0.909  0.00  0.00     0.274 C 
ENDROOT
BRANCH   1   2
ATOM      2  N   UNL d   1      -3.829   2.147  -0.607  0.00  0.00     0.091 N 
ATOM      3  C   UNL d   1      -2.717   2.065  -1.572  0.00  0.00     0.302 C 
ATOM      4  C   UNL d   1      -1.605   3.115  -1.365  0.00  0.00     0.303 C 
ATOM      5  N   UNL d   1      -1.019   3.121  -0.013  0.00  0.00     0.096 N 
ATOM      6  C   UNL d   1      -2.101   3.196   0.987  0.00  0.00     0.303 C 
ATOM      7  C   UNL d   1      -3.297   2.234   0.768  0.00  0.00     0.302 C 
BRANCH   5   8
ATOM      8  C   UNL d   1      -0.107   1.981   0.182  0.00  0.00     0.316 C 
BRANCH   8   9
ATOM      9  C   UNL d   1       0.889   2.159   1.309  0.00  0.00     0.030 A 
ATOM     10  C   UNL d   1       1.772   3.248   1.409  0.00  0.00     0.045 A 
ATOM     11 CL   UNL d   1       1.818   4.520   0.239  0.00  0.00    -0.084 Cl
ATOM     12  C   UNL d   1       2.705   3.324   2.455  0.00  0.00     0.024 A 
ATOM     13  C   UNL d   1       2.795   2.305   3.401  0.00  0.00     0.005 A 
ATOM     14  C   UNL d   1       1.952   1.204   3.298  0.00  0.00     0.043 A 
ATOM     15  C   UNL d   1       1.017   1.141   2.265  0.00  0.00     0.126 A 
ATOM     16  F   UNL d   1       0.242   0.049   2.187  0.00  0.00    -0.205 F 
ENDBRANCH   8   9
ENDBRANCH   5   8
ENDBRANCH   1   2
BRANCH   1  17
ATOM     17  C   UNL d   1      -5.604   2.948  -2.184  0.00  0.00     0.050 C 
BRANCH  17  18
ATOM     18  C   UNL d   1      -6.318   1.596  -2.135  0.00  0.00     0.124 C 
BRANCH  18  19
ATOM     19  N   UNL d   1      -6.975   1.296  -3.395  0.00  0.00    -0.357 N 
ATOM     20  C   UNL d   1      -8.250   1.734  -3.664  0.00  0.00     0.251 C 
ATOM     21  O   UNL d   1      -8.942   2.356  -2.871  0.00  0.00    -0.268 OA
ATOM     22  H   UNL d   1      -6.505   0.669  -4.032  0.00  0.00     0.162 HD
BRANCH  20  23
ATOM     23  C   UNL d   1      -8.783   1.407  -5.013  0.00  0.00     0.032 A 
ATOM     24  C   UNL d   1      -7.960   1.408  -6.147  0.00  0.00     0.033 A 
ATOM     25  C   UNL d   1      -8.510   1.195  -7.422  0.00  0.00     0.048 A 
ATOM     26  C   UNL d   1      -9.888   0.950  -7.537  0.00  0.00     0.016 A 
ATOM     27  C   UNL d   1     -10.706   0.938  -6.405  0.00  0.00     0.002 A 
ATOM     28  C   UNL d   1     -10.156   1.179  -5.147  0.00  0.00     0.017 A 
BRANCH  25  29
ATOM     29  C   UNL d   1      -7.655   1.281  -8.664  0.00  0.00     0.417 C 
ATOM     30  F   UNL d   1      -6.337   1.503  -8.399  0.00  0.00    -0.166 F 
ATOM     31  F   UNL d   1      -7.698   0.144  -9.410  0.00  0.00    -0.166 F 
ATOM     32  F   UNL d   1      -8.044   2.289  -9.491  0.00  0.00    -0.166 F 
ENDBRANCH  25  29
ENDBRANCH  20  23
ENDBRANCH  18  19
ENDBRANCH  17  18
ENDBRANCH   1  17
TORSDOF 8
