REMARK  4 active torsions:
REMARK  status: ('A' for Active; 'I' for Inactive)
REMARK    1  A    between atoms: C_4  and  C_1 
REMARK       I    between atoms: N_11  and  C_4 
REMARK    2  A    between atoms: C_8  and  C_13 
REMARK       I    between atoms: C_10  and  N_12 
REMARK    3  A    between atoms: C_14  and  C_10 
REMARK    4  A    between atoms: N_12  and  N_11 
ROOT
ATOM      1  C   UNL d   1       3.210  -3.950   0.057  0.00  0.00     0.270 C 
ATOM      2  N   UNL d   1       2.133  -3.119  -0.178  0.00  0.00    -0.263 N 
ATOM      3  O   UNL d   1       4.319  -3.520   0.365  0.00  0.00    -0.266 OA
ATOM      4  H   UNL d   1       1.264  -3.422  -0.614  0.00  0.00     0.190 HD
ENDROOT
BRANCH   2   5
ATOM      5  N   UNL d   1       2.325  -1.732  -0.061  0.00  0.00    -0.262 N 
ATOM      6  C   UNL d   1       1.256  -0.885  -0.314  0.00  0.00     0.280 C 
ATOM      7  O   UNL d   1       0.177  -1.366  -0.672  0.00  0.00    -0.265 OA
ATOM      8  H   UNL d   1       3.236  -1.425   0.276  0.00  0.00     0.190 HD
BRANCH   6   9
ATOM      9  C   UNL d   1       1.475   0.532  -0.142  0.00  0.00     0.115 A 
ATOM     10  C   UNL d   1       0.597   1.604  -0.279  0.00  0.00     0.046 A 
ATOM     11  N   UNL d   1       1.166   2.855  -0.045  0.00  0.00    -0.298 N 
ATOM     12  C   UNL d   1      -0.846   1.591  -0.635  0.00  0.00     0.071 C 
ATOM     13  N   UNL d   1       2.445   2.768   0.268  0.00  0.00    -0.269 N 
ATOM     14  HN  UNL d   1       0.653   3.735  -0.108  1.00  0.00     0.187 HD
ATOM     15  S   UNL d   1       2.998   1.197   0.292  0.00  0.00     0.009 SA
ATOM     16  HN  UNL d   1       3.032   3.576   0.473  1.00  0.00     0.195 HD
ENDBRANCH   6   9
ENDBRANCH   2   5
BRANCH   1  17
ATOM     17  C   UNL d   1       2.974  -5.413  -0.093  0.00  0.00     0.033 A 
ATOM     18  C   UNL d   1       4.050  -6.225  -0.473  0.00  0.00     0.018 A 
ATOM     19  C   UNL d   1       3.893  -7.612  -0.566  0.00  0.00     0.017 A 
ATOM     20  C   UNL d   1       2.661  -8.213  -0.266  0.00  0.00     0.048 A 
ATOM     21  C   UNL d   1       1.586  -7.393   0.113  0.00  0.00     0.017 A 
ATOM     22  C   UNL d   1       1.737  -6.002   0.199  0.00  0.00     0.018 A 
BRANCH  20  23
ATOM     23  C   UNL d   1       2.491  -9.714  -0.320  0.00  0.00     0.417 C 
ATOM     24  F   UNL d   1       3.610 -10.378  -0.722  0.00  0.00    -0.166 F 
ATOM     25  F   UNL d   1       2.160 -10.242   0.892  0.00  0.00    -0.166 F 
ATOM     26  F   UNL d   1       1.503 -10.097  -1.176  0.00  0.00    -0.166 F 
ENDBRANCH  20  23
ENDBRANCH   1  17
TORSDOF 4
