REMARK  6 active torsions:
REMARK  status: ('A' for Active; 'I' for Inactive)
REMARK    1  A    between atoms: C_8  and  S_1 
REMARK    2  A    between atoms: N_12  and  S_1 
REMARK    3  A    between atoms: S_2  and  C_9 
REMARK    4  A    between atoms: N_13  and  S_2 
REMARK    5  A    between atoms: C_23  and  N_12 
REMARK    6  A    between atoms: C_24  and  N_13 
ROOT
ATOM      1  C   UNL d   1       0.558  -3.921   1.357  0.00  0.00     0.027 A 
ATOM      2  C   UNL d   1       0.173  -6.069   2.282  0.00  0.00     0.027 A 
ATOM      3  C   UNL d   1       1.018  -5.324   1.327  0.00  0.00     0.194 A 
ATOM      4  C   UNL d   1      -0.709  -5.146   2.876  0.00  0.00    -0.011 A 
ATOM      5  C   UNL d   1      -0.498  -3.841   2.285  0.00  0.00    -0.011 A 
ATOM      6  C   UNL d   1       0.332  -1.638   0.810  0.00  0.00     0.080 A 
ATOM      7  C   UNL d   1      -0.739  -7.844   3.540  0.00  0.00     0.080 A 
ATOM      8  C   UNL d   1       1.004  -2.847   0.615  0.00  0.00     0.041 A 
ATOM      9  C   UNL d   1       0.180  -7.418   2.580  0.00  0.00     0.041 A 
ATOM     10  C   UNL d   1      -1.587  -5.570   3.858  0.00  0.00     0.015 A 
ATOM     11  C   UNL d   1      -1.172  -2.644   2.457  0.00  0.00     0.015 A 
ATOM     12  O   UNL d   1       1.915  -5.778   0.643  0.00  0.00    -0.287 OA
ATOM     13  C   UNL d   1      -1.597  -6.931   4.194  0.00  0.00     0.026 A 
ATOM     14  C   UNL d   1      -0.764  -1.539   1.698  0.00  0.00     0.026 A 
ENDROOT
BRANCH   6  15
ATOM     15  S   UNL d   1       0.866  -0.205  -0.089  0.00  0.00     0.259 S 
ATOM     16  O   UNL d   1      -0.007   0.894   0.238  0.00  0.00    -0.201 OA
ATOM     17  O   UNL d   1       1.062  -0.627  -1.462  0.00  0.00    -0.201 OA
BRANCH  15  18
ATOM     18  N   UNL d   1       2.397   0.097   0.517  0.00  0.00    -0.307 N 
ATOM     19  H   UNL d   1       3.126   0.028  -0.194  0.00  0.00     0.173 HD
BRANCH  18  20
ATOM     20  C   UNL d   1       2.747   0.646   1.843  0.00  0.00     0.029 C 
ATOM     21  C   UNL d   1       2.398  -0.340   2.959  0.00  0.00     0.038 C 
ATOM     22  C   UNL d   1       4.275   0.849   1.850  0.00  0.00     0.038 C 
ATOM     23  C   UNL d   1       2.086   2.003   2.094  0.00  0.00     0.038 C 
ENDBRANCH  18  20
ENDBRANCH  15  18
ENDBRANCH   6  15
BRANCH   7  24
ATOM     24  S   UNL d   1      -0.755  -9.556   4.014  0.00  0.00     0.259 S 
ATOM     25  O   UNL d   1       0.621  -9.923   4.256  0.00  0.00    -0.201 OA
ATOM     26  O   UNL d   1      -1.767  -9.732   5.033  0.00  0.00    -0.201 OA
BRANCH  24  27
ATOM     27  N   UNL d   1      -1.202 -10.370   2.615  0.00  0.00    -0.307 N 
ATOM     28  H   UNL d   1      -0.484 -11.048   2.355  0.00  0.00     0.173 HD
BRANCH  27  29
ATOM     29  C   UNL d   1      -2.592 -10.690   2.213  0.00  0.00     0.029 C 
ATOM     30  C   UNL d   1      -3.403  -9.417   1.972  0.00  0.00     0.038 C 
ATOM     31  C   UNL d   1      -2.501 -11.470   0.884  0.00  0.00     0.038 C 
ATOM     32  C   UNL d   1      -3.275 -11.603   3.236  0.00  0.00     0.038 C 
ENDBRANCH  27  29
ENDBRANCH  24  27
ENDBRANCH   7  24
TORSDOF 6
