REMARK  2 active torsions:
REMARK  status: ('A' for Active; 'I' for Inactive)
REMARK    1  A    between atoms: C_8  and  C_1 
REMARK    2  A    between atoms: C_11  and  C_8 
ROOT
ATOM      1  N   UNL d   1       0.174   2.840  -4.890  0.00  0.00    -0.197 NA
ATOM      2  C   UNL d   1       0.122   2.760  -3.735  0.00  0.00     0.059 C 
ATOM      3  C   UNL d   1       0.049   2.641  -2.255  0.00  0.00     0.125 C 
ENDROOT
BRANCH   3   4
ATOM      4  C   UNL d   1       0.746   1.368  -1.754  0.00  0.00     0.034 C 
BRANCH   4   5
ATOM      5  C   UNL d   1       0.654   1.169  -0.230  0.00  0.00     0.126 C 
ATOM      6  C   UNL d   1       1.373  -0.110   0.159  0.00  0.00     0.138 C 
ATOM      7  O   UNL d   1       2.538  -0.096   0.551  0.00  0.00    -0.297 OA
ATOM      8  C   UNL d   1       0.648  -1.413  -0.105  0.00  0.00     0.079 C 
ATOM      9  C   UNL d   1      -0.777  -1.363   0.429  0.00  0.00     0.015 C 
ATOM     10  C   UNL d   1      -1.553  -0.153  -0.069  0.00  0.00     0.079 C 
ATOM     11  C   UNL d   1      -0.789   1.118   0.221  0.00  0.00     0.138 C 
ATOM     12  O   UNL d   1      -1.353   2.118   0.663  0.00  0.00    -0.297 OA
ENDBRANCH   4   5
ENDBRANCH   3   4
TORSDOF 2
