REMARK  2 active torsions:
REMARK  status: ('A' for Active; 'I' for Inactive)
REMARK    1  A    between atoms: C_3  and  C_1 
REMARK    2  A    between atoms: O_12  and  C_1 
ROOT
ATOM      1  C   UNL d   1      -1.290   0.263  -0.285  0.00  0.00     0.291 C 
ATOM      2  C   UNL d   1       0.925   0.749  -0.147  0.00  0.00     0.054 C 
ATOM      3  N   UNL d   1       0.881  -0.499  -0.496  0.00  0.00    -0.266 N 
ATOM      4  HN  UNL d   1       1.669  -1.072  -0.797  1.00  0.00     0.194 HD
ATOM      5  C   UNL d   1      -0.377   1.309   0.313  0.00  0.00     0.141 C 
ATOM      6  O   UNL d   1      -0.468  -0.914  -0.380  0.00  0.00    -0.230 OA
ATOM      7  C   UNL d   1       2.162   1.494  -0.149  0.00  0.00     0.029 A 
ATOM      8  S   UNL d   1       2.201   3.165   0.233  0.00  0.00    -0.100 SA
ATOM      9  C   UNL d   1       3.430   1.024  -0.441  0.00  0.00     0.021 A 
ATOM     10  C   UNL d   1       3.889   3.259  -0.014  0.00  0.00     0.050 A 
ATOM     11  C   UNL d   1       4.426   2.039  -0.362  0.00  0.00     0.008 A 
ENDROOT
BRANCH   1  12
ATOM     12  C   UNL d   1      -2.503  -0.006   0.623  0.00  0.00     0.447 C 
ATOM     13  F   UNL d   1      -3.148   1.144   0.935  0.00  0.00    -0.165 F 
ATOM     14  F   UNL d   1      -3.400  -0.809  -0.001  0.00  0.00    -0.165 F 
ATOM     15  F   UNL d   1      -2.157  -0.599   1.787  0.00  0.00    -0.165 F 
ENDBRANCH   1  12
BRANCH   1  16
ATOM     16  O   UNL d   1      -1.673   0.689  -1.607  0.00  0.00    -0.357 OA
ATOM     17  H   UNL d   1      -2.336   0.043  -1.911  0.00  0.00     0.213 HD
ENDBRANCH   1  16
TORSDOF 2
