REMARK  8 active torsions:
REMARK  status: ('A' for Active; 'I' for Inactive)
REMARK    1  A    between atoms: N_2  and  S_1 
REMARK    2  A    between atoms: C_3  and  S_1 
REMARK    3  A    between atoms: C_8  and  N_2 
REMARK    4  A    between atoms: C_17  and  N_2 
REMARK    5  A    between atoms: C_15  and  C_8 
REMARK    6  A    between atoms: O_18  and  C_9 
REMARK    7  A    between atoms: O_19  and  C_11 
REMARK    8  A    between atoms: C_16  and  C_17 
ROOT
ATOM      1  N   UNL d   1       3.154  -4.989  -1.750  0.00  0.00    -0.197 NA
ATOM      2  C   UNL d   1       2.875  -4.079  -1.085  0.00  0.00     0.060 C 
ATOM      3  C   UNL d   1       2.509  -2.914  -0.266  0.00  0.00     0.139 C 
ENDROOT
BRANCH   3   4
ATOM      4  C   UNL d   1       1.060  -2.529  -0.548  0.00  0.00     0.122 C 
BRANCH   4   5
ATOM      5  N   UNL d   1       0.533  -1.355   0.263  0.00  0.00    -0.203 NA
BRANCH   5   6
ATOM      6  S   UNL d   1       1.343   0.113  -0.085  0.00  0.00     0.243 S 
ATOM      7  O   UNL d   1       1.101   0.430  -1.473  0.00  0.00    -0.206 OA
ATOM      8  O   UNL d   1       2.705  -0.020   0.398  0.00  0.00    -0.206 OA
BRANCH   6   9
ATOM      9  C   UNL d   1       0.580   1.388   0.890  0.00  0.00     0.077 A 
ATOM     10  C   UNL d   1      -0.410   2.186   0.302  0.00  0.00     0.064 A 
ATOM     11  C   UNL d   1      -0.867   3.353   0.932  0.00  0.00     0.102 A 
ATOM     12  C   UNL d   1      -0.296   3.728   2.162  0.00  0.00     0.101 A 
ATOM     13  C   UNL d   1       0.683   2.906   2.749  0.00  0.00     0.041 A 
ATOM     14  C   UNL d   1       1.128   1.743   2.120  0.00  0.00     0.028 A 
BRANCH  11  15
ATOM     15  O   UNL d   1      -1.840   4.151   0.393  0.00  0.00    -0.353 OA
ATOM     16  C   UNL d   1      -2.361   3.816  -0.887  0.00  0.00     0.210 C 
ENDBRANCH  11  15
BRANCH  12  17
ATOM     17  O   UNL d   1      -0.557   4.841   2.918  0.00  0.00    -0.353 OA
ATOM     18  C   UNL d   1      -1.310   5.899   2.342  0.00  0.00     0.210 C 
ENDBRANCH  12  17
ENDBRANCH   6   9
ENDBRANCH   5   6
BRANCH   5  19
ATOM     19  C   UNL d   1      -0.983  -1.349   0.246  0.00  0.00     0.139 C 
BRANCH  19  20
ATOM     20  C   UNL d   1      -1.633  -1.151  -1.133  0.00  0.00     0.135 C 
ATOM     21  O   UNL d   1      -1.349  -2.244  -2.024  0.00  0.00    -0.385 OA
ATOM     22  C   UNL d   1      -2.388  -2.300  -3.011  0.00  0.00     0.168 C 
ATOM     23  C   UNL d   1      -3.487  -1.361  -2.553  0.00  0.00     0.029 C 
ATOM     24  C   UNL d   1      -3.153  -1.130  -1.095  0.00  0.00     0.035 C 
ENDBRANCH  19  20
ENDBRANCH   5  19
ENDBRANCH   4   5
ENDBRANCH   3   4
TORSDOF 8
