REMARK  4 active torsions:
REMARK  status: ('A' for Active; 'I' for Inactive)
REMARK    1  A    between atoms: N_2  and  C_1 
REMARK    2  A    between atoms: S_9  and  C_3 
REMARK    3  A    between atoms: N_13  and  C_6 
REMARK    4  A    between atoms: C_14  and  S_9 
ROOT
ATOM      1  C   UNL d   1      -0.202  -1.549   0.344  0.00  0.00     0.174 A 
ATOM      2  C   UNL d   1       1.042  -0.985   0.119  0.00  0.00     0.112 A 
ATOM      3  N   UNL d   1       1.178   0.327  -0.167  0.00  0.00    -0.345 N 
ATOM      4  HN  UNL d   1       2.092   0.752  -0.322  1.00  0.00     0.167 HD
ATOM      5  C   UNL d   1      -1.325  -0.759   0.205  0.00  0.00     0.117 A 
ATOM      6  N   UNL d   1      -1.192   0.554  -0.079  0.00  0.00    -0.341 N 
ATOM      7  HN  UNL d   1      -2.008   1.158  -0.171  1.00  0.00     0.167 HD
ATOM      8  C   UNL d   1       0.049   1.039  -0.236  0.00  0.00     0.182 A 
ENDROOT
BRANCH   2   9
ATOM      9  S   UNL d   1       2.555  -1.921  -0.028  0.00  0.00    -0.070 SA
BRANCH   9  10
ATOM     10  C   UNL d   1       3.249  -1.872   1.608  0.00  0.00     0.007 A 
ATOM     11  C   UNL d   1       3.592  -3.084   2.221  0.00  0.00     0.020 A 
ATOM     12  C   UNL d   1       4.260  -3.096   3.449  0.00  0.00     0.025 A 
ATOM     13  C   UNL d   1       4.590  -1.893   4.065  0.00  0.00     0.034 A 
ATOM     14  C   UNL d   1       4.247  -0.681   3.472  0.00  0.00     0.025 A 
ATOM     15 CL   UNL d   1       5.453  -1.906   5.555  0.00  0.00    -0.084 Cl
ATOM     16  C   UNL d   1       3.579  -0.669   2.241  0.00  0.00     0.020 A 
ENDBRANCH   9  10
ENDBRANCH   2   9
BRANCH   1  17
ATOM     17  N   UNL d   1      -0.298  -2.913   0.746  0.00  0.00    -0.109 N 
ATOM     18  O   UNL d   1      -0.219  -3.772  -0.143  0.00  0.00    -0.532 OA
ATOM     19  O   UNL d   1      -0.460  -3.138   1.952  0.00  0.00    -0.532 OA
ENDBRANCH   1  17
BRANCH   5  20
ATOM     20  N   UNL d   1      -2.650  -1.126   0.344  0.00  0.00    -0.281 NA
ATOM     21  C   UNL d   1      -3.157  -2.390  -0.158  0.00  0.00     0.114 C 
ATOM     22  H   UNL d   1      -3.216  -0.322   0.073  0.00  0.00     0.128 HD
ENDBRANCH   5  20
TORSDOF 4
