REMARK  9 active torsions:
REMARK  status: ('A' for Active; 'I' for Inactive)
REMARK       I    between atoms: N_3  and  C_11 
REMARK    1  A    between atoms: C_8  and  N_3 
REMARK    2  A    between atoms: N_4  and  C_7 
REMARK       I    between atoms: C_12  and  N_4 
REMARK    3  A    between atoms: C_11  and  C_17 
REMARK    4  A    between atoms: C_18  and  C_12 
REMARK    5  A    between atoms: S_15  and  C_23 
REMARK    6  A    between atoms: C_17  and  S_15 
REMARK    7  A    between atoms: S_16  and  C_18 
REMARK    8  A    between atoms: C_24  and  S_16 
REMARK    9  A    between atoms: C_23  and  C_24 
ROOT
ATOM      1  N   UNL d   1      -7.828   9.268   4.809  0.00  0.00    -0.191 NA
ATOM      2  C   UNL d   1      -8.627   9.747   4.117  0.00  0.00     0.102 C 
ATOM      3  C   UNL d   1      -9.666   9.927   1.883  0.00  0.00     0.055 A 
ATOM      4  C   UNL d   1      -9.584  10.331   3.227  0.00  0.00     0.071 A 
ATOM      5  C   UNL d   1     -10.389  11.380   3.699  0.00  0.00     0.025 A 
ATOM      6  C   UNL d   1     -10.578  10.576   1.039  0.00  0.00     0.031 A 
ATOM      7  C   UNL d   1     -11.301  12.005   2.850  0.00  0.00     0.002 A 
ATOM      8  C   UNL d   1     -11.399  11.599   1.523  0.00  0.00     0.002 A 
ENDROOT
BRANCH   3   9
ATOM      9  N   UNL d   1      -8.872   8.858   1.399  0.00  0.00    -0.325 N 
ATOM     10  C   UNL d   1      -8.343   8.791   0.125  0.00  0.00     0.231 C 
ATOM     11  O   UNL d   1      -8.379   9.719  -0.684  0.00  0.00    -0.272 OA
ATOM     12  H   UNL d   1      -8.511   8.176   2.063  0.00  0.00     0.169 HD
BRANCH  10  13
ATOM     13  C   UNL d   1      -7.582   7.518  -0.230  0.00  0.00     0.177 C 
BRANCH  13  14
ATOM     14  S   UNL d   1      -7.943   6.095   0.847  0.00  0.00    -0.159 SA
BRANCH  14  15
ATOM     15  C   UNL d   1      -7.004   4.798  -0.047  0.00  0.00     0.084 C 
BRANCH  15  16
ATOM     16  C   UNL d   1      -5.478   4.944  -0.037  0.00  0.00     0.084 C 
BRANCH  16  17
ATOM     17  S   UNL d   1      -4.690   5.109   1.602  0.00  0.00    -0.159 SA
BRANCH  17  18
ATOM     18  C   UNL d   1      -5.180   3.512   2.364  0.00  0.00     0.177 C 
BRANCH  18  19
ATOM     19  C   UNL d   1      -4.744   3.421   3.825  0.00  0.00     0.231 C 
ATOM     20  N   UNL d   1      -4.695   4.643   4.478  0.00  0.00    -0.325 N 
ATOM     21  H   UNL d   1      -4.538   5.420   3.838  0.00  0.00     0.169 HD
ATOM     22  O   UNL d   1      -4.481   2.338   4.342  0.00  0.00    -0.272 OA
BRANCH  20  23
ATOM     23  C   UNL d   1      -4.216   4.796   5.794  0.00  0.00     0.055 A 
ATOM     24  C   UNL d   1      -4.681   4.060   6.897  0.00  0.00     0.071 A 
ATOM     25  C   UNL d   1      -5.822   3.191   6.821  0.00  0.00     0.102 C 
ATOM     26  C   UNL d   1      -4.097   4.277   8.160  0.00  0.00     0.025 A 
ATOM     27  N   UNL d   1      -6.779   2.530   6.815  0.00  0.00    -0.191 NA
ATOM     28  C   UNL d   1      -3.081   5.212   8.323  0.00  0.00     0.002 A 
ATOM     29  C   UNL d   1      -2.651   5.968   7.235  0.00  0.00     0.002 A 
ATOM     30  C   UNL d   1      -3.224   5.773   5.981  0.00  0.00     0.031 A 
ENDBRANCH  20  23
ENDBRANCH  18  19
ENDBRANCH  17  18
ENDBRANCH  16  17
ENDBRANCH  15  16
ENDBRANCH  14  15
ENDBRANCH  13  14
ENDBRANCH  10  13
ENDBRANCH   3   9
TORSDOF 9
