REMARK  2 active torsions:
REMARK  status: ('A' for Active; 'I' for Inactive)
REMARK    1  A    between atoms: C_10  and  N_1 
REMARK    2  A    between atoms: C_11  and  C_10 
ROOT
ATOM      1  N   UNL d   1       0.090  -1.582   0.048  0.00  0.00    -0.342 N 
ATOM      2  C   UNL d   1      -0.692   0.512   0.032  0.00  0.00     0.005 A 
ATOM      3  C   UNL d   1       0.736   0.557   0.034  0.00  0.00     0.005 A 
ATOM      4  C   UNL d   1      -1.074  -0.830   0.042  0.00  0.00     0.046 A 
ATOM      5  C   UNL d   1       1.203  -0.760   0.046  0.00  0.00     0.046 A 
ATOM      6  C   UNL d   1      -2.425  -1.217   0.043  0.00  0.00     0.032 A 
ATOM      7  C   UNL d   1       2.578  -1.057   0.050  0.00  0.00     0.032 A 
ATOM      8  C   UNL d   1      -1.691   1.509   0.017  0.00  0.00     0.033 A 
ATOM      9  C   UNL d   1       1.669   1.616   0.019  0.00  0.00     0.033 A 
ATOM     10  C   UNL d   1      -3.034   1.127   0.010  0.00  0.00     0.011 A 
ATOM     11  C   UNL d   1       3.034   1.323   0.015  0.00  0.00     0.011 A 
ATOM     12  C   UNL d   1       3.485   0.008   0.031  0.00  0.00     0.021 A 
ATOM     13  C   UNL d   1      -3.400  -0.215   0.024  0.00  0.00     0.021 A 
ATOM     14 BR   UNL d   1       4.286   2.741  -0.013  0.00  0.00    -0.051 Br
ATOM     15 BR   UNL d   1      -4.377   2.460  -0.018  0.00  0.00    -0.051 Br
ENDROOT
BRANCH   1  16
ATOM     16  C   UNL d   1       0.127  -3.042  -0.029  0.00  0.00     0.156 C 
BRANCH  16  17
ATOM     17  C   UNL d   1       0.030  -3.774   1.283  0.00  0.00    -0.017 C 
ATOM     18  C   UNL d   1       0.020  -3.261   2.521  0.00  0.00     0.008 C 
ENDBRANCH  16  17
ENDBRANCH   1  16
TORSDOF 2
