REMARK  4 active torsions:
REMARK  status: ('A' for Active; 'I' for Inactive)
REMARK    1  A    between atoms: N_8  and  S_1 
REMARK    2  A    between atoms: C_10  and  S_1 
REMARK    3  A    between atoms: C_4  and  N_11 
REMARK    4  A    between atoms: C_12  and  C_5 
ROOT
ATOM      1  N   UNL d   1       0.393  -0.838  -1.181  0.00  0.00    -0.304 N 
ATOM      2  N   UNL d   1      -1.415  -3.054  -0.749  0.00  0.00    -0.357 N 
ATOM      3  C   UNL d   1      -1.081  -0.655  -1.331  0.00  0.00     0.155 C 
ATOM      4  C   UNL d   1       0.800  -2.235  -1.501  0.00  0.00     0.155 C 
ATOM      5  C   UNL d   1      -1.861  -1.670  -0.472  0.00  0.00     0.145 C 
ATOM      6  C   UNL d   1       0.038  -3.268  -0.648  0.00  0.00     0.145 C 
ENDROOT
BRANCH   2   7
ATOM      7  C   UNL d   1      -2.299  -4.042  -0.409  0.00  0.00     0.165 A 
ATOM      8  N   UNL d   1      -3.597  -3.849  -0.312  0.00  0.00    -0.320 N 
ATOM      9  C   UNL d   1      -4.242  -5.040  -0.002  0.00  0.00     0.131 A 
ATOM     10  HN  UNL d   1      -4.064  -2.953  -0.445  1.00  0.00     0.169 HD
ATOM     11  N   UNL d   1      -3.508  -6.142   0.178  0.00  0.00    -0.308 N 
ATOM     12  S   UNL d   1      -1.924  -5.707  -0.091  0.00  0.00     0.024 SA
ATOM     13  HN  UNL d   1      -3.851  -7.069   0.431  1.00  0.00     0.176 HD
BRANCH   9  14
ATOM     14  C   UNL d   1      -5.741  -5.072   0.105  0.00  0.00     0.049 A 
ATOM     15  S   UNL d   1      -6.731  -3.705  -0.174  0.00  0.00    -0.098 SA
ATOM     16  C   UNL d   1      -8.159  -4.606   0.097  0.00  0.00     0.050 A 
ATOM     17  C   UNL d   1      -7.889  -5.918   0.415  0.00  0.00     0.009 A 
ATOM     18  C   UNL d   1      -6.487  -6.189   0.421  0.00  0.00     0.023 A 
ENDBRANCH   9  14
ENDBRANCH   2   7
BRANCH   1  19
ATOM     19  S   UNL d   1       1.133  -0.085   0.140  0.00  0.00     0.261 S 
ATOM     20  O   UNL d   1       2.347  -0.799   0.466  0.00  0.00    -0.200 OA
ATOM     21  O   UNL d   1       0.134   0.215   1.139  0.00  0.00    -0.200 OA
BRANCH  19  22
ATOM     22  C   UNL d   1       1.627   1.460  -0.612  0.00  0.00     0.082 A 
ATOM     23  C   UNL d   1       2.882   1.549  -1.225  0.00  0.00     0.070 A 
ATOM     24  C   UNL d   1       3.242   2.737  -1.849  0.00  0.00     0.156 A 
ATOM     25  F   UNL d   1       4.434   2.825  -2.455  0.00  0.00    -0.203 F 
ATOM     26  C   UNL d   1       2.373   3.824  -1.858  0.00  0.00     0.154 A 
ATOM     27  C   UNL d   1       1.140   3.749  -1.215  0.00  0.00     0.047 A 
ATOM     28  F   UNL d   1       2.715   4.955  -2.491  0.00  0.00    -0.203 F 
ATOM     29  C   UNL d   1       0.766   2.564  -0.576  0.00  0.00     0.028 A 
ENDBRANCH  19  22
ENDBRANCH   1  19
TORSDOF 4
