REMARK  3 active torsions:
REMARK  status: ('A' for Active; 'I' for Inactive)
REMARK    1  A    between atoms: C_12  and  C_2 
REMARK    2  A    between atoms: C_13  and  C_10 
REMARK    3  A    between atoms: C_14  and  C_11 
ROOT
ATOM      1  N   UNL d   1       0.300   0.650   0.069  0.00  0.00    -0.235 N 
ATOM      2  C   UNL d   1      -0.818   1.474   0.068  0.00  0.00     0.144 A 
ATOM      3  C   UNL d   1       0.150  -0.744  -0.005  0.00  0.00     0.130 A 
ATOM      4  N   UNL d   1       1.607   0.991   0.127  0.00  0.00    -0.289 N 
ATOM      5  HN  UNL d   1       1.997   1.927   0.235  1.00  0.00     0.188 HD
ATOM      6  N   UNL d   1      -1.074  -1.353  -0.029  0.00  0.00    -0.339 N 
ATOM      7  HN  UNL d   1      -1.163  -2.369  -0.059  1.00  0.00     0.167 HD
ATOM      8  C   UNL d   1       1.422  -1.266  -0.067  0.00  0.00     0.084 A 
ATOM      9  C   UNL d   1      -2.046   0.919   0.023  0.00  0.00     0.069 A 
ATOM     10  C   UNL d   1       2.279  -0.157   0.014  0.00  0.00     0.086 A 
ATOM     11  C   UNL d   1      -2.123  -0.576  -0.011  0.00  0.00     0.070 A 
ENDROOT
BRANCH  10  12
ATOM     12  C   UNL d   1       3.769  -0.203  -0.029  0.00  0.00     0.103 A 
ATOM     13  O   UNL d   1       4.511  -1.335  -0.230  0.00  0.00    -0.320 OA
ATOM     14  C   UNL d   1       5.818  -0.963  -0.232  0.00  0.00     0.142 A 
ATOM     15  C   UNL d   1       5.937   0.389  -0.016  0.00  0.00     0.027 A 
ATOM     16  C   UNL d   1       4.616   0.880   0.114  0.00  0.00     0.041 A 
ENDBRANCH  10  12
BRANCH   2  17
ATOM     17  C   UNL d   1      -0.641   2.946   0.089  0.00  0.00     0.434 C 
ATOM     18  F   UNL d   1       0.629   3.408   0.060  0.00  0.00    -0.165 F 
ATOM     19  F   UNL d   1      -1.276   3.515  -0.973  0.00  0.00    -0.165 F 
ATOM     20  F   UNL d   1      -1.222   3.483   1.197  0.00  0.00    -0.165 F 
ENDBRANCH   2  17
BRANCH  11  21
ATOM     21  C   UNL d   1      -3.439  -1.181  -0.028  0.00  0.00     0.101 A 
ATOM     22  O   UNL d   1      -4.548  -0.375  -0.030  0.00  0.00    -0.321 OA
ATOM     23  C   UNL d   1      -5.639  -1.182  -0.046  0.00  0.00     0.142 A 
ATOM     24  C   UNL d   1      -5.258  -2.503  -0.052  0.00  0.00     0.027 A 
ATOM     25  C   UNL d   1      -3.842  -2.503  -0.040  0.00  0.00     0.041 A 
ENDBRANCH  11  21
TORSDOF 3
