REMARK  5 active torsions:
REMARK  status: ('A' for Active; 'I' for Inactive)
REMARK       I    between atoms: C_2  and  N_7 
REMARK    1  A    between atoms: C_12  and  C_2 
REMARK    2  A    between atoms: N_7  and  C_14 
REMARK    3  A    between atoms: S_9  and  C_12 
REMARK    4  A    between atoms: C_15  and  S_9 
REMARK    5  A    between atoms: C_14  and  C_13 
ROOT
ATOM      1  C   UNL d   1       6.020  -1.148  -0.033  0.00  0.00     0.227 C 
ATOM      2  N   UNL d   1       4.756  -0.606  -0.116  0.00  0.00    -0.356 N 
ATOM      3  O   UNL d   1       6.226  -2.360  -0.029  0.00  0.00    -0.273 OA
ATOM      4  H   UNL d   1       4.670   0.402  -0.069  0.00  0.00     0.162 HD
ENDROOT
BRANCH   2   5
ATOM      5  C   UNL d   1       3.557  -1.404  -0.033  0.00  0.00     0.161 C 
BRANCH   5   6
ATOM      6  C   UNL d   1       2.974  -1.686  -1.393  0.00  0.00    -0.038 A 
ATOM      7  C   UNL d   1       2.055  -0.796  -1.973  0.00  0.00     0.048 A 
ATOM      8  C   UNL d   1       1.540  -1.112  -3.213  0.00  0.00     0.105 A 
ATOM      9  C   UNL d   1       1.906  -2.256  -3.883  0.00  0.00     0.105 A 
ATOM     10  O   UNL d   1       0.639  -0.368  -3.910  0.00  0.00    -0.323 OA
ATOM     11  O   UNL d   1       1.280  -2.377  -5.084  0.00  0.00    -0.323 OA
ATOM     12  C   UNL d   1       2.813  -3.146  -3.353  0.00  0.00     0.040 A 
ATOM     13  C   UNL d   1       0.508  -1.158  -5.110  0.00  0.00     0.352 A 
ATOM     14  C   UNL d   1       3.357  -2.851  -2.099  0.00  0.00     0.012 A 
ENDBRANCH   5   6
ENDBRANCH   2   5
BRANCH   1  15
ATOM     15  C   UNL d   1       7.169  -0.142  -0.030  0.00  0.00     0.182 C 
BRANCH  15  16
ATOM     16  S   UNL d   1       6.713   1.384   0.870  0.00  0.00    -0.121 SA
BRANCH  16  17
ATOM     17  C   UNL d   1       8.183   2.397   0.794  0.00  0.00     0.001 A 
ATOM     18  C   UNL d   1       9.380   2.045   0.164  0.00  0.00     0.018 A 
ATOM     19  C   UNL d   1      10.471   2.923   0.169  0.00  0.00     0.001 A 
ATOM     20  C   UNL d   1      10.376   4.161   0.802  0.00  0.00     0.000 A 
ATOM     21  C   UNL d   1       9.190   4.524   1.431  0.00  0.00     0.001 A 
ATOM     22  C   UNL d   1       8.103   3.647   1.426  0.00  0.00     0.018 A 
ENDBRANCH  16  17
ENDBRANCH  15  16
ENDBRANCH   1  15
TORSDOF 5
