REMARK  1 active torsions:
REMARK  status: ('A' for Active; 'I' for Inactive)
REMARK    1  A    between atoms: C_8  and  C_3 
ROOT
ATOM      1  N   UNL d   1      -1.800  -1.560  -0.037  0.00  0.00    -0.296 N 
ATOM      2  HN  UNL d   1      -2.525  -2.277  -0.058  1.00  0.00     0.187 HD
ATOM      3  C   UNL d   1      -0.540  -1.894  -0.067  0.00  0.00     0.069 A 
ATOM      4  N   UNL d   1      -2.137  -0.246   0.021  0.00  0.00    -0.265 N 
ATOM      5  C   UNL d   1       0.546  -0.872   0.011  0.00  0.00     0.009 A 
ATOM      6  C   UNL d   1      -1.266   0.811  -0.020  0.00  0.00     0.271 A 
ATOM      7  C   UNL d   1       0.163   0.469  -0.027  0.00  0.00     0.046 A 
ATOM      8  O   UNL d   1      -1.650   1.978  -0.030  0.00  0.00    -0.266 OA
ATOM      9  C   UNL d   1       1.909  -1.170   0.147  0.00  0.00     0.015 A 
ATOM     10  C   UNL d   1       1.118   1.497  -0.018  0.00  0.00     0.018 A 
ATOM     11  C   UNL d   1       2.867  -0.149   0.137  0.00  0.00     0.001 A 
ATOM     12  C   UNL d   1       2.473   1.183   0.042  0.00  0.00     0.001 A 
ATOM     13  H   UNL d   1      -3.129  -0.033   0.029  0.00  0.00     0.190 HD
ENDROOT
BRANCH   3  14
ATOM     14  C   UNL d   1      -0.254  -3.361  -0.190  0.00  0.00    -0.007 A 
ATOM     15  C   UNL d   1       0.773  -3.866  -0.993  0.00  0.00     0.014 A 
ATOM     16  C   UNL d   1       1.013  -5.243  -1.052  0.00  0.00     0.007 A 
ATOM     17  C   UNL d   1       0.190  -6.140  -0.361  0.00  0.00    -0.062 A 
ATOM     18  C   UNL d   1      -0.880  -5.640   0.387  0.00  0.00     0.007 A 
ATOM     19  C   UNL d   1       0.465  -7.613  -0.428  0.00  0.00     0.048 C 
ATOM     20  C   UNL d   1      -1.099  -4.262   0.473  0.00  0.00     0.014 A 
ENDBRANCH   3  14
TORSDOF 1
