REMARK  7 active torsions:
REMARK  status: ('A' for Active; 'I' for Inactive)
REMARK    1  A    between atoms: C_9  and  N_1 
REMARK    2  A    between atoms: S_19  and  C_2 
REMARK    3  A    between atoms: C_17  and  C_3 
REMARK    4  A    between atoms: N_4  and  C_10 
REMARK    5  A    between atoms: C_11  and  C_12 
REMARK    6  A    between atoms: S_15  and  C_17 
REMARK    7  A    between atoms: C_16  and  S_15 
ROOT
ATOM      1  N   UNL d   1      -0.217  -1.306  -0.016  0.00  0.00    -0.279 N 
ATOM      2  C   UNL d   1       0.999  -0.633   0.021  0.00  0.00     0.164 A 
ATOM      3  C   UNL d   1      -1.165  -0.274  -0.033  0.00  0.00     0.114 A 
ATOM      4  N   UNL d   1       0.808   0.659   0.099  0.00  0.00    -0.278 N 
ATOM      5  HN  UNL d   1       1.535   1.371   0.169  1.00  0.00     0.189 HD
ATOM      6  N   UNL d   1      -0.534   0.884   0.071  0.00  0.00    -0.286 N 
ATOM      7  HN  UNL d   1      -0.982   1.799   0.121  1.00  0.00     0.188 HD
ENDROOT
BRANCH   3   8
ATOM      8  C   UNL d   1      -2.654  -0.428   0.024  0.00  0.00     0.158 C 
BRANCH   8   9
ATOM      9  S   UNL d   1      -3.523   1.101  -0.508  0.00  0.00    -0.120 SA
BRANCH   9  10
ATOM     10  C   UNL d   1      -5.184   0.803   0.079  0.00  0.00     0.034 A 
ATOM     11  C   UNL d   1      -6.148   0.010  -0.556  0.00  0.00     0.119 A 
ATOM     12  C   UNL d   1      -7.476  -0.066  -0.110  0.00  0.00     0.037 A 
ATOM     13  C   UNL d   1      -7.861   0.675   1.002  0.00  0.00     0.003 A 
ATOM     14  C   UNL d   1      -6.926   1.478   1.656  0.00  0.00     0.002 A 
ATOM     15  C   UNL d   1      -5.604   1.545   1.197  0.00  0.00     0.021 A 
BRANCH  11  16
ATOM     16  N   UNL d   1      -5.812  -0.768  -1.728  0.00  0.00    -0.114 N 
ATOM     17  O   UNL d   1      -5.171  -1.812  -1.542  0.00  0.00    -0.532 OA
ATOM     18  O   UNL d   1      -6.240  -0.366  -2.816  0.00  0.00    -0.532 OA
ENDBRANCH  11  16
ENDBRANCH   9  10
ENDBRANCH   8   9
ENDBRANCH   3   8
BRANCH   1  19
ATOM     19  C   UNL d   1      -0.439  -2.716   0.014  0.00  0.00     0.043 A 
ATOM     20  C   UNL d   1       0.368  -3.540   0.820  0.00  0.00     0.046 A 
ATOM     21  C   UNL d   1       0.200  -4.937   0.826  0.00  0.00     0.050 A 
ATOM     22  C   UNL d   1      -0.827  -5.499   0.057  0.00  0.00     0.016 A 
ATOM     23  C   UNL d   1      -1.639  -4.688  -0.732  0.00  0.00     0.003 A 
ATOM     24  C   UNL d   1      -1.435  -3.306  -0.771  0.00  0.00     0.030 A 
BRANCH  21  25
ATOM     25  C   UNL d   1       1.107  -5.834   1.638  0.00  0.00     0.417 C 
ATOM     26  F   UNL d   1       2.170  -5.178   2.179  0.00  0.00    -0.166 F 
ATOM     27  F   UNL d   1       0.460  -6.427   2.677  0.00  0.00    -0.166 F 
ATOM     28  F   UNL d   1       1.634  -6.846   0.894  0.00  0.00    -0.166 F 
ENDBRANCH  21  25
ENDBRANCH   1  19
BRANCH   2  29
ATOM     29  S   UNL d   1       2.577  -1.325  -0.195  0.00  0.00    -0.105 SA
ATOM     30  H   UNL d   1       2.236  -2.464  -0.812  0.00  0.00     0.110 HD
ENDBRANCH   2  29
TORSDOF 7
