REMARK  3 active torsions:
REMARK  status: ('A' for Active; 'I' for Inactive)
REMARK    1  A    between atoms: C_9  and  C_1 
REMARK    2  A    between atoms: S_12  and  C_7 
REMARK    3  A    between atoms: N_13  and  C_8 
ROOT
ATOM      1  C   UNL d   1       2.199  -0.085  -0.006  0.00  0.00     0.192 A 
ATOM      2  N   UNL d   1       1.459   1.045   0.042  0.00  0.00    -0.328 N 
ATOM      3  HN  UNL d   1       1.904   1.963   0.056  1.00  0.00     0.168 HD
ATOM      4  N   UNL d   1       1.648  -1.317  -0.030  0.00  0.00    -0.332 N 
ATOM      5  HN  UNL d   1       2.233  -2.152  -0.077  1.00  0.00     0.168 HD
ATOM      6  C   UNL d   1      -0.519  -0.302   0.065  0.00  0.00     0.116 A 
ATOM      7  C   UNL d   1       0.302  -1.414   0.009  0.00  0.00     0.095 A 
ATOM      8  C   UNL d   1       0.122   0.925   0.072  0.00  0.00     0.103 A 
ATOM      9  C   UNL d   1      -1.944  -0.387   0.100  0.00  0.00     0.105 C 
ATOM     10  N   UNL d   1      -3.103  -0.418   0.099  0.00  0.00    -0.191 NA
ENDROOT
BRANCH   7  11
ATOM     11  S   UNL d   1      -0.357  -3.082  -0.010  0.00  0.00    -0.115 SA
ATOM     12  C   UNL d   1       1.169  -4.064  -0.053  0.00  0.00     0.097 C 
ENDBRANCH   7  11
BRANCH   8  13
ATOM     13  N   UNL d   1      -0.557   2.133   0.202  0.00  0.00    -0.287 NA
ATOM     14  H   UNL d   1       0.105   2.903   0.133  0.00  0.00     0.125 HD
ATOM     15  H   UNL d   1      -1.352   2.252  -0.418  0.00  0.00     0.125 HD
ENDBRANCH   8  13
BRANCH   1  16
ATOM     16  C   UNL d   1       3.730   0.021  -0.015  0.00  0.00     0.449 C 
ATOM     17  F   UNL d   1       4.199   1.304  -0.005  0.00  0.00    -0.163 F 
ATOM     18  F   UNL d   1       4.308  -0.588   1.063  0.00  0.00    -0.163 F 
ATOM     19  F   UNL d   1       4.294  -0.564  -1.114  0.00  0.00    -0.163 F 
ENDBRANCH   1  16
TORSDOF 3
