REMARK  5 active torsions:
REMARK  status: ('A' for Active; 'I' for Inactive)
REMARK    1  A    between atoms: C_7  and  C_1 
REMARK    2  A    between atoms: C_12  and  C_2 
REMARK    3  A    between atoms: C_9  and  C_11 
REMARK    4  A    between atoms: C_14  and  N_10 
REMARK    5  A    between atoms: C_11  and  C_14 
ROOT
ATOM      1  C   UNL d   1       2.414   1.350  -0.237  0.00  0.00     0.138 C 
ENDROOT
BRANCH   1   2
ATOM      2  C   UNL d   1       3.642   0.443  -0.324  0.00  0.00     0.085 C 
BRANCH   2   3
ATOM      3  C   UNL d   1       4.872   1.219  -0.690  0.00  0.00     0.053 A 
ATOM      4  N   UNL d   1       4.911   2.517  -0.891  0.00  0.00    -0.356 N 
ATOM      5  C   UNL d   1       6.192   2.915  -1.243  0.00  0.00     0.026 A 
ATOM      6  HN  UNL d   1       4.111   3.143  -0.800  1.00  0.00     0.166 HD
ATOM      7  C   UNL d   1       6.410   4.356  -1.551  0.00  0.00     0.070 C 
ATOM      8  C   UNL d   1       7.140   1.900  -1.250  0.00  0.00     0.074 A 
ATOM      9  S   UNL d   1       6.374   0.413  -0.868  0.00  0.00    -0.071 SA
BRANCH   8  10
ATOM     10  C   UNL d   1       8.559   2.007  -1.558  0.00  0.00     0.164 C 
ATOM     11  O   UNL d   1       9.034   3.001  -2.113  0.00  0.00    -0.292 OA
ATOM     12  C   UNL d   1       9.502   0.885  -1.184  0.00  0.00     0.097 C 
ENDBRANCH   8  10
ENDBRANCH   2   3
ENDBRANCH   1   2
BRANCH   1  13
ATOM     13  N   UNL d   1       1.190   0.622   0.118  0.00  0.00    -0.324 N 
ATOM     14  C   UNL d   1       0.386   0.120  -0.914  0.00  0.00     0.262 C 
ATOM     15  C   UNL d   1      -0.915  -0.465  -0.499  0.00  0.00     0.115 C 
ATOM     16  O   UNL d   1       0.722   0.164  -2.092  0.00  0.00    -0.267 OA
ATOM     17  C   UNL d   1      -1.179  -0.607   0.816  0.00  0.00     0.023 C 
ATOM     18  C   UNL d   1      -0.239  -0.187   1.820  0.00  0.00     0.018 C 
ATOM     19  C   UNL d   1       0.888   0.429   1.454  0.00  0.00     0.094 C 
BRANCH  15  20
ATOM     20  C   UNL d   1      -1.892  -0.833  -1.553  0.00  0.00     0.422 C 
ATOM     21  F   UNL d   1      -1.537  -0.575  -2.833  0.00  0.00    -0.166 F 
ATOM     22  F   UNL d   1      -2.194  -2.160  -1.497  0.00  0.00    -0.166 F 
ATOM     23  F   UNL d   1      -3.075  -0.181  -1.355  0.00  0.00    -0.166 F 
ENDBRANCH  15  20
ENDBRANCH   1  13
TORSDOF 5
