REMARK  4 active torsions:
REMARK  status: ('A' for Active; 'I' for Inactive)
REMARK    1  A    between atoms: C_7  and  C_4 
REMARK    2  A    between atoms: C_8  and  C_5 
REMARK    3  A    between atoms: O_21  and  C_9 
REMARK    4  A    between atoms: O_22  and  C_10 
ROOT
ATOM      1  C   UNL d   1      -1.274  -0.048   0.146  0.00  0.00    -0.007 C 
ATOM      2  C   UNL d   1       1.283   0.036   0.154  0.00  0.00    -0.007 C 
ATOM      3  C   UNL d   1       0.029  -0.770  -0.018  0.00  0.00     0.184 C 
ATOM      4  C   UNL d   1      -2.357  -0.823   0.360  0.00  0.00     0.022 C 
ATOM      5  C   UNL d   1       2.434  -0.658   0.238  0.00  0.00     0.022 C 
ATOM      6  O   UNL d   1       0.068  -1.972  -0.273  0.00  0.00    -0.287 OA
ATOM      7  C   UNL d   1       1.176   1.532   0.231  0.00  0.00     0.043 C 
ATOM      8  C   UNL d   1      -1.310   1.452   0.056  0.00  0.00     0.043 C 
ATOM      9  C   UNL d   1      -0.037   2.042  -0.536  0.00  0.00     0.009 C 
ENDROOT
BRANCH   4  10
ATOM     10  C   UNL d   1      -3.719  -0.314   0.535  0.00  0.00    -0.035 A 
ATOM     11  C   UNL d   1      -4.549  -0.156  -0.579  0.00  0.00     0.014 A 
ATOM     12  C   UNL d   1      -5.846   0.348  -0.431  0.00  0.00     0.037 A 
ATOM     13  C   UNL d   1      -6.320   0.695   0.834  0.00  0.00     0.068 A 
ATOM     14  C   UNL d   1      -5.503   0.504   1.950  0.00  0.00     0.037 A 
ATOM     15  C   UNL d   1      -4.203   0.013   1.804  0.00  0.00     0.014 A 
BRANCH  13  16
ATOM     16  O   UNL d   1      -7.572   1.179   1.098  0.00  0.00    -0.356 OA
ATOM     17  C   UNL d   1      -8.157   1.962   0.062  0.00  0.00     0.210 C 
ENDBRANCH  13  16
ENDBRANCH   4  10
BRANCH   5  18
ATOM     18  C   UNL d   1       3.737  -0.059   0.534  0.00  0.00    -0.035 A 
ATOM     19  C   UNL d   1       4.143   0.060   1.867  0.00  0.00     0.014 A 
ATOM     20  C   UNL d   1       5.372   0.646   2.186  0.00  0.00     0.037 A 
ATOM     21  C   UNL d   1       6.204   1.121   1.173  0.00  0.00     0.068 A 
ATOM     22  C   UNL d   1       5.800   0.993  -0.159  0.00  0.00     0.037 A 
ATOM     23  C   UNL d   1       4.573   0.405  -0.481  0.00  0.00     0.014 A 
BRANCH  21  24
ATOM     24  O   UNL d   1       7.419   1.726   1.352  0.00  0.00    -0.356 OA
ATOM     25  C   UNL d   1       7.864   1.884   2.694  0.00  0.00     0.210 C 
ENDBRANCH  21  24
ENDBRANCH   5  18
TORSDOF 4
