REMARK  4 active torsions:
REMARK  status: ('A' for Active; 'I' for Inactive)
REMARK    1  A    between atoms: N_2  and  C_1 
REMARK    2  A    between atoms: C_3  and  C_4 
REMARK       I    between atoms: C_4  and  N_6 
REMARK    3  A    between atoms: N_6  and  C_5 
REMARK    4  A    between atoms: C_11  and  C_8 
ROOT
ATOM      1  C   UNL d   1       1.400  -0.132   0.573  0.00  0.00     0.130 A 
ATOM      2  C   UNL d   1       0.722  -1.270   0.115  0.00  0.00     0.068 A 
ATOM      3  C   UNL d   1       0.795   1.135   0.583  0.00  0.00     0.046 A 
ATOM      4  C   UNL d   1      -0.558   1.300   0.237  0.00  0.00    -0.048 A 
ATOM      5  C   UNL d   1      -0.634  -1.114  -0.199  0.00  0.00     0.032 A 
ATOM      6  C   UNL d   1      -1.263   0.144  -0.134  0.00  0.00     0.010 A 
ENDROOT
BRANCH   2   7
ATOM      7  N   UNL d   1       1.268  -2.562  -0.093  0.00  0.00    -0.321 N 
ATOM      8  C   UNL d   1       2.598  -2.835  -0.425  0.00  0.00     0.277 C 
ATOM      9  O   UNL d   1       3.423  -1.934  -0.591  0.00  0.00    -0.268 OA
ATOM     10  H   UNL d   1       0.606  -3.319  -0.248  0.00  0.00     0.169 HD
BRANCH   8  11
ATOM     11  C   UNL d   1       2.965  -4.327  -0.657  0.00  0.00     0.269 C 
ATOM     12 CL   UNL d   1       1.550  -5.398  -0.424  0.00  0.00    -0.073 Cl
ATOM     13 CL   UNL d   1       3.530  -4.495  -2.344  0.00  0.00    -0.073 Cl
ATOM     14 CL   UNL d   1       4.252  -4.786   0.478  0.00  0.00    -0.073 Cl
ENDBRANCH   8  11
ENDBRANCH   2   7
BRANCH   1  15
ATOM     15  N   UNL d   1       2.629  -0.240   1.353  0.00  0.00    -0.113 N 
ATOM     16  O   UNL d   1       2.635  -1.075   2.268  0.00  0.00    -0.532 OA
ATOM     17  O   UNL d   1       3.524   0.587   1.124  0.00  0.00    -0.532 OA
ENDBRANCH   1  15
BRANCH   4  18
ATOM     18  C   UNL d   1      -1.208   2.693   0.348  0.00  0.00    -0.024 C 
ATOM     19  C   UNL d   1      -0.542   3.667  -0.647  0.00  0.00     0.019 C 
ATOM     20  C   UNL d   1      -2.724   2.699   0.057  0.00  0.00     0.019 C 
ATOM     21  C   UNL d   1      -1.022   3.234   1.785  0.00  0.00     0.019 C 
ENDBRANCH   4  18
TORSDOF 4
