REMARK  2 active torsions:
REMARK  status: ('A' for Active; 'I' for Inactive)
REMARK    1  A    between atoms: N_6  and  C_2 
REMARK    2  A    between atoms: N_11  and  C_3 
ROOT
ATOM      1  C   UNL d   1       0.844   0.173   0.022  0.00  0.00     0.096 A 
ATOM      2  C   UNL d   1      -1.181  -1.141  -0.052  0.00  0.00     0.132 A 
ATOM      3  C   UNL d   1       0.067   1.348   0.001  0.00  0.00     0.124 A 
ATOM      4  N   UNL d   1      -1.287   1.247  -0.044  0.00  0.00    -0.343 N 
ATOM      5  HN  UNL d   1      -1.849   2.098  -0.075  1.00  0.00     0.167 HD
ATOM      6  C   UNL d   1       0.223  -1.104  -0.029  0.00  0.00    -0.003 A 
ATOM      7  C   UNL d   1      -1.912   0.039  -0.049  0.00  0.00     0.040 A 
ATOM      8  C   UNL d   1       2.271   0.234   0.191  0.00  0.00     0.104 C 
ATOM      9  N   UNL d   1       3.422   0.239   0.305  0.00  0.00    -0.191 NA
ATOM     10  C   UNL d   1       1.076  -2.351  -0.029  0.00  0.00     0.052 C 
ATOM     11  C   UNL d   1      -3.409   0.125  -0.009  0.00  0.00     0.071 C 
ENDROOT
BRANCH   3  12
ATOM     12  N   UNL d   1       0.587   2.628   0.131  0.00  0.00    -0.375 N 
ATOM     13  C   UNL d   1       1.753   3.080  -0.626  0.00  0.00     0.150 C 
ATOM     14  C   UNL d   1      -0.335   3.699   0.511  0.00  0.00     0.150 C 
ENDBRANCH   3  12
BRANCH   2  15
ATOM     15  N   UNL d   1      -1.887  -2.403  -0.033  0.00  0.00    -0.113 N 
ATOM     16  O   UNL d   1      -1.794  -3.083   0.996  0.00  0.00    -0.532 OA
ATOM     17  O   UNL d   1      -2.528  -2.705  -1.047  0.00  0.00    -0.532 OA
ENDBRANCH   2  15
TORSDOF 2
