REMARK  1 active torsions:
REMARK  status: ('A' for Active; 'I' for Inactive)
REMARK    1  A    between atoms: C_6  and  C_1 
ROOT
ATOM      1  C   UNL d   1       3.168   0.663  -0.013  0.00  0.00     0.122 A 
ATOM      2  O   UNL d   1       2.701  -0.623  -0.011  0.00  0.00    -0.306 OA
ATOM      3  C   UNL d   1       2.099   1.542  -0.004  0.00  0.00     0.055 A 
ATOM      4  C   UNL d   1       0.916   0.758   0.001  0.00  0.00     0.002 A 
ATOM      5  C   UNL d   1       1.344  -0.563  -0.003  0.00  0.00     0.086 A 
ATOM      6  C   UNL d   1      -0.466   1.018   0.009  0.00  0.00     0.038 A 
ATOM      7  C   UNL d   1       0.492  -1.665   0.001  0.00  0.00     0.040 A 
ATOM      8  C   UNL d   1      -1.346  -0.073   0.011  0.00  0.00     0.035 A 
ATOM      9  C   UNL d   1      -0.879  -1.390   0.007  0.00  0.00     0.026 A 
ATOM     10 CL   UNL d   1      -3.045   0.218   0.018  0.00  0.00    -0.084 Cl
ENDROOT
BRANCH   1  11
ATOM     11  C   UNL d   1       4.594   0.910  -0.024  0.00  0.00     0.179 C 
ATOM     12  O   UNL d   1       5.067   2.049  -0.026  0.00  0.00    -0.291 OA
ATOM     13  C   UNL d   1       5.522  -0.281  -0.034  0.00  0.00     0.099 C 
ENDBRANCH   1  11
TORSDOF 1
