REMARK  4 active torsions:
REMARK  status: ('A' for Active; 'I' for Inactive)
REMARK    1  A    between atoms: C_7  and  C_1 
REMARK    2  A    between atoms: C_6  and  C_2 
REMARK    3  A    between atoms: C_8  and  C_5 
REMARK    4  A    between atoms: O_15  and  C_7 
ROOT
ATOM      1  C   UNL d   1       1.189   0.700  -0.013  0.00  0.00     0.079 A 
ATOM      2  C   UNL d   1      -0.138   1.112  -0.038  0.00  0.00     0.176 A 
ATOM      3  O   UNL d   1      -0.967   0.020  -0.043  0.00  0.00    -0.304 OA
ATOM      4  C   UNL d   1       1.126  -0.735  -0.006  0.00  0.00     0.059 A 
ATOM      5  C   UNL d   1      -0.199  -1.105  -0.008  0.00  0.00     0.087 A 
ENDROOT
BRANCH   5   6
ATOM      6  C   UNL d   1      -0.903  -2.383   0.056  0.00  0.00    -0.002 A 
ATOM      7  C   UNL d   1      -0.181  -3.586   0.125  0.00  0.00     0.016 A 
ATOM      8  C   UNL d   1      -0.838  -4.814   0.256  0.00  0.00     0.024 A 
ATOM      9  C   UNL d   1      -2.228  -4.852   0.313  0.00  0.00     0.034 A 
ATOM     10  C   UNL d   1      -2.966  -3.675   0.221  0.00  0.00     0.024 A 
ATOM     11 CL   UNL d   1      -3.035  -6.358   0.508  0.00  0.00    -0.084 Cl
ATOM     12  C   UNL d   1      -2.306  -2.448   0.090  0.00  0.00     0.016 A 
ENDBRANCH   5   6
BRANCH   1  13
ATOM     13  C   UNL d   1       2.445   1.442   0.018  0.00  0.00     0.179 C 
ATOM     14  O   UNL d   1       3.525   0.867   0.052  0.00  0.00    -0.646 OA
BRANCH  13  15
ATOM     15  O   UNL d   1       2.398   2.794   0.010  0.00  0.00    -0.773 OA
ATOM     16  H   UNL d   1       1.526   3.228  -0.013  0.00  0.00     0.167 HD
ENDBRANCH  13  15
ENDBRANCH   1  13
BRANCH   2  17
ATOM     17  C   UNL d   1      -0.842   2.415  -0.043  0.00  0.00     0.440 C 
ATOM     18  F   UNL d   1       0.042   3.450  -0.024  0.00  0.00    -0.164 F 
ATOM     19  F   UNL d   1      -1.608   2.587  -1.147  0.00  0.00    -0.164 F 
ATOM     20  F   UNL d   1      -1.642   2.576   1.038  0.00  0.00    -0.164 F 
ENDBRANCH   2  17
TORSDOF 4
