REMARK  4 active torsions:
REMARK  status: ('A' for Active; 'I' for Inactive)
REMARK    1  A    between atoms: C_2  and  C_1 
REMARK    2  A    between atoms: C_18  and  N_7 
REMARK    3  A    between atoms: C_13  and  C_8 
REMARK    4  A    between atoms: S_19  and  C_9 
ROOT
ATOM      1  C   UNL d   1      -0.868   2.636   0.032  0.00  0.00     0.142 A 
ATOM      2  N   UNL d   1      -2.225   2.841  -0.005  0.00  0.00    -0.318 N 
ATOM      3  HN  UNL d   1      -2.971   2.151  -0.094  1.00  0.00     0.169 HD
ATOM      4  C   UNL d   1      -2.323   4.145   0.103  0.00  0.00     0.183 A 
ATOM      5  N   UNL d   1      -0.141   3.755   0.124  0.00  0.00    -0.242 N 
ATOM      6  HN  UNL d   1       0.874   3.849   0.154  1.00  0.00     0.196 HD
ATOM      7  O   UNL d   1      -1.105   4.764   0.170  0.00  0.00    -0.217 OA
ENDROOT
BRANCH   1   8
ATOM      8  C   UNL d   1      -0.370   1.268   0.012  0.00  0.00     0.062 A 
ATOM      9  C   UNL d   1       0.950   0.785   0.070  0.00  0.00     0.100 A 
ATOM     10  N   UNL d   1       0.994  -0.552   0.075  0.00  0.00    -0.287 N 
ATOM     11  N   UNL d   1      -0.305  -0.946  -0.006  0.00  0.00    -0.266 N 
ATOM     12  HN  UNL d   1       1.821  -1.146   0.128  1.00  0.00     0.188 HD
ATOM     13  C   UNL d   1      -1.151   0.134  -0.049  0.00  0.00     0.135 A 
BRANCH   9  14
ATOM     14  S   UNL d   1       2.416   1.741   0.121  0.00  0.00    -0.114 SA
ATOM     15  C   UNL d   1       3.689   0.490   0.368  0.00  0.00     0.097 C 
ENDBRANCH   9  14
BRANCH  11  16
ATOM     16  C   UNL d   1      -0.660  -2.325  -0.037  0.00  0.00     0.056 A 
ATOM     17  C   UNL d   1      -1.993  -2.727  -0.215  0.00  0.00     0.031 A 
ATOM     18  C   UNL d   1      -2.318  -4.086  -0.248  0.00  0.00     0.002 A 
ATOM     19  C   UNL d   1      -1.324  -5.048  -0.095  0.00  0.00     0.000 A 
ATOM     20  C   UNL d   1       0.002  -4.658   0.087  0.00  0.00     0.002 A 
ATOM     21  C   UNL d   1       0.336  -3.301   0.111  0.00  0.00     0.031 A 
ENDBRANCH  11  16
ENDBRANCH   1   8
BRANCH   4  22
ATOM     22  C   UNL d   1      -3.501   5.003   0.167  0.00  0.00     0.039 A 
ATOM     23  C   UNL d   1      -4.730   4.556   0.690  0.00  0.00     0.050 A 
ATOM     24  C   UNL d   1      -5.848   5.400   0.713  0.00  0.00     0.048 A 
ATOM     25 CL   UNL d   1      -4.948   2.979   1.372  0.00  0.00    -0.083 Cl
ATOM     26  C   UNL d   1      -5.751   6.695   0.216  0.00  0.00     0.035 A 
ATOM     27  C   UNL d   1      -4.546   7.162  -0.298  0.00  0.00     0.025 A 
ATOM     28 CL   UNL d   1      -7.128   7.724   0.240  0.00  0.00    -0.084 Cl
ATOM     29  C   UNL d   1      -3.428   6.322  -0.321  0.00  0.00     0.019 A 
ENDBRANCH   4  22
TORSDOF 4
