REMARK  3 active torsions:
REMARK  status: ('A' for Active; 'I' for Inactive)
REMARK    1  A    between atoms: C_2  and  C_1 
REMARK    2  A    between atoms: N_3  and  C_4 
REMARK       I    between atoms: C_7  and  N_3 
REMARK    3  A    between atoms: N_14  and  C_5 
ROOT
ATOM      1  C   UNL d   1       0.497   1.468   0.172  0.00  0.00     0.049 A 
ATOM      2  C   UNL d   1      -0.572   4.031   0.679  0.00  0.00     0.056 A 
ATOM      3  C   UNL d   1       0.711   3.899   0.102  0.00  0.00     0.033 A 
ATOM      4  C   UNL d   1       1.206   2.622  -0.196  0.00  0.00     0.041 A 
ATOM      5  C   UNL d   1      -0.744   1.614   0.804  0.00  0.00     0.018 A 
ATOM      6  C   UNL d   1      -1.276   2.882   1.048  0.00  0.00     0.032 A 
ENDROOT
BRANCH   2   7
ATOM      7  N   UNL d   1      -1.087   5.339   0.837  0.00  0.00    -0.326 N 
ATOM      8  C   UNL d   1      -2.280   5.715   1.419  0.00  0.00     0.218 C 
ATOM      9  O   UNL d   1      -3.128   4.973   1.904  0.00  0.00    -0.274 OA
ATOM     10  C   UNL d   1      -2.485   7.210   1.441  0.00  0.00     0.117 C 
ATOM     11  H   UNL d   1      -0.529   6.057   0.393  0.00  0.00     0.169 HD
ENDBRANCH   2   7
BRANCH   3  12
ATOM     12  N   UNL d   1       1.447   5.036  -0.311  0.00  0.00    -0.301 NA
ATOM     13  H   UNL d   1       2.404   4.809  -0.569  0.00  0.00     0.124 HD
ATOM     14  H   UNL d   1       1.444   5.764   0.398  0.00  0.00     0.124 HD
ENDBRANCH   3  12
BRANCH   1  15
ATOM     15  C   UNL d   1       1.049   0.090  -0.093  0.00  0.00     0.417 C 
ATOM     16  F   UNL d   1       2.275   0.099  -0.687  0.00  0.00    -0.166 F 
ATOM     17  F   UNL d   1       0.245  -0.647  -0.908  0.00  0.00    -0.166 F 
ATOM     18  F   UNL d   1       1.195  -0.639   1.048  0.00  0.00    -0.166 F 
ENDBRANCH   1  15
TORSDOF 3
