REMARK  5 active torsions:
REMARK  status: ('A' for Active; 'I' for Inactive)
REMARK    1  A    between atoms: C_11  and  N_4 
REMARK    2  A    between atoms: O_15  and  C_7 
REMARK    3  A    between atoms: O_17  and  C_9 
REMARK    4  A    between atoms: C_16  and  C_11 
REMARK    5  A    between atoms: C_13  and  C_16 
ROOT
ATOM      1  C   UNL d   1      -0.119  -2.563   2.239  0.00  0.00     0.069 C 
ENDROOT
BRANCH   1   2
ATOM      2  C   UNL d   1      -0.087  -2.531   3.751  0.00  0.00    -0.054 A 
ATOM      3  C   UNL d   1       0.081  -1.310   4.428  0.00  0.00     0.046 A 
ATOM      4  C   UNL d   1       0.130  -1.243   5.830  0.00  0.00     0.102 A 
ATOM      5  C   UNL d   1      -0.013  -2.430   6.567  0.00  0.00     0.101 A 
ATOM      6  C   UNL d   1      -0.160  -3.650   5.893  0.00  0.00     0.040 A 
ATOM      7  C   UNL d   1      -0.200  -3.703   4.501  0.00  0.00     0.010 A 
BRANCH   4   8
ATOM      8  O   UNL d   1       0.342  -0.078   6.519  0.00  0.00    -0.353 OA
ATOM      9  C   UNL d   1       0.521   1.119   5.774  0.00  0.00     0.210 C 
ENDBRANCH   4   8
BRANCH   5  10
ATOM     10  O   UNL d   1       0.028  -2.573   7.931  0.00  0.00    -0.353 OA
ATOM     11  C   UNL d   1      -0.470  -1.489   8.705  0.00  0.00     0.210 C 
ENDBRANCH   5  10
ENDBRANCH   1   2
BRANCH   1  12
ATOM     12  C   UNL d   1      -1.485  -3.006   1.679  0.00  0.00     0.281 C 
BRANCH  12  13
ATOM     13  N   UNL d   1      -1.544  -3.078   0.208  0.00  0.00     0.123 N 
ATOM     14  C   UNL d   1      -2.826  -3.585  -0.257  0.00  0.00     0.399 C 
ATOM     15  N   UNL d   1      -3.850  -2.597  -0.079  0.00  0.00    -0.342 N 
ATOM     16  C   UNL d   1      -3.617  -1.269  -0.210  0.00  0.00     0.170 C 
ATOM     17  H   UNL d   1      -4.818  -2.886  -0.110  0.00  0.00     0.163 HD
ATOM     18  N   UNL d   1      -2.318  -0.892  -0.243  0.00  0.00    -0.342 N 
ATOM     19  S   UNL d   1      -4.850  -0.163  -0.273  0.00  0.00    -0.041 SA
ATOM     20  C   UNL d   1      -1.271  -1.834  -0.485  0.00  0.00     0.399 C 
ATOM     21  H   UNL d   1      -2.145   0.089  -0.420  0.00  0.00     0.163 HD
ENDBRANCH  12  13
ENDBRANCH   1  12
TORSDOF 5
