REMARK  4 active torsions:
REMARK  status: ('A' for Active; 'I' for Inactive)
REMARK       I    between atoms: N_4  and  C_1 
REMARK       I    between atoms: N_5  and  C_1 
REMARK    1  A    between atoms: C_2  and  N_4 
REMARK    2  A    between atoms: C_8  and  N_5 
REMARK    3  A    between atoms: O_9  and  C_6 
REMARK    4  A    between atoms: C_10  and  C_8 
ROOT
ATOM      1  C   UNL d   1       0.945  -0.252  -0.125  0.00  0.00     0.321 C 
ATOM      2  N   UNL d   1       0.316  -0.109   1.099  0.00  0.00    -0.308 N 
ATOM      3  N   UNL d   1       0.051  -0.683  -1.080  0.00  0.00    -0.339 N 
ATOM      4  O   UNL d   1       2.136  -0.093  -0.345  0.00  0.00    -0.247 OA
ATOM      5  H   UNL d   1      -0.412  -0.795   1.226  0.00  0.00     0.170 HD
ATOM      6  H   UNL d   1      -0.915  -0.419  -0.958  0.00  0.00     0.164 HD
ENDROOT
BRANCH   2   7
ATOM      7  C   UNL d   1       0.996   0.290   2.278  0.00  0.00     0.045 A 
ATOM      8  C   UNL d   1       1.842   1.421   2.364  0.00  0.00    -0.002 A 
ATOM      9  C   UNL d   1       2.505   1.666   3.587  0.00  0.00     0.076 A 
ATOM     10  C   UNL d   1       1.961   2.394   1.222  0.00  0.00     0.053 C 
ATOM     11  C   UNL d   1       2.270   0.850   4.700  0.00  0.00     0.037 A 
ATOM     12  C   UNL d   1       1.384  -0.218   4.623  0.00  0.00     0.005 A 
ATOM     13  C   UNL d   1       0.740  -0.487   3.419  0.00  0.00     0.030 A 
BRANCH   9  14
ATOM     14  O   UNL d   1       3.294   2.755   3.864  0.00  0.00    -0.355 OA
ATOM     15  C   UNL d   1       4.358   3.000   2.951  0.00  0.00     0.210 C 
ENDBRANCH   9  14
ENDBRANCH   2   7
BRANCH   3  16
ATOM     16  C   UNL d   1       0.484  -1.018  -2.420  0.00  0.00     0.162 C 
BRANCH  16  17
ATOM     17  C   UNL d   1      -0.084  -0.085  -3.458  0.00  0.00    -0.040 A 
ATOM     18  C   UNL d   1       0.275   1.270  -3.472  0.00  0.00     0.009 A 
ATOM     19  C   UNL d   1      -0.212   2.123  -4.464  0.00  0.00     0.001 A 
ATOM     20  C   UNL d   1      -1.061   1.630  -5.454  0.00  0.00     0.000 A 
ATOM     21  C   UNL d   1      -1.429   0.286  -5.451  0.00  0.00     0.001 A 
ATOM     22  C   UNL d   1      -0.943  -0.567  -4.457  0.00  0.00     0.009 A 
ENDBRANCH  16  17
ENDBRANCH   3  16
TORSDOF 4
