REMARK  3 active torsions:
REMARK  status: ('A' for Active; 'I' for Inactive)
REMARK    1  A    between atoms: C_2  and  C_1 
REMARK       I    between atoms: N_7  and  C_2 
REMARK    2  A    between atoms: C_10  and  N_7 
REMARK    3  A    between atoms: N_9  and  C_11 
ROOT
ATOM      1  C   UNL d   1       2.107  -3.171   0.013  0.00  0.00     0.056 A 
ATOM      2  C   UNL d   1       2.265  -2.041   0.861  0.00  0.00     0.037 A 
ATOM      3  C   UNL d   1       3.219  -3.817  -0.538  0.00  0.00     0.031 A 
ATOM      4  C   UNL d   1       3.572  -1.588   1.100  0.00  0.00     0.026 A 
ATOM      5  C   UNL d   1       4.503  -3.342  -0.282  0.00  0.00     0.002 A 
ATOM      6  C   UNL d   1       4.679  -2.229   0.533  0.00  0.00     0.002 A 
ENDROOT
BRANCH   1   7
ATOM      7  N   UNL d   1       0.785  -3.554  -0.304  0.00  0.00    -0.321 N 
ATOM      8  C   UNL d   1       0.347  -4.796  -0.722  0.00  0.00     0.266 C 
ATOM      9  O   UNL d   1       1.075  -5.780  -0.827  0.00  0.00    -0.267 OA
ATOM     10  H   UNL d   1       0.097  -2.860  -0.030  0.00  0.00     0.169 HD
BRANCH   8  11
ATOM     11  C   UNL d   1      -1.076  -4.886  -0.937  0.00  0.00     0.110 A 
ATOM     12  C   UNL d   1      -1.953  -5.946  -0.740  0.00  0.00     0.043 A 
ATOM     13  N   UNL d   1      -3.269  -5.678  -1.103  0.00  0.00    -0.296 N 
ATOM     14  C   UNL d   1      -1.660  -7.287  -0.170  0.00  0.00     0.071 C 
ATOM     15  N   UNL d   1      -3.415  -4.454  -1.577  0.00  0.00    -0.061 NA
ATOM     16  HN  UNL d   1      -4.032  -6.349  -1.013  1.00  0.00     0.183 HD
ATOM     17  S   UNL d   1      -1.986  -3.593  -1.599  0.00  0.00     0.007 SA
ENDBRANCH   8  11
ENDBRANCH   1   7
BRANCH   2  18
ATOM     18  N   UNL d   1       1.121  -1.426   1.426  0.00  0.00    -0.278 NA
ATOM     19  C   UNL d   1       1.263  -0.018   1.878  0.00  0.00     0.122 C 
ATOM     20  C   UNL d   1      -0.124   0.537   2.249  0.00  0.00     0.182 C 
ATOM     21  O   UNL d   1      -0.759  -0.262   3.263  0.00  0.00    -0.389 OA
ATOM     22  C   UNL d   1      -0.886  -1.625   2.827  0.00  0.00     0.182 C 
ATOM     23  C   UNL d   1       0.489  -2.238   2.506  0.00  0.00     0.122 C 
ENDBRANCH   2  18
TORSDOF 3
