REMARK  10 active torsions:
REMARK  status: ('A' for Active; 'I' for Inactive)
REMARK    1  A    between atoms: C_20  and  N_1 
REMARK    2  A    between atoms: C_8  and  C_3 
REMARK    3  A    between atoms: C_14  and  N_4 
REMARK    4  A    between atoms: N_21  and  C_8 
REMARK    5  A    between atoms: C_9  and  O_18 
REMARK    6  A    between atoms: O_17  and  N_10 
REMARK    7  A    between atoms: C_12  and  O_17 
REMARK       I    between atoms: N_16  and  C_12 
REMARK    8  A    between atoms: C_25  and  N_16 
REMARK    9  A    between atoms: O_18  and  C_26 
REMARK   10  A    between atoms: C_33  and  C_20 
ROOT
ATOM      1  C   UNL d   1       2.735  -0.066   0.182  0.00  0.00     0.153 C 
ATOM      2  N   UNL d   1       3.495   0.963  -0.034  0.00  0.00    -0.238 N 
ATOM      3  HN  UNL d   1       4.508   0.965   0.089  1.00  0.00     0.197 HD
ENDROOT
BRANCH   1   4
ATOM      4  C   UNL d   1       3.455  -1.389   0.475  0.00  0.00     0.163 C 
ATOM      5  C   UNL d   1       4.899  -1.462   0.894  0.00  0.00     0.283 C 
ATOM      6  N   UNL d   1       5.528  -2.657   0.619  0.00  0.00    -0.263 N 
ATOM      7  O   UNL d   1       5.407  -0.521   1.491  0.00  0.00    -0.265 OA
ATOM      8  C   UNL d   1       4.822  -3.817   0.330  0.00  0.00     0.351 C 
ATOM      9  N   UNL d   1       3.420  -3.682   0.306  0.00  0.00    -0.205 N 
ATOM     10  O   UNL d   1       5.408  -4.895   0.210  0.00  0.00    -0.244 OA
ATOM     11  N   UNL d   1       2.752  -2.474   0.308  0.00  0.00    -0.281 N 
ATOM     12  HN  UNL d   1       1.740  -2.432   0.182  1.00  0.00     0.188 HD
BRANCH   6  13
ATOM     13  C   UNL d   1       6.959  -2.761   0.899  0.00  0.00     0.137 C 
BRANCH  13  14
ATOM     14  C   UNL d   1       7.306  -2.908   2.388  0.00  0.00     0.016 C 
ATOM     15  C   UNL d   1       6.774  -4.176   3.039  0.00  0.00     0.006 C 
ENDBRANCH  13  14
ENDBRANCH   6  13
BRANCH   9  16
ATOM     16  C   UNL d   1       2.571  -4.823   0.186  0.00  0.00     0.061 A 
ATOM     17  C   UNL d   1       1.421  -4.915   0.981  0.00  0.00     0.032 A 
ATOM     18  C   UNL d   1       0.668  -6.093   1.005  0.00  0.00     0.002 A 
ATOM     19  C   UNL d   1       1.021  -7.167   0.190  0.00  0.00     0.000 A 
ATOM     20  C   UNL d   1       2.122  -7.064  -0.654  0.00  0.00     0.002 A 
ATOM     21  C   UNL d   1       2.899  -5.903  -0.648  0.00  0.00     0.032 A 
ENDBRANCH   9  16
ENDBRANCH   1   4
BRANCH   1  22
ATOM     22  N   UNL d   1       1.359  -0.058   0.118  0.00  0.00    -0.382 N 
ATOM     23  H   UNL d   1       0.890  -0.837   0.572  0.00  0.00     0.157 HD
ATOM     24  H   UNL d   1       0.938   0.849   0.283  0.00  0.00     0.157 HD
ENDBRANCH   1  22
BRANCH   2  25
ATOM     25  O   UNL d   1       2.743   2.079  -0.459  0.00  0.00    -0.179 OA
BRANCH  25  26
ATOM     26  C   UNL d   1       3.420   3.222  -0.145  0.00  0.00     0.387 C 
ATOM     27  N   UNL d   1       3.662   4.096  -1.175  0.00  0.00    -0.301 N 
ATOM     28  H   UNL d   1       4.105   4.939  -0.832  0.00  0.00     0.171 HD
ATOM     29  O   UNL d   1       3.760   3.516   1.002  0.00  0.00    -0.236 OA
BRANCH  27  30
ATOM     30  C   UNL d   1       3.517   3.969  -2.568  0.00  0.00     0.037 A 
ATOM     31  C   UNL d   1       3.021   2.843  -3.227  0.00  0.00     0.032 A 
ATOM     32  C   UNL d   1       2.923   2.810  -4.628  0.00  0.00     0.039 A 
ATOM     33  C   UNL d   1       3.296   3.916  -5.386  0.00  0.00     0.078 A 
ATOM     34  C   UNL d   1       3.837   5.024  -4.737  0.00  0.00     0.039 A 
ATOM     35  C   UNL d   1       3.940   5.055  -3.343  0.00  0.00     0.032 A 
BRANCH  33  36
ATOM     36  O   UNL d   1       3.196   4.043  -6.739  0.00  0.00    -0.255 OA
BRANCH  36  37
ATOM     37  C   UNL d   1       2.289   3.201  -7.434  0.00  0.00     0.530 C 
ATOM     38  F   UNL d   1       1.200   2.880  -6.704  0.00  0.00    -0.144 F 
ATOM     39  F   UNL d   1       1.863   3.854  -8.539  0.00  0.00    -0.144 F 
ATOM     40  F   UNL d   1       2.913   2.070  -7.825  0.00  0.00    -0.144 F 
ENDBRANCH  36  37
ENDBRANCH  33  36
ENDBRANCH  27  30
ENDBRANCH  25  26
ENDBRANCH   2  25
TORSDOF 10
