REMARK  12 active torsions:
REMARK  status: ('A' for Active; 'I' for Inactive)
REMARK    1  A    between atoms: C_2  and  C_1 
REMARK    2  A    between atoms: O_6  and  C_1 
REMARK    3  A    between atoms: O_21  and  C_3 
REMARK    4  A    between atoms: O_22  and  C_4 
REMARK    5  A    between atoms: O_23  and  C_5 
REMARK    6  A    between atoms: C_9  and  O_6 
REMARK    7  A    between atoms: C_13  and  N_7 
REMARK    8  A    between atoms: O_25  and  C_12 
REMARK    9  A    between atoms: C_17  and  C_13 
REMARK   10  A    between atoms: C_19  and  C_13 
REMARK   11  A    between atoms: C_14  and  C_20 
REMARK   12  A    between atoms: C_26  and  C_17 
ROOT
ATOM      1  C   UNL d   1      -0.899  -0.143   1.099  0.00  0.00     0.112 A 
ATOM      2  C   UNL d   1      -1.595  -1.073   0.319  0.00  0.00     0.102 A 
ATOM      3  C   UNL d   1      -2.992  -1.124   0.424  0.00  0.00     0.052 A 
ATOM      4  C   UNL d   1      -1.587   0.686   1.999  0.00  0.00     0.041 A 
ATOM      5  C   UNL d   1      -3.687  -0.273   1.293  0.00  0.00    -0.018 A 
ATOM      6  C   UNL d   1      -2.986   0.623   2.099  0.00  0.00     0.016 A 
ENDROOT
BRANCH   5   7
ATOM      7  C   UNL d   1      -5.165  -0.351   1.350  0.00  0.00     0.095 C 
ATOM      8  N   UNL d   1      -5.796  -1.104   0.518  0.00  0.00    -0.389 N 
ATOM      9  HN  UNL d   1      -5.287  -1.635  -0.188  1.00  0.00     0.159 HD
BRANCH   8  10
ATOM     10  C   UNL d   1      -7.268  -1.188   0.601  0.00  0.00     0.118 C 
BRANCH  10  11
ATOM     11  C   UNL d   1      -7.893  -0.100  -0.328  0.00  0.00     0.068 C 
BRANCH  11  12
ATOM     12  C   UNL d   1      -7.707  -0.268  -1.825  0.00  0.00    -0.056 A 
ATOM     13  C   UNL d   1      -8.817  -0.436  -2.664  0.00  0.00     0.007 A 
ATOM     14  C   UNL d   1      -8.652  -0.622  -4.040  0.00  0.00     0.001 A 
ATOM     15  C   UNL d   1      -7.375  -0.625  -4.594  0.00  0.00     0.000 A 
ATOM     16  C   UNL d   1      -6.266  -0.421  -3.779  0.00  0.00     0.001 A 
ATOM     17  C   UNL d   1      -6.432  -0.239  -2.403  0.00  0.00     0.007 A 
ENDBRANCH  11  12
ENDBRANCH  10  11
BRANCH  10  18
ATOM     18  C   UNL d   1      -7.737  -2.627   0.360  0.00  0.00    -0.035 A 
ATOM     19  C   UNL d   1      -6.903  -3.703   0.722  0.00  0.00     0.009 A 
ATOM     20  C   UNL d   1      -7.291  -5.029   0.517  0.00  0.00     0.001 A 
ATOM     21  C   UNL d   1      -8.530  -5.311  -0.047  0.00  0.00     0.000 A 
ATOM     22  C   UNL d   1      -9.386  -4.266  -0.384  0.00  0.00     0.001 A 
ATOM     23  C   UNL d   1      -9.001  -2.939  -0.165  0.00  0.00     0.009 A 
ENDBRANCH  10  18
ENDBRANCH   8  10
ENDBRANCH   5   7
BRANCH   2  24
ATOM     24  O   UNL d   1      -0.891  -1.954  -0.451  0.00  0.00    -0.353 OA
ATOM     25  C   UNL d   1      -1.569  -2.407  -1.622  0.00  0.00     0.210 C 
ENDBRANCH   2  24
BRANCH   1  26
ATOM     26  O   UNL d   1       0.519  -0.010   1.116  0.00  0.00    -0.272 OA
BRANCH  26  27
ATOM     27  C   UNL d   1       1.331  -0.040  -0.018  0.00  0.00     0.298 C 
ATOM     28  O   UNL d   1       0.990  -0.209  -1.179  0.00  0.00    -0.259 OA
BRANCH  27  29
ATOM     29  C   UNL d   1       2.747   0.275   0.347  0.00  0.00     0.045 A 
ATOM     30  C   UNL d   1       3.753   0.059  -0.610  0.00  0.00     0.057 A 
ATOM     31  C   UNL d   1       5.073   0.481  -0.387  0.00  0.00     0.105 A 
ATOM     32  C   UNL d   1       5.401   1.098   0.840  0.00  0.00     0.135 A 
ATOM     33  C   UNL d   1       4.393   1.288   1.814  0.00  0.00     0.105 A 
ATOM     34  C   UNL d   1       3.079   0.882   1.561  0.00  0.00     0.057 A 
BRANCH  31  35
ATOM     35  O   UNL d   1       6.065   0.374  -1.327  0.00  0.00    -0.353 OA
ATOM     36  C   UNL d   1       5.754  -0.189  -2.594  0.00  0.00     0.210 C 
ENDBRANCH  31  35
BRANCH  32  37
ATOM     37  O   UNL d   1       6.634   1.607   1.182  0.00  0.00    -0.351 OA
ATOM     38  C   UNL d   1       7.788   0.998   0.618  0.00  0.00     0.210 C 
ENDBRANCH  32  37
BRANCH  33  39
ATOM     39  O   UNL d   1       4.760   1.936   2.972  0.00  0.00    -0.353 OA
ATOM     40  C   UNL d   1       3.949   1.716   4.116  0.00  0.00     0.210 C 
ENDBRANCH  33  39
ENDBRANCH  27  29
ENDBRANCH  26  27
ENDBRANCH   1  26
TORSDOF 12
