REMARK  4 active torsions:
REMARK  status: ('A' for Active; 'I' for Inactive)
REMARK    1  A    between atoms: C_6  and  S_1 
REMARK    2  A    between atoms: N_7  and  S_1 
REMARK    3  A    between atoms: S_2  and  C_5 
REMARK    4  A    between atoms: N_8  and  S_2 
ROOT
ATOM      1  C   UNL d   1       0.287  -6.295  -0.688  0.00  0.00    -0.041 A 
ATOM      2  C   UNL d   1       0.635  -3.986  -0.370  0.00  0.00    -0.041 A 
ATOM      3  C   UNL d   1      -0.597  -8.361  -1.476  0.00  0.00     0.080 A 
ATOM      4  C   UNL d   1       0.373  -1.624  -0.509  0.00  0.00     0.075 A 
ATOM      5  C   UNL d   1      -0.649  -5.584  -1.474  0.00  0.00    -0.019 A 
ATOM      6  C   UNL d   1      -0.447  -4.165  -1.263  0.00  0.00    -0.019 A 
ATOM      7  C   UNL d   1       1.199  -5.331   0.045  0.00  0.00     0.078 A 
ATOM      8  C   UNL d   1       1.056  -2.724   0.022  0.00  0.00     0.033 A 
ATOM      9  C   UNL d   1       0.318  -7.680  -0.667  0.00  0.00     0.033 A 
ATOM     10  C   UNL d   1      -1.547  -6.263  -2.283  0.00  0.00     0.014 A 
ATOM     11  C   UNL d   1      -1.134  -3.069  -1.763  0.00  0.00     0.014 A 
ATOM     12  C   UNL d   1      -0.725  -1.790  -1.373  0.00  0.00     0.026 A 
ATOM     13  C   UNL d   1      -1.507  -7.664  -2.298  0.00  0.00     0.026 A 
ENDROOT
BRANCH   3  14
ATOM     14  S   UNL d   1      -0.541 -10.150  -1.547  0.00  0.00     0.260 S 
ATOM     15  O   UNL d   1      -1.055 -10.543  -2.839  0.00  0.00    -0.200 OA
ATOM     16  O   UNL d   1       0.780 -10.556  -1.113  0.00  0.00    -0.200 OA
BRANCH  14  17
ATOM     17  N   UNL d   1      -1.670 -10.629  -0.350  0.00  0.00    -0.307 N 
ATOM     18  C   UNL d   1      -1.266 -10.356   1.053  0.00  0.00     0.135 C 
ATOM     19  C   UNL d   1      -2.205 -11.056   2.031  0.00  0.00     0.021 C 
ATOM     20  C   UNL d   1      -3.658 -10.685   1.765  0.00  0.00     0.003 C 
ATOM     21  C   UNL d   1      -4.020 -11.014   0.323  0.00  0.00     0.021 C 
ATOM     22  C   UNL d   1      -3.087 -10.296  -0.645  0.00  0.00     0.135 C 
ENDBRANCH  14  17
ENDBRANCH   3  14
BRANCH   4  23
ATOM     23  S   UNL d   1       0.869   0.035  -0.051  0.00  0.00     0.243 S 
ATOM     24  O   UNL d   1       1.538  -0.054   1.230  0.00  0.00    -0.206 OA
ATOM     25  O   UNL d   1      -0.282   0.894  -0.235  0.00  0.00    -0.206 OA
BRANCH  23  26
ATOM     26  N   UNL d   1       2.038   0.434  -1.245  0.00  0.00    -0.206 NA
ATOM     27  C   UNL d   1       3.318  -0.307  -1.121  0.00  0.00     0.107 C 
ATOM     28  C   UNL d   1       4.382   0.284  -2.036  0.00  0.00     0.015 C 
ATOM     29  C   UNL d   1       3.900   0.342  -3.479  0.00  0.00     0.002 C 
ATOM     30  C   UNL d   1       2.591   1.118  -3.563  0.00  0.00     0.015 C 
ATOM     31  C   UNL d   1       1.532   0.515  -2.642  0.00  0.00     0.107 C 
ENDBRANCH  23  26
ENDBRANCH   4  23
TORSDOF 4
