REMARK  5 active torsions:
REMARK  status: ('A' for Active; 'I' for Inactive)
REMARK    1  A    between atoms: C_2  and  C_1 
REMARK    2  A    between atoms: C_4  and  C_1 
REMARK    3  A    between atoms: C_6  and  C_2 
REMARK    4  A    between atoms: O_5  and  C_7 
REMARK    5  A    between atoms: C_8  and  O_5 
ROOT
ATOM      1  C   UNL d   1       1.211  -2.498   0.037  0.00  0.00    -0.051 A 
ATOM      2  C   UNL d   1       3.030  -4.612   0.258  0.00  0.00     0.076 A 
ATOM      3  C   UNL d   1       2.335  -2.384   0.868  0.00  0.00     0.010 A 
ATOM      4  C   UNL d   1       0.961  -3.719  -0.606  0.00  0.00     0.010 A 
ATOM      5  C   UNL d   1       3.231  -3.443   0.995  0.00  0.00     0.038 A 
ATOM      6  C   UNL d   1       1.871  -4.772  -0.497  0.00  0.00     0.038 A 
ENDROOT
BRANCH   1   7
ATOM      7  C   UNL d   1       0.307  -1.308  -0.173  0.00  0.00     0.122 C 
BRANCH   7   8
ATOM      8  C   UNL d   1       1.023  -0.142  -0.838  0.00  0.00     0.163 C 
ATOM      9  O   UNL d   1       1.613   0.703  -0.162  0.00  0.00    -0.292 OA
BRANCH   8  10
ATOM     10  C   UNL d   1       1.023  -0.007  -2.329  0.00  0.00     0.010 A 
ATOM     11  C   UNL d   1       0.536  -1.002  -3.186  0.00  0.00     0.015 A 
ATOM     12  C   UNL d   1       0.547  -0.807  -4.571  0.00  0.00     0.001 A 
ATOM     13  C   UNL d   1       1.046   0.377  -5.111  0.00  0.00     0.000 A 
ATOM     14  C   UNL d   1       1.543   1.368  -4.268  0.00  0.00     0.001 A 
ATOM     15  C   UNL d   1       1.536   1.175  -2.884  0.00  0.00     0.015 A 
ENDBRANCH   8  10
ENDBRANCH   7   8
ENDBRANCH   1   7
BRANCH   2  16
ATOM     16  O   UNL d   1       3.933  -5.648   0.258  0.00  0.00    -0.311 OA
BRANCH  16  17
ATOM     17  C   UNL d   1       5.260  -5.351   0.020  0.00  0.00     0.076 A 
ATOM     18  C   UNL d   1       6.195  -6.235   0.563  0.00  0.00     0.037 A 
ATOM     19  C   UNL d   1       7.560  -6.004   0.394  0.00  0.00     0.003 A 
ATOM     20  C   UNL d   1       7.998  -4.891  -0.324  0.00  0.00     0.000 A 
ATOM     21  C   UNL d   1       7.068  -4.024  -0.897  0.00  0.00     0.003 A 
ATOM     22  C   UNL d   1       5.702  -4.264  -0.744  0.00  0.00     0.037 A 
ENDBRANCH  16  17
ENDBRANCH   2  16
TORSDOF 5
