REMARK  7 active torsions:
REMARK  status: ('A' for Active; 'I' for Inactive)
REMARK    1  A    between atoms: N_3  and  C_1 
REMARK    2  A    between atoms: N_7  and  C_1 
REMARK    3  A    between atoms: N_2  and  C_6 
REMARK    4  A    between atoms: C_4  and  N_3 
REMARK       I    between atoms: C_5  and  N_8 
REMARK    5  A    between atoms: O_12  and  C_5 
REMARK    6  A    between atoms: N_8  and  N_7 
REMARK    7  A    between atoms: C_19  and  O_12 
ROOT
ATOM      1  N   UNL d   1       0.107   0.906   0.861  0.00  0.00    -0.330 N 
ATOM      2  H   UNL d   1      -0.884   0.931   1.072  0.00  0.00     0.168 HD
ENDROOT
BRANCH   1   3
ATOM      3  C   UNL d   1       0.553  -0.363   0.597  0.00  0.00     0.191 C 
ATOM      4  S   UNL d   1      -0.581  -1.534   0.208  0.00  0.00    -0.039 SA
BRANCH   3   5
ATOM      5  N   UNL d   1       1.880  -0.608   0.801  0.00  0.00    -0.272 N 
ATOM      6  H   UNL d   1       2.535   0.175   0.766  0.00  0.00     0.189 HD
BRANCH   5   7
ATOM      7  N   UNL d   1       2.441  -1.878   0.715  0.00  0.00    -0.243 N 
ATOM      8  C   UNL d   1       3.684  -2.077   1.243  0.00  0.00     0.379 C 
ATOM      9  O   UNL d   1       4.457  -1.186   1.581  0.00  0.00    -0.237 OA
ATOM     10  H   UNL d   1       1.825  -2.668   0.563  0.00  0.00     0.192 HD
BRANCH   8  11
ATOM     11  O   UNL d   1       3.939  -3.407   1.323  0.00  0.00    -0.303 OA
BRANCH  11  12
ATOM     12  C   UNL d   1       5.244  -3.755   1.790  0.00  0.00     0.176 C 
ATOM     13  C   UNL d   1       6.195  -3.818   0.609  0.00  0.00     0.034 C 
ENDBRANCH  11  12
ENDBRANCH   8  11
ENDBRANCH   5   7
ENDBRANCH   3   5
ENDBRANCH   1   3
BRANCH   1  14
ATOM     14  C   UNL d   1       0.859   2.058   1.212  0.00  0.00     0.061 A 
ATOM     15  C   UNL d   1       2.077   2.449   0.586  0.00  0.00     0.057 A 
ATOM     16  C   UNL d   1       2.735   3.573   1.120  0.00  0.00     0.031 A 
ATOM     17  C   UNL d   1       2.231   4.273   2.222  0.00  0.00     0.002 A 
ATOM     18  C   UNL d   1       1.033   3.884   2.805  0.00  0.00     0.002 A 
ATOM     19  C   UNL d   1       0.335   2.800   2.283  0.00  0.00     0.032 A 
BRANCH  15  20
ATOM     20  N   UNL d   1       2.630   1.721  -0.477  0.00  0.00    -0.375 N 
ATOM     21  C   UNL d   1       4.072   1.840  -0.788  0.00  0.00     0.149 C 
ATOM     22  C   UNL d   1       4.495   0.638  -1.651  0.00  0.00     0.187 C 
ATOM     23  O   UNL d   1       3.726   0.567  -2.866  0.00  0.00    -0.388 OA
ATOM     24  C   UNL d   1       2.321   0.452  -2.565  0.00  0.00     0.187 C 
ATOM     25  C   UNL d   1       1.826   1.646  -1.726  0.00  0.00     0.149 C 
ENDBRANCH  15  20
ENDBRANCH   1  14
TORSDOF 7
