REMARK  8 active torsions:
REMARK  status: ('A' for Active; 'I' for Inactive)
REMARK    1  A    between atoms: C_2  and  S_1 
REMARK    2  A    between atoms: N_7  and  S_1 
REMARK       I    between atoms: C_5  and  N_6 
REMARK    3  A    between atoms: N_6  and  C_8 
REMARK    4  A    between atoms: C_21  and  N_7 
REMARK    5  A    between atoms: C_14  and  O_19 
REMARK    6  A    between atoms: C_18  and  C_21 
REMARK    7  A    between atoms: C_24  and  C_18 
REMARK    8  A    between atoms: O_19  and  C_24 
ROOT
ATOM      1  C   UNL d   1       4.798  -0.774   0.981  0.00  0.00     0.047 C 
ENDROOT
BRANCH   1   2
ATOM      2  C   UNL d   1       3.264  -0.877   0.939  0.00  0.00     0.134 C 
BRANCH   2   3
ATOM      3  N   UNL d   1       2.668  -0.729   2.276  0.00  0.00    -0.315 N 
ATOM      4  H   UNL d   1       3.103  -1.161   3.089  0.00  0.00     0.172 HD
BRANCH   3   5
ATOM      5  S   UNL d   1       0.992  -0.710   2.446  0.00  0.00     0.258 S 
ATOM      6  O   UNL d   1       0.718  -0.763   3.866  0.00  0.00    -0.201 OA
ATOM      7  O   UNL d   1       0.482   0.344   1.602  0.00  0.00    -0.201 OA
BRANCH   5   8
ATOM      8  C   UNL d   1       0.483  -2.269   1.754  0.00  0.00     0.079 A 
ATOM      9  C   UNL d   1       1.002  -3.463   2.270  0.00  0.00     0.028 A 
ATOM     10  C   UNL d   1       0.619  -4.678   1.696  0.00  0.00     0.044 A 
ATOM     11  C   UNL d   1      -0.285  -4.687   0.637  0.00  0.00     0.116 A 
ATOM     12  C   UNL d   1      -0.821  -3.503   0.139  0.00  0.00     0.044 A 
ATOM     13  F   UNL d   1      -0.645  -5.854   0.088  0.00  0.00    -0.206 F 
ATOM     14  C   UNL d   1      -0.436  -2.284   0.696  0.00  0.00     0.028 A 
ENDBRANCH   5   8
ENDBRANCH   3   5
ENDBRANCH   2   3
ENDBRANCH   1   2
BRANCH   1  15
ATOM     15  C   UNL d   1       5.372  -1.829   1.912  0.00  0.00     0.177 C 
BRANCH  15  16
ATOM     16  O   UNL d   1       6.802  -1.916   1.903  0.00  0.00    -0.351 OA
BRANCH  16  17
ATOM     17  C   UNL d   1       7.283  -2.792   2.859  0.00  0.00     0.070 A 
ATOM     18  C   UNL d   1       6.459  -3.584   3.667  0.00  0.00     0.066 A 
ATOM     19  C   UNL d   1       6.953  -4.401   4.677  0.00  0.00     0.037 A 
ATOM     20  C   UNL d   1       8.336  -4.484   4.834  0.00  0.00     0.029 A 
ATOM     21  C   UNL d   1       9.186  -3.730   4.007  0.00  0.00     0.005 A 
ATOM     22  C   UNL d   1       8.659  -2.875   3.030  0.00  0.00     0.037 A 
BRANCH  19  23
ATOM     23  N   UNL d   1       6.095  -5.120   5.545  0.00  0.00    -0.327 N 
ATOM     24  C   UNL d   1       4.703  -5.081   5.550  0.00  0.00     0.218 C 
ATOM     25  O   UNL d   1       3.970  -4.468   4.779  0.00  0.00    -0.274 OA
ATOM     26  C   UNL d   1       4.078  -5.907   6.642  0.00  0.00     0.117 C 
ATOM     27  H   UNL d   1       6.550  -5.670   6.261  0.00  0.00     0.169 HD
ENDBRANCH  19  23
ENDBRANCH  16  17
ENDBRANCH  15  16
ENDBRANCH   1  15
TORSDOF 8
