REMARK  1 active torsions:
REMARK  status: ('A' for Active; 'I' for Inactive)
REMARK    1  A    between atoms: C_7  and  C_3 
ROOT
ATOM      1  N   UNL d   1      -1.545   1.108  -0.010  0.00  0.00    -0.344 N 
ATOM      2  HN  UNL d   1      -1.878   2.072  -0.012  1.00  0.00     0.167 HD
ATOM      3  C   UNL d   1      -2.278   0.012  -0.011  0.00  0.00     0.085 A 
ATOM      4  N   UNL d   1      -1.481  -1.107  -0.011  0.00  0.00    -0.344 N 
ATOM      5  C   UNL d   1      -0.239   0.682  -0.006  0.00  0.00     0.060 A 
ATOM      6  C   UNL d   1      -0.170  -0.706  -0.007  0.00  0.00     0.060 A 
ATOM      7  C   UNL d   1       0.950   1.427  -0.001  0.00  0.00     0.032 A 
ATOM      8  C   UNL d   1       1.034  -1.414  -0.003  0.00  0.00     0.032 A 
ATOM      9  C   UNL d   1       2.172   0.743  -0.000  0.00  0.00     0.002 A 
ATOM     10  C   UNL d   1       2.210  -0.654  -0.001  0.00  0.00     0.002 A 
ATOM     11  H   UNL d   1      -1.805  -2.063  -0.012  0.00  0.00     0.167 HD
ENDROOT
BRANCH   3  12
ATOM     12  C   UNL d   1      -3.775  -0.069  -0.004  0.00  0.00     0.045 C 
ATOM     13  C   UNL d   1      -4.343   0.617   1.238  0.00  0.00     0.017 C 
ATOM     14  C   UNL d   1      -4.357   0.551  -1.274  0.00  0.00     0.017 C 
ENDBRANCH   3  12
TORSDOF 1
