REMARK  3 active torsions:
REMARK  status: ('A' for Active; 'I' for Inactive)
REMARK    1  A    between atoms: N_5  and  C_1 
REMARK    2  A    between atoms: O_8  and  C_2 
REMARK    3  A    between atoms: C_11  and  O_8 
ROOT
ATOM      1  C   UNL d   1       0.636  -1.539  -0.015  0.00  0.00     0.123 A 
ATOM      2  C   UNL d   1      -0.729  -1.420   0.082  0.00  0.00     0.154 A 
ATOM      3  C   UNL d   1       0.807  -0.104  -0.328  0.00  0.00     0.254 A 
ATOM      4  C   UNL d   1      -0.670   0.023  -0.261  0.00  0.00     0.259 A 
ATOM      5  O   UNL d   1       1.687   0.677  -0.591  0.00  0.00    -0.281 OA
ATOM      6  O   UNL d   1      -1.419   0.955  -0.415  0.00  0.00    -0.281 OA
ENDROOT
BRANCH   1   7
ATOM      7  N   UNL d   1       1.525  -2.501   0.135  0.00  0.00    -0.375 N 
ATOM      8  C   UNL d   1       1.826  -3.427  -0.961  0.00  0.00     0.123 C 
ATOM      9  C   UNL d   1       1.949  -4.840  -0.399  0.00  0.00     0.020 C 
ATOM     10  C   UNL d   1       2.939  -4.904   0.767  0.00  0.00     0.003 C 
ATOM     11  C   UNL d   1       2.658  -3.821   1.812  0.00  0.00     0.020 C 
ATOM     12  C   UNL d   1       2.562  -2.437   1.165  0.00  0.00     0.123 C 
ENDBRANCH   1   7
BRANCH   2  13
ATOM     13  O   UNL d   1      -1.646  -2.266   0.386  0.00  0.00    -0.345 OA
BRANCH  13  14
ATOM     14  C   UNL d   1      -2.971  -1.797   0.159  0.00  0.00     0.171 C 
ATOM     15  C   UNL d   1      -3.932  -2.783   0.803  0.00  0.00     0.034 C 
ENDBRANCH  13  14
ENDBRANCH   2  13
TORSDOF 3
