REMARK  5 active torsions:
REMARK  status: ('A' for Active; 'I' for Inactive)
REMARK    1  A    between atoms: C_4  and  S_1 
REMARK    2  A    between atoms: N_7  and  S_1 
REMARK    3  A    between atoms: C_2  and  C_5 
REMARK    4  A    between atoms: C_3  and  C_6 
REMARK    5  A    between atoms: N_19  and  N_7 
ROOT
ATOM      1  C   UNL d   1       0.574  -1.009  -1.296  0.00  0.00     0.077 A 
ATOM      2  C   UNL d   1       0.577  -3.252  -2.218  0.00  0.00     0.050 A 
ATOM      3  C   UNL d   1      -0.852  -1.509  -3.193  0.00  0.00     0.050 A 
ATOM      4  C   UNL d   1       1.046  -2.326  -1.276  0.00  0.00     0.041 A 
ATOM      5  C   UNL d   1      -0.369  -0.597  -2.244  0.00  0.00     0.041 A 
ATOM      6  C   UNL d   1      -0.367  -2.831  -3.174  0.00  0.00     0.032 A 
ENDROOT
BRANCH   1   7
ATOM      7  S   UNL d   1       1.176   0.142  -0.088  0.00  0.00     0.254 S 
ATOM      8  O   UNL d   1       0.910  -0.395   1.226  0.00  0.00    -0.205 OA
ATOM      9  O   UNL d   1       0.755   1.474  -0.473  0.00  0.00    -0.205 OA
BRANCH   7  10
ATOM     10  N   UNL d   1       2.884   0.084  -0.368  0.00  0.00    -0.150 NA
ATOM     11  H   UNL d   1       3.107   0.233  -1.359  0.00  0.00     0.159 HD
BRANCH  10  12
ATOM     12  N   UNL d   1       3.538   1.033   0.469  0.00  0.00    -0.257 NA
ATOM     13  H   UNL d   1       3.281   0.819   1.443  0.00  0.00     0.138 HD
ATOM     14  H   UNL d   1       3.126   1.960   0.292  0.00  0.00     0.138 HD
ENDBRANCH  10  12
ENDBRANCH   7  10
ENDBRANCH   1   7
BRANCH   2  15
ATOM     15  C   UNL d   1       1.058  -4.687  -2.214  0.00  0.00     0.417 C 
ATOM     16  F   UNL d   1       1.959  -4.953  -1.230  0.00  0.00    -0.166 F 
ATOM     17  F   UNL d   1       0.039  -5.572  -2.045  0.00  0.00    -0.166 F 
ATOM     18  F   UNL d   1       1.665  -5.029  -3.383  0.00  0.00    -0.166 F 
ENDBRANCH   2  15
BRANCH   3  19
ATOM     19  C   UNL d   1      -1.884  -1.098  -4.221  0.00  0.00     0.417 C 
ATOM     20  F   UNL d   1      -2.287   0.195  -4.098  0.00  0.00    -0.166 F 
ATOM     21  F   UNL d   1      -1.421  -1.229  -5.494  0.00  0.00    -0.166 F 
ATOM     22  F   UNL d   1      -3.013  -1.854  -4.150  0.00  0.00    -0.166 F 
ENDBRANCH   3  19
TORSDOF 5
