REMARK  3 active torsions:
REMARK  status: ('A' for Active; 'I' for Inactive)
REMARK    1  A    between atoms: C_3  and  C_1 
REMARK       I    between atoms: N_8  and  C_3 
REMARK    2  A    between atoms: C_17  and  N_8 
REMARK    3  A    between atoms: C_16  and  C_17 
ROOT
ATOM      1  C   UNL d   1       1.479   2.448   0.004  0.00  0.00     0.254 C 
ATOM      2  N   UNL d   1       1.060   3.762   0.028  0.00  0.00    -0.353 N 
ATOM      3  O   UNL d   1       0.683   1.516   0.008  0.00  0.00    -0.268 OA
ATOM      4  H   UNL d   1       1.735   4.511   0.014  0.00  0.00     0.163 HD
ENDROOT
BRANCH   2   5
ATOM      5  C   UNL d   1      -0.345   4.112   0.003  0.00  0.00     0.161 C 
BRANCH   5   6
ATOM      6  C   UNL d   1      -0.749   4.932   1.204  0.00  0.00    -0.038 A 
ATOM      7  C   UNL d   1      -0.630   4.391   2.497  0.00  0.00     0.048 A 
ATOM      8  C   UNL d   1      -1.048   5.154   3.567  0.00  0.00     0.105 A 
ATOM      9  O   UNL d   1      -0.999   4.784   4.875  0.00  0.00    -0.323 OA
ATOM     10  C   UNL d   1      -1.583   6.409   3.398  0.00  0.00     0.105 A 
ATOM     11  C   UNL d   1      -1.519   5.968   5.512  0.00  0.00     0.352 A 
ATOM     12  O   UNL d   1      -1.935   6.987   4.578  0.00  0.00    -0.323 OA
ATOM     13  C   UNL d   1      -1.730   6.971   2.150  0.00  0.00     0.040 A 
ATOM     14  C   UNL d   1      -1.306   6.223   1.044  0.00  0.00     0.012 A 
ENDBRANCH   5   6
ENDBRANCH   2   5
BRANCH   1  15
ATOM     15  C   UNL d   1       2.927   2.242  -0.030  0.00  0.00     0.063 A 
ATOM     16  C   UNL d   1       3.553   1.001  -0.055  0.00  0.00     0.065 A 
ATOM     17  O   UNL d   1       4.907   1.147  -0.080  0.00  0.00    -0.319 OA
ATOM     18  C   UNL d   1       3.091  -0.406  -0.060  0.00  0.00     0.077 C 
ATOM     19  C   UNL d   1       5.176   2.476  -0.073  0.00  0.00     0.050 A 
ATOM     20  C   UNL d   1       3.999   3.191  -0.050  0.00  0.00     0.051 A 
ATOM     21  C   UNL d   1       6.606   2.845  -0.087  0.00  0.00     0.076 C 
ENDBRANCH   1  15
TORSDOF 3
