REMARK  4 active torsions:
REMARK  status: ('A' for Active; 'I' for Inactive)
REMARK    1  A    between atoms: N_2  and  C_4 
REMARK    2  A    between atoms: C_7  and  C_5 
REMARK       I    between atoms: N_10  and  C_7 
REMARK    3  A    between atoms: C_9  and  C_14 
REMARK    4  A    between atoms: C_14  and  N_10 
ROOT
ATOM      1  N   UNL d   1      -1.573   0.956   0.016  0.00  0.00    -0.349 N 
ATOM      2  C   UNL d   1      -0.226   0.655   0.021  0.00  0.00     0.076 A 
ATOM      3  C   UNL d   1       0.919   1.479   0.049  0.00  0.00     0.130 A 
ATOM      4  C   UNL d   1      -2.345  -0.189  -0.024  0.00  0.00     0.102 A 
ATOM      5  C   UNL d   1      -1.457  -1.251  -0.032  0.00  0.00     0.049 A 
ATOM      6  C   UNL d   1      -0.131  -0.737  -0.013  0.00  0.00    -0.005 A 
ATOM      7  C   UNL d   1       2.180   0.853   0.034  0.00  0.00     0.038 A 
ATOM      8  C   UNL d   1       1.143  -1.337  -0.024  0.00  0.00     0.014 A 
ATOM      9  C   UNL d   1       2.288  -0.535  -0.003  0.00  0.00     0.003 A 
ATOM     10  H   UNL d   1      -1.956   1.897   0.032  0.00  0.00     0.166 HD
ENDROOT
BRANCH   4  11
ATOM     11  C   UNL d   1      -3.793  -0.134  -0.054  0.00  0.00     0.268 C 
ATOM     12  N   UNL d   1      -4.435  -1.353  -0.066  0.00  0.00    -0.351 N 
ATOM     13  H   UNL d   1      -3.882  -2.184  -0.215  0.00  0.00     0.163 HD
ATOM     14  O   UNL d   1      -4.406   0.929  -0.085  0.00  0.00    -0.266 OA
BRANCH  12  15
ATOM     15  C   UNL d   1      -5.856  -1.429  -0.307  0.00  0.00     0.163 C 
BRANCH  15  16
ATOM     16  C   UNL d   1      -6.452  -2.822  -0.309  0.00  0.00    -0.017 A 
ATOM     17  C   UNL d   1      -5.858  -3.958  -0.888  0.00  0.00     0.042 A 
ATOM     18  C   UNL d   1      -6.529  -5.191  -0.907  0.00  0.00     0.026 A 
ATOM     19 CL   UNL d   1      -4.296  -3.923  -1.628  0.00  0.00    -0.084 Cl
ATOM     20  C   UNL d   1      -7.812  -5.309  -0.375  0.00  0.00     0.025 A 
ATOM     21  C   UNL d   1      -8.425  -4.191   0.177  0.00  0.00     0.034 A 
ATOM     22  C   UNL d   1      -7.758  -2.964   0.210  0.00  0.00     0.034 A 
ATOM     23 CL   UNL d   1     -10.021  -4.317   0.805  0.00  0.00    -0.084 Cl
ENDBRANCH  15  16
ENDBRANCH  12  15
ENDBRANCH   4  11
BRANCH   3  24
ATOM     24  N   UNL d   1       0.857   2.946   0.093  0.00  0.00    -0.113 N 
ATOM     25  O   UNL d   1      -0.269   3.463   0.118  0.00  0.00    -0.532 OA
ATOM     26  O   UNL d   1       1.925   3.577   0.102  0.00  0.00    -0.532 OA
ENDBRANCH   3  24
TORSDOF 4
