REMARK  1 active torsions:
REMARK  status: ('A' for Active; 'I' for Inactive)
REMARK    1  A    between atoms: C_8  and  N_1 
ROOT
ATOM      1  N   UNL d   1       2.355  -0.686   0.101  0.00  0.00    -0.205 N 
ATOM      2  N   UNL d   1       1.339  -1.461  -0.403  0.00  0.00    -0.232 N 
ATOM      3  HN  UNL d   1       1.576  -2.288  -0.950  1.00  0.00     0.209 HD
ATOM      4  C   UNL d   1       2.129   0.528   0.740  0.00  0.00     0.280 A 
ATOM      5  N   UNL d   1       0.135  -1.187  -0.212  0.00  0.00    -0.285 N 
ATOM      6  HN  UNL d   1      -0.593  -1.793  -0.590  1.00  0.00     0.188 HD
ATOM      7  C   UNL d   1       0.727   0.860   0.974  0.00  0.00     0.062 A 
ATOM      8  C   UNL d   1      -0.211  -0.048   0.518  0.00  0.00     0.065 A 
ATOM      9  O   UNL d   1       2.973   1.340   1.115  0.00  0.00    -0.265 OA
ATOM     10  C   UNL d   1       0.354   2.026   1.658  0.00  0.00     0.019 A 
ATOM     11  C   UNL d   1      -1.561   0.204   0.792  0.00  0.00     0.032 A 
ATOM     12  C   UNL d   1      -0.991   2.271   1.913  0.00  0.00     0.001 A 
ATOM     13  C   UNL d   1      -1.950   1.353   1.490  0.00  0.00     0.002 A 
ENDROOT
BRANCH   1  14
ATOM     14  C   UNL d   1       3.663  -1.238  -0.092  0.00  0.00     0.062 A 
ATOM     15  C   UNL d   1       4.733  -0.884   0.743  0.00  0.00     0.039 A 
ATOM     16  C   UNL d   1       6.023  -1.418   0.574  0.00  0.00    -0.054 A 
ATOM     17  C   UNL d   1       7.109  -1.008   1.531  0.00  0.00     0.049 C 
ATOM     18  C   UNL d   1       6.264  -2.313  -0.481  0.00  0.00    -0.056 A 
ATOM     19  C   UNL d   1       5.197  -2.693  -1.306  0.00  0.00     0.009 A 
ATOM     20  C   UNL d   1       7.639  -2.863  -0.741  0.00  0.00     0.049 C 
ATOM     21  C   UNL d   1       3.912  -2.176  -1.104  0.00  0.00     0.032 A 
ENDBRANCH   1  14
TORSDOF 1
