REMARK  4 active torsions:
REMARK  status: ('A' for Active; 'I' for Inactive)
REMARK    1  A    between atoms: C_2  and  C_1 
REMARK    2  A    between atoms: C_3  and  C_4 
REMARK       I    between atoms: N_8  and  C_3 
REMARK       I    between atoms: C_5  and  N_9 
REMARK    3  A    between atoms: C_10  and  C_5 
REMARK    4  A    between atoms: N_9  and  N_8 
ROOT
ATOM      1  C   UNL d   1      -2.823   2.079   1.834  0.00  0.00     0.271 C 
ATOM      2  N   UNL d   1      -3.007   0.715   1.688  0.00  0.00    -0.263 N 
ATOM      3  O   UNL d   1      -3.216   2.675   2.839  0.00  0.00    -0.266 OA
ATOM      4  H   UNL d   1      -2.400   0.177   1.070  0.00  0.00     0.190 HD
ENDROOT
BRANCH   1   5
ATOM      5  C   UNL d   1      -2.243   2.852   0.687  0.00  0.00     0.047 A 
ATOM      6  C   UNL d   1      -1.340   2.380  -0.282  0.00  0.00     0.023 A 
ATOM      7  C   UNL d   1      -0.953   3.221  -1.347  0.00  0.00     0.016 A 
ATOM      8  C   UNL d   1      -1.448   4.520  -1.453  0.00  0.00     0.001 A 
ATOM      9  C   UNL d   1      -2.319   5.004  -0.486  0.00  0.00     0.001 A 
ATOM     10  C   UNL d   1      -2.709   4.179   0.573  0.00  0.00     0.018 A 
BRANCH   6  11
ATOM     11  C   UNL d   1      -0.654   1.054  -0.205  0.00  0.00     0.108 C 
ATOM     12  N   UNL d   1      -0.326   0.633   0.967  0.00  0.00    -0.376 N 
ATOM     13  C   UNL d   1       0.386  -0.644   1.086  0.00  0.00     0.123 C 
ATOM     14  HN  UNL d   1      -0.557   1.178   1.798  1.00  0.00     0.161 HD
ATOM     15  C   UNL d   1       0.091  -1.592  -0.064  0.00  0.00     0.039 C 
ATOM     16  C   UNL d   1       0.344  -0.869  -1.370  0.00  0.00     0.123 C 
ATOM     17  N   UNL d   1      -0.411   0.360  -1.365  0.00  0.00    -0.376 N 
ATOM     18  H   UNL d   1      -0.716   0.718  -2.261  0.00  0.00     0.161 HD
ENDBRANCH   6  11
ENDBRANCH   1   5
BRANCH   2  19
ATOM     19  N   UNL d   1      -3.491   0.005   2.801  0.00  0.00    -0.263 N 
ATOM     20  C   UNL d   1      -3.418  -1.376   2.792  0.00  0.00     0.270 C 
ATOM     21  O   UNL d   1      -3.055  -2.024   1.815  0.00  0.00    -0.266 OA
ATOM     22  H   UNL d   1      -3.754   0.567   3.609  0.00  0.00     0.190 HD
BRANCH  20  23
ATOM     23  C   UNL d   1      -3.772  -2.050   4.076  0.00  0.00     0.039 A 
ATOM     24  C   UNL d   1      -4.558  -3.221   4.129  0.00  0.00    -0.046 A 
ATOM     25  C   UNL d   1      -5.215  -3.864   2.939  0.00  0.00     0.049 C 
ATOM     26  C   UNL d   1      -4.797  -3.816   5.385  0.00  0.00     0.007 A 
ATOM     27  C   UNL d   1      -4.262  -3.277   6.554  0.00  0.00     0.001 A 
ATOM     28  C   UNL d   1      -3.481  -2.127   6.493  0.00  0.00     0.001 A 
ATOM     29  C   UNL d   1      -3.234  -1.519   5.262  0.00  0.00     0.017 A 
ENDBRANCH  20  23
ENDBRANCH   2  19
TORSDOF 4
