REMARK  3 active torsions:
REMARK  status: ('A' for Active; 'I' for Inactive)
REMARK    1  A    between atoms: C_6  and  C_1 
REMARK    2  A    between atoms: O_11  and  N_7 
REMARK    3  A    between atoms: C_9  and  O_11 
ROOT
ATOM      1  C   UNL d   1       4.521   1.169   0.025  0.00  0.00     0.036 A 
ATOM      2  S   UNL d   1       3.623   2.627   0.004  0.00  0.00    -0.087 SA
ATOM      3  C   UNL d   1       5.892   1.425   0.008  0.00  0.00    -0.031 A 
ATOM      4  C   UNL d   1       6.181   2.851   0.005  0.00  0.00    -0.010 A 
ATOM      5  C   UNL d   1       5.017   3.617   0.005  0.00  0.00     0.016 A 
ATOM      6  C   UNL d   1       7.424   3.540   0.001  0.00  0.00     0.037 A 
ATOM      7  C   UNL d   1       5.053   5.027   0.002  0.00  0.00     0.021 A 
ATOM      8  C   UNL d   1       7.461   4.937  -0.000  0.00  0.00     0.035 A 
ATOM      9  C   UNL d   1       6.998   0.408   0.007  0.00  0.00     0.050 C 
ATOM     10  C   UNL d   1       6.289   5.676   0.000  0.00  0.00     0.025 A 
ATOM     11 CL   UNL d   1       8.980   5.747  -0.001  0.00  0.00    -0.084 Cl
ENDROOT
BRANCH   1  12
ATOM     12  C   UNL d   1       3.808  -0.111  -0.000  0.00  0.00     0.046 C 
ATOM     13  N   UNL d   1       4.392  -1.115  -0.585  0.00  0.00    -0.261 N 
ATOM     14  HN  UNL d   1       5.311  -1.052  -1.025  1.00  0.00     0.194 HD
ATOM     15  C   UNL d   1       2.435  -0.248   0.638  0.00  0.00     0.071 C 
BRANCH  13  16
ATOM     16  O   UNL d   1       3.629  -2.296  -0.549  0.00  0.00    -0.200 OA
BRANCH  16  17
ATOM     17  C   UNL d   1       4.319  -3.307  -1.172  0.00  0.00     0.277 C 
ATOM     18  O   UNL d   1       5.431  -3.234  -1.688  0.00  0.00    -0.264 OA
ATOM     19  C   UNL d   1       3.524  -4.578  -1.141  0.00  0.00     0.128 C 
ENDBRANCH  16  17
ENDBRANCH  13  16
ENDBRANCH   1  12
TORSDOF 3
