REMARK  5 active torsions:
REMARK  status: ('A' for Active; 'I' for Inactive)
REMARK    1  A    between atoms: N_2  and  C_1 
REMARK    2  A    between atoms: N_3  and  C_1 
REMARK       I    between atoms: C_4  and  N_2 
REMARK    3  A    between atoms: C_8  and  N_3 
REMARK    4  A    between atoms: C_7  and  C_4 
REMARK    5  A    between atoms: C_9  and  C_7 
ROOT
ATOM      1  C   UNL d   1       0.934   0.041   0.385  0.00  0.00     0.179 C 
ATOM      2  S   UNL d   1       2.026   0.558   1.530  0.00  0.00    -0.040 SA
ENDROOT
BRANCH   1   3
ATOM      3  N   UNL d   1       0.589   0.688  -0.796  0.00  0.00    -0.300 N 
ATOM      4  C   UNL d   1       0.998   1.823  -1.467  0.00  0.00     0.247 C 
ATOM      5  O   UNL d   1       0.147   2.509  -2.027  0.00  0.00    -0.268 OA
ATOM      6  H   UNL d   1      -0.399   0.561  -0.986  0.00  0.00     0.171 HD
BRANCH   4   7
ATOM      7  C   UNL d   1       2.448   2.105  -1.583  0.00  0.00     0.076 C 
BRANCH   7   8
ATOM      8  C   UNL d   1       2.801   3.092  -2.425  0.00  0.00     0.024 C 
ATOM      9  C   UNL d   1       4.148   3.431  -2.740  0.00  0.00     0.004 A 
ATOM     10  S   UNL d   1       4.413   4.800  -3.765  0.00  0.00    -0.102 SA
ATOM     11  C   UNL d   1       5.357   2.849  -2.400  0.00  0.00     0.019 A 
ATOM     12  C   UNL d   1       6.104   4.576  -3.765  0.00  0.00     0.050 A 
ATOM     13  C   UNL d   1       6.479   3.502  -2.997  0.00  0.00     0.008 A 
ENDBRANCH   7   8
ENDBRANCH   4   7
ENDBRANCH   1   3
BRANCH   1  14
ATOM     14  N   UNL d   1       0.179  -1.093   0.634  0.00  0.00    -0.332 N 
ATOM     15  H   UNL d   1       0.083  -1.356   1.613  0.00  0.00     0.168 HD
BRANCH  14  16
ATOM     16  C   UNL d   1      -0.448  -1.948  -0.307  0.00  0.00     0.056 A 
ATOM     17  C   UNL d   1      -1.522  -2.766   0.083  0.00  0.00     0.060 A 
ATOM     18 CL   UNL d   1      -2.152  -2.708   1.691  0.00  0.00    -0.082 Cl
ATOM     19  C   UNL d   1      -2.139  -3.616  -0.840  0.00  0.00     0.026 A 
ATOM     20  C   UNL d   1      -1.670  -3.684  -2.152  0.00  0.00     0.002 A 
ATOM     21  C   UNL d   1      -0.582  -2.905  -2.541  0.00  0.00     0.002 A 
ATOM     22  C   UNL d   1       0.024  -2.047  -1.624  0.00  0.00     0.031 A 
ENDBRANCH  14  16
ENDBRANCH   1  14
TORSDOF 5
