REMARK  2 active torsions:
REMARK  status: ('A' for Active; 'I' for Inactive)
REMARK    1  A    between atoms: C_5  and  C_1 
REMARK    2  A    between atoms: C_6  and  C_2 
REMARK       I    between atoms: N_9  and  C_5 
ROOT
ATOM      1  C   UNL d   1      -0.058  -1.202   0.044  0.00  0.00     0.092 C 
ATOM      2  C   UNL d   1      -1.380  -0.651   0.015  0.00  0.00     0.085 C 
ATOM      3  N   UNL d   1      -1.317   0.655  -0.299  0.00  0.00    -0.259 N 
ATOM      4  HN  UNL d   1      -2.104   1.267  -0.514  1.00  0.00     0.195 HD
ATOM      5  O   UNL d   1       0.011   1.006  -0.274  0.00  0.00    -0.241 OA
ATOM      6  C   UNL d   1       0.762  -0.091  -0.018  0.00  0.00     0.090 C 
ATOM      7  C   UNL d   1       2.208   0.142   0.170  0.00  0.00     0.080 C 
ENDROOT
BRANCH   1   8
ATOM      8  C   UNL d   1       0.381  -2.563   0.262  0.00  0.00     0.258 C 
ATOM      9  N   UNL d   1       1.363  -3.050  -0.590  0.00  0.00    -0.348 N 
ATOM     10  C   UNL d   1       1.905  -4.378  -0.408  0.00  0.00     0.126 C 
ATOM     11  C   UNL d   1       1.666  -2.603  -1.937  0.00  0.00     0.126 C 
ATOM     12  C   UNL d   1       3.192  -4.360  -1.221  0.00  0.00     0.021 C 
ATOM     13  C   UNL d   1       3.026  -3.222  -2.234  0.00  0.00     0.021 C 
ATOM     14  O   UNL d   1      -0.090  -3.247   1.165  0.00  0.00    -0.267 OA
ENDBRANCH   1   8
BRANCH   2  15
ATOM     15  C   UNL d   1      -2.676  -1.308   0.235  0.00  0.00     0.015 A 
ATOM     16  C   UNL d   1      -3.712  -0.712   0.984  0.00  0.00     0.046 A 
ATOM     17 CL   UNL d   1      -3.566   0.825   1.774  0.00  0.00    -0.083 Cl
ATOM     18  C   UNL d   1      -4.932  -1.377   1.173  0.00  0.00     0.025 A 
ATOM     19  C   UNL d   1      -5.135  -2.648   0.640  0.00  0.00     0.002 A 
ATOM     20  C   UNL d   1      -4.118  -3.255  -0.092  0.00  0.00     0.001 A 
ATOM     21  C   UNL d   1      -2.906  -2.589  -0.300  0.00  0.00     0.015 A 
ENDBRANCH   2  15
TORSDOF 2
