REMARK  5 active torsions:
REMARK  status: ('A' for Active; 'I' for Inactive)
REMARK    1  A    between atoms: C_3  and  C_1 
REMARK    2  A    between atoms: C_8  and  C_2 
REMARK    3  A    between atoms: N_5  and  C_19 
REMARK    4  A    between atoms: C_20  and  C_15 
REMARK    5  A    between atoms: C_19  and  C_20 
ROOT
ATOM      1  C   UNL d   1       0.285  -2.703  -0.056  0.00  0.00     0.054 A 
ATOM      2  N   UNL d   1       1.073  -3.232   0.951  0.00  0.00    -0.353 N 
ATOM      3  HN  UNL d   1       1.454  -2.702   1.735  1.00  0.00     0.166 HD
ATOM      4  C   UNL d   1       1.260  -4.523   0.747  0.00  0.00     0.052 A 
ATOM      5  C   UNL d   1      -0.129  -3.611  -1.010  0.00  0.00     0.082 A 
ATOM      6  S   UNL d   1       0.444  -5.169  -0.626  0.00  0.00    -0.086 SA
ENDROOT
BRANCH   1   7
ATOM      7  C   UNL d   1       0.006  -1.269  -0.093  0.00  0.00     0.052 A 
ATOM      8  C   UNL d   1       0.848  -0.185   0.317  0.00  0.00     0.083 A 
ATOM      9  N   UNL d   1       0.243   0.981   0.020  0.00  0.00    -0.259 N 
ATOM     10  O   UNL d   1      -0.983   0.678  -0.516  0.00  0.00    -0.241 OA
ATOM     11  HN  UNL d   1       0.625   1.916   0.165  1.00  0.00     0.195 HD
ATOM     12  C   UNL d   1      -1.124  -0.666  -0.601  0.00  0.00     0.087 A 
ATOM     13  C   UNL d   1      -2.384  -1.144  -1.205  0.00  0.00     0.080 C 
BRANCH   8  14
ATOM     14  C   UNL d   1       2.190  -0.164   0.921  0.00  0.00     0.037 A 
ATOM     15  C   UNL d   1       3.266  -0.902   0.386  0.00  0.00     0.048 A 
ATOM     16 CL   UNL d   1       3.187  -1.772  -1.114  0.00  0.00    -0.083 Cl
ATOM     17  C   UNL d   1       4.531  -0.891   0.997  0.00  0.00     0.025 A 
ATOM     18  C   UNL d   1       4.781  -0.078   2.095  0.00  0.00     0.003 A 
ATOM     19  C   UNL d   1       3.757   0.715   2.599  0.00  0.00     0.025 A 
ATOM     20  C   UNL d   1       2.470   0.657   2.040  0.00  0.00     0.048 A 
ATOM     21 CL   UNL d   1       1.283   1.651   2.828  0.00  0.00    -0.083 Cl
ENDBRANCH   8  14
ENDBRANCH   1   7
BRANCH   4  22
ATOM     22  C   UNL d   1       2.083  -5.392   1.654  0.00  0.00     0.085 C 
BRANCH  22  23
ATOM     23  C   UNL d   1       2.811  -6.545   0.953  0.00  0.00     0.141 C 
BRANCH  23  24
ATOM     24  N   UNL d   1       3.534  -7.377   1.883  0.00  0.00    -0.290 N 
ATOM     25  C   UNL d   1       3.020  -8.471   2.551  0.00  0.00     0.372 A 
ATOM     26  O   UNL d   1       3.970  -9.021   3.420  0.00  0.00    -0.259 OA
ATOM     27  O   UNL d   1       1.886  -8.914   2.430  0.00  0.00    -0.237 OA
ATOM     28  C   UNL d   1       5.053  -8.174   3.253  0.00  0.00     0.107 A 
ATOM     29  C   UNL d   1       4.815  -7.172   2.336  0.00  0.00     0.073 A 
ATOM     30  C   UNL d   1       6.259  -8.278   3.920  0.00  0.00     0.040 A 
ATOM     31  C   UNL d   1       5.756  -6.211   2.032  0.00  0.00     0.033 A 
ATOM     32  C   UNL d   1       6.985  -6.292   2.694  0.00  0.00     0.002 A 
ATOM     33  C   UNL d   1       7.232  -7.316   3.631  0.00  0.00     0.003 A 
ENDBRANCH  23  24
ENDBRANCH  22  23
ENDBRANCH   4  22
TORSDOF 5
