REMARK  8 active torsions:
REMARK  status: ('A' for Active; 'I' for Inactive)
REMARK    1  A    between atoms: C_2  and  C_1 
REMARK       I    between atoms: N_3  and  C_1 
REMARK    2  A    between atoms: C_11  and  N_3 
REMARK    3  A    between atoms: C_4  and  C_10 
REMARK    4  A    between atoms: C_20  and  C_5 
REMARK    5  A    between atoms: C_21  and  C_20 
REMARK    6  A    between atoms: C_24  and  C_21 
REMARK    7  A    between atoms: C_22  and  C_23 
REMARK    8  A    between atoms: C_23  and  C_24 
ROOT
ATOM      1  C   UNL d   1       0.179  -0.779  -1.143  0.00  0.00     0.049 A 
ATOM      2  N   UNL d   1      -1.715  -0.819  -2.664  0.00  0.00    -0.373 N 
ATOM      3  HN  UNL d   1      -2.506  -0.350  -3.107  1.00  0.00     0.164 HD
ATOM      4  C   UNL d   1       0.504  -2.095  -1.480  0.00  0.00     0.040 A 
ATOM      5  C   UNL d   1      -0.308  -2.763  -2.394  0.00  0.00     0.034 A 
ATOM      6  C   UNL d   1      -0.912  -0.188  -1.776  0.00  0.00     0.104 A 
ATOM      7  C   UNL d   1      -1.405  -2.111  -2.929  0.00  0.00     0.108 A 
ENDROOT
BRANCH   1   8
ATOM      8  C   UNL d   1       0.854  -0.031  -0.058  0.00  0.00     0.257 C 
ATOM      9  N   UNL d   1       2.192  -0.316   0.177  0.00  0.00    -0.323 N 
ATOM     10  H   UNL d   1       2.686  -0.900  -0.484  0.00  0.00     0.169 HD
ATOM     11  O   UNL d   1       0.174   0.792   0.546  0.00  0.00    -0.267 OA
BRANCH   9  12
ATOM     12  C   UNL d   1       2.950   0.162   1.275  0.00  0.00     0.035 A 
ATOM     13  C   UNL d   1       2.357   0.749   2.397  0.00  0.00     0.031 A 
ATOM     14  C   UNL d   1       3.111   1.091   3.519  0.00  0.00     0.026 A 
ATOM     15  C   UNL d   1       4.480   0.860   3.525  0.00  0.00     0.034 A 
ATOM     16  C   UNL d   1       5.103   0.325   2.400  0.00  0.00     0.026 A 
ATOM     17 CL   UNL d   1       5.396   1.208   4.939  0.00  0.00    -0.084 Cl
ATOM     18  C   UNL d   1       4.341  -0.018   1.272  0.00  0.00     0.031 A 
ENDBRANCH   9  12
ENDBRANCH   1   8
BRANCH   5  19
ATOM     19  C   UNL d   1      -0.037  -4.108  -2.787  0.00  0.00    -0.066 C 
ATOM     20  C   UNL d   1       0.142  -5.221  -3.183  0.00  0.00    -0.101 C 
BRANCH  20  21
ATOM     21  C   UNL d   1       0.360  -6.580  -3.687  0.00  0.00     0.094 C 
BRANCH  21  22
ATOM     22  C   UNL d   1       1.384  -7.290  -2.814  0.00  0.00     0.012 C 
BRANCH  22  23
ATOM     23  C   UNL d   1       1.634  -8.709  -3.309  0.00  0.00     0.001 C 
BRANCH  23  24
ATOM     24  C   UNL d   1       2.658  -9.403  -2.419  0.00  0.00    -0.000 C 
BRANCH  24  25
ATOM     25  C   UNL d   1       2.925 -10.824  -2.899  0.00  0.00    -0.005 C 
ATOM     26  C   UNL d   1       3.946 -11.511  -2.010  0.00  0.00     0.005 C 
ENDBRANCH  24  25
ENDBRANCH  23  24
ENDBRANCH  22  23
ENDBRANCH  21  22
ENDBRANCH  20  21
ENDBRANCH   5  19
TORSDOF 8
