REMARK  3 active torsions:
REMARK  status: ('A' for Active; 'I' for Inactive)
REMARK    1  A    between atoms: C_4  and  C_1 
REMARK       I    between atoms: C_2  and  N_3 
REMARK    2  A    between atoms: C_5  and  C_2 
REMARK    3  A    between atoms: N_3  and  C_6 
ROOT
ATOM      1  C   UNL d   1       3.328  -4.552   0.177  0.00  0.00     0.256 C 
ATOM      2  N   UNL d   1       2.053  -4.731  -0.331  0.00  0.00    -0.323 N 
ATOM      3  O   UNL d   1       3.889  -3.486   0.396  0.00  0.00    -0.267 OA
ATOM      4  H   UNL d   1       1.723  -5.679  -0.444  0.00  0.00     0.169 HD
ENDROOT
BRANCH   2   5
ATOM      5  C   UNL d   1       1.080  -3.729  -0.544  0.00  0.00     0.035 A 
ATOM      6  C   UNL d   1       1.288  -2.377  -0.261  0.00  0.00     0.045 A 
ATOM      7  C   UNL d   1       0.241  -1.446  -0.364  0.00  0.00     0.050 A 
ATOM      8  C   UNL d   1      -1.012  -1.875  -0.822  0.00  0.00     0.016 A 
ATOM      9  C   UNL d   1      -1.218  -3.215  -1.148  0.00  0.00     0.003 A 
ATOM     10  C   UNL d   1      -0.180  -4.137  -0.998  0.00  0.00     0.029 A 
BRANCH   7  11
ATOM     11  C   UNL d   1       0.443  -0.015   0.069  0.00  0.00     0.417 C 
ATOM     12  F   UNL d   1       1.697   0.259   0.520  0.00  0.00    -0.166 F 
ATOM     13  F   UNL d   1      -0.398   0.334   1.084  0.00  0.00    -0.166 F 
ATOM     14  F   UNL d   1       0.203   0.875  -0.933  0.00  0.00    -0.166 F 
ENDBRANCH   7  11
ENDBRANCH   2   5
BRANCH   1  15
ATOM     15  C   UNL d   1       4.052  -5.803   0.545  0.00  0.00     0.032 A 
ATOM     16  C   UNL d   1       3.904  -6.999  -0.168  0.00  0.00     0.018 A 
ATOM     17  C   UNL d   1       4.575  -8.150   0.259  0.00  0.00     0.025 A 
ATOM     18  C   UNL d   1       5.399  -8.101   1.385  0.00  0.00     0.034 A 
ATOM     19  C   UNL d   1       5.575  -6.908   2.080  0.00  0.00     0.025 A 
ATOM     20 CL   UNL d   1       6.202  -9.526   1.918  0.00  0.00    -0.084 Cl
ATOM     21  C   UNL d   1       4.905  -5.758   1.658  0.00  0.00     0.018 A 
ENDBRANCH   1  15
TORSDOF 3
