REMARK  2 active torsions:
REMARK  status: ('A' for Active; 'I' for Inactive)
REMARK    1  A    between atoms: C_6  and  N_1 
REMARK    2  A    between atoms: C_10  and  C_6 
ROOT
ATOM      1  N   UNL d   1       1.520  -1.093   0.008  0.00  0.00    -0.286 N 
ATOM      2  C   UNL d   1       1.164  -0.339   1.106  0.00  0.00     0.373 A 
ATOM      3  C   UNL d   1       1.332  -0.315  -1.113  0.00  0.00     0.074 A 
ATOM      4  O   UNL d   1       0.711   0.931   0.725  0.00  0.00    -0.259 OA
ATOM      5  C   UNL d   1       0.837   0.889  -0.654  0.00  0.00     0.107 A 
ATOM      6  O   UNL d   1       1.228  -0.693   2.277  0.00  0.00    -0.237 OA
ATOM      7  C   UNL d   1       1.541  -0.558  -2.453  0.00  0.00     0.039 A 
ATOM      8  C   UNL d   1       0.515   1.918  -1.511  0.00  0.00     0.040 A 
ATOM      9  C   UNL d   1       1.218   0.467  -3.357  0.00  0.00    -0.060 A 
ATOM     10  C   UNL d   1       0.705   1.698  -2.878  0.00  0.00     0.009 A 
ATOM     11  C   UNL d   1       1.404   0.276  -4.835  0.00  0.00     0.048 C 
ENDROOT
BRANCH   1  12
ATOM     12  C   UNL d   1       2.100  -2.413   0.051  0.00  0.00     0.173 C 
BRANCH  12  13
ATOM     13  C   UNL d   1       3.611  -2.378   0.026  0.00  0.00    -0.039 A 
ATOM     14  C   UNL d   1       4.317  -1.712   1.040  0.00  0.00     0.015 A 
ATOM     15  C   UNL d   1       5.707  -1.567   0.980  0.00  0.00    -0.061 A 
ATOM     16  C   UNL d   1       6.430  -0.737   1.998  0.00  0.00     0.048 C 
ATOM     17  C   UNL d   1       6.405  -2.154  -0.080  0.00  0.00     0.007 A 
ATOM     18  C   UNL d   1       5.721  -2.868  -1.064  0.00  0.00     0.001 A 
ATOM     19  C   UNL d   1       4.330  -2.974  -1.018  0.00  0.00     0.009 A 
ENDBRANCH  12  13
ENDBRANCH   1  12
TORSDOF 2
