REMARK  3 active torsions:
REMARK  status: ('A' for Active; 'I' for Inactive)
REMARK    1  A    between atoms: N_2  and  C_1 
REMARK    2  A    between atoms: C_15  and  C_8 
REMARK    3  A    between atoms: C_16  and  C_15 
ROOT
ATOM      1  C   UNL d   1       0.176   1.347  -0.001  0.00  0.00     0.679 A 
ATOM      2  N   UNL d   1       1.288   0.595  -0.074  0.00  0.00    -0.201 N 
ATOM      3  HN  UNL d   1       2.210   1.029  -0.114  1.00  0.00     0.183 HD
ATOM      4  N   UNL d   1      -1.051   0.799   0.033  0.00  0.00    -0.201 N 
ATOM      5  HN  UNL d   1      -1.886   1.382   0.068  1.00  0.00     0.183 HD
ATOM      6  C   UNL d   1      -0.059  -1.392  -0.043  0.00  0.00    -0.026 A 
ATOM      7  C   UNL d   1       1.153  -0.743  -0.094  0.00  0.00     0.114 A 
ATOM      8  C   UNL d   1      -1.142  -0.547   0.018  0.00  0.00     0.114 A 
ENDROOT
BRANCH   1   9
ATOM      9  N   UNL d   1       0.308   2.725   0.137  0.00  0.00    -0.216 N 
ATOM     10  C   UNL d   1      -0.819   3.530  -0.349  0.00  0.00     0.151 C 
ATOM     11  C   UNL d   1      -0.862   4.892   0.354  0.00  0.00     0.094 C 
ATOM     12  S   UNL d   1       0.656   5.873   0.088  0.00  0.00    -0.166 SA
ATOM     13  C   UNL d   1       1.855   4.597   0.600  0.00  0.00     0.094 C 
ATOM     14  C   UNL d   1       1.646   3.267  -0.130  0.00  0.00     0.151 C 
ENDBRANCH   1   9
BRANCH   6  15
ATOM     15  C   UNL d   1      -0.163  -2.884  -0.026  0.00  0.00     0.041 C 
BRANCH  15  16
ATOM     16  C   UNL d   1      -0.972  -3.477  -1.182  0.00  0.00     0.000 C 
ATOM     17  C   UNL d   1      -0.360  -3.192  -2.546  0.00  0.00     0.005 C 
ENDBRANCH  15  16
ENDBRANCH   6  15
TORSDOF 3
