REMARK  5 active torsions:
REMARK  status: ('A' for Active; 'I' for Inactive)
REMARK    1  A    between atoms: C_3  and  C_1 
REMARK    2  A    between atoms: C_6  and  C_2 
REMARK       I    between atoms: N_8  and  C_3 
REMARK    3  A    between atoms: C_10  and  N_8 
REMARK    4  A    between atoms: N_12  and  C_11 
REMARK       I    between atoms: C_14  and  N_12 
REMARK    5  A    between atoms: O_23  and  C_19 
ROOT
ATOM      1  C   UNL d   1       0.201  -2.440   0.501  0.00  0.00     0.261 C 
ATOM      2  N   UNL d   1      -0.580  -3.587   0.432  0.00  0.00    -0.321 N 
ATOM      3  O   UNL d   1      -0.121  -1.351   0.029  0.00  0.00    -0.267 OA
ATOM      4  H   UNL d   1      -0.454  -4.243   1.192  0.00  0.00     0.169 HD
ENDROOT
BRANCH   1   5
ATOM      5  C   UNL d   1       1.417  -2.592   1.295  0.00  0.00     0.093 A 
ATOM      6  C   UNL d   1       2.110  -1.653   2.148  0.00  0.00     0.085 A 
ATOM      7  N   UNL d   1       3.186  -2.253   2.687  0.00  0.00    -0.259 N 
ATOM      8  O   UNL d   1       3.255  -3.513   2.171  0.00  0.00    -0.241 OA
ATOM      9  HN  UNL d   1       3.833  -1.841   3.360  1.00  0.00     0.195 HD
ATOM     10  C   UNL d   1       2.201  -3.730   1.353  0.00  0.00     0.090 A 
ATOM     11  C   UNL d   1       2.166  -5.071   0.736  0.00  0.00     0.080 C 
BRANCH   6  12
ATOM     12  C   UNL d   1       1.777  -0.286   2.599  0.00  0.00     0.015 A 
ATOM     13  C   UNL d   1       2.759   0.695   2.859  0.00  0.00     0.046 A 
ATOM     14 CL   UNL d   1       4.436   0.513   2.452  0.00  0.00    -0.083 Cl
ATOM     15  C   UNL d   1       2.416   1.917   3.463  0.00  0.00     0.025 A 
ATOM     16  C   UNL d   1       1.093   2.195   3.791  0.00  0.00     0.002 A 
ATOM     17  C   UNL d   1       0.106   1.256   3.506  0.00  0.00     0.001 A 
ATOM     18  C   UNL d   1       0.444   0.027   2.921  0.00  0.00     0.015 A 
ENDBRANCH   6  12
ENDBRANCH   1   5
BRANCH   2  19
ATOM     19  C   UNL d   1      -1.837  -3.628  -0.217  0.00  0.00     0.064 A 
ATOM     20  C   UNL d   1      -2.058  -3.227  -1.546  0.00  0.00     0.061 A 
ATOM     21  C   UNL d   1      -3.375  -3.108  -2.013  0.00  0.00     0.035 A 
ATOM     22  C   UNL d   1      -4.459  -3.442  -1.196  0.00  0.00     0.039 A 
ATOM     23  C   UNL d   1      -4.239  -3.908   0.098  0.00  0.00     0.070 A 
ATOM     24  C   UNL d   1      -2.928  -4.024   0.571  0.00  0.00     0.068 A 
BRANCH  20  25
ATOM     25  N   UNL d   1      -1.041  -2.984  -2.497  0.00  0.00    -0.326 N 
ATOM     26  C   UNL d   1       0.067  -3.796  -2.665  0.00  0.00     0.218 C 
ATOM     27  O   UNL d   1       0.299  -4.836  -2.059  0.00  0.00    -0.274 OA
ATOM     28  C   UNL d   1       1.002  -3.298  -3.741  0.00  0.00     0.117 C 
ATOM     29  H   UNL d   1      -1.308  -2.436  -3.303  0.00  0.00     0.169 HD
ENDBRANCH  20  25
BRANCH  23  30
ATOM     30  O   UNL d   1      -5.207  -4.266   0.996  0.00  0.00    -0.356 OA
ATOM     31  C   UNL d   1      -6.552  -3.960   0.648  0.00  0.00     0.210 C 
ENDBRANCH  23  30
ENDBRANCH   2  19
TORSDOF 5
