REMARK  9 active torsions:
REMARK  status: ('A' for Active; 'I' for Inactive)
REMARK    1  A    between atoms: C_2  and  C_1 
REMARK    2  A    between atoms: C_7  and  C_1 
REMARK    3  A    between atoms: C_9  and  C_1 
REMARK    4  A    between atoms: O_11  and  C_1 
REMARK    5  A    between atoms: N_4  and  C_3 
REMARK       I    between atoms: C_5  and  N_4 
REMARK    6  A    between atoms: C_6  and  C_5 
REMARK    7  A    between atoms: C_14  and  C_7 
REMARK    8  A    between atoms: C_12  and  C_8 
REMARK    9  A    between atoms: O_20  and  C_13 
ROOT
ATOM      1  C   UNL d   1      -0.376  -0.359  -1.301  0.00  0.00     0.008 A 
ATOM      2  C   UNL d   1      -1.157  -1.546  -1.146  0.00  0.00     0.044 A 
ATOM      3  C   UNL d   1      -0.550   0.377  -2.521  0.00  0.00     0.013 A 
ATOM      4  C   UNL d   1      -1.917  -1.977  -2.264  0.00  0.00     0.030 A 
ATOM      5  C   UNL d   1      -1.333  -0.063  -3.582  0.00  0.00     0.001 A 
ATOM      6  C   UNL d   1      -1.996  -1.262  -3.464  0.00  0.00     0.002 A 
ENDROOT
BRANCH   1   7
ATOM      7  C   UNL d   1       0.681   0.253  -0.329  0.00  0.00     0.118 C 
BRANCH   7   8
ATOM      8  C   UNL d   1       1.859  -0.752   0.055  0.00  0.00     0.086 C 
BRANCH   8   9
ATOM      9  C   UNL d   1       2.294  -1.839  -0.927  0.00  0.00    -0.055 A 
ATOM     10  C   UNL d   1       2.745  -3.070  -0.412  0.00  0.00     0.007 A 
ATOM     11  C   UNL d   1       3.166  -4.099  -1.260  0.00  0.00     0.001 A 
ATOM     12  C   UNL d   1       3.143  -3.918  -2.638  0.00  0.00     0.000 A 
ATOM     13  C   UNL d   1       2.721  -2.701  -3.165  0.00  0.00     0.001 A 
ATOM     14  C   UNL d   1       2.322  -1.664  -2.316  0.00  0.00     0.007 A 
ENDBRANCH   8   9
ENDBRANCH   7   8
BRANCH   7  15
ATOM     15  C   UNL d   1       0.033   1.052   0.833  0.00  0.00    -0.019 A 
ATOM     16  C   UNL d   1      -1.360   1.294   0.883  0.00  0.00     0.010 A 
ATOM     17  C   UNL d   1      -1.971   1.829   2.020  0.00  0.00     0.001 A 
ATOM     18  C   UNL d   1      -1.199   2.187   3.118  0.00  0.00     0.000 A 
ATOM     19  C   UNL d   1       0.185   2.043   3.063  0.00  0.00     0.001 A 
ATOM     20  C   UNL d   1       0.797   1.489   1.931  0.00  0.00     0.010 A 
ENDBRANCH   7  15
BRANCH   7  21
ATOM     21  O   UNL d   1       1.376   1.347  -1.018  0.00  0.00    -0.380 OA
ATOM     22  H   UNL d   1       2.224   1.004  -1.338  0.00  0.00     0.211 HD
ENDBRANCH   7  21
ENDBRANCH   1   7
BRANCH   2  23
ATOM     23  N   UNL d   1      -1.382  -2.389   0.003  0.00  0.00    -0.323 N 
ATOM     24  C   UNL d   1      -1.014  -2.212   1.301  0.00  0.00     0.245 C 
ATOM     25  O   UNL d   1      -0.269  -1.337   1.706  0.00  0.00    -0.268 OA
ATOM     26  H   UNL d   1      -1.995  -3.174  -0.161  0.00  0.00     0.169 HD
BRANCH  24  27
ATOM     27  C   UNL d   1      -1.564  -3.159   2.323  0.00  0.00     0.075 C 
ATOM     28  C   UNL d   1      -1.084  -2.936   3.562  0.00  0.00     0.017 C 
BRANCH  28  29
ATOM     29  C   UNL d   1      -1.325  -3.546   4.870  0.00  0.00    -0.036 A 
ATOM     30  C   UNL d   1      -0.256  -3.484   5.782  0.00  0.00     0.014 A 
ATOM     31  C   UNL d   1      -0.415  -3.848   7.118  0.00  0.00     0.037 A 
ATOM     32  C   UNL d   1      -1.654  -4.288   7.568  0.00  0.00     0.068 A 
ATOM     33  C   UNL d   1      -2.723  -4.359   6.665  0.00  0.00     0.037 A 
ATOM     34  C   UNL d   1      -2.564  -3.992   5.319  0.00  0.00     0.014 A 
BRANCH  32  35
ATOM     35  O   UNL d   1      -1.943  -4.647   8.857  0.00  0.00    -0.356 OA
ATOM     36  C   UNL d   1      -0.838  -4.741   9.751  0.00  0.00     0.210 C 
ENDBRANCH  32  35
ENDBRANCH  28  29
ENDBRANCH  24  27
ENDBRANCH   2  23
TORSDOF 9
