REMARK  1 active torsions:
REMARK  status: ('A' for Active; 'I' for Inactive)
REMARK    1  A    between atoms: N_8  and  C_6 
ROOT
ATOM      1  C   UNL d   1      -0.013   1.778  -0.008  0.00  0.00     0.195 A 
ATOM      2  C   UNL d   1      -1.203   0.893  -0.012  0.00  0.00     0.047 A 
ATOM      3  C   UNL d   1      -0.735  -0.435   0.011  0.00  0.00    -0.009 A 
ATOM      4  C   UNL d   1       1.172   0.893  -0.009  0.00  0.00     0.026 A 
ATOM      5  C   UNL d   1       0.712  -0.434   0.004  0.00  0.00    -0.011 A 
ATOM      6  C   UNL d   1      -2.548   1.234   0.001  0.00  0.00     0.021 A 
ATOM      7  O   UNL d   1      -0.005   2.993   0.027  0.00  0.00    -0.287 OA
ATOM      8  C   UNL d   1      -1.640  -1.482   0.029  0.00  0.00     0.013 A 
ATOM      9  C   UNL d   1       2.511   1.230  -0.010  0.00  0.00     0.016 A 
ATOM     10  C   UNL d   1       1.626  -1.474   0.008  0.00  0.00     0.013 A 
ATOM     11  C   UNL d   1      -3.004  -1.173   0.009  0.00  0.00     0.003 A 
ATOM     12  C   UNL d   1      -3.449   0.165  -0.025  0.00  0.00     0.024 A 
ATOM     13  C   UNL d   1       2.991  -1.158   0.002  0.00  0.00     0.001 A 
ATOM     14  C   UNL d   1       3.430   0.180  -0.005  0.00  0.00     0.001 A 
ENDROOT
BRANCH   6  15
ATOM     15  N   UNL d   1      -2.994   2.543  -0.193  0.00  0.00    -0.302 NA
ATOM     16  H   UNL d   1      -2.285   3.243   0.043  0.00  0.00     0.124 HD
ATOM     17  H   UNL d   1      -3.905   2.753   0.199  0.00  0.00     0.124 HD
ENDBRANCH   6  15
TORSDOF 1
