REMARK  5 active torsions:
REMARK  status: ('A' for Active; 'I' for Inactive)
REMARK    1  A    between atoms: N_4  and  S_1 
REMARK    2  A    between atoms: C_6  and  S_1 
REMARK    3  A    between atoms: N_3  and  C_2 
REMARK    4  A    between atoms: C_5  and  N_4 
REMARK    5  A    between atoms: O_20  and  C_15 
ROOT
ATOM      1  N   UNL d   1       0.684   1.643  -0.103  0.00  0.00    -0.179 NA
ATOM      2  H   UNL d   1      -0.241   1.796  -0.507  0.00  0.00     0.146 HD
ENDROOT
BRANCH   1   3
ATOM      3  S   UNL d   1       0.886  -0.034   0.174  0.00  0.00     0.245 S 
ATOM      4  O   UNL d   1      -0.201  -0.429   1.049  0.00  0.00    -0.206 OA
ATOM      5  O   UNL d   1       2.265  -0.284   0.508  0.00  0.00    -0.206 OA
BRANCH   3   6
ATOM      6  C   UNL d   1       0.564  -0.729  -1.429  0.00  0.00     0.074 A 
ATOM      7  C   UNL d   1       1.351  -0.343  -2.516  0.00  0.00     0.025 A 
ATOM      8  C   UNL d   1       1.112  -0.911  -3.771  0.00  0.00     0.008 A 
ATOM      9  C   UNL d   1       0.097  -1.865  -3.943  0.00  0.00    -0.062 A 
ATOM     10  C   UNL d   1      -0.685  -2.239  -2.844  0.00  0.00     0.008 A 
ATOM     11  C   UNL d   1      -0.132  -2.479  -5.295  0.00  0.00     0.048 C 
ATOM     12  C   UNL d   1      -0.455  -1.674  -1.587  0.00  0.00     0.025 A 
ENDBRANCH   3   6
ENDBRANCH   1   3
BRANCH   1  13
ATOM     13  C   UNL d   1       0.919   2.456   1.068  0.00  0.00     0.056 A 
ATOM     14  C   UNL d   1       2.173   2.954   1.432  0.00  0.00     0.127 A 
ATOM     15  C   UNL d   1       2.368   3.649   2.635  0.00  0.00     0.074 A 
ATOM     16  C   UNL d   1       1.294   3.855   3.502  0.00  0.00     0.070 A 
ATOM     17  C   UNL d   1       0.034   3.364   3.152  0.00  0.00     0.039 A 
ATOM     18  C   UNL d   1      -0.147   2.659   1.953  0.00  0.00     0.030 A 
BRANCH  14  19
ATOM     19  N   UNL d   1       3.298   2.869   0.524  0.00  0.00    -0.114 N 
ATOM     20  O   UNL d   1       3.154   3.366  -0.603  0.00  0.00    -0.532 OA
ATOM     21  O   UNL d   1       4.349   2.385   0.965  0.00  0.00    -0.532 OA
ENDBRANCH  14  19
BRANCH  16  22
ATOM     22  O   UNL d   1       1.601   4.540   4.642  0.00  0.00    -0.356 OA
ATOM     23  C   UNL d   1       0.545   4.777   5.568  0.00  0.00     0.210 C 
ENDBRANCH  16  22
ENDBRANCH   1  13
TORSDOF 5
