REMARK  4 active torsions:
REMARK  status: ('A' for Active; 'I' for Inactive)
REMARK    1  A    between atoms: C_12  and  C_5 
REMARK    2  A    between atoms: O_10  and  N_7 
REMARK    3  A    between atoms: C_9  and  O_10 
REMARK    4  A    between atoms: C_13  and  C_9 
ROOT
ATOM      1  S   UNL d   1       1.115  -1.598  -0.188  0.00  0.00    -0.042 SA
ATOM      2  C   UNL d   1       1.626   0.016   0.309  0.00  0.00     0.099 C 
ATOM      3  C   UNL d   1       0.418  -1.323  -1.768  0.00  0.00     0.156 C 
ATOM      4  N   UNL d   1       0.509   1.066  -1.619  0.00  0.00    -0.222 NA
ATOM      5  C   UNL d   1       0.814   1.219  -0.177  0.00  0.00     0.168 C 
ATOM      6  N   UNL d   1      -0.245  -0.099  -1.924  0.00  0.00    -0.300 N 
ATOM      7  N   UNL d   1       2.584  -0.060   1.180  0.00  0.00    -0.253 N 
ATOM      8  HN  UNL d   1       3.047  -0.944   1.393  1.00  0.00     0.195 HD
ATOM      9  S   UNL d   1       0.433  -2.579  -2.886  0.00  0.00    -0.051 SA
ATOM     10  C   UNL d   1      -1.271   0.070  -2.961  0.00  0.00     0.173 C 
ATOM     11  H   UNL d   1      -0.009   1.897  -1.915  0.00  0.00     0.148 HD
ENDROOT
BRANCH   5  12
ATOM     12  C   UNL d   1       1.443   2.600   0.014  0.00  0.00    -0.032 A 
ATOM     13  C   UNL d   1       2.425   3.085  -0.872  0.00  0.00     0.011 A 
ATOM     14  C   UNL d   1       2.915   4.388  -0.758  0.00  0.00     0.024 A 
ATOM     15  C   UNL d   1       2.452   5.212   0.263  0.00  0.00     0.034 A 
ATOM     16  C   UNL d   1       1.514   4.739   1.178  0.00  0.00     0.024 A 
ATOM     17 CL   UNL d   1       3.029   6.828   0.387  0.00  0.00    -0.084 Cl
ATOM     18  C   UNL d   1       1.007   3.441   1.053  0.00  0.00     0.011 A 
ENDBRANCH   5  12
BRANCH   7  19
ATOM     19  O   UNL d   1       2.947   1.132   1.812  0.00  0.00    -0.194 OA
BRANCH  19  20
ATOM     20  C   UNL d   1       4.301   1.108   1.993  0.00  0.00     0.315 C 
ATOM     21  O   UNL d   1       5.127   0.676   1.196  0.00  0.00    -0.257 OA
BRANCH  20  22
ATOM     22  C   UNL d   1       4.683   1.647   3.325  0.00  0.00     0.041 A 
ATOM     23  C   UNL d   1       6.051   1.759   3.617  0.00  0.00     0.019 A 
ATOM     24  C   UNL d   1       6.478   2.191   4.872  0.00  0.00     0.025 A 
ATOM     25  C   UNL d   1       5.537   2.510   5.848  0.00  0.00     0.034 A 
ATOM     26  C   UNL d   1       4.173   2.398   5.576  0.00  0.00     0.025 A 
ATOM     27 CL   UNL d   1       6.059   3.035   7.400  0.00  0.00    -0.084 Cl
ATOM     28  C   UNL d   1       3.743   1.965   4.316  0.00  0.00     0.019 A 
ENDBRANCH  20  22
ENDBRANCH  19  20
ENDBRANCH   7  19
TORSDOF 4
