REMARK  2 active torsions:
REMARK  status: ('A' for Active; 'I' for Inactive)
REMARK       I    between atoms: N_2  and  C_1 
REMARK    1  A    between atoms: C_3  and  C_1 
REMARK    2  A    between atoms: C_4  and  N_2 
ROOT
ATOM      1  C   UNL d   1       1.074  -1.707   1.926  0.00  0.00     0.118 C 
ATOM      2  C   UNL d   1       0.104  -2.401   2.866  0.00  0.00    -0.029 A 
ATOM      3  C   UNL d   1      -0.208  -3.769   2.738  0.00  0.00    -0.050 A 
ATOM      4  C   UNL d   1       1.906  -2.701   1.098  0.00  0.00     0.030 C 
ATOM      5  C   UNL d   1       1.030  -3.813   0.531  0.00  0.00     0.007 C 
ATOM      6  C   UNL d   1      -0.488  -1.661   3.905  0.00  0.00     0.010 A 
ATOM      7  C   UNL d   1       0.419  -4.628   1.668  0.00  0.00     0.039 C 
ATOM      8  C   UNL d   1      -1.064  -4.373   3.672  0.00  0.00     0.007 A 
ATOM      9  C   UNL d   1      -1.345  -2.272   4.820  0.00  0.00     0.001 A 
ATOM     10  C   UNL d   1      -1.627  -3.630   4.708  0.00  0.00     0.001 A 
ENDROOT
BRANCH   1  11
ATOM     11  N   UNL d   1       0.367  -0.776   1.062  0.00  0.00    -0.348 N 
ATOM     12  C   UNL d   1       0.987   0.342   0.540  0.00  0.00     0.259 C 
ATOM     13  O   UNL d   1       2.154   0.610   0.817  0.00  0.00    -0.267 OA
ATOM     14  H   UNL d   1      -0.571  -1.002   0.758  0.00  0.00     0.163 HD
BRANCH  12  15
ATOM     15  C   UNL d   1       0.183   1.186  -0.334  0.00  0.00     0.072 A 
ATOM     16  S   UNL d   1      -1.411   0.778  -0.814  0.00  0.00    -0.097 SA
ATOM     17  C   UNL d   1      -1.585   2.224  -1.713  0.00  0.00     0.050 A 
ATOM     18  C   UNL d   1      -0.450   3.000  -1.670  0.00  0.00     0.009 A 
ATOM     19  C   UNL d   1       0.573   2.396  -0.885  0.00  0.00     0.025 A 
ENDBRANCH  12  15
ENDBRANCH   1  11
TORSDOF 2
