REMARK  3 active torsions:
REMARK  status: ('A' for Active; 'I' for Inactive)
REMARK    1  A    between atoms: C_7  and  N_1 
REMARK    2  A    between atoms: C_3  and  C_11 
REMARK       I    between atoms: N_4  and  C_3 
REMARK    3  A    between atoms: C_6  and  N_5 
ROOT
ATOM      1  C   UNL d   1      -2.374   3.566   3.043  0.00  0.00     0.253 C 
ATOM      2  N   UNL d   1      -3.548   2.985   3.516  0.00  0.00    -0.345 N 
ATOM      3  N   UNL d   1      -6.069   1.749   4.055  0.00  0.00    -0.377 N 
ATOM      4  C   UNL d   1      -3.647   1.829   4.428  0.00  0.00     0.146 C 
ATOM      5  C   UNL d   1      -4.818   3.703   3.285  0.00  0.00     0.146 C 
ATOM      6  C   UNL d   1      -4.856   0.923   4.133  0.00  0.00     0.143 C 
ATOM      7  C   UNL d   1      -6.002   2.757   2.989  0.00  0.00     0.143 C 
ATOM      8  O   UNL d   1      -2.375   4.529   2.276  0.00  0.00    -0.267 OA
ENDROOT
BRANCH   1   9
ATOM      9  C   UNL d   1      -1.042   3.010   3.412  0.00  0.00     0.032 A 
ATOM     10  C   UNL d   1      -0.068   2.921   2.405  0.00  0.00     0.019 A 
ATOM     11  C   UNL d   1       1.198   2.396   2.686  0.00  0.00     0.037 A 
ATOM     12  C   UNL d   1       1.486   1.952   3.983  0.00  0.00     0.102 A 
ATOM     13  C   UNL d   1       0.535   2.076   5.005  0.00  0.00     0.037 A 
ATOM     14  C   UNL d   1      -0.713   2.639   4.722  0.00  0.00     0.019 A 
BRANCH  12  15
ATOM     15  N   UNL d   1       2.795   1.358   4.279  0.00  0.00    -0.116 N 
ATOM     16  O   UNL d   1       2.975   0.903   5.417  0.00  0.00    -0.532 OA
ATOM     17  O   UNL d   1       3.638   1.338   3.371  0.00  0.00    -0.532 OA
ENDBRANCH  12  15
ENDBRANCH   1   9
BRANCH   3  18
ATOM     18  C   UNL d   1      -7.271   1.125   4.400  0.00  0.00     0.043 A 
ATOM     19  C   UNL d   1      -8.413   0.948   3.566  0.00  0.00     0.018 A 
ATOM     20  C   UNL d   1      -9.570   0.361   4.099  0.00  0.00     0.044 A 
ATOM     21  C   UNL d   1      -8.710   1.212   2.192  0.00  0.00     0.033 A 
ATOM     22  N   UNL d   1     -10.517   0.321   3.102  0.00  0.00    -0.365 N 
ATOM     23  C   UNL d   1      -9.669  -0.078   5.422  0.00  0.00     0.030 A 
ATOM     24  C   UNL d   1     -10.009   0.826   1.941  0.00  0.00     0.089 A 
ATOM     25  H   UNL d   1     -11.454  -0.045   3.219  0.00  0.00     0.165 HD
ATOM     26  C   UNL d   1      -8.555   0.080   6.236  0.00  0.00     0.005 A 
ATOM     27  C   UNL d   1      -7.396   0.666   5.736  0.00  0.00     0.030 A 
ENDBRANCH   3  18
TORSDOF 3
