REMARK  5 active torsions:
REMARK  status: ('A' for Active; 'I' for Inactive)
REMARK    1  A    between atoms: C_4  and  C_1 
REMARK       I    between atoms: N_7  and  C_1 
REMARK    2  A    between atoms: C_2  and  C_3 
REMARK       I    between atoms: C_3  and  N_8 
REMARK    3  A    between atoms: C_5  and  C_18 
REMARK    4  A    between atoms: C_20  and  C_6 
REMARK    5  A    between atoms: N_8  and  N_7 
ROOT
ATOM      1  C   UNL d   1      -1.062   1.911   3.117  0.00  0.00     0.050 A 
ATOM      2  N   UNL d   1      -0.776   2.195   5.513  0.00  0.00    -0.373 N 
ATOM      3  HN  UNL d   1      -1.070   1.991   6.468  1.00  0.00     0.164 HD
ATOM      4  C   UNL d   1       0.012   2.776   2.880  0.00  0.00     0.040 A 
ATOM      5  C   UNL d   1       0.705   3.320   3.966  0.00  0.00     0.034 A 
ATOM      6  C   UNL d   1      -1.422   1.670   4.441  0.00  0.00     0.104 A 
ATOM      7  C   UNL d   1       0.279   3.001   5.249  0.00  0.00     0.108 A 
ENDROOT
BRANCH   1   8
ATOM      8  C   UNL d   1      -1.820   1.210   2.047  0.00  0.00     0.271 C 
ATOM      9  N   UNL d   1      -1.167   1.004   0.849  0.00  0.00    -0.263 N 
ATOM     10  H   UNL d   1      -0.208   1.281   0.653  0.00  0.00     0.190 HD
ATOM     11  O   UNL d   1      -2.958   0.798   2.261  0.00  0.00    -0.266 OA
BRANCH   9  12
ATOM     12  N   UNL d   1      -1.799   0.239  -0.151  0.00  0.00    -0.263 N 
ATOM     13  C   UNL d   1      -1.369   0.376  -1.463  0.00  0.00     0.277 C 
ATOM     14  O   UNL d   1      -0.435   1.139  -1.727  0.00  0.00    -0.265 OA
ATOM     15  H   UNL d   1      -2.662  -0.242   0.097  0.00  0.00     0.190 HD
BRANCH  13  16
ATOM     16  C   UNL d   1      -2.054  -0.409  -2.483  0.00  0.00     0.074 A 
ATOM     17  S   UNL d   1      -3.193  -1.635  -2.116  0.00  0.00    -0.097 SA
ATOM     18  C   UNL d   1      -3.425  -2.019  -3.771  0.00  0.00     0.050 A 
ATOM     19  C   UNL d   1      -2.655  -1.232  -4.595  0.00  0.00     0.009 A 
ATOM     20  C   UNL d   1      -1.863  -0.310  -3.852  0.00  0.00     0.025 A 
ENDBRANCH  13  16
ENDBRANCH   9  12
ENDBRANCH   1   8
BRANCH   5  21
ATOM     21  C   UNL d   1       1.852   4.155   3.772  0.00  0.00    -0.060 C 
ATOM     22  C   UNL d   1       2.838   4.827   3.657  0.00  0.00    -0.061 C 
BRANCH  22  23
ATOM     23  C   UNL d   1       4.029   5.619   3.572  0.00  0.00     0.018 A 
ATOM     24  C   UNL d   1       5.100   5.357   4.431  0.00  0.00     0.020 A 
ATOM     25  C   UNL d   1       6.251   6.145   4.374  0.00  0.00     0.001 A 
ATOM     26  C   UNL d   1       6.333   7.194   3.458  0.00  0.00     0.000 A 
ATOM     27  C   UNL d   1       5.269   7.449   2.593  0.00  0.00     0.001 A 
ATOM     28  C   UNL d   1       4.117   6.662   2.648  0.00  0.00     0.020 A 
ENDBRANCH  22  23
ENDBRANCH   5  21
TORSDOF 5
