REMARK  5 active torsions:
REMARK  status: ('A' for Active; 'I' for Inactive)
REMARK    1  A    between atoms: C_7  and  C_1 
REMARK    2  A    between atoms: C_6  and  C_8 
REMARK    3  A    between atoms: C_12  and  C_7 
REMARK    4  A    between atoms: C_8  and  O_9 
REMARK    5  A    between atoms: O_9  and  C_12 
ROOT
ATOM      1  C   UNL d   1       3.867  -0.015  -0.232  0.00  0.00     0.191 C 
ATOM      2  O   UNL d   1       4.416   1.055  -0.509  0.00  0.00    -0.289 OA
ENDROOT
BRANCH   1   3
ATOM      3  C   UNL d   1       2.409  -0.137  -0.074  0.00  0.00     0.060 A 
ATOM      4  S   UNL d   1       1.744  -1.460   0.785  0.00  0.00    -0.085 SA
ATOM      5  C   UNL d   1       0.129  -0.975   0.500  0.00  0.00     0.016 A 
ATOM      6  C   UNL d   1      -1.039  -1.643   0.923  0.00  0.00     0.021 A 
ATOM      7  C   UNL d   1       0.079   0.209  -0.234  0.00  0.00    -0.010 A 
ATOM      8  C   UNL d   1      -2.284  -1.114   0.581  0.00  0.00     0.025 A 
ATOM      9  C   UNL d   1      -2.363   0.049  -0.169  0.00  0.00     0.035 A 
ATOM     10  C   UNL d   1      -1.204   0.715  -0.577  0.00  0.00     0.037 A 
ATOM     11 CL   UNL d   1      -3.904   0.683  -0.601  0.00  0.00    -0.084 Cl
ATOM     12  C   UNL d   1       1.408   0.728  -0.513  0.00  0.00    -0.029 A 
ATOM     13  C   UNL d   1       1.633   2.024  -1.237  0.00  0.00     0.050 C 
ENDBRANCH   1   3
BRANCH   1  14
ATOM     14  C   UNL d   1       4.724  -1.283  -0.024  0.00  0.00     0.263 C 
BRANCH  14  15
ATOM     15  O   UNL d   1       6.052  -1.253  -0.553  0.00  0.00    -0.310 OA
BRANCH  15  16
ATOM     16  C   UNL d   1       6.105  -1.251  -1.906  0.00  0.00     0.295 C 
ATOM     17  O   UNL d   1       5.128  -1.249  -2.641  0.00  0.00    -0.259 OA
BRANCH  16  18
ATOM     18  C   UNL d   1       7.489  -1.448  -2.415  0.00  0.00     0.061 A 
ATOM     19  C   UNL d   1       8.665  -1.029  -1.777  0.00  0.00     0.050 A 
ATOM     20 CL   UNL d   1       8.700  -0.121  -0.307  0.00  0.00    -0.083 Cl
ATOM     21  C   UNL d   1       9.912  -1.312  -2.359  0.00  0.00     0.025 A 
ATOM     22  C   UNL d   1       9.996  -1.996  -3.573  0.00  0.00     0.002 A 
ATOM     23  C   UNL d   1       8.834  -2.398  -4.221  0.00  0.00     0.001 A 
ATOM     24  C   UNL d   1       7.590  -2.125  -3.647  0.00  0.00     0.019 A 
ENDBRANCH  16  18
ENDBRANCH  15  16
ENDBRANCH  14  15
ENDBRANCH   1  14
TORSDOF 5
