REMARK  7 active torsions:
REMARK  status: ('A' for Active; 'I' for Inactive)
REMARK       I    between atoms: N_4  and  C_1 
REMARK       I    between atoms: C_2  and  N_3 
REMARK    1  A    between atoms: N_3  and  C_6 
REMARK    2  A    between atoms: C_5  and  N_4 
REMARK    3  A    between atoms: C_11  and  O_14 
REMARK    4  A    between atoms: O_13  and  C_12 
REMARK    5  A    between atoms: C_24  and  O_13 
REMARK    6  A    between atoms: O_14  and  C_23 
REMARK    7  A    between atoms: C_23  and  C_24 
ROOT
ATOM      1  C   UNL d   1       5.218   2.022   4.672  0.00  0.00     0.202 C 
ENDROOT
BRANCH   1   2
ATOM      2  O   UNL d   1       5.731   3.118   3.897  0.00  0.00    -0.349 OA
BRANCH   2   3
ATOM      3  C   UNL d   1       6.727   2.818   3.006  0.00  0.00     0.070 A 
ATOM      4  C   UNL d   1       7.733   1.889   3.260  0.00  0.00     0.066 A 
ATOM      5  C   UNL d   1       8.746   1.637   2.335  0.00  0.00     0.037 A 
ATOM      6  C   UNL d   1       8.755   2.359   1.136  0.00  0.00     0.029 A 
ATOM      7  C   UNL d   1       7.763   3.313   0.880  0.00  0.00     0.005 A 
ATOM      8  C   UNL d   1       6.754   3.545   1.818  0.00  0.00     0.037 A 
BRANCH   5   9
ATOM      9  N   UNL d   1       9.774   0.697   2.574  0.00  0.00    -0.327 N 
ATOM     10  C   UNL d   1       9.897  -0.132   3.678  0.00  0.00     0.218 C 
ATOM     11  O   UNL d   1       9.111  -0.239   4.619  0.00  0.00    -0.274 OA
ATOM     12  C   UNL d   1      11.144  -0.973   3.668  0.00  0.00     0.117 C 
ATOM     13  H   UNL d   1      10.481   0.622   1.852  0.00  0.00     0.169 HD
ENDBRANCH   5   9
ENDBRANCH   2   3
ENDBRANCH   1   2
BRANCH   1  14
ATOM     14  C   UNL d   1       4.130   1.301   3.891  0.00  0.00     0.202 C 
BRANCH  14  15
ATOM     15  O   UNL d   1       3.670   0.155   4.615  0.00  0.00    -0.349 OA
BRANCH  15  16
ATOM     16  C   UNL d   1       2.672  -0.559   3.998  0.00  0.00     0.070 A 
ATOM     17  C   UNL d   1       2.086  -0.211   2.778  0.00  0.00     0.066 A 
ATOM     18  C   UNL d   1       1.060  -0.971   2.216  0.00  0.00     0.037 A 
ATOM     19  C   UNL d   1       0.615  -2.105   2.903  0.00  0.00     0.029 A 
ATOM     20  C   UNL d   1       1.199  -2.469   4.122  0.00  0.00     0.005 A 
ATOM     21  C   UNL d   1       2.228  -1.697   4.666  0.00  0.00     0.037 A 
BRANCH  18  22
ATOM     22  N   UNL d   1       0.446  -0.636   0.986  0.00  0.00    -0.327 N 
ATOM     23  C   UNL d   1       0.769   0.433   0.157  0.00  0.00     0.218 C 
ATOM     24  O   UNL d   1       1.667   1.252   0.321  0.00  0.00    -0.274 OA
ATOM     25  C   UNL d   1      -0.106   0.528  -1.063  0.00  0.00     0.117 C 
ATOM     26  H   UNL d   1      -0.300  -1.251   0.688  0.00  0.00     0.169 HD
ENDBRANCH  18  22
ENDBRANCH  15  16
ENDBRANCH  14  15
ENDBRANCH   1  14
TORSDOF 7
