REMARK  8 active torsions:
REMARK  status: ('A' for Active; 'I' for Inactive)
REMARK    1  A    between atoms: S_16  and  C_5 
REMARK    2  A    between atoms: C_12  and  C_10 
REMARK    3  A    between atoms: C_14  and  C_11 
REMARK    4  A    between atoms: C_13  and  O_21 
REMARK       I    between atoms: N_15  and  C_13 
REMARK    5  A    between atoms: C_22  and  N_15 
REMARK    6  A    between atoms: C_26  and  S_16 
REMARK    7  A    between atoms: O_21  and  C_27 
REMARK    8  A    between atoms: C_27  and  C_26 
ROOT
ATOM      1  N   UNL d   1       0.261   0.605   0.088  0.00  0.00    -0.233 N 
ATOM      2  C   UNL d   1       0.124  -0.786   0.022  0.00  0.00     0.130 A 
ATOM      3  N   UNL d   1       1.576   0.963   0.075  0.00  0.00    -0.295 N 
ATOM      4  HN  UNL d   1       1.957   1.908   0.115  1.00  0.00     0.187 HD
ATOM      5  C   UNL d   1      -0.887   1.419   0.148  0.00  0.00     0.097 A 
ATOM      6  N   UNL d   1      -1.089  -1.414   0.021  0.00  0.00    -0.337 N 
ATOM      7  HN  UNL d   1      -1.160  -2.431  -0.015  1.00  0.00     0.167 HD
ATOM      8  C   UNL d   1       1.396  -1.298  -0.020  0.00  0.00     0.077 A 
ATOM      9  C   UNL d   1      -2.104   0.846   0.108  0.00  0.00     0.073 A 
ATOM     10  C   UNL d   1      -2.154  -0.657   0.069  0.00  0.00     0.120 A 
ATOM     11  C   UNL d   1       2.264  -0.184  -0.000  0.00  0.00     0.037 A 
ENDROOT
BRANCH   5  12
ATOM     12  S   UNL d   1      -0.759   3.156   0.153  0.00  0.00    -0.108 SA
BRANCH  12  13
ATOM     13  C   UNL d   1       0.153   3.498   1.704  0.00  0.00     0.108 C 
BRANCH  13  14
ATOM     14  C   UNL d   1       0.275   5.021   1.870  0.00  0.00     0.191 C 
BRANCH  14  15
ATOM     15  O   UNL d   1       1.097   5.430   2.983  0.00  0.00    -0.303 OA
BRANCH  15  16
ATOM     16  C   UNL d   1       0.538   5.282   4.223  0.00  0.00     0.365 C 
ATOM     17  N   UNL d   1       1.235   5.782   5.286  0.00  0.00    -0.303 N 
ATOM     18  H   UNL d   1       0.793   5.514   6.156  0.00  0.00     0.171 HD
ATOM     19  O   UNL d   1      -0.536   4.715   4.410  0.00  0.00    -0.238 OA
BRANCH  17  20
ATOM     20  C   UNL d   1       2.456   6.473   5.402  0.00  0.00     0.036 A 
ATOM     21  C   UNL d   1       3.197   6.937   4.318  0.00  0.00     0.029 A 
ATOM     22  C   UNL d   1       4.487   7.448   4.512  0.00  0.00     0.002 A 
ATOM     23  C   UNL d   1       5.019   7.553   5.795  0.00  0.00     0.000 A 
ATOM     24  C   UNL d   1       4.240   7.202   6.894  0.00  0.00     0.002 A 
ATOM     25  C   UNL d   1       2.962   6.671   6.697  0.00  0.00     0.029 A 
ENDBRANCH  17  20
ENDBRANCH  15  16
ENDBRANCH  14  15
ENDBRANCH  13  14
ENDBRANCH  12  13
ENDBRANCH   5  12
BRANCH  10  26
ATOM     26  C   UNL d   1      -3.541  -1.307   0.110  0.00  0.00     0.432 C 
ATOM     27  F   UNL d   1      -4.551  -0.393   0.161  0.00  0.00    -0.165 F 
ATOM     28  F   UNL d   1      -3.787  -2.083  -0.980  0.00  0.00    -0.165 F 
ATOM     29  F   UNL d   1      -3.700  -2.105   1.201  0.00  0.00    -0.165 F 
ENDBRANCH  10  26
BRANCH  11  30
ATOM     30  C   UNL d   1       3.786  -0.184  -0.012  0.00  0.00    -0.007 C 
ATOM     31  C   UNL d   1       4.315  -0.245   1.433  0.00  0.00     0.021 C 
ATOM     32  C   UNL d   1       4.328  -1.403  -0.789  0.00  0.00     0.021 C 
ATOM     33  C   UNL d   1       4.352   1.085  -0.684  0.00  0.00     0.021 C 
ENDBRANCH  11  30
TORSDOF 8
