REMARK  5 active torsions:
REMARK  status: ('A' for Active; 'I' for Inactive)
REMARK    1  A    between atoms: S_12  and  C_2 
REMARK    2  A    between atoms: C_8  and  C_3 
REMARK    3  A    between atoms: C_11  and  N_15 
REMARK    4  A    between atoms: C_25  and  S_12 
REMARK    5  A    between atoms: C_14  and  C_25 
REMARK       I    between atoms: N_15  and  C_14 
ROOT
ATOM      1  C   UNL d   1       2.356   0.691  -0.369  0.00  0.00     0.090 A 
ATOM      2  C   UNL d   1       2.278  -0.699  -0.515  0.00  0.00     0.092 A 
ATOM      3  C   UNL d   1       1.182   1.442  -0.107  0.00  0.00     0.013 A 
ATOM      4  N   UNL d   1       1.123  -1.372  -0.338  0.00  0.00    -0.352 N 
ATOM      5  HN  UNL d   1       1.105  -2.391  -0.385  1.00  0.00     0.166 HD
ATOM      6  C   UNL d   1      -0.049   0.730  -0.035  0.00  0.00    -0.022 A 
ATOM      7  C   UNL d   1      -0.012  -0.674  -0.096  0.00  0.00     0.017 A 
ATOM      8  C   UNL d   1       3.634   1.312  -0.515  0.00  0.00     0.103 C 
ATOM      9  N   UNL d   1       4.677   1.809  -0.667  0.00  0.00    -0.191 NA
ATOM     10  C   UNL d   1      -1.396   1.420   0.080  0.00  0.00     0.041 C 
ATOM     11  C   UNL d   1      -1.257  -1.526  -0.019  0.00  0.00     0.057 C 
ATOM     12  C   UNL d   1      -2.578   0.551  -0.343  0.00  0.00     0.005 C 
ATOM     13  C   UNL d   1      -2.515  -0.774   0.395  0.00  0.00     0.006 C 
ENDROOT
BRANCH   2  14
ATOM     14  S   UNL d   1       3.696  -1.690  -1.048  0.00  0.00    -0.101 SA
BRANCH  14  15
ATOM     15  C   UNL d   1       2.958  -3.348  -1.094  0.00  0.00     0.184 C 
BRANCH  15  16
ATOM     16  C   UNL d   1       3.848  -4.456  -1.642  0.00  0.00     0.231 C 
ATOM     17  N   UNL d   1       5.080  -4.102  -2.165  0.00  0.00    -0.326 N 
ATOM     18  H   UNL d   1       5.375  -3.143  -1.998  0.00  0.00     0.169 HD
ATOM     19  O   UNL d   1       3.430  -5.616  -1.583  0.00  0.00    -0.272 OA
BRANCH  17  20
ATOM     20  C   UNL d   1       6.044  -4.998  -2.694  0.00  0.00     0.037 A 
ATOM     21  C   UNL d   1       5.734  -6.302  -3.100  0.00  0.00     0.053 A 
ATOM     22  C   UNL d   1       6.741  -7.176  -3.517  0.00  0.00     0.037 A 
ATOM     23 CL   UNL d   1       6.338  -8.786  -3.976  0.00  0.00    -0.084 Cl
ATOM     24  C   UNL d   1       8.068  -6.765  -3.550  0.00  0.00     0.048 A 
ATOM     25  C   UNL d   1       8.373  -5.456  -3.193  0.00  0.00     0.037 A 
ATOM     26  C   UNL d   1       7.372  -4.566  -2.787  0.00  0.00     0.053 A 
ATOM     27 CL   UNL d   1      10.017  -4.939  -3.216  0.00  0.00    -0.084 Cl
ENDBRANCH  17  20
ENDBRANCH  15  16
ENDBRANCH  14  15
ENDBRANCH   2  14
BRANCH   3  28
ATOM     28  C   UNL d   1       1.244   2.938   0.018  0.00  0.00     0.017 C 
ATOM     29  S   UNL d   1       0.384   3.776   1.263  0.00  0.00    -0.101 SA
ATOM     30  C   UNL d   1       0.837   5.312   0.675  0.00  0.00     0.050 C 
ATOM     31  C   UNL d   1       1.775   5.212  -0.322  0.00  0.00     0.008 C 
ATOM     32  C   UNL d   1       1.986   3.856  -0.715  0.00  0.00     0.020 C 
ENDBRANCH   3  28
TORSDOF 5
