REMARK  2 active torsions:
REMARK  status: ('A' for Active; 'I' for Inactive)
REMARK    1  A    between atoms: C_2  and  C_1 
REMARK    2  A    between atoms: C_5  and  C_2 
ROOT
ATOM      1  C   UNL d   1       3.196   0.673   0.042  0.00  0.00     0.128 A 
ATOM      2  O   UNL d   1       2.735  -0.616   0.048  0.00  0.00    -0.306 OA
ATOM      3  C   UNL d   1       2.124   1.546   0.092  0.00  0.00     0.055 A 
ATOM      4  C   UNL d   1       0.945   0.760   0.069  0.00  0.00     0.002 A 
ATOM      5  C   UNL d   1       1.375  -0.561   0.054  0.00  0.00     0.086 A 
ATOM      6  C   UNL d   1      -0.437   1.023   0.052  0.00  0.00     0.038 A 
ATOM      7  C   UNL d   1       0.519  -1.661   0.034  0.00  0.00     0.040 A 
ATOM      8  C   UNL d   1      -1.319  -0.065   0.024  0.00  0.00     0.035 A 
ATOM      9  C   UNL d   1      -0.854  -1.381   0.019  0.00  0.00     0.026 A 
ATOM     10 CL   UNL d   1      -3.017   0.232  -0.008  0.00  0.00    -0.084 Cl
ENDROOT
BRANCH   1  11
ATOM     11  C   UNL d   1       4.621   0.954  -0.018  0.00  0.00     0.217 C 
ATOM     12  O   UNL d   1       5.066   2.067   0.249  0.00  0.00    -0.284 OA
BRANCH  11  13
ATOM     13  C   UNL d   1       5.559  -0.092  -0.521  0.00  0.00     0.039 A 
ATOM     14  C   UNL d   1       6.862  -0.230  -0.019  0.00  0.00     0.048 A 
ATOM     15 CL   UNL d   1       7.470   0.672   1.324  0.00  0.00    -0.083 Cl
ATOM     16  C   UNL d   1       7.735  -1.169  -0.588  0.00  0.00     0.025 A 
ATOM     17  C   UNL d   1       7.319  -1.978  -1.646  0.00  0.00     0.002 A 
ATOM     18  C   UNL d   1       6.029  -1.849  -2.148  0.00  0.00     0.001 A 
ATOM     19  C   UNL d   1       5.159  -0.905  -1.600  0.00  0.00     0.017 A 
ENDBRANCH  11  13
ENDBRANCH   1  11
TORSDOF 2
