REMARK  2 active torsions:
REMARK  status: ('A' for Active; 'I' for Inactive)
REMARK    1  A    between atoms: C_2  and  C_1 
REMARK    2  A    between atoms: O_10  and  C_2 
ROOT
ATOM      1  C   UNL d   1       1.280  -0.007  -0.022  0.00  0.00    -0.010 C 
ATOM      2  C   UNL d   1      -1.381  -0.011  -0.000  0.00  0.00    -0.044 C 
ATOM      3  C   UNL d   1       0.693   1.407  -0.311  0.00  0.00     0.013 C 
ATOM      4  C   UNL d   1       0.697  -0.976  -1.085  0.00  0.00     0.013 C 
ATOM      5  C   UNL d   1       0.707  -0.446   1.360  0.00  0.00     0.013 C 
ATOM      6  C   UNL d   1      -0.828  -0.452   1.366  0.00  0.00     0.010 C 
ATOM      7  C   UNL d   1      -0.842   1.400  -0.299  0.00  0.00     0.010 C 
ATOM      8  C   UNL d   1      -0.838  -0.974  -1.073  0.00  0.00     0.010 C 
ATOM      9  C   UNL d   1      -2.910  -0.015   0.005  0.00  0.00     0.015 C 
ENDROOT
BRANCH   1  10
ATOM     10  C   UNL d   1       2.858   0.015  -0.025  0.00  0.00     0.058 C 
ATOM     11  C   UNL d   1       3.494  -1.347   0.300  0.00  0.00     0.046 C 
ATOM     12  C   UNL d   1       3.459   0.510  -1.351  0.00  0.00     0.046 C 
BRANCH  10  13
ATOM     13  O   UNL d   1       3.318   0.944   0.970  0.00  0.00    -0.390 OA
ATOM     14  H   UNL d   1       3.145   0.565   1.847  0.00  0.00     0.210 HD
ENDBRANCH  10  13
ENDBRANCH   1  10
TORSDOF 2
