REMARK  9 active torsions:
REMARK  status: ('A' for Active; 'I' for Inactive)
REMARK    1  A    between atoms: C_3  and  S_1 
REMARK    2  A    between atoms: N_11  and  S_1 
REMARK       I    between atoms: C_2  and  N_8 
REMARK    3  A    between atoms: C_9  and  C_2 
REMARK    4  A    between atoms: C_4  and  C_9 
REMARK    5  A    between atoms: C_10  and  C_4 
REMARK    6  A    between atoms: C_14  and  C_4 
REMARK    7  A    between atoms: C_7  and  C_10 
REMARK    8  A    between atoms: O_18  and  C_7 
REMARK    9  A    between atoms: N_8  and  C_17 
ROOT
ATOM      1  C   UNL d   1      -0.654  -4.504   4.469  0.00  0.00     0.222 C 
ATOM      2  N   UNL d   1      -1.532  -5.112   5.349  0.00  0.00    -0.327 N 
ATOM      3  O   UNL d   1      -0.407  -3.302   4.437  0.00  0.00    -0.273 OA
ATOM      4  H   UNL d   1      -1.514  -6.124   5.399  0.00  0.00     0.169 HD
ENDROOT
BRANCH   1   5
ATOM      5  C   UNL d   1       0.010  -5.476   3.497  0.00  0.00     0.113 C 
BRANCH   5   6
ATOM      6  C   UNL d   1       0.754  -4.707   2.377  0.00  0.00     0.037 C 
BRANCH   6   7
ATOM      7  C   UNL d   1       2.032  -3.956   2.815  0.00  0.00     0.119 C 
BRANCH   7   8
ATOM      8  C   UNL d   1       3.077  -4.765   3.547  0.00  0.00     0.140 C 
ATOM      9  O   UNL d   1       3.026  -5.959   3.796  0.00  0.00    -0.650 OA
BRANCH   8  10
ATOM     10  O   UNL d   1       4.123  -3.998   3.941  0.00  0.00    -0.776 OA
ATOM     11  H   UNL d   1       4.030  -3.057   3.697  0.00  0.00     0.167 HD
ENDBRANCH   8  10
ENDBRANCH   7   8
ENDBRANCH   6   7
BRANCH   6  12
ATOM     12  C   UNL d   1       1.004  -5.488   1.093  0.00  0.00    -0.053 A 
ATOM     13  C   UNL d   1       0.767  -4.843  -0.138  0.00  0.00     0.007 A 
ATOM     14  C   UNL d   1       1.030  -5.479  -1.350  0.00  0.00     0.001 A 
ATOM     15  C   UNL d   1       1.537  -6.773  -1.355  0.00  0.00     0.000 A 
ATOM     16  C   UNL d   1       1.776  -7.428  -0.146  0.00  0.00     0.001 A 
ATOM     17  C   UNL d   1       1.512  -6.791   1.071  0.00  0.00     0.007 A 
ENDBRANCH   6  12
ENDBRANCH   5   6
ENDBRANCH   1   5
BRANCH   2  18
ATOM     18  C   UNL d   1      -2.477  -4.451   6.172  0.00  0.00     0.034 A 
ATOM     19  C   UNL d   1      -2.720  -3.073   6.112  0.00  0.00     0.031 A 
ATOM     20  C   UNL d   1      -3.739  -2.485   6.867  0.00  0.00     0.027 A 
ATOM     21  C   UNL d   1      -4.522  -3.278   7.703  0.00  0.00     0.074 A 
ATOM     22  C   UNL d   1      -4.281  -4.651   7.798  0.00  0.00     0.027 A 
ATOM     23  C   UNL d   1      -3.257  -5.231   7.036  0.00  0.00     0.031 A 
BRANCH  21  24
ATOM     24  S   UNL d   1      -5.911  -2.559   8.534  0.00  0.00     0.239 S 
ATOM     25  O   UNL d   1      -6.884  -3.590   8.800  0.00  0.00    -0.206 OA
ATOM     26  O   UNL d   1      -6.260  -1.314   7.889  0.00  0.00    -0.206 OA
BRANCH  24  27
ATOM     27  N   UNL d   1      -5.265  -2.137  10.024  0.00  0.00    -0.225 NA
ATOM     28  H   UNL d   1      -5.751  -2.648  10.762  0.00  0.00     0.136 HD
ATOM     29  H   UNL d   1      -5.304  -1.123  10.138  0.00  0.00     0.136 HD
ENDBRANCH  24  27
ENDBRANCH  21  24
ENDBRANCH   2  18
TORSDOF 9
