REMARK  5 active torsions:
REMARK  status: ('A' for Active; 'I' for Inactive)
REMARK       I    between atoms: N_2  and  C_1 
REMARK    1  A    between atoms: C_10  and  C_1 
REMARK    2  A    between atoms: C_11  and  N_2 
REMARK    3  A    between atoms: C_3  and  C_4 
REMARK    4  A    between atoms: S_7  and  C_10 
REMARK    5  A    between atoms: C_14  and  S_7 
ROOT
ATOM      1  C   UNL d   1       1.582  -5.276   0.571  0.00  0.00     0.009 A 
ATOM      2  C   UNL d   1       2.450  -4.232   0.897  0.00  0.00     0.017 A 
ATOM      3  C   UNL d   1       0.372  -4.986  -0.066  0.00  0.00     0.017 A 
ATOM      4  C   UNL d   1       0.871  -2.598   0.032  0.00  0.00     0.034 A 
ATOM      5  C   UNL d   1       2.094  -2.906   0.634  0.00  0.00     0.030 A 
ATOM      6  C   UNL d   1       0.021  -3.651  -0.330  0.00  0.00     0.030 A 
ENDROOT
BRANCH   4   7
ATOM      7  N   UNL d   1       0.431  -1.275  -0.202  0.00  0.00    -0.327 N 
ATOM      8  C   UNL d   1       1.125  -0.106   0.069  0.00  0.00     0.231 C 
ATOM      9  O   UNL d   1       2.300  -0.036   0.424  0.00  0.00    -0.272 OA
ATOM     10  H   UNL d   1      -0.514  -1.158  -0.554  0.00  0.00     0.169 HD
BRANCH   8  11
ATOM     11  C   UNL d   1       0.349   1.177  -0.185  0.00  0.00     0.177 C 
BRANCH  11  12
ATOM     12  S   UNL d   1      -1.389   1.133   0.356  0.00  0.00    -0.156 SA
BRANCH  12  13
ATOM     13  C   UNL d   1      -1.228   0.696   2.137  0.00  0.00     0.039 C 
ATOM     14  C   UNL d   1      -0.331   1.644   2.927  0.00  0.00     0.021 C 
ATOM     15  C   UNL d   1      -2.636   0.699   2.733  0.00  0.00     0.021 C 
ENDBRANCH  12  13
ENDBRANCH  11  12
ENDBRANCH   8  11
ENDBRANCH   4   7
BRANCH   1  16
ATOM     16  C   UNL d   1       1.994  -6.658   0.930  0.00  0.00     0.155 C 
ATOM     17  O   UNL d   1       3.190  -6.952   0.934  0.00  0.00    -0.293 OA
ATOM     18  C   UNL d   1       0.948  -7.657   1.347  0.00  0.00     0.096 C 
ENDBRANCH   1  16
TORSDOF 5
