REMARK  4 active torsions:
REMARK  status: ('A' for Active; 'I' for Inactive)
REMARK    1  A    between atoms: C_2  and  N_1 
REMARK    2  A    between atoms: N_3  and  C_9 
REMARK    3  A    between atoms: C_19  and  N_10 
REMARK    4  A    between atoms: C_16  and  C_17 
ROOT
ATOM      1  C   UNL d   1      -3.833   0.001  -0.178  0.00  0.00     0.037 A 
ATOM      2  C   UNL d   1      -4.518  -0.622   0.899  0.00  0.00     0.039 A 
ATOM      3  C   UNL d   1      -4.666   0.498  -1.211  0.00  0.00    -0.033 A 
ATOM      4  C   UNL d   1      -6.713  -0.326  -0.075  0.00  0.00     0.054 A 
ATOM      5  C   UNL d   1      -5.916  -0.811   0.961  0.00  0.00    -0.032 A 
ATOM      6  C   UNL d   1      -6.078   0.330  -1.131  0.00  0.00     0.040 A 
ATOM      7  C   UNL d   1      -4.215   1.294  -2.411  0.00  0.00     0.050 C 
ATOM      8  C   UNL d   1      -6.517  -1.510   2.147  0.00  0.00     0.050 C 
ENDROOT
BRANCH   4   9
ATOM      9  N   UNL d   1      -8.102  -0.561  -0.156  0.00  0.00    -0.300 N 
ATOM     10  N   UNL d   1      -8.729   0.049   0.739  0.00  0.00    -0.300 N 
ATOM     11  HN  UNL d   1      -8.310   0.696   1.406  1.00  0.00     0.187 HD
ATOM     12  HN  UNL d   1      -8.542  -1.156  -0.858  1.00  0.00     0.187 HD
BRANCH  10  13
ATOM     13  C   UNL d   1     -10.096  -0.287   0.694  0.00  0.00     0.048 A 
ATOM     14  C   UNL d   1     -10.682  -0.946   1.783  0.00  0.00     0.032 A 
ATOM     15  C   UNL d   1     -12.048  -1.246   1.784  0.00  0.00     0.017 A 
ATOM     16  C   UNL d   1     -12.856  -0.876   0.702  0.00  0.00     0.009 A 
ATOM     17  C   UNL d   1     -12.276  -0.238  -0.399  0.00  0.00     0.017 A 
ATOM     18  C   UNL d   1     -10.907   0.059  -0.394  0.00  0.00     0.032 A 
BRANCH  16  19
ATOM     19  C   UNL d   1     -14.313  -1.178   0.775  0.00  0.00     0.155 C 
ATOM     20  O   UNL d   1     -14.700  -2.123   1.461  0.00  0.00    -0.293 OA
ATOM     21  C   UNL d   1     -15.297  -0.290   0.056  0.00  0.00     0.096 C 
ENDBRANCH  16  19
ENDBRANCH  10  13
ENDBRANCH   4   9
BRANCH   1  22
ATOM     22  N   UNL d   1      -2.449   0.085  -0.130  0.00  0.00    -0.372 N 
ATOM     23  C   UNL d   1      -1.657  -0.545   0.957  0.00  0.00     0.162 A 
ATOM     24  C   UNL d   1      -0.234  -0.339   0.544  0.00  0.00    -0.032 A 
ATOM     25  C   UNL d   1       0.927  -0.685   1.220  0.00  0.00     0.009 A 
ATOM     26  C   UNL d   1      -0.181   0.269  -0.706  0.00  0.00    -0.032 A 
ATOM     27  C   UNL d   1       2.157  -0.405   0.619  0.00  0.00     0.001 A 
ATOM     28  C   UNL d   1       2.212   0.208  -0.641  0.00  0.00     0.001 A 
ATOM     29  C   UNL d   1       1.034   0.548  -1.316  0.00  0.00     0.009 A 
ATOM     30  C   UNL d   1      -1.564   0.510  -1.228  0.00  0.00     0.162 A 
ENDBRANCH   1  22
TORSDOF 4
