REMARK  4 active torsions:
REMARK  status: ('A' for Active; 'I' for Inactive)
REMARK    1  A    between atoms: C_7  and  C_1 
REMARK    2  A    between atoms: C_2  and  S_3 
REMARK    3  A    between atoms: S_3  and  C_5 
REMARK    4  A    between atoms: C_8  and  C_6 
REMARK       I    between atoms: N_11  and  C_7 
REMARK       I    between atoms: N_13  and  C_8 
ROOT
ATOM      1  C   UNL d   1       3.068  -2.988   2.282  0.00  0.00     0.017 C 
ATOM      2  C   UNL d   1       4.241  -2.232   2.634  0.00  0.00     0.007 C 
ATOM      3  C   UNL d   1       4.372  -1.285   3.694  0.00  0.00     0.044 C 
ATOM      4  C   UNL d   1       5.407  -2.434   1.850  0.00  0.00    -0.024 C 
ATOM      5  C   UNL d   1       3.156  -4.034   1.349  0.00  0.00     0.020 C 
ATOM      6  C   UNL d   1       5.490  -0.440   3.821  0.00  0.00     0.018 C 
ATOM      7  C   UNL d   1       4.353  -4.293   0.691  0.00  0.00     0.002 C 
ATOM      8  C   UNL d   1       6.555  -0.580   2.952  0.00  0.00     0.002 C 
ATOM      9  C   UNL d   1       5.452  -3.470   0.908  0.00  0.00     0.012 C 
ATOM     10  C   UNL d   1       6.530  -1.600   2.004  0.00  0.00     0.012 C 
ENDROOT
BRANCH   1  11
ATOM     11  S   UNL d   1       1.427  -2.361   2.720  0.00  0.00    -0.089 SA
BRANCH  11  12
ATOM     12  C   UNL d   1       0.366  -3.789   2.843  0.00  0.00     0.021 A 
ATOM     13  C   UNL d   1      -0.763  -4.005   2.029  0.00  0.00     0.049 A 
ATOM     14  C   UNL d   1      -1.639  -5.069   2.318  0.00  0.00     0.018 A 
ATOM     15  C   UNL d   1      -1.394  -5.927   3.386  0.00  0.00     0.001 A 
ATOM     16  C   UNL d   1      -0.271  -5.730   4.182  0.00  0.00     0.001 A 
ATOM     17  C   UNL d   1       0.595  -4.665   3.919  0.00  0.00     0.020 A 
BRANCH  13  18
ATOM     18  C   UNL d   1      -1.141  -3.200   0.833  0.00  0.00     0.252 C 
ATOM     19  O   UNL d   1      -2.319  -2.918   0.639  0.00  0.00    -0.268 OA
ATOM     20  N   UNL d   1      -0.136  -2.926  -0.065  0.00  0.00    -0.361 N 
ATOM     21  C   UNL d   1      -0.393  -2.300  -1.339  0.00  0.00     0.149 C 
ATOM     22  H   UNL d   1       0.825  -3.082   0.204  0.00  0.00     0.162 HD
ENDBRANCH  13  18
ENDBRANCH  11  12
ENDBRANCH   1  11
BRANCH   3  23
ATOM     23  C   UNL d   1       3.547  -1.350   4.927  0.00  0.00     0.252 C 
ATOM     24  O   UNL d   1       2.975  -0.357   5.353  0.00  0.00    -0.268 OA
ATOM     25  N   UNL d   1       3.671  -2.552   5.600  0.00  0.00    -0.361 N 
ATOM     26  C   UNL d   1       3.320  -2.678   6.992  0.00  0.00     0.149 C 
ATOM     27  H   UNL d   1       4.305  -3.242   5.218  0.00  0.00     0.162 HD
ENDBRANCH   3  23
TORSDOF 4
