REMARK  3 active torsions:
REMARK  status: ('A' for Active; 'I' for Inactive)
REMARK    1  A    between atoms: N_12  and  C_1 
REMARK    2  A    between atoms: N_6  and  N_12 
REMARK    3  A    between atoms: C_9  and  C_16 
ROOT
ATOM      1  N   UNL d   1       0.233  -2.697   0.152  0.00  0.00    -0.298 N 
ATOM      2  H   UNL d   1       0.653  -2.941  -0.749  0.00  0.00     0.187 HD
ENDROOT
BRANCH   1   3
ATOM      3  N   UNL d   1      -0.711  -3.541   0.648  0.00  0.00    -0.315 N 
ATOM      4  C   UNL d   1      -1.353  -4.215  -0.252  0.00  0.00     0.085 C 
ATOM      5  HN  UNL d   1      -0.897  -3.636   1.647  1.00  0.00     0.185 HD
BRANCH   4   6
ATOM      6  C   UNL d   1      -2.416  -5.210   0.145  0.00  0.00     0.034 C 
ATOM      7  C   UNL d   1      -3.740  -5.064  -0.646  0.00  0.00     0.017 C 
ATOM      8  C   UNL d   1      -3.471  -5.163  -2.134  0.00  0.00    -0.025 C 
ATOM      9  C   UNL d   1      -4.337  -6.463  -0.440  0.00  0.00     0.017 C 
ATOM     10  C   UNL d   1      -3.089  -6.424  -2.385  0.00  0.00    -0.026 C 
ATOM     11  C   UNL d   1      -3.137  -7.175  -1.074  0.00  0.00     0.009 C 
ATOM     12  C   UNL d   1      -1.983  -6.669  -0.183  0.00  0.00     0.019 C 
ENDBRANCH   4   6
ENDBRANCH   1   3
BRANCH   1  13
ATOM     13  C   UNL d   1       1.222  -2.201   1.050  0.00  0.00     0.094 A 
ATOM     14  C   UNL d   1       2.537  -2.031   0.568  0.00  0.00     0.079 A 
ATOM     15 CL   UNL d   1       2.959  -2.442  -1.058  0.00  0.00    -0.080 Cl
ATOM     16  C   UNL d   1       3.526  -1.540   1.413  0.00  0.00     0.114 A 
ATOM     17  N   UNL d   1       3.309  -1.190   2.697  0.00  0.00    -0.372 N 
ATOM     18  C   UNL d   1       2.038  -1.334   3.144  0.00  0.00     0.114 A 
ATOM     19  HN  UNL d   1       4.057  -0.839   3.296  1.00  0.00     0.164 HD
ATOM     20  C   UNL d   1       0.976  -1.817   2.380  0.00  0.00     0.079 A 
ATOM     21 CL   UNL d   1      -0.582  -1.833   3.126  0.00  0.00    -0.080 Cl
ENDBRANCH   1  13
TORSDOF 3
