REMARK  3 active torsions:
REMARK  status: ('A' for Active; 'I' for Inactive)
REMARK    1  A    between atoms: N_3  and  C_1 
REMARK       I    between atoms: C_2  and  N_3 
REMARK    2  A    between atoms: C_4  and  C_2 
REMARK    3  A    between atoms: O_20  and  C_17 
ROOT
ATOM      1  C   UNL d   1       1.200   1.481   3.467  0.00  0.00     0.252 C 
ATOM      2  N   UNL d   1       1.350   1.589   2.097  0.00  0.00    -0.348 N 
ATOM      3  O   UNL d   1       0.519   0.634   4.027  0.00  0.00    -0.268 OA
ATOM      4  H   UNL d   1       1.751   2.451   1.755  0.00  0.00     0.163 HD
ENDROOT
BRANCH   2   5
ATOM      5  C   UNL d   1       0.692   0.736   1.093  0.00  0.00     0.034 C 
ATOM      6  C   UNL d   1      -0.851   0.877   1.133  0.00  0.00     0.035 C 
ATOM      7  C   UNL d   1      -1.504   0.032   0.021  0.00  0.00    -0.012 C 
ATOM      8  C   UNL d   1      -0.995   0.513  -1.348  0.00  0.00     0.009 C 
ATOM      9  C   UNL d   1      -1.123  -1.446   0.215  0.00  0.00     0.009 C 
ATOM     10  C   UNL d   1       0.532   0.346  -1.425  0.00  0.00    -0.012 C 
ATOM     11  C   UNL d   1       1.183   1.183  -0.313  0.00  0.00     0.035 C 
ATOM     12  C   UNL d   1       0.896  -1.132  -1.225  0.00  0.00     0.009 C 
ATOM     13  C   UNL d   1       0.404  -1.608   0.150  0.00  0.00    -0.012 C 
ATOM     14  C   UNL d   1       1.059  -0.760   1.260  0.00  0.00     0.035 C 
ENDBRANCH   2   5
BRANCH   1  15
ATOM     15  C   UNL d   1       1.888   2.537   4.273  0.00  0.00     0.032 A 
ATOM     16  C   UNL d   1       1.286   2.988   5.455  0.00  0.00     0.020 A 
ATOM     17  C   UNL d   1       1.857   4.038   6.188  0.00  0.00     0.038 A 
ATOM     18  C   UNL d   1       3.042   4.631   5.750  0.00  0.00     0.068 A 
ATOM     19  C   UNL d   1       3.689   4.123   4.622  0.00  0.00     0.038 A 
ATOM     20  C   UNL d   1       3.114   3.086   3.878  0.00  0.00     0.020 A 
BRANCH  18  21
ATOM     21  O   UNL d   1       3.672   5.668   6.382  0.00  0.00    -0.356 OA
ATOM     22  C   UNL d   1       2.799   6.652   6.934  0.00  0.00     0.210 C 
ENDBRANCH  18  21
ENDBRANCH   1  15
TORSDOF 3
