REMARK  9 active torsions:
REMARK  status: ('A' for Active; 'I' for Inactive)
REMARK    1  A    between atoms: C_8  and  C_1 
REMARK    2  A    between atoms: C_9  and  N_6 
REMARK    3  A    between atoms: C_12  and  C_9 
REMARK    4  A    between atoms: C_10  and  N_18 
REMARK    5  A    between atoms: N_16  and  C_10 
REMARK    6  A    between atoms: O_13  and  C_11 
REMARK       I    between atoms: N_19  and  C_12 
REMARK    7  A    between atoms: C_14  and  O_13 
REMARK    8  A    between atoms: C_21  and  N_16 
REMARK    9  A    between atoms: N_18  and  N_19 
ROOT
ATOM      1  C   UNL d   1      -0.725  -1.014  -0.160  0.00  0.00     0.147 A 
ATOM      2  N   UNL d   1       0.438  -0.592  -0.703  0.00  0.00    -0.268 N 
ATOM      3  HN  UNL d   1       1.219  -1.131  -1.077  1.00  0.00     0.190 HD
ATOM      4  N   UNL d   1      -1.554   0.026   0.177  0.00  0.00    -0.266 N 
ATOM      5  HN  UNL d   1      -2.488  -0.049   0.580  1.00  0.00     0.186 HD
ATOM      6  N   UNL d   1       0.273   0.752  -0.611  0.00  0.00    -0.207 N 
ATOM      7  N   UNL d   1      -0.911   1.146  -0.120  0.00  0.00    -0.002 NA
ENDROOT
BRANCH   6   8
ATOM      8  C   UNL d   1       1.418   1.629  -0.598  0.00  0.00     0.271 C 
BRANCH   8   9
ATOM      9  C   UNL d   1       1.916   2.159  -1.911  0.00  0.00     0.253 C 
ATOM     10  N   UNL d   1       1.392   1.863  -3.131  0.00  0.00    -0.284 N 
ATOM     11  H   UNL d   1       1.864   2.303  -3.921  0.00  0.00     0.184 HD
ATOM     12  O   UNL d   1       2.882   2.937  -1.898  0.00  0.00    -0.270 OA
BRANCH  10  13
ATOM     13  N   UNL d   1       0.499   0.806  -3.444  0.00  0.00    -0.178 NA
ATOM     14  H   UNL d   1       0.722  -0.030  -2.913  0.00  0.00     0.155 HD
BRANCH  13  15
ATOM     15  C   UNL d   1       0.391   0.577  -4.796  0.00  0.00     0.169 C 
ATOM     16  S   UNL d   1      -0.688   1.430  -5.746  0.00  0.00    -0.045 SA
BRANCH  15  17
ATOM     17  N   UNL d   1       1.356  -0.161  -5.421  0.00  0.00    -0.337 N 
ATOM     18  H   UNL d   1       1.403   0.042  -6.416  0.00  0.00     0.168 HD
BRANCH  17  19
ATOM     19  C   UNL d   1       2.409  -0.935  -4.900  0.00  0.00     0.036 A 
ATOM     20  C   UNL d   1       3.600  -0.970  -5.630  0.00  0.00     0.071 A 
ATOM     21  C   UNL d   1       4.689  -1.686  -5.143  0.00  0.00     0.118 A 
ATOM     22  F   UNL d   1       5.839  -1.682  -5.831  0.00  0.00    -0.206 F 
ATOM     23  C   UNL d   1       4.608  -2.397  -3.953  0.00  0.00     0.042 A 
ATOM     24  C   UNL d   1       3.407  -2.413  -3.251  0.00  0.00     0.005 A 
ATOM     25  C   UNL d   1       2.306  -1.696  -3.731  0.00  0.00     0.029 A 
ENDBRANCH  17  19
ENDBRANCH  15  17
ENDBRANCH  13  15
ENDBRANCH  10  13
ENDBRANCH   8   9
ENDBRANCH   6   8
BRANCH   1  26
ATOM     26  C   UNL d   1      -1.007  -2.404   0.164  0.00  0.00     0.044 A 
ATOM     27  C   UNL d   1      -2.280  -2.990   0.098  0.00  0.00     0.090 A 
ATOM     28  C   UNL d   1      -2.462  -4.314   0.537  0.00  0.00     0.038 A 
ATOM     29  C   UNL d   1      -1.393  -5.070   1.012  0.00  0.00     0.003 A 
ATOM     30  C   UNL d   1      -0.124  -4.510   1.056  0.00  0.00     0.001 A 
ATOM     31  C   UNL d   1       0.067  -3.193   0.632  0.00  0.00     0.018 A 
BRANCH  27  32
ATOM     32  O   UNL d   1      -3.460  -2.384  -0.256  0.00  0.00    -0.308 OA
BRANCH  32  33
ATOM     33  C   UNL d   1      -3.590  -1.594  -1.372  0.00  0.00     0.098 A 
ATOM     34  C   UNL d   1      -3.008  -1.770  -2.634  0.00  0.00     0.069 A 
ATOM     35  C   UNL d   1      -3.315  -0.877  -3.670  0.00  0.00     0.050 A 
ATOM     36 CL   UNL d   1      -1.957  -3.081  -3.035  0.00  0.00    -0.081 Cl
ATOM     37  C   UNL d   1      -4.218   0.163  -3.458  0.00  0.00     0.035 A 
ATOM     38  C   UNL d   1      -4.824   0.327  -2.219  0.00  0.00     0.026 A 
ATOM     39 CL   UNL d   1      -4.620   1.232  -4.744  0.00  0.00    -0.084 Cl
ATOM     40  C   UNL d   1      -4.514  -0.553  -1.184  0.00  0.00     0.041 A 
ENDBRANCH  32  33
ENDBRANCH  27  32
ENDBRANCH   1  26
TORSDOF 9
