REMARK  5 active torsions:
REMARK  status: ('A' for Active; 'I' for Inactive)
REMARK    1  A    between atoms: C_2  and  C_1 
REMARK       I    between atoms: N_7  and  C_2 
REMARK    2  A    between atoms: C_3  and  N_8 
REMARK    3  A    between atoms: N_6  and  C_3 
REMARK    4  A    between atoms: C_5  and  N_6 
REMARK    5  A    between atoms: N_8  and  N_7 
ROOT
ATOM      1  N   UNL d   1       1.887   3.969  -0.553  0.00  0.00    -0.273 N 
ATOM      2  H   UNL d   1       0.980   3.688  -0.174  0.00  0.00     0.189 HD
ENDROOT
BRANCH   1   3
ATOM      3  C   UNL d   1       2.390   5.215  -0.281  0.00  0.00     0.191 C 
ATOM      4  S   UNL d   1       4.020   5.595  -0.200  0.00  0.00    -0.039 SA
BRANCH   3   5
ATOM      5  N   UNL d   1       1.480   6.213  -0.054  0.00  0.00    -0.332 N 
ATOM      6  H   UNL d   1       1.887   7.029   0.386  0.00  0.00     0.168 HD
BRANCH   5   7
ATOM      7  C   UNL d   1       0.175   6.366  -0.587  0.00  0.00     0.042 A 
ATOM      8  C   UNL d   1      -0.713   7.319  -0.040  0.00  0.00    -0.013 A 
ATOM      9  C   UNL d   1      -2.000   7.436  -0.613  0.00  0.00     0.042 A 
ATOM     10  C   UNL d   1      -0.371   8.163   1.163  0.00  0.00     0.052 C 
ATOM     11 CL   UNL d   1      -3.193   8.514   0.034  0.00  0.00    -0.084 Cl
ATOM     12  C   UNL d   1      -2.374   6.681  -1.726  0.00  0.00     0.024 A 
ATOM     13  C   UNL d   1      -1.475   5.792  -2.292  0.00  0.00     0.004 A 
ATOM     14  C   UNL d   1      -0.213   5.638  -1.725  0.00  0.00     0.030 A 
ENDBRANCH   5   7
ENDBRANCH   3   5
ENDBRANCH   1   3
BRANCH   1  15
ATOM     15  N   UNL d   1       2.708   2.937  -1.012  0.00  0.00    -0.264 N 
ATOM     16  C   UNL d   1       2.283   1.632  -0.895  0.00  0.00     0.271 C 
ATOM     17  O   UNL d   1       1.328   1.311  -0.193  0.00  0.00    -0.266 OA
ATOM     18  H   UNL d   1       3.434   3.210  -1.671  0.00  0.00     0.190 HD
BRANCH  16  19
ATOM     19  C   UNL d   1       3.051   0.594  -1.657  0.00  0.00     0.055 A 
ATOM     20  C   UNL d   1       3.814   0.832  -2.810  0.00  0.00     0.049 A 
ATOM     21 CL   UNL d   1       3.959   2.372  -3.585  0.00  0.00    -0.083 Cl
ATOM     22  C   UNL d   1       4.489  -0.225  -3.436  0.00  0.00     0.025 A 
ATOM     23  C   UNL d   1       4.399  -1.522  -2.933  0.00  0.00     0.002 A 
ATOM     24  C   UNL d   1       3.630  -1.772  -1.801  0.00  0.00     0.001 A 
ATOM     25  C   UNL d   1       2.961  -0.723  -1.167  0.00  0.00     0.019 A 
ENDBRANCH  16  19
ENDBRANCH   1  15
TORSDOF 5
