REMARK  2 active torsions:
REMARK  status: ('A' for Active; 'I' for Inactive)
REMARK    1  A    between atoms: C_5  and  N_1 
REMARK    2  A    between atoms: O_13  and  C_10 
ROOT
ATOM      1  C   UNL d   1      -0.753   2.479   0.002  0.00  0.00     0.039 A 
ATOM      2  C   UNL d   1      -0.300   3.377  -0.978  0.00  0.00     0.033 A 
ATOM      3  C   UNL d   1      -1.634   2.943   0.993  0.00  0.00     0.033 A 
ATOM      4  C   UNL d   1      -1.594   5.150   0.025  0.00  0.00     0.065 A 
ATOM      5  C   UNL d   1      -2.052   4.279   1.004  0.00  0.00     0.039 A 
ATOM      6  C   UNL d   1      -0.725   4.709  -0.964  0.00  0.00     0.039 A 
ENDROOT
BRANCH   1   7
ATOM      7  N   UNL d   1      -0.329   1.118  -0.010  0.00  0.00    -0.317 N 
ATOM      8  C   UNL d   1       0.566   0.525  -0.877  0.00  0.00     0.188 A 
ATOM      9  N   UNL d   1       0.738  -0.756  -0.637  0.00  0.00    -0.360 N 
ATOM     10  C   UNL d   1      -0.065  -1.026   0.431  0.00  0.00     0.106 A 
ATOM     11  HN  UNL d   1       1.342  -1.407  -1.140  1.00  0.00     0.166 HD
ATOM     12  C   UNL d   1      -0.726   0.108   0.842  0.00  0.00     0.115 A 
ENDBRANCH   1   7
BRANCH   4  13
ATOM     13  O   UNL d   1      -1.976   6.457  -0.002  0.00  0.00    -0.361 OA
ATOM     14  H   UNL d   1      -2.573   6.625   0.746  0.00  0.00     0.217 HD
ENDBRANCH   4  13
TORSDOF 2
