REMARK  4 active torsions:
REMARK  status: ('A' for Active; 'I' for Inactive)
REMARK    1  A    between atoms: C_2  and  C_1 
REMARK       I    between atoms: N_4  and  C_2 
REMARK    2  A    between atoms: C_6  and  C_15 
REMARK       I    between atoms: N_11  and  C_6 
REMARK    3  A    between atoms: C_15  and  N_8 
REMARK    4  A    between atoms: C_19  and  N_11 
ROOT
ATOM      1  C   UNL d   1       2.197  -0.149  -1.974  0.00  0.00     0.251 C 
ATOM      2  N   UNL d   1       1.507   0.520  -2.973  0.00  0.00    -0.346 N 
ATOM      3  N   UNL d   1      -1.013   2.069  -3.213  0.00  0.00     0.100 N 
ATOM      4  O   UNL d   1       2.728   0.499  -1.051  0.00  0.00    -0.270 OA
ATOM      5  C   UNL d   1       1.545   1.984  -3.005  0.00  0.00     0.156 C 
ATOM      6  C   UNL d   1       0.406  -0.030  -3.760  0.00  0.00     0.156 C 
ATOM      7  C   UNL d   1      -0.944   0.582  -3.305  0.00  0.00     0.293 C 
ATOM      8  C   UNL d   1       0.206   2.577  -2.524  0.00  0.00     0.293 C 
ENDROOT
BRANCH   1   9
ATOM      9  C   UNL d   1       2.285  -1.704  -1.961  0.00  0.00     0.245 C 
ATOM     10  O   UNL d   1       2.106  -2.450  -3.162  0.00  0.00    -0.331 OA
ATOM     11  C   UNL d   1       3.216  -2.410  -3.962  0.00  0.00     0.103 A 
ATOM     12  C   UNL d   1       3.054  -2.820  -5.283  0.00  0.00     0.040 A 
ATOM     13  C   UNL d   1       4.458  -1.961  -3.511  0.00  0.00     0.102 A 
ATOM     14  C   UNL d   1       4.107  -2.668  -6.185  0.00  0.00     0.003 A 
ATOM     15  C   UNL d   1       5.313  -2.107  -5.761  0.00  0.00     0.003 A 
ATOM     16  C   UNL d   1       5.495  -1.768  -4.418  0.00  0.00     0.039 A 
ATOM     17  O   UNL d   1       4.716  -1.687  -2.194  0.00  0.00    -0.345 OA
ATOM     18  C   UNL d   1       3.632  -2.108  -1.345  0.00  0.00     0.218 C 
ENDBRANCH   1   9
BRANCH   3  19
ATOM     19  C   UNL d   1      -1.195   2.646  -4.564  0.00  0.00     0.375 C 
BRANCH  19  20
ATOM     20  C   UNL d   1      -1.337   4.173  -4.594  0.00  0.00     0.250 C 
ATOM     21  N   UNL d   1      -2.092   4.723  -3.563  0.00  0.00    -0.326 N 
ATOM     22  H   UNL d   1      -2.611   4.058  -3.003  0.00  0.00     0.169 HD
ATOM     23  O   UNL d   1      -0.902   4.799  -5.556  0.00  0.00    -0.271 OA
BRANCH  21  24
ATOM     24  C   UNL d   1      -2.503   6.074  -3.567  0.00  0.00     0.034 A 
ATOM     25  C   UNL d   1      -3.809   6.375  -3.172  0.00  0.00     0.029 A 
ATOM     26  C   UNL d   1      -4.308   7.672  -3.340  0.00  0.00     0.002 A 
ATOM     27  C   UNL d   1      -3.485   8.685  -3.831  0.00  0.00     0.000 A 
ATOM     28  C   UNL d   1      -2.154   8.409  -4.133  0.00  0.00     0.002 A 
ATOM     29  C   UNL d   1      -1.667   7.106  -4.008  0.00  0.00     0.029 A 
ENDBRANCH  21  24
ENDBRANCH  19  20
ENDBRANCH   3  19
TORSDOF 4
