REMARK  3 active torsions:
REMARK  status: ('A' for Active; 'I' for Inactive)
REMARK    1  A    between atoms: C_4  and  C_2 
REMARK    2  A    between atoms: C_9  and  C_3 
REMARK       I    between atoms: N_7  and  C_4 
REMARK    3  A    between atoms: C_8  and  N_7 
ROOT
ATOM      1  C   UNL d   1      -0.206   2.675  -0.078  0.00  0.00     0.263 C 
ATOM      2  N   UNL d   1      -1.510   3.029  -0.417  0.00  0.00    -0.322 N 
ATOM      3  O   UNL d   1       0.633   3.499   0.290  0.00  0.00    -0.267 OA
ATOM      4  H   UNL d   1      -2.162   2.268  -0.565  0.00  0.00     0.169 HD
ENDROOT
BRANCH   1   5
ATOM      5  C   UNL d   1       0.164   1.265  -0.143  0.00  0.00     0.073 C 
ATOM      6  S   UNL d   1      -0.892  -0.002  -0.561  0.00  0.00    -0.088 SA
ATOM      7  C   UNL d   1       0.280  -1.226  -0.178  0.00  0.00    -0.009 C 
ATOM      8  C   UNL d   1       1.501  -0.637   0.100  0.00  0.00     0.017 C 
ATOM      9  C   UNL d   1       1.430   0.780   0.128  0.00  0.00     0.025 C 
BRANCH   7  10
ATOM     10  C   UNL d   1      -0.100  -2.712  -0.150  0.00  0.00    -0.018 C 
ATOM     11  C   UNL d   1      -0.460  -3.218  -1.558  0.00  0.00     0.020 C 
ATOM     12  C   UNL d   1       1.064  -3.584   0.381  0.00  0.00     0.020 C 
ATOM     13  C   UNL d   1      -1.299  -2.928   0.797  0.00  0.00     0.020 C 
ENDBRANCH   7  10
ENDBRANCH   1   5
BRANCH   2  14
ATOM     14  C   UNL d   1      -1.991   4.361  -0.576  0.00  0.00     0.038 A 
ATOM     15  C   UNL d   1      -1.143   5.475  -0.610  0.00  0.00     0.053 A 
ATOM     16  C   UNL d   1      -1.639   6.756  -0.859  0.00  0.00     0.037 A 
ATOM     17 CL   UNL d   1      -0.546   8.083  -0.948  0.00  0.00    -0.084 Cl
ATOM     18  C   UNL d   1      -2.996   6.962  -1.066  0.00  0.00     0.048 A 
ATOM     19  C   UNL d   1      -3.851   5.866  -0.993  0.00  0.00     0.037 A 
ATOM     20  C   UNL d   1      -3.364   4.570  -0.753  0.00  0.00     0.053 A 
ATOM     21 CL   UNL d   1      -5.541   6.114  -1.222  0.00  0.00    -0.084 Cl
ENDBRANCH   2  14
TORSDOF 3
