REMARK  5 active torsions:
REMARK  status: ('A' for Active; 'I' for Inactive)
REMARK    1  A    between atoms: C_4  and  C_1 
REMARK    2  A    between atoms: C_7  and  C_4 
REMARK    3  A    between atoms: O_15  and  C_9 
REMARK    4  A    between atoms: O_16  and  C_10 
REMARK    5  A    between atoms: O_17  and  C_11 
ROOT
ATOM      1  C   UNL d   1      -2.559   1.627  -0.386  0.00  0.00     0.193 C 
ATOM      2  O   UNL d   1      -2.583   2.522  -1.229  0.00  0.00    -0.287 OA
ENDROOT
BRANCH   1   3
ATOM      3  C   UNL d   1      -1.273   0.886  -0.163  0.00  0.00     0.028 C 
ATOM      4  C   UNL d   1      -0.084   1.637   0.038  0.00  0.00    -0.041 C 
ATOM      5  C   UNL d   1       1.169   0.971   0.045  0.00  0.00    -0.049 C 
ATOM      6  C   UNL d   1      -0.126   3.141   0.194  0.00  0.00     0.050 C 
ATOM      7  C   UNL d   1       2.474   1.743   0.038  0.00  0.00     0.049 C 
ATOM      8  C   UNL d   1       1.218  -0.448   0.030  0.00  0.00    -0.049 C 
ATOM      9  C   UNL d   1       0.018  -1.197  -0.047  0.00  0.00    -0.049 C 
ATOM     10  C   UNL d   1       2.570  -1.133   0.056  0.00  0.00     0.049 C 
ATOM     11  C   UNL d   1      -1.218  -0.529  -0.263  0.00  0.00    -0.041 C 
ATOM     12  C   UNL d   1       0.073  -2.706   0.046  0.00  0.00     0.049 C 
ATOM     13  C   UNL d   1      -2.435  -1.353  -0.620  0.00  0.00     0.050 C 
ENDBRANCH   1   3
BRANCH   1  14
ATOM     14  C   UNL d   1      -3.822   1.303   0.340  0.00  0.00     0.020 A 
ATOM     15  C   UNL d   1      -5.040   1.667  -0.265  0.00  0.00     0.055 A 
ATOM     16  C   UNL d   1      -6.266   1.300   0.298  0.00  0.00     0.105 A 
ATOM     17  C   UNL d   1      -6.271   0.569   1.502  0.00  0.00     0.135 A 
ATOM     18  C   UNL d   1      -5.051   0.232   2.129  0.00  0.00     0.105 A 
ATOM     19  C   UNL d   1      -3.835   0.612   1.552  0.00  0.00     0.055 A 
BRANCH  16  20
ATOM     20  O   UNL d   1      -7.478   1.567  -0.286  0.00  0.00    -0.353 OA
ATOM     21  C   UNL d   1      -7.496   2.341  -1.478  0.00  0.00     0.210 C 
ENDBRANCH  16  20
BRANCH  17  22
ATOM     22  O   UNL d   1      -7.405   0.060   2.099  0.00  0.00    -0.351 OA
ATOM     23  C   UNL d   1      -8.520   0.942   2.179  0.00  0.00     0.210 C 
ENDBRANCH  17  22
BRANCH  18  24
ATOM     24  O   UNL d   1      -5.148  -0.500   3.290  0.00  0.00    -0.353 OA
ATOM     25  C   UNL d   1      -3.972  -0.628   4.078  0.00  0.00     0.210 C 
ENDBRANCH  18  24
ENDBRANCH   1  14
TORSDOF 5
