REMARK  5 active torsions:
REMARK  status: ('A' for Active; 'I' for Inactive)
REMARK    1  A    between atoms: S_9  and  C_3 
REMARK    2  A    between atoms: C_12  and  C_5 
REMARK    3  A    between atoms: C_15  and  S_9 
REMARK    4  A    between atoms: C_11  and  C_15 
REMARK    5  A    between atoms: C_13  and  C_11 
ROOT
ATOM      1  N   UNL d   1       0.598  -3.711  -1.896  0.00  0.00    -0.347 N 
ATOM      2  HN  UNL d   1       1.386  -3.067  -1.969  1.00  0.00     0.167 HD
ATOM      3  C   UNL d   1      -0.157  -3.765  -0.769  0.00  0.00     0.091 A 
ATOM      4  C   UNL d   1      -1.291  -4.576  -0.663  0.00  0.00     0.078 A 
ATOM      5  C   UNL d   1       0.275  -4.535  -2.920  0.00  0.00     0.079 A 
ATOM      6  C   UNL d   1      -2.159  -4.572   0.475  0.00  0.00     0.102 C 
ATOM      7  N   UNL d   1      -2.924  -4.597   1.350  0.00  0.00    -0.191 NA
ATOM      8  C   UNL d   1      -1.595  -5.424  -1.735  0.00  0.00     0.028 A 
ATOM      9  C   UNL d   1      -0.794  -5.418  -2.874  0.00  0.00     0.035 A 
ENDROOT
BRANCH   3  10
ATOM     10  S   UNL d   1       0.412  -2.714   0.561  0.00  0.00    -0.103 SA
BRANCH  10  11
ATOM     11  C   UNL d   1       2.213  -2.662   0.224  0.00  0.00     0.164 C 
BRANCH  11  12
ATOM     12  C   UNL d   1       2.897  -4.023   0.311  0.00  0.00     0.169 C 
ATOM     13  O   UNL d   1       2.299  -5.077   0.528  0.00  0.00    -0.291 OA
BRANCH  12  14
ATOM     14  C   UNL d   1       4.394  -4.074   0.157  0.00  0.00     0.011 A 
ATOM     15  C   UNL d   1       5.164  -2.934  -0.110  0.00  0.00     0.017 A 
ATOM     16  C   UNL d   1       6.565  -3.015  -0.149  0.00  0.00     0.023 A 
ATOM     17  C   UNL d   1       7.215  -4.234   0.074  0.00  0.00     0.044 A 
ATOM     18  C   UNL d   1       8.652  -4.296   0.092  0.00  0.00     0.099 C 
ATOM     19  C   UNL d   1       6.451  -5.381   0.300  0.00  0.00     0.023 A 
ATOM     20  N   UNL d   1       9.808  -4.336   0.117  0.00  0.00    -0.191 NA
ATOM     21  C   UNL d   1       5.051  -5.303   0.334  0.00  0.00     0.017 A 
ENDBRANCH  12  14
ENDBRANCH  11  12
ENDBRANCH  10  11
ENDBRANCH   3  10
BRANCH   5  22
ATOM     22  C   UNL d   1       1.134  -4.458  -4.137  0.00  0.00     0.172 C 
ATOM     23  O   UNL d   1       0.910  -5.195  -5.096  0.00  0.00    -0.291 OA
ATOM     24  C   UNL d   1       2.268  -3.463  -4.166  0.00  0.00     0.098 C 
ENDBRANCH   5  22
TORSDOF 5
