REMARK  2 active torsions:
REMARK  status: ('A' for Active; 'I' for Inactive)
REMARK    1  A    between atoms: C_2  and  S_1 
REMARK    2  A    between atoms: C_5  and  S_1 
ROOT
ATOM      1  C   UNL d   1       0.584  -0.391   1.584  0.00  0.00     0.167 C 
ATOM      2  C   UNL d   1      -0.128   0.441   2.376  0.00  0.00     0.069 C 
ATOM      3  C   UNL d   1       0.911  -1.719   1.963  0.00  0.00     0.114 C 
ATOM      4  N   UNL d   1       1.180  -2.797   2.301  0.00  0.00    -0.191 NA
ATOM      5  S   UNL d   1      -0.669  -0.071   3.970  0.00  0.00    -0.121 SA
ATOM      6  S   UNL d   1      -0.534   2.093   1.986  0.00  0.00    -0.121 SA
ATOM      7  C   UNL d   1      -2.886   1.518   3.366  0.00  0.00     0.021 C 
ATOM      8  C   UNL d   1      -2.346   1.972   2.014  0.00  0.00     0.081 C 
ATOM      9  C   UNL d   1      -2.468   0.101   3.745  0.00  0.00     0.081 C 
ENDROOT
BRANCH   1  10
ATOM     10  S   UNL d   1       1.036   0.012  -0.040  0.00  0.00     0.218 S 
ATOM     11  O   UNL d   1      -0.135   0.493  -0.759  0.00  0.00    -0.216 OA
ATOM     12  O   UNL d   1       1.813  -1.067  -0.625  0.00  0.00    -0.216 OA
BRANCH  10  13
ATOM     13  C   UNL d   1       2.193   1.368   0.077  0.00  0.00     0.065 A 
ATOM     14  C   UNL d   1       3.385   1.201   0.791  0.00  0.00     0.025 A 
ATOM     15  C   UNL d   1       4.332   2.231   0.793  0.00  0.00     0.025 A 
ATOM     16  C   UNL d   1       4.087   3.406   0.080  0.00  0.00     0.034 A 
ATOM     17  C   UNL d   1       2.899   3.570  -0.631  0.00  0.00     0.025 A 
ATOM     18 CL   UNL d   1       5.273   4.653   0.056  0.00  0.00    -0.084 Cl
ATOM     19  C   UNL d   1       1.947   2.547  -0.637  0.00  0.00     0.025 A 
ENDBRANCH  10  13
ENDBRANCH   1  10
TORSDOF 2
