REMARK  6 active torsions:
REMARK  status: ('A' for Active; 'I' for Inactive)
REMARK    1  A    between atoms: C_8  and  C_2 
REMARK    2  A    between atoms: S_19  and  C_5 
REMARK    3  A    between atoms: C_22  and  S_19 
REMARK    4  A    between atoms: C_20  and  C_22 
REMARK       I    between atoms: N_25  and  C_20 
REMARK    5  A    between atoms: C_24  and  C_27 
REMARK    6  A    between atoms: C_27  and  N_25 
ROOT
ATOM      1  N   UNL d   1       0.876  -0.008  -0.008  0.00  0.00    -0.315 N 
ATOM      2  C   UNL d   1       0.026   1.074  -0.142  0.00  0.00     0.134 A 
ATOM      3  N   UNL d   1      -1.210   0.609  -0.243  0.00  0.00    -0.283 N 
ATOM      4  HN  UNL d   1      -2.054   1.178  -0.314  1.00  0.00     0.188 HD
ATOM      5  C   UNL d   1       0.079  -1.119  -0.088  0.00  0.00     0.163 A 
ATOM      6  N   UNL d   1      -1.172  -0.765  -0.237  0.00  0.00    -0.278 N 
ATOM      7  HN  UNL d   1      -1.971  -1.392  -0.331  1.00  0.00     0.189 HD
ATOM      8  C   UNL d   1       2.303  -0.015   0.186  0.00  0.00     0.160 C 
ENDROOT
BRANCH   2   9
ATOM      9  C   UNL d   1       0.382   2.501  -0.160  0.00  0.00     0.012 A 
ATOM     10  C   UNL d   1       1.510   2.949  -0.882  0.00  0.00     0.049 A 
ATOM     11  C   UNL d   1       1.760   4.332  -0.813  0.00  0.00     0.086 A 
ATOM     12  N   UNL d   1       2.763   5.033  -1.355  0.00  0.00    -0.240 N 
ATOM     13  C   UNL d   1       0.897   5.250  -0.089  0.00  0.00     0.085 A 
ATOM     14  O   UNL d   1       2.543   6.350  -0.983  0.00  0.00    -0.156 OA
ATOM     15  HN  UNL d   1       3.529   4.673  -1.923  1.00  0.00     0.197 HD
ATOM     16  N   UNL d   1       1.400   6.484  -0.212  0.00  0.00    -0.240 N 
ATOM     17  HN  UNL d   1       1.020   7.345   0.181  1.00  0.00     0.197 HD
ATOM     18  C   UNL d   1      -0.252   4.816   0.593  0.00  0.00     0.035 A 
ATOM     19  C   UNL d   1      -0.471   3.421   0.531  0.00  0.00     0.018 A 
ENDBRANCH   2   9
BRANCH   5  20
ATOM     20  S   UNL d   1       0.681  -2.737  -0.024  0.00  0.00    -0.083 SA
BRANCH  20  21
ATOM     21  C   UNL d   1      -0.154  -3.458  -1.463  0.00  0.00     0.185 C 
BRANCH  21  22
ATOM     22  C   UNL d   1       0.419  -2.882  -2.747  0.00  0.00     0.227 C 
ATOM     23  O   UNL d   1       1.467  -3.289  -3.240  0.00  0.00    -0.273 OA
ATOM     24  N   UNL d   1      -0.314  -1.851  -3.292  0.00  0.00    -0.357 N 
ATOM     25  H   UNL d   1      -1.196  -1.583  -2.867  0.00  0.00     0.162 HD
BRANCH  24  26
ATOM     26  C   UNL d   1       0.039  -1.279  -4.567  0.00  0.00     0.149 C 
BRANCH  26  27
ATOM     27  C   UNL d   1      -0.498   0.114  -4.613  0.00  0.00    -0.018 C 
ATOM     28  C   UNL d   1      -1.333   0.576  -5.553  0.00  0.00     0.008 C 
ENDBRANCH  26  27
ENDBRANCH  24  26
ENDBRANCH  21  22
ENDBRANCH  20  21
ENDBRANCH   5  20
TORSDOF 6
