REMARK  5 active torsions:
REMARK  status: ('A' for Active; 'I' for Inactive)
REMARK    1  A    between atoms: N_2  and  C_1 
REMARK    2  A    between atoms: N_3  and  C_1 
REMARK    3  A    between atoms: C_6  and  N_3 
REMARK    4  A    between atoms: C_4  and  C_8 
REMARK    5  A    between atoms: C_8  and  N_5 
ROOT
ATOM      1  N   UNL d   1       0.108  -1.101   0.148  0.00  0.00    -0.357 N 
ATOM      2  N   UNL d   1      -1.856  -3.487  -0.449  0.00  0.00     0.094 N 
ATOM      3  C   UNL d   1      -0.360  -1.536  -1.172  0.00  0.00     0.155 C 
ATOM      4  C   UNL d   1      -1.737  -2.203  -1.148  0.00  0.00     0.292 C 
ATOM      5  C   UNL d   1      -0.589  -2.953   1.752  0.00  0.00     0.050 C 
ATOM      6  C   UNL d   1       0.519  -2.179   1.046  0.00  0.00     0.127 C 
ATOM      7  C   UNL d   1      -1.870  -3.320   1.000  0.00  0.00     0.274 C 
ENDROOT
BRANCH   2   8
ATOM      8  C   UNL d   1      -0.982  -4.566  -0.921  0.00  0.00     0.311 C 
BRANCH   8   9
ATOM      9  C   UNL d   1      -1.077  -4.882  -2.411  0.00  0.00    -0.019 A 
ATOM     10  C   UNL d   1      -2.266  -5.363  -3.026  0.00  0.00    -0.018 A 
ATOM     11  C   UNL d   1      -2.250  -5.671  -4.415  0.00  0.00    -0.025 A 
ATOM     12  C   UNL d   1      -3.481  -5.568  -2.336  0.00  0.00     0.013 A 
ATOM     13  C   UNL d   1      -3.406  -6.154  -5.044  0.00  0.00     0.012 A 
ATOM     14  C   UNL d   1      -1.071  -5.497  -5.151  0.00  0.00     0.012 A 
ATOM     15  C   UNL d   1      -4.587  -6.344  -4.331  0.00  0.00     0.001 A 
ATOM     16  C   UNL d   1      -4.625  -6.044  -2.975  0.00  0.00     0.001 A 
ATOM     17  C   UNL d   1       0.090  -5.032  -4.548  0.00  0.00     0.002 A 
ATOM     18  C   UNL d   1       0.088  -4.728  -3.188  0.00  0.00     0.010 A 
ENDBRANCH   8   9
ENDBRANCH   2   8
BRANCH   1  19
ATOM     19  C   UNL d   1       0.986   0.007   0.154  0.00  0.00     0.170 C 
ATOM     20  S   UNL d   1       2.443   0.074  -0.671  0.00  0.00    -0.041 SA
BRANCH  19  21
ATOM     21  N   UNL d   1       0.491   0.980   1.003  0.00  0.00    -0.362 N 
ATOM     22  H   UNL d   1      -0.496   0.897   1.213  0.00  0.00     0.162 HD
BRANCH  21  23
ATOM     23  C   UNL d   1       1.199   2.112   1.502  0.00  0.00     0.084 A 
ATOM     24  C   UNL d   1       2.316   1.946   2.496  0.00  0.00     0.027 A 
ATOM     25  C   UNL d   1       1.005   2.519   2.939  0.00  0.00     0.027 A 
ENDBRANCH  21  23
ENDBRANCH  19  21
ENDBRANCH   1  19
TORSDOF 5
