REMARK  5 active torsions:
REMARK  status: ('A' for Active; 'I' for Inactive)
REMARK    1  A    between atoms: C_6  and  C_1 
REMARK       I    between atoms: C_2  and  N_8 
REMARK       I    between atoms: N_9  and  C_2 
REMARK    2  A    between atoms: C_3  and  C_5 
REMARK    3  A    between atoms: C_7  and  N_9 
REMARK    4  A    between atoms: N_8  and  C_19 
REMARK    5  A    between atoms: C_19  and  C_20 
ROOT
ATOM      1  C   UNL d   1      -0.908   3.207   7.065  0.00  0.00     0.320 C 
ATOM      2  N   UNL d   1      -0.585   2.480   5.956  0.00  0.00    -0.339 N 
ATOM      3  N   UNL d   1      -1.276   2.505   8.186  0.00  0.00    -0.319 N 
ATOM      4  O   UNL d   1      -0.896   4.432   7.096  0.00  0.00    -0.247 OA
ATOM      5  H   UNL d   1      -0.450   1.488   6.024  0.00  0.00     0.164 HD
ATOM      6  H   UNL d   1      -1.495   3.119   8.962  0.00  0.00     0.170 HD
ENDROOT
BRANCH   2   7
ATOM      7  C   UNL d   1      -0.314   3.092   4.676  0.00  0.00     0.162 C 
BRANCH   7   8
ATOM      8  C   UNL d   1       1.151   3.198   4.316  0.00  0.00    -0.040 A 
ATOM      9  C   UNL d   1       1.530   3.084   2.969  0.00  0.00     0.009 A 
ATOM     10  C   UNL d   1       2.854   3.288   2.573  0.00  0.00     0.017 A 
ATOM     11  C   UNL d   1       3.837   3.621   3.516  0.00  0.00     0.047 A 
ATOM     12  C   UNL d   1       3.465   3.727   4.864  0.00  0.00     0.017 A 
ATOM     13  C   UNL d   1       2.137   3.525   5.257  0.00  0.00     0.009 A 
BRANCH  11  14
ATOM     14  C   UNL d   1       5.253   3.880   3.063  0.00  0.00     0.417 C 
ATOM     15  F   UNL d   1       6.095   4.240   4.071  0.00  0.00    -0.166 F 
ATOM     16  F   UNL d   1       5.330   4.879   2.139  0.00  0.00    -0.166 F 
ATOM     17  F   UNL d   1       5.820   2.789   2.476  0.00  0.00    -0.166 F 
ENDBRANCH  11  14
ENDBRANCH   7   8
ENDBRANCH   2   7
BRANCH   3  18
ATOM     18  C   UNL d   1      -1.463   1.157   8.341  0.00  0.00     0.094 C 
ATOM     19  C   UNL d   1      -1.871   0.590   9.485  0.00  0.00     0.036 C 
BRANCH  19  20
ATOM     20  C   UNL d   1      -2.078  -0.821   9.534  0.00  0.00     0.006 A 
ATOM     21  S   UNL d   1      -1.846  -1.675  11.011  0.00  0.00    -0.102 SA
ATOM     22  C   UNL d   1      -2.190  -3.184  10.282  0.00  0.00     0.050 A 
ATOM     23  C   UNL d   1      -2.514  -3.053   8.953  0.00  0.00     0.008 A 
ATOM     24  C   UNL d   1      -2.460  -1.697   8.528  0.00  0.00     0.019 A 
ENDBRANCH  19  20
ENDBRANCH   3  18
TORSDOF 5
