REMARK  5 active torsions:
REMARK  status: ('A' for Active; 'I' for Inactive)
REMARK    1  A    between atoms: C_9  and  C_1 
REMARK    2  A    between atoms: O_10  and  C_2 
REMARK    3  A    between atoms: C_6  and  N_13 
REMARK    4  A    between atoms: N_13  and  N_7 
REMARK    5  A    between atoms: C_17  and  O_10 
ROOT
ATOM      1  N   UNL d   1       0.460   3.772   0.317  0.00  0.00    -0.310 N 
ATOM      2  HN  UNL d   1       1.302   3.521   0.833  1.00  0.00     0.186 HD
ATOM      3  C   UNL d   1      -0.282   2.895  -0.288  0.00  0.00     0.128 C 
ENDROOT
BRANCH   3   4
ATOM      4  C   UNL d   1       0.008   1.483  -0.296  0.00  0.00     0.055 A 
ATOM      5  C   UNL d   1       1.178   0.782  -0.079  0.00  0.00     0.095 A 
ATOM      6  C   UNL d   1       0.990  -0.630  -0.227  0.00  0.00     0.046 A 
ATOM      7  C   UNL d   1      -0.323  -0.961  -0.474  0.00  0.00     0.053 A 
ATOM      8  S   UNL d   1      -1.307   0.423  -0.617  0.00  0.00    -0.098 SA
BRANCH   5   9
ATOM      9  O   UNL d   1       2.356   1.416   0.180  0.00  0.00    -0.309 OA
BRANCH   9  10
ATOM     10  C   UNL d   1       3.396   0.728   0.762  0.00  0.00     0.076 A 
ATOM     11  C   UNL d   1       4.643   0.757   0.137  0.00  0.00     0.037 A 
ATOM     12  C   UNL d   1       5.710   0.050   0.693  0.00  0.00     0.003 A 
ATOM     13  C   UNL d   1       5.532  -0.673   1.875  0.00  0.00     0.000 A 
ATOM     14  C   UNL d   1       4.292  -0.673   2.514  0.00  0.00     0.003 A 
ATOM     15  C   UNL d   1       3.229   0.042   1.967  0.00  0.00     0.037 A 
ENDBRANCH   9  10
ENDBRANCH   5   9
ENDBRANCH   3   4
BRANCH   1  16
ATOM     16  N   UNL d   1       0.017   5.058   0.203  0.00  0.00    -0.298 N 
ATOM     17  H   UNL d   1      -0.872   5.279  -0.250  0.00  0.00     0.187 HD
BRANCH  16  18
ATOM     18  C   UNL d   1       0.372   6.004   1.188  0.00  0.00     0.086 A 
ATOM     19  C   UNL d   1      -0.236   7.272   1.170  0.00  0.00     0.147 A 
ATOM     20  C   UNL d   1       0.100   8.265   2.083  0.00  0.00     0.086 A 
ATOM     21  F   UNL d   1      -1.183   7.532   0.253  0.00  0.00    -0.204 F 
ATOM     22  C   UNL d   1       1.074   7.992   3.031  0.00  0.00     0.119 A 
ATOM     23  C   UNL d   1       1.713   6.756   3.069  0.00  0.00     0.045 A 
ATOM     24  F   UNL d   1       1.409   8.935   3.921  0.00  0.00    -0.206 F 
ATOM     25  C   UNL d   1       1.369   5.767   2.141  0.00  0.00     0.037 A 
ENDBRANCH  16  18
ENDBRANCH   1  16
TORSDOF 5
