REMARK  5 active torsions:
REMARK  status: ('A' for Active; 'I' for Inactive)
REMARK    1  A    between atoms: C_4  and  C_1 
REMARK       I    between atoms: C_2  and  N_5 
REMARK       I    between atoms: N_7  and  C_2 
REMARK    2  A    between atoms: O_6  and  C_3 
REMARK    3  A    between atoms: N_5  and  C_4 
REMARK    4  A    between atoms: C_10  and  O_6 
REMARK    5  A    between atoms: C_12  and  N_7 
ROOT
ATOM      1  C   UNL d   1       0.307   0.944  -0.025  0.00  0.00     0.015 C 
ATOM      2  C   UNL d   1       1.708   0.818  -0.156  0.00  0.00     0.085 C 
ATOM      3  C   UNL d   1      -0.447  -0.229   0.174  0.00  0.00     0.044 C 
ATOM      4 CL   UNL d   1      -2.151  -0.193   0.480  0.00  0.00    -0.084 Cl
ATOM      5  C   UNL d   1       2.278  -0.461  -0.289  0.00  0.00     0.038 C 
ATOM      6  C   UNL d   1       1.507  -1.606  -0.150  0.00  0.00     0.004 C 
ATOM      7  C   UNL d   1       0.149  -1.493   0.118  0.00  0.00     0.024 C 
ENDROOT
BRANCH   1   8
ATOM      8  C   UNL d   1      -0.376   2.275  -0.211  0.00  0.00     0.167 C 
BRANCH   8   9
ATOM      9  N   UNL d   1      -0.400   3.114   0.963  0.00  0.00    -0.338 N 
ATOM     10  C   UNL d   1      -1.371   4.078   1.063  0.00  0.00     0.320 C 
ATOM     11  N   UNL d   1      -1.131   5.130   1.891  0.00  0.00    -0.309 N 
ATOM     12  O   UNL d   1      -2.382   4.090   0.361  0.00  0.00    -0.247 OA
ATOM     13  H   UNL d   1      -1.723   5.914   1.657  0.00  0.00     0.170 HD
ATOM     14  H   UNL d   1       0.513   3.399   1.282  0.00  0.00     0.164 HD
BRANCH  11  15
ATOM     15  C   UNL d   1      -0.067   5.363   2.772  0.00  0.00     0.036 A 
ATOM     16  C   UNL d   1       0.407   6.673   2.880  0.00  0.00     0.029 A 
ATOM     17  C   UNL d   1       1.535   6.947   3.657  0.00  0.00     0.002 A 
ATOM     18  C   UNL d   1       2.156   5.920   4.367  0.00  0.00     0.000 A 
ATOM     19  C   UNL d   1       1.638   4.627   4.322  0.00  0.00     0.002 A 
ATOM     20  C   UNL d   1       0.524   4.350   3.529  0.00  0.00     0.029 A 
ENDBRANCH  11  15
ENDBRANCH   8   9
ENDBRANCH   1   8
BRANCH   2  21
ATOM     21  O   UNL d   1       2.456   1.987  -0.183  0.00  0.00    -0.310 OA
BRANCH  21  22
ATOM     22  C   UNL d   1       3.829   1.881  -0.118  0.00  0.00     0.076 A 
ATOM     23  C   UNL d   1       4.562   2.390  -1.189  0.00  0.00     0.037 A 
ATOM     24  C   UNL d   1       5.940   2.180  -1.246  0.00  0.00     0.003 A 
ATOM     25  C   UNL d   1       6.583   1.474  -0.229  0.00  0.00     0.000 A 
ATOM     26  C   UNL d   1       5.860   1.029   0.878  0.00  0.00     0.003 A 
ATOM     27  C   UNL d   1       4.486   1.262   0.951  0.00  0.00     0.037 A 
ENDBRANCH  21  22
ENDBRANCH   2  21
TORSDOF 5
