REMARK  4 active torsions:
REMARK  status: ('A' for Active; 'I' for Inactive)
REMARK    1  A    between atoms: C_2  and  C_1 
REMARK    2  A    between atoms: C_4  and  C_2 
REMARK    3  A    between atoms: N_7  and  C_3 
REMARK    4  A    between atoms: C_10  and  N_7 
ROOT
ATOM      1  C   UNL d   1       1.007  -0.003  -0.080  0.00  0.00     0.072 C 
ATOM      2  C   UNL d   1       2.336   0.156   0.021  0.00  0.00     0.092 C 
ENDROOT
BRANCH   1   3
ATOM      3  C   UNL d   1       0.317   0.406  -1.333  0.00  0.00     0.183 C 
ATOM      4  O   UNL d   1       0.819   1.193  -2.129  0.00  0.00    -0.288 OA
BRANCH   3   5
ATOM      5  C   UNL d   1      -1.031  -0.168  -1.600  0.00  0.00     0.014 A 
ATOM      6  C   UNL d   1      -1.925   0.575  -2.385  0.00  0.00     0.017 A 
ATOM      7  C   UNL d   1      -3.179   0.053  -2.713  0.00  0.00     0.020 A 
ATOM      8  C   UNL d   1      -3.536  -1.217  -2.266  0.00  0.00     0.011 A 
ATOM      9  C   UNL d   1      -2.656  -1.966  -1.486  0.00  0.00     0.020 A 
ATOM     10 BR   UNL d   1      -5.215  -1.943  -2.743  0.00  0.00    -0.051 Br
ATOM     11  C   UNL d   1      -1.402  -1.444  -1.152  0.00  0.00     0.017 A 
ENDBRANCH   3   5
ENDBRANCH   1   3
BRANCH   2  12
ATOM     12  N   UNL d   1       3.126  -0.224   1.075  0.00  0.00    -0.366 N 
ATOM     13  H   UNL d   1       2.680  -0.752   1.818  0.00  0.00     0.165 HD
BRANCH  12  14
ATOM     14  C   UNL d   1       4.521  -0.075   1.188  0.00  0.00     0.033 A 
ATOM     15  C   UNL d   1       5.228   0.937   0.527  0.00  0.00     0.053 A 
ATOM     16  C   UNL d   1       6.621   0.997   0.603  0.00  0.00     0.036 A 
ATOM     17 CL   UNL d   1       7.467   2.264  -0.199  0.00  0.00    -0.084 Cl
ATOM     18  C   UNL d   1       7.334   0.037   1.316  0.00  0.00     0.024 A 
ATOM     19  C   UNL d   1       6.647  -0.982   1.971  0.00  0.00     0.004 A 
ATOM     20  C   UNL d   1       5.252  -1.034   1.908  0.00  0.00     0.029 A 
ENDBRANCH  12  14
ENDBRANCH   2  12
TORSDOF 4
