REMARK  4 active torsions:
REMARK  status: ('A' for Active; 'I' for Inactive)
REMARK    1  A    between atoms: C_4  and  C_1 
REMARK    2  A    between atoms: N_13  and  C_1 
REMARK    3  A    between atoms: N_6  and  N_2 
REMARK       I    between atoms: C_5  and  N_6 
REMARK       I    between atoms: N_9  and  C_5 
REMARK    4  A    between atoms: C_15  and  N_9 
ROOT
ATOM      1  C   UNL d   1       1.364   0.181   0.402  0.00  0.00     0.121 C 
ATOM      2  N   UNL d   1       0.590  -0.689   0.973  0.00  0.00    -0.284 N 
ATOM      3  HN  UNL d   1      -0.412  -0.521   1.068  1.00  0.00     0.188 HD
ENDROOT
BRANCH   2   4
ATOM      4  N   UNL d   1       1.161  -1.840   1.446  0.00  0.00    -0.250 N 
ATOM      5  C   UNL d   1       0.300  -2.816   1.945  0.00  0.00     0.339 C 
ATOM      6  N   UNL d   1       0.958  -4.002   2.220  0.00  0.00    -0.308 N 
ATOM      7  O   UNL d   1      -0.896  -2.602   2.134  0.00  0.00    -0.245 OA
ATOM      8  H   UNL d   1       1.946  -4.028   2.025  0.00  0.00     0.170 HD
ATOM      9  H   UNL d   1       2.057  -2.087   1.048  0.00  0.00     0.192 HD
BRANCH   6  10
ATOM     10  C   UNL d   1       0.396  -5.166   2.797  0.00  0.00     0.036 A 
ATOM     11  C   UNL d   1      -0.948  -5.282   3.162  0.00  0.00     0.029 A 
ATOM     12  C   UNL d   1      -1.424  -6.437   3.791  0.00  0.00     0.002 A 
ATOM     13  C   UNL d   1      -0.563  -7.496   4.053  0.00  0.00     0.000 A 
ATOM     14  C   UNL d   1       0.773  -7.408   3.666  0.00  0.00     0.002 A 
ATOM     15  C   UNL d   1       1.249  -6.251   3.039  0.00  0.00     0.029 A 
ENDBRANCH   6  10
ENDBRANCH   2   4
BRANCH   1  16
ATOM     16  C   UNL d   1       0.710   1.357  -0.262  0.00  0.00     0.087 A 
ATOM     17  N   UNL d   1       1.553   2.271  -0.824  0.00  0.00    -0.361 N 
ATOM     18  C   UNL d   1       0.926   3.286  -1.468  0.00  0.00     0.105 A 
ATOM     19  HN  UNL d   1       2.568   2.196  -0.766  1.00  0.00     0.165 HD
ATOM     20  C   UNL d   1      -0.456   3.397  -1.539  0.00  0.00     0.104 A 
ATOM     21  N   UNL d   1      -1.287   2.501  -0.961  0.00  0.00    -0.372 N 
ATOM     22  C   UNL d   1      -0.674   1.473  -0.319  0.00  0.00     0.120 A 
ATOM     23  HN  UNL d   1      -2.303   2.591  -1.004  1.00  0.00     0.164 HD
ENDBRANCH   1  16
BRANCH   1  24
ATOM     24  N   UNL d   1       2.746   0.098   0.381  0.00  0.00    -0.286 NA
ATOM     25  H   UNL d   1       3.123  -0.141   1.292  0.00  0.00     0.125 HD
ATOM     26  H   UNL d   1       3.156   0.974   0.046  0.00  0.00     0.125 HD
ENDBRANCH   1  24
TORSDOF 4
