REMARK  2 active torsions:
REMARK  status: ('A' for Active; 'I' for Inactive)
REMARK    1  A    between atoms: C_2  and  C_1 
REMARK    2  A    between atoms: C_8  and  C_2 
ROOT
ATOM      1  C   UNL d   1       2.385  -0.594  -0.104  0.00  0.00     0.035 A 
ATOM      2  C   UNL d   1       2.326   0.809  -0.103  0.00  0.00     0.028 A 
ATOM      3  C   UNL d   1       1.194  -1.335  -0.078  0.00  0.00     0.056 A 
ATOM      4  C   UNL d   1       1.084   1.457  -0.062  0.00  0.00     0.059 A 
ATOM      5  C   UNL d   1      -0.036  -0.684  -0.012  0.00  0.00     0.103 A 
ATOM      6  C   UNL d   1      -0.091   0.711  -0.027  0.00  0.00     0.103 A 
ATOM      7  O   UNL d   1      -1.148  -1.483   0.050  0.00  0.00    -0.346 OA
ATOM      8  O   UNL d   1      -1.269   1.412  -0.008  0.00  0.00    -0.346 OA
ATOM      9 BR   UNL d   1       3.864   1.925  -0.115  0.00  0.00    -0.050 Br
ATOM     10  C   UNL d   1      -2.378   0.575  -0.356  0.00  0.00     0.202 C 
ATOM     11  C   UNL d   1      -2.317  -0.737   0.410  0.00  0.00     0.202 C 
ENDROOT
BRANCH   1  12
ATOM     12  C   UNL d   1       3.666  -1.336  -0.210  0.00  0.00     0.193 C 
ATOM     13  O   UNL d   1       4.472  -1.005  -1.078  0.00  0.00    -0.287 OA
BRANCH  12  14
ATOM     14  C   UNL d   1       3.970  -2.521   0.645  0.00  0.00     0.015 A 
ATOM     15  C   UNL d   1       3.335  -2.760   1.871  0.00  0.00     0.017 A 
ATOM     16  C   UNL d   1       3.661  -3.896   2.622  0.00  0.00     0.020 A 
ATOM     17  C   UNL d   1       4.635  -4.781   2.160  0.00  0.00     0.011 A 
ATOM     18  C   UNL d   1       5.284  -4.547   0.951  0.00  0.00     0.020 A 
ATOM     19 BR   UNL d   1       5.089  -6.301   3.188  0.00  0.00    -0.051 Br
ATOM     20  C   UNL d   1       4.952  -3.418   0.197  0.00  0.00     0.017 A 
ENDBRANCH  12  14
ENDBRANCH   1  12
TORSDOF 2
