REMARK  9 active torsions:
REMARK  status: ('A' for Active; 'I' for Inactive)
REMARK    1  A    between atoms: N_2  and  C_1 
REMARK    2  A    between atoms: C_3  and  C_1 
REMARK    3  A    between atoms: C_4  and  C_1 
REMARK    4  A    between atoms: N_5  and  C_1 
REMARK       I    between atoms: C_6  and  N_2 
REMARK    5  A    between atoms: O_18  and  C_4 
REMARK    6  A    between atoms: C_8  and  N_5 
REMARK    7  A    between atoms: O_17  and  C_6 
REMARK    8  A    between atoms: C_22  and  O_17 
REMARK    9  A    between atoms: C_23  and  O_18 
ROOT
ATOM      1  C   UNL d   1       0.988  -0.075  -0.054  0.00  0.00     0.298 C 
ENDROOT
BRANCH   1   2
ATOM      2  N   UNL d   1       0.473  -1.055  -0.995  0.00  0.00    -0.294 N 
ATOM      3  C   UNL d   1      -0.845  -1.315  -1.097  0.00  0.00     0.363 C 
ATOM      4  O   UNL d   1      -1.706  -0.875  -0.351  0.00  0.00    -0.238 OA
ATOM      5  H   UNL d   1       1.092  -1.392  -1.713  0.00  0.00     0.168 HD
BRANCH   3   6
ATOM      6  O   UNL d   1      -1.046  -2.167  -2.134  0.00  0.00    -0.304 OA
BRANCH   6   7
ATOM      7  C   UNL d   1      -2.362  -2.724  -2.227  0.00  0.00     0.176 C 
ATOM      8  C   UNL d   1      -2.406  -3.986  -1.390  0.00  0.00     0.034 C 
ENDBRANCH   6   7
ENDBRANCH   3   6
ENDBRANCH   1   2
BRANCH   1   9
ATOM      9  C   UNL d   1       0.435  -0.079   1.413  0.00  0.00     0.442 C 
ATOM     10  F   UNL d   1      -0.114  -1.269   1.764  0.00  0.00    -0.166 F 
ATOM     11  F   UNL d   1       1.438   0.145   2.310  0.00  0.00    -0.166 F 
ATOM     12  F   UNL d   1      -0.493   0.877   1.650  0.00  0.00    -0.166 F 
ENDBRANCH   1   9
BRANCH   1  13
ATOM     13  C   UNL d   1       0.620   1.325  -0.625  0.00  0.00     0.318 C 
ATOM     14  O   UNL d   1      -0.129   1.535  -1.575  0.00  0.00    -0.260 OA
BRANCH  13  15
ATOM     15  O   UNL d   1       1.299   2.319   0.032  0.00  0.00    -0.318 OA
BRANCH  15  16
ATOM     16  C   UNL d   1       0.990   3.648  -0.417  0.00  0.00     0.174 C 
ATOM     17  C   UNL d   1       1.821   3.994  -1.638  0.00  0.00     0.034 C 
ENDBRANCH  15  16
ENDBRANCH  13  15
ENDBRANCH   1  13
BRANCH   1  18
ATOM     18  N   UNL d   1       2.472  -0.250  -0.189  0.00  0.00    -0.348 N 
ATOM     19  H   UNL d   1       2.962   0.603   0.084  0.00  0.00     0.163 HD
BRANCH  18  20
ATOM     20  C   UNL d   1       3.171  -1.377   0.249  0.00  0.00     0.030 A 
ATOM     21  C   UNL d   1       2.576  -2.562   0.695  0.00  0.00     0.036 A 
ATOM     22  C   UNL d   1       3.333  -3.700   1.042  0.00  0.00    -0.054 A 
ATOM     23  C   UNL d   1       2.619  -4.922   1.556  0.00  0.00     0.049 C 
ATOM     24  C   UNL d   1       4.728  -3.677   0.884  0.00  0.00    -0.056 A 
ATOM     25  C   UNL d   1       5.332  -2.505   0.417  0.00  0.00     0.009 A 
ATOM     26  C   UNL d   1       5.573  -4.885   1.180  0.00  0.00     0.049 C 
ATOM     27  C   UNL d   1       4.563  -1.378   0.106  0.00  0.00     0.030 A 
ENDBRANCH  18  20
ENDBRANCH   1  18
TORSDOF 9
