REMARK  7 active torsions:
REMARK  status: ('A' for Active; 'I' for Inactive)
REMARK    1  A    between atoms: C_9  and  C_2 
REMARK    2  A    between atoms: C_8  and  C_3 
REMARK    3  A    between atoms: C_10  and  C_4 
REMARK    4  A    between atoms: C_11  and  C_5 
REMARK    5  A    between atoms: C_13  and  C_6 
REMARK    6  A    between atoms: N_7  and  C_12 
REMARK    7  A    between atoms: C_14  and  C_15 
ROOT
ATOM      1  C   UNL d   1       0.794  -0.050   0.035  0.00  0.00    -0.012 A 
ATOM      2  C   UNL d   1      -0.084  -1.231   0.013  0.00  0.00    -0.003 A 
ATOM      3  C   UNL d   1      -0.071   1.145   0.026  0.00  0.00    -0.003 A 
ATOM      4  C   UNL d   1      -1.358  -0.774  -0.070  0.00  0.00    -0.002 A 
ATOM      5  C   UNL d   1      -1.352   0.705  -0.068  0.00  0.00    -0.002 A 
ATOM      6  C   UNL d   1       2.144  -0.021   0.037  0.00  0.00     0.013 C 
ENDROOT
BRANCH   2   7
ATOM      7  C   UNL d   1       0.255  -2.652   0.159  0.00  0.00    -0.024 A 
ATOM      8  C   UNL d   1       0.447  -3.456  -0.970  0.00  0.00     0.012 A 
ATOM      9  C   UNL d   1       0.737  -4.814  -0.826  0.00  0.00     0.001 A 
ATOM     10  C   UNL d   1       0.836  -5.377   0.446  0.00  0.00     0.000 A 
ATOM     11  C   UNL d   1       0.651  -4.582   1.576  0.00  0.00     0.001 A 
ATOM     12  C   UNL d   1       0.363  -3.223   1.434  0.00  0.00     0.012 A 
ENDBRANCH   2   7
BRANCH   3  13
ATOM     13  C   UNL d   1       0.334   2.552   0.112  0.00  0.00    -0.024 A 
ATOM     14  C   UNL d   1       0.405   3.179   1.363  0.00  0.00     0.012 A 
ATOM     15  C   UNL d   1       0.826   4.506   1.466  0.00  0.00     0.001 A 
ATOM     16  C   UNL d   1       1.183   5.216   0.321  0.00  0.00     0.000 A 
ATOM     17  C   UNL d   1       1.106   4.606  -0.929  0.00  0.00     0.001 A 
ATOM     18  C   UNL d   1       0.677   3.277  -1.036  0.00  0.00     0.012 A 
ENDBRANCH   3  13
BRANCH   6  19
ATOM     19  C   UNL d   1       2.986  -1.179  -0.157  0.00  0.00     0.001 C 
ATOM     20  C   UNL d   1       3.979  -1.601   0.648  0.00  0.00     0.001 C 
BRANCH  20  21
ATOM     21  C   UNL d   1       4.687  -2.823   0.323  0.00  0.00     0.017 C 
ATOM     22  C   UNL d   1       5.671  -3.395   1.030  0.00  0.00     0.085 C 
BRANCH  22  23
ATOM     23  N   UNL d   1       6.358  -4.563   0.708  0.00  0.00    -0.390 N 
ATOM     24  C   UNL d   1       6.600  -4.979  -0.686  0.00  0.00     0.122 C 
ATOM     25  C   UNL d   1       6.400  -6.484  -0.836  0.00  0.00     0.020 C 
ATOM     26  C   UNL d   1       7.246  -7.264   0.166  0.00  0.00     0.003 C 
ATOM     27  C   UNL d   1       7.025  -6.750   1.587  0.00  0.00     0.020 C 
ATOM     28  C   UNL d   1       7.239  -5.237   1.675  0.00  0.00     0.122 C 
ENDBRANCH  22  23
ENDBRANCH  20  21
ENDBRANCH   6  19
BRANCH   4  29
ATOM     29  C   UNL d   1      -2.555  -1.625  -0.101  0.00  0.00    -0.024 A 
ATOM     30  C   UNL d   1      -3.197  -1.989   1.088  0.00  0.00     0.012 A 
ATOM     31  C   UNL d   1      -4.344  -2.784   1.054  0.00  0.00     0.001 A 
ATOM     32  C   UNL d   1      -4.857  -3.218  -0.168  0.00  0.00     0.000 A 
ATOM     33  C   UNL d   1      -4.219  -2.865  -1.356  0.00  0.00     0.001 A 
ATOM     34  C   UNL d   1      -3.070  -2.073  -1.324  0.00  0.00     0.012 A 
ENDBRANCH   4  29
BRANCH   5  35
ATOM     35  C   UNL d   1      -2.554   1.548  -0.116  0.00  0.00    -0.024 A 
ATOM     36  C   UNL d   1      -3.054   2.002  -1.343  0.00  0.00     0.012 A 
ATOM     37  C   UNL d   1      -4.234   2.748  -1.393  0.00  0.00     0.001 A 
ATOM     38  C   UNL d   1      -4.928   3.038  -0.218  0.00  0.00     0.000 A 
ATOM     39  C   UNL d   1      -4.437   2.590   1.008  0.00  0.00     0.001 A 
ATOM     40  C   UNL d   1      -3.254   1.848   1.059  0.00  0.00     0.012 A 
ENDBRANCH   5  35
TORSDOF 7
