REMARK  6 active torsions:
REMARK  status: ('A' for Active; 'I' for Inactive)
REMARK    1  A    between atoms: C_3  and  S_1 
REMARK    2  A    between atoms: N_4  and  S_1 
REMARK    3  A    between atoms: N_2  and  C_6 
REMARK    4  A    between atoms: C_15  and  N_4 
REMARK    5  A    between atoms: O_20  and  C_9 
REMARK    6  A    between atoms: O_21  and  C_12 
ROOT
ATOM      1  S   UNL d   1       1.073   0.089  -0.003  0.00  0.00     0.263 S 
ATOM      2  O   UNL d   1       1.081   1.507  -0.288  0.00  0.00    -0.200 OA
ATOM      3  O   UNL d   1       2.255  -0.584   0.494  0.00  0.00    -0.200 OA
ENDROOT
BRANCH   1   4
ATOM      4  C   UNL d   1       0.528  -0.755  -1.470  0.00  0.00     0.082 A 
ATOM      5  C   UNL d   1       0.899  -2.092  -1.651  0.00  0.00     0.065 A 
ATOM      6  C   UNL d   1       0.470  -2.803  -2.776  0.00  0.00     0.102 A 
ATOM      7  C   UNL d   1      -0.301  -2.137  -3.748  0.00  0.00     0.101 A 
ATOM      8  C   UNL d   1      -0.653  -0.791  -3.558  0.00  0.00     0.041 A 
ATOM      9  C   UNL d   1      -0.236  -0.090  -2.426  0.00  0.00     0.028 A 
BRANCH   6  10
ATOM     10  O   UNL d   1       0.734  -4.134  -2.960  0.00  0.00    -0.353 OA
ATOM     11  C   UNL d   1       1.470  -4.814  -1.949  0.00  0.00     0.210 C 
ENDBRANCH   6  10
BRANCH   7  12
ATOM     12  O   UNL d   1      -0.831  -2.677  -4.894  0.00  0.00    -0.353 OA
ATOM     13  C   UNL d   1      -0.072  -3.697  -5.532  0.00  0.00     0.210 C 
ENDBRANCH   7  12
ENDBRANCH   1   4
BRANCH   1  14
ATOM     14  N   UNL d   1      -0.187  -0.166   1.066  0.00  0.00    -0.281 N 
ATOM     15  H   UNL d   1      -0.664   0.660   1.421  0.00  0.00     0.179 HD
BRANCH  14  16
ATOM     16  C   UNL d   1      -0.507  -1.451   1.556  0.00  0.00     0.042 A 
ATOM     17  C   UNL d   1       0.158  -1.973   2.663  0.00  0.00     0.032 A 
ATOM     18  C   UNL d   1      -0.235  -3.208   3.197  0.00  0.00     0.038 A 
ATOM     19  C   UNL d   1      -1.298  -3.909   2.610  0.00  0.00     0.103 A 
ATOM     20  C   UNL d   1      -1.959  -3.388   1.489  0.00  0.00     0.038 A 
ATOM     21  C   UNL d   1      -1.564  -2.151   0.972  0.00  0.00     0.032 A 
BRANCH  19  22
ATOM     22  N   UNL d   1      -1.738  -5.190   3.181  0.00  0.00    -0.116 N 
ATOM     23  O   UNL d   1      -1.141  -5.609   4.183  0.00  0.00    -0.532 OA
ATOM     24  O   UNL d   1      -2.681  -5.773   2.628  0.00  0.00    -0.532 OA
ENDBRANCH  19  22
ENDBRANCH  14  16
ENDBRANCH   1  14
TORSDOF 6
