REMARK  3 active torsions:
REMARK  status: ('A' for Active; 'I' for Inactive)
REMARK    1  A    between atoms: C_3  and  C_1 
REMARK    2  A    between atoms: C_2  and  C_7 
REMARK       I    between atoms: N_6  and  C_3 
REMARK    3  A    between atoms: C_10  and  N_6 
ROOT
ATOM      1  C   UNL d   1       2.700   3.197  -0.421  0.00  0.00     0.050 A 
ATOM      2  C   UNL d   1       0.388   3.849   0.027  0.00  0.00     0.035 A 
ATOM      3  C   UNL d   1       1.326   2.907  -0.407  0.00  0.00     0.045 A 
ATOM      4  C   UNL d   1       3.130   4.460   0.007  0.00  0.00     0.016 A 
ATOM      5  C   UNL d   1       2.202   5.417   0.415  0.00  0.00     0.003 A 
ATOM      6  C   UNL d   1       0.836   5.116   0.415  0.00  0.00     0.029 A 
ENDROOT
BRANCH   2   7
ATOM      7  N   UNL d   1      -0.998   3.592   0.089  0.00  0.00    -0.323 N 
ATOM      8  C   UNL d   1      -1.615   2.353  -0.014  0.00  0.00     0.263 C 
ATOM      9  O   UNL d   1      -1.005   1.291  -0.104  0.00  0.00    -0.267 OA
ATOM     10  H   UNL d   1      -1.607   4.372   0.297  0.00  0.00     0.169 HD
BRANCH   8  11
ATOM     11  C   UNL d   1      -3.074   2.365   0.015  0.00  0.00     0.073 A 
ATOM     12  S   UNL d   1      -4.010   3.792   0.088  0.00  0.00    -0.096 SA
ATOM     13  C   UNL d   1      -5.477   2.913   0.012  0.00  0.00     0.057 A 
ATOM     14  C   UNL d   1      -5.279   1.548  -0.057  0.00  0.00    -0.054 A 
ATOM     15  C   UNL d   1      -3.883   1.244  -0.033  0.00  0.00     0.031 A 
ATOM     16  C   UNL d   1      -6.359   0.525  -0.156  0.00  0.00     0.048 C 
ENDBRANCH   8  11
ENDBRANCH   2   7
BRANCH   1  17
ATOM     17  C   UNL d   1       3.700   2.161  -0.870  0.00  0.00     0.417 C 
ATOM     18  F   UNL d   1       3.138   1.042  -1.404  0.00  0.00    -0.166 F 
ATOM     19  F   UNL d   1       4.550   2.638  -1.824  0.00  0.00    -0.166 F 
ATOM     20  F   UNL d   1       4.493   1.730   0.151  0.00  0.00    -0.166 F 
ENDBRANCH   1  17
TORSDOF 3
