REMARK  3 active torsions:
REMARK  status: ('A' for Active; 'I' for Inactive)
REMARK    1  A    between atoms: O_2  and  C_1 
REMARK    2  A    between atoms: C_3  and  C_1 
REMARK    3  A    between atoms: C_4  and  O_2 
ROOT
ATOM      1  C   UNL d   1       0.811  -0.021   0.093  0.00  0.00     0.298 C 
ATOM      2  O   UNL d   1       2.018  -0.178  -0.003  0.00  0.00    -0.259 OA
ENDROOT
BRANCH   1   3
ATOM      3  O   UNL d   1      -0.177  -0.915  -0.275  0.00  0.00    -0.273 OA
BRANCH   3   4
ATOM      4  C   UNL d   1       0.237  -2.245  -0.425  0.00  0.00     0.101 A 
ATOM      5  C   UNL d   1       0.567  -3.035   0.684  0.00  0.00     0.069 A 
ATOM      6  C   UNL d   1       0.824  -4.393   0.510  0.00  0.00     0.050 A 
ATOM      7 CL   UNL d   1       0.588  -2.395   2.288  0.00  0.00    -0.081 Cl
ATOM      8  C   UNL d   1       0.725  -4.954  -0.763  0.00  0.00     0.035 A 
ATOM      9  C   UNL d   1       0.384  -4.168  -1.866  0.00  0.00     0.026 A 
ATOM     10 CL   UNL d   1       0.987  -6.642  -0.970  0.00  0.00    -0.084 Cl
ATOM     11  C   UNL d   1       0.136  -2.804  -1.699  0.00  0.00     0.041 A 
ENDBRANCH   3   4
ENDBRANCH   1   3
BRANCH   1  12
ATOM     12  C   UNL d   1       0.163   1.169   0.713  0.00  0.00     0.041 A 
ATOM     13  C   UNL d   1       0.974   2.106   1.367  0.00  0.00     0.043 A 
ATOM     14  C   UNL d   1       0.398   3.198   2.029  0.00  0.00     0.056 A 
ATOM     15 CL   UNL d   1       1.456   4.301   2.833  0.00  0.00    -0.083 Cl
ATOM     16  C   UNL d   1      -0.994   3.361   2.035  0.00  0.00     0.055 A 
ATOM     17  C   UNL d   1      -1.803   2.436   1.371  0.00  0.00     0.026 A 
ATOM     18 CL   UNL d   1      -1.775   4.668   2.848  0.00  0.00    -0.083 Cl
ATOM     19  C   UNL d   1      -1.229   1.347   0.711  0.00  0.00     0.019 A 
ENDBRANCH   1  12
TORSDOF 3
