REMARK  5 active torsions:
REMARK  status: ('A' for Active; 'I' for Inactive)
REMARK    1  A    between atoms: N_2  and  C_1 
REMARK    2  A    between atoms: C_3  and  N_2 
REMARK    3  A    between atoms: C_12  and  N_6 
REMARK    4  A    between atoms: C_14  and  C_12 
REMARK    5  A    between atoms: O_13  and  C_14 
ROOT
ATOM      1  C   UNL d   1       1.262   0.072   0.486  0.00  0.00     0.168 C 
ATOM      2  S   UNL d   1       2.875   0.038   0.058  0.00  0.00    -0.041 SA
ATOM      3  N   UNL d   1       0.598   1.244   0.308  0.00  0.00    -0.365 N 
ATOM      4  H   UNL d   1       1.174   1.978  -0.097  0.00  0.00     0.161 HD
ENDROOT
BRANCH   1   5
ATOM      5  N   UNL d   1       0.554  -0.937   1.069  0.00  0.00    -0.362 N 
ATOM      6  H   UNL d   1      -0.441  -0.921   0.913  0.00  0.00     0.162 HD
BRANCH   5   7
ATOM      7  C   UNL d   1       1.119  -2.166   1.605  0.00  0.00     0.088 C 
ATOM      8  C   UNL d   1       0.248  -2.865   2.672  0.00  0.00     0.009 C 
ATOM      9  C   UNL d   1       0.989  -4.201   2.776  0.00  0.00     0.011 C 
ATOM     10  C   UNL d   1      -1.113  -3.317   2.104  0.00  0.00     0.007 C 
ATOM     11  C   UNL d   1       0.787  -4.532   1.294  0.00  0.00    -0.012 C 
ATOM     12  C   UNL d   1       1.362  -3.290   0.579  0.00  0.00     0.030 C 
ATOM     13  C   UNL d   1      -0.743  -4.490   1.185  0.00  0.00     0.005 C 
ENDBRANCH   5   7
ENDBRANCH   1   5
BRANCH   3  14
ATOM     14  C   UNL d   1      -0.756   1.629   0.697  0.00  0.00     0.153 C 
BRANCH  14  15
ATOM     15  C   UNL d   1      -0.983   1.634   2.218  0.00  0.00     0.132 C 
ATOM     16  C   UNL d   1      -2.355   2.198   2.560  0.00  0.00     0.041 C 
BRANCH  15  17
ATOM     17  O   UNL d   1       0.004   2.443   2.859  0.00  0.00    -0.394 OA
ATOM     18  H   UNL d   1       0.866   2.063   2.603  0.00  0.00     0.210 HD
ENDBRANCH  15  17
ENDBRANCH  14  15
ENDBRANCH   3  14
TORSDOF 5
