REMARK  3 active torsions:
REMARK  status: ('A' for Active; 'I' for Inactive)
REMARK    1  A    between atoms: C_6  and  N_1 
REMARK    2  A    between atoms: O_9  and  C_12 
REMARK    3  A    between atoms: C_13  and  O_9 
ROOT
ATOM      1  C   UNL d   1       0.065   2.293   0.033  0.00  0.00     0.046 A 
ATOM      2  C   UNL d   1      -0.656   2.989   1.015  0.00  0.00     0.033 A 
ATOM      3  C   UNL d   1       0.803   3.052  -0.889  0.00  0.00     0.033 A 
ATOM      4  C   UNL d   1       0.047   5.123   0.115  0.00  0.00     0.076 A 
ATOM      5  C   UNL d   1       0.788   4.453  -0.853  0.00  0.00     0.039 A 
ATOM      6  C   UNL d   1      -0.640   4.389   1.077  0.00  0.00     0.039 A 
ENDROOT
BRANCH   4   7
ATOM      7  O   UNL d   1       0.106   6.497   0.087  0.00  0.00    -0.311 OA
BRANCH   7   8
ATOM      8  C   UNL d   1      -1.007   7.231   0.430  0.00  0.00     0.076 A 
ATOM      9  C   UNL d   1      -0.763   8.465   1.038  0.00  0.00     0.039 A 
ATOM     10  C   UNL d   1      -1.828   9.287   1.413  0.00  0.00     0.026 A 
ATOM     11  C   UNL d   1      -3.137   8.872   1.174  0.00  0.00     0.034 A 
ATOM     12  C   UNL d   1      -3.388   7.656   0.539  0.00  0.00     0.026 A 
ATOM     13 CL   UNL d   1      -4.453   9.869   1.657  0.00  0.00    -0.084 Cl
ATOM     14  C   UNL d   1      -2.321   6.845   0.147  0.00  0.00     0.039 A 
ENDBRANCH   7   8
ENDBRANCH   4   7
BRANCH   1  15
ATOM     15  N   UNL d   1       0.059   0.871  -0.013  0.00  0.00    -0.245 N 
ATOM     16  C   UNL d   1      -0.883   0.064   0.567  0.00  0.00     0.255 A 
ATOM     17  C   UNL d   1      -0.498  -1.327   0.300  0.00  0.00     0.080 A 
ATOM     18  O   UNL d   1      -1.909   0.329   1.169  0.00  0.00    -0.268 OA
ATOM     19  C   UNL d   1       0.619  -1.310  -0.421  0.00  0.00     0.080 A 
ATOM     20  C   UNL d   1       0.992   0.092  -0.641  0.00  0.00     0.255 A 
ATOM     21  O   UNL d   1       2.005   0.385  -1.255  0.00  0.00    -0.268 OA
ENDBRANCH   1  15
TORSDOF 3
