REMARK  8 active torsions:
REMARK  status: ('A' for Active; 'I' for Inactive)
REMARK    1  A    between atoms: N_5  and  S_1 
REMARK    2  A    between atoms: C_10  and  S_1 
REMARK    3  A    between atoms: S_2  and  N_6 
REMARK    4  A    between atoms: C_11  and  S_2 
REMARK    5  A    between atoms: S_3  and  N_8 
REMARK    6  A    between atoms: C_9  and  S_3 
REMARK    7  A    between atoms: S_4  and  N_7 
REMARK    8  A    between atoms: C_12  and  S_4 
ROOT
ATOM      1  N   UNL d   1      -0.234   1.132   0.586  0.00  0.00    -0.304 N 
ATOM      2  N   UNL d   1       0.205   2.774   3.781  0.00  0.00    -0.204 NA
ATOM      3  N   UNL d   1      -0.470   5.808   1.651  0.00  0.00    -0.204 NA
ATOM      4  N   UNL d   1      -0.148   4.054  -1.131  0.00  0.00    -0.304 N 
ATOM      5  C   UNL d   1      -0.304   5.524  -0.855  0.00  0.00     0.151 C 
ATOM      6  C   UNL d   1      -0.769   1.149   2.000  0.00  0.00     0.151 C 
ATOM      7  C   UNL d   1       0.202   5.270   2.916  0.00  0.00     0.123 C 
ATOM      8  C   UNL d   1      -1.144   1.710  -0.448  0.00  0.00     0.156 C 
ATOM      9  C   UNL d   1       0.425   5.959   0.450  0.00  0.00     0.128 C 
ATOM     10  C   UNL d   1       0.280   1.387   3.121  0.00  0.00     0.128 C 
ATOM     11  C   UNL d   1       0.780   3.830   2.797  0.00  0.00     0.123 C 
ATOM     12  C   UNL d   1      -1.184   3.243  -0.420  0.00  0.00     0.156 C 
ENDROOT
BRANCH   1  13
ATOM     13  S   UNL d   1       0.697  -0.219   0.068  0.00  0.00     0.260 S 
ATOM     14  O   UNL d   1       1.794  -0.394   0.989  0.00  0.00    -0.200 OA
ATOM     15  O   UNL d   1       0.919  -0.127  -1.367  0.00  0.00    -0.200 OA
BRANCH  13  16
ATOM     16  C   UNL d   1      -0.371  -1.639   0.299  0.00  0.00     0.079 A 
ATOM     17  C   UNL d   1      -1.238  -2.077  -0.706  0.00  0.00     0.026 A 
ATOM     18  C   UNL d   1      -1.997  -3.238  -0.502  0.00  0.00     0.008 A 
ATOM     19  C   UNL d   1      -1.879  -3.973   0.688  0.00  0.00    -0.062 A 
ATOM     20  C   UNL d   1      -0.965  -3.552   1.660  0.00  0.00     0.008 A 
ATOM     21  C   UNL d   1      -2.722  -5.194   0.920  0.00  0.00     0.048 C 
ATOM     22  C   UNL d   1      -0.209  -2.398   1.464  0.00  0.00     0.026 A 
ENDBRANCH  13  16
ENDBRANCH   1  13
BRANCH   2  23
ATOM     23  S   UNL d   1       1.142   2.800   5.299  0.00  0.00     0.243 S 
ATOM     24  O   UNL d   1       2.447   2.258   4.983  0.00  0.00    -0.206 OA
ATOM     25  O   UNL d   1       1.015   4.138   5.840  0.00  0.00    -0.206 OA
BRANCH  23  26
ATOM     26  C   UNL d   1       0.387   1.681   6.497  0.00  0.00     0.074 A 
ATOM     27  C   UNL d   1       1.130   0.619   7.047  0.00  0.00     0.025 A 
ATOM     28  C   UNL d   1       0.584  -0.191   8.063  0.00  0.00     0.008 A 
ATOM     29  C   UNL d   1      -0.707   0.050   8.550  0.00  0.00    -0.062 A 
ATOM     30  C   UNL d   1      -1.408   1.158   8.051  0.00  0.00     0.008 A 
ATOM     31  C   UNL d   1      -1.312  -0.842   9.603  0.00  0.00     0.048 C 
ATOM     32  C   UNL d   1      -0.868   1.970   7.036  0.00  0.00     0.025 A 
ENDBRANCH  23  26
ENDBRANCH   2  23
BRANCH   4  33
ATOM     33  S   UNL d   1       1.431   3.570  -1.531  0.00  0.00     0.260 S 
ATOM     34  O   UNL d   1       2.213   4.795  -1.636  0.00  0.00    -0.200 OA
ATOM     35  O   UNL d   1       1.861   2.535  -0.634  0.00  0.00    -0.200 OA
BRANCH  33  36
ATOM     36  C   UNL d   1       1.400   2.945  -3.200  0.00  0.00     0.079 C 
ATOM     37  C   UNL d   1       0.218   2.798  -3.922  0.00  0.00     0.026 C 
ATOM     38  C   UNL d   1       0.278   2.667  -5.316  0.00  0.00     0.008 C 
ATOM     39  C   UNL d   1       1.508   2.716  -5.991  0.00  0.00    -0.062 C 
ATOM     40  C   UNL d   1       2.692   2.737  -5.247  0.00  0.00     0.008 C 
ATOM     41  C   UNL d   1       1.545   2.833  -7.488  0.00  0.00     0.048 C 
ATOM     42  C   UNL d   1       2.638   2.858  -3.857  0.00  0.00     0.026 C 
ENDBRANCH  33  36
ENDBRANCH   4  33
BRANCH   3  43
ATOM     43  S   UNL d   1      -1.500   7.185   1.889  0.00  0.00     0.243 S 
ATOM     44  O   UNL d   1      -1.798   7.769   0.592  0.00  0.00    -0.206 OA
ATOM     45  O   UNL d   1      -2.574   6.762   2.768  0.00  0.00    -0.206 OA
BRANCH  43  46
ATOM     46  C   UNL d   1      -0.494   8.341   2.792  0.00  0.00     0.074 A 
ATOM     47  C   UNL d   1       0.346   9.253   2.135  0.00  0.00     0.025 A 
ATOM     48  C   UNL d   1       1.149  10.120   2.889  0.00  0.00     0.008 A 
ATOM     49  C   UNL d   1       1.103  10.100   4.291  0.00  0.00    -0.062 A 
ATOM     50  C   UNL d   1       0.219   9.225   4.933  0.00  0.00     0.008 A 
ATOM     51  C   UNL d   1       2.003  10.989   5.099  0.00  0.00     0.048 C 
ATOM     52  C   UNL d   1      -0.582   8.361   4.189  0.00  0.00     0.025 A 
ENDBRANCH  43  46
ENDBRANCH   3  43
TORSDOF 8
