REMARK  7 active torsions:
REMARK  status: ('A' for Active; 'I' for Inactive)
REMARK    1  A    between atoms: C_4  and  N_1 
REMARK    2  A    between atoms: S_11  and  C_2 
REMARK    3  A    between atoms: O_23  and  C_10 
REMARK    4  A    between atoms: C_18  and  S_11 
REMARK    5  A    between atoms: O_26  and  C_13 
REMARK    6  A    between atoms: C_16  and  C_18 
REMARK    7  A    between atoms: C_17  and  C_16 
ROOT
ATOM      1  N   UNL d   1       2.332  -0.881   0.153  0.00  0.00    -0.255 N 
ATOM      2  C   UNL d   1       2.397   0.474  -0.183  0.00  0.00     0.155 A 
ATOM      3  C   UNL d   1       1.098  -1.518   0.303  0.00  0.00     0.267 A 
ATOM      4  N   UNL d   1       1.354   1.228  -0.304  0.00  0.00    -0.335 N 
ATOM      5  HN  UNL d   1       1.455   2.216  -0.538  1.00  0.00     0.168 HD
ATOM      6  C   UNL d   1      -0.098  -0.679   0.190  0.00  0.00     0.059 A 
ATOM      7  C   UNL d   1       0.080   0.667  -0.109  0.00  0.00     0.049 A 
ATOM      8  O   UNL d   1       0.950  -2.724   0.499  0.00  0.00    -0.267 OA
ATOM      9  C   UNL d   1      -1.373  -1.234   0.353  0.00  0.00     0.019 A 
ATOM     10  C   UNL d   1      -1.052   1.469  -0.237  0.00  0.00     0.030 A 
ATOM     11  C   UNL d   1      -2.495  -0.423   0.218  0.00  0.00     0.001 A 
ATOM     12  C   UNL d   1      -2.336   0.929  -0.075  0.00  0.00     0.002 A 
ENDROOT
BRANCH   1  13
ATOM     13  C   UNL d   1       3.454  -1.757   0.108  0.00  0.00     0.081 A 
ATOM     14  C   UNL d   1       3.533  -2.582  -1.043  0.00  0.00     0.071 A 
ATOM     15  C   UNL d   1       4.589  -3.470  -1.240  0.00  0.00     0.092 A 
ATOM     16  C   UNL d   1       5.568  -3.557  -0.248  0.00  0.00     0.070 A 
ATOM     17  C   UNL d   1       5.482  -2.771   0.908  0.00  0.00     0.065 A 
ATOM     18 CL   UNL d   1       6.906  -4.640  -0.402  0.00  0.00    -0.081 Cl
ATOM     19  C   UNL d   1       4.430  -1.863   1.107  0.00  0.00     0.097 A 
BRANCH  15  20
ATOM     20  O   UNL d   1       4.749  -4.228  -2.368  0.00  0.00    -0.354 OA
ATOM     21  C   UNL d   1       3.614  -4.391  -3.211  0.00  0.00     0.210 C 
ENDBRANCH  15  20
BRANCH  19  22
ATOM     22  O   UNL d   1       4.539  -1.200   2.294  0.00  0.00    -0.354 OA
ATOM     23  C   UNL d   1       3.414  -0.547   2.858  0.00  0.00     0.210 C 
ENDBRANCH  19  22
ENDBRANCH   1  13
BRANCH   2  24
ATOM     24  S   UNL d   1       3.949   1.270  -0.446  0.00  0.00    -0.085 SA
BRANCH  24  25
ATOM     25  C   UNL d   1       4.398   0.566  -2.044  0.00  0.00     0.166 C 
BRANCH  25  26
ATOM     26  C   UNL d   1       5.624   1.196  -2.675  0.00  0.00     0.169 C 
ATOM     27  O   UNL d   1       5.924   2.382  -2.584  0.00  0.00    -0.291 OA
BRANCH  26  28
ATOM     28  C   UNL d   1       6.501   0.281  -3.468  0.00  0.00     0.011 A 
ATOM     29  C   UNL d   1       5.980  -0.853  -4.109  0.00  0.00     0.017 A 
ATOM     30  C   UNL d   1       6.832  -1.743  -4.767  0.00  0.00     0.025 A 
ATOM     31  C   UNL d   1       8.202  -1.493  -4.799  0.00  0.00     0.034 A 
ATOM     32  C   UNL d   1       8.725  -0.350  -4.194  0.00  0.00     0.025 A 
ATOM     33 CL   UNL d   1       9.251  -2.604  -5.588  0.00  0.00    -0.084 Cl
ATOM     34  C   UNL d   1       7.875   0.541  -3.532  0.00  0.00     0.017 A 
ENDBRANCH  26  28
ENDBRANCH  25  26
ENDBRANCH  24  25
ENDBRANCH   2  24
TORSDOF 7
