REMARK  5 active torsions:
REMARK  status: ('A' for Active; 'I' for Inactive)
REMARK    1  A    between atoms: N_4  and  C_1 
REMARK       I    between atoms: C_9  and  N_4 
REMARK    2  A    between atoms: C_23  and  C_9 
REMARK    3  A    between atoms: C_10  and  C_22 
REMARK    4  A    between atoms: S_15  and  C_23 
REMARK    5  A    between atoms: C_22  and  S_15 
ROOT
ATOM      1  N   UNL d   1       3.872   0.902  -0.568  0.00  0.00    -0.324 N 
ATOM      2  C   UNL d   1       3.736   2.049   0.193  0.00  0.00     0.231 C 
ATOM      3  O   UNL d   1       2.777   2.312   0.917  0.00  0.00    -0.272 OA
ATOM      4  H   UNL d   1       4.678   0.870  -1.190  0.00  0.00     0.169 HD
ENDROOT
BRANCH   2   5
ATOM      5  C   UNL d   1       4.861   3.060  -0.002  0.00  0.00     0.177 C 
BRANCH   5   6
ATOM      6  S   UNL d   1       6.478   2.222  -0.071  0.00  0.00    -0.155 SA
BRANCH   6   7
ATOM      7  C   UNL d   1       7.564   3.682  -0.138  0.00  0.00     0.114 C 
BRANCH   7   8
ATOM      8  C   UNL d   1       8.997   3.236  -0.299  0.00  0.00    -0.027 A 
ATOM      9  C   UNL d   1       9.581   2.997  -1.556  0.00  0.00     0.042 A 
ATOM     10  C   UNL d   1      10.879   2.490  -1.656  0.00  0.00     0.048 A 
ATOM     11 CL   UNL d   1       8.727   3.292  -3.030  0.00  0.00    -0.084 Cl
ATOM     12  C   UNL d   1      11.604   2.215  -0.500  0.00  0.00     0.035 A 
ATOM     13  C   UNL d   1      11.050   2.450   0.755  0.00  0.00     0.024 A 
ATOM     14 CL   UNL d   1      13.192   1.565  -0.623  0.00  0.00    -0.084 Cl
ATOM     15  C   UNL d   1       9.754   2.957   0.855  0.00  0.00     0.011 A 
ENDBRANCH   7   8
ENDBRANCH   6   7
ENDBRANCH   5   6
ENDBRANCH   2   5
BRANCH   1  16
ATOM     16  C   UNL d   1       3.090  -0.268  -0.521  0.00  0.00     0.076 A 
ATOM     17  C   UNL d   1       2.077  -0.493   0.411  0.00  0.00     0.078 A 
ATOM     18  C   UNL d   1       1.391  -1.707   0.398  0.00  0.00     0.157 A 
ATOM     19  F   UNL d   1       0.435  -1.928   1.312  0.00  0.00    -0.203 F 
ATOM     20  C   UNL d   1       1.695  -2.689  -0.539  0.00  0.00     0.157 A 
ATOM     21  C   UNL d   1       2.696  -2.481  -1.476  0.00  0.00     0.090 A 
ATOM     22  F   UNL d   1       1.026  -3.849  -0.541  0.00  0.00    -0.203 F 
ATOM     23  C   UNL d   1       3.389  -1.275  -1.453  0.00  0.00     0.146 A 
ATOM     24  F   UNL d   1       4.366  -1.074  -2.352  0.00  0.00    -0.204 F 
ENDBRANCH   1  16
TORSDOF 5
