REMARK  7 active torsions:
REMARK  status: ('A' for Active; 'I' for Inactive)
REMARK    1  A    between atoms: O_20  and  C_1 
REMARK    2  A    between atoms: C_3  and  C_2 
REMARK       I    between atoms: N_7  and  C_3 
REMARK    3  A    between atoms: O_21  and  C_4 
REMARK    4  A    between atoms: O_22  and  C_5 
REMARK       I    between atoms: C_6  and  N_8 
REMARK    5  A    between atoms: C_11  and  C_6 
REMARK    6  A    between atoms: N_8  and  N_7 
REMARK    7  A    between atoms: N_13  and  C_12 
ROOT
ATOM      1  C   UNL d   1      -2.835   0.560  -0.065  0.00  0.00     0.270 C 
ATOM      2  N   UNL d   1      -3.252   1.865  -0.220  0.00  0.00    -0.263 N 
ATOM      3  O   UNL d   1      -3.648  -0.370  -0.048  0.00  0.00    -0.266 OA
ATOM      4  H   UNL d   1      -2.662   2.695  -0.188  0.00  0.00     0.190 HD
ENDROOT
BRANCH   2   5
ATOM      5  N   UNL d   1      -4.616   2.086  -0.475  0.00  0.00    -0.263 N 
ATOM      6  C   UNL d   1      -5.106   3.372  -0.383  0.00  0.00     0.270 C 
ATOM      7  O   UNL d   1      -4.391   4.312  -0.039  0.00  0.00    -0.266 OA
ATOM      8  H   UNL d   1      -5.186   1.250  -0.593  0.00  0.00     0.190 HD
BRANCH   6   9
ATOM      9  C   UNL d   1      -6.539   3.600  -0.742  0.00  0.00     0.033 A 
ATOM     10  C   UNL d   1      -7.317   2.690  -1.460  0.00  0.00     0.019 A 
ATOM     11  C   UNL d   1      -8.630   3.029  -1.854  0.00  0.00     0.030 A 
ATOM     12  C   UNL d   1      -9.215   4.269  -1.550  0.00  0.00     0.029 A 
ATOM     13  C   UNL d   1      -8.419   5.144  -0.789  0.00  0.00     0.030 A 
ATOM     14  C   UNL d   1      -7.107   4.828  -0.403  0.00  0.00     0.019 A 
BRANCH  12  15
ATOM     15  N   UNL d   1     -10.510   4.615  -1.918  0.00  0.00    -0.390 N 
ATOM     16  C   UNL d   1     -10.835   6.004  -2.257  0.00  0.00     0.149 C 
ATOM     17  C   UNL d   1     -11.450   3.639  -2.463  0.00  0.00     0.149 C 
ENDBRANCH  12  15
ENDBRANCH   6   9
ENDBRANCH   2   5
BRANCH   1  18
ATOM     18  C   UNL d   1      -1.370   0.273   0.037  0.00  0.00     0.039 A 
ATOM     19  C   UNL d   1      -0.368   1.214  -0.183  0.00  0.00     0.057 A 
ATOM     20  C   UNL d   1       0.987   0.831  -0.225  0.00  0.00     0.105 A 
ATOM     21  C   UNL d   1       1.343  -0.516  -0.016  0.00  0.00     0.135 A 
ATOM     22  C   UNL d   1       0.337  -1.445   0.327  0.00  0.00     0.105 A 
ATOM     23  C   UNL d   1      -1.005  -1.053   0.305  0.00  0.00     0.057 A 
BRANCH  20  24
ATOM     24  O   UNL d   1       1.802   1.903  -0.498  0.00  0.00    -0.353 OA
ATOM     25  C   UNL d   1       3.184   1.689  -0.739  0.00  0.00     0.210 C 
ENDBRANCH  20  24
BRANCH  21  26
ATOM     26  O   UNL d   1       2.666  -0.874  -0.054  0.00  0.00    -0.351 OA
ATOM     27  C   UNL d   1       2.961  -2.003  -0.887  0.00  0.00     0.210 C 
ENDBRANCH  21  26
BRANCH  22  28
ATOM     28  O   UNL d   1       0.732  -2.719   0.650  0.00  0.00    -0.353 OA
ATOM     29  C   UNL d   1      -0.188  -3.507   1.398  0.00  0.00     0.210 C 
ENDBRANCH  22  28
ENDBRANCH   1  18
TORSDOF 7
