REMARK  10 active torsions:
REMARK  status: ('A' for Active; 'I' for Inactive)
REMARK    1  A    between atoms: C_2  and  C_1 
REMARK    2  A    between atoms: C_3  and  C_1 
REMARK    3  A    between atoms: C_6  and  C_1 
REMARK    4  A    between atoms: O_7  and  C_2 
REMARK    5  A    between atoms: O_8  and  C_3 
REMARK    6  A    between atoms: C_9  and  C_6 
REMARK    7  A    between atoms: C_10  and  C_6 
REMARK    8  A    between atoms: C_11  and  O_8 
REMARK    9  A    between atoms: C_13  and  C_9 
REMARK   10  A    between atoms: C_12  and  C_10 
ROOT
ATOM      1  C   UNL d   1       0.913  -0.126  -0.047  0.00  0.00     0.187 C 
ENDROOT
BRANCH   1   2
ATOM      2  C   UNL d   1       0.421   0.359  -1.399  0.00  0.00     0.154 C 
ATOM      3  O   UNL d   1      -0.084   1.463  -1.566  0.00  0.00    -0.649 OA
BRANCH   2   4
ATOM      4  O   UNL d   1       0.610  -0.496  -2.428  0.00  0.00    -0.776 OA
ATOM      5  H   UNL d   1       0.898  -1.400  -2.160  0.00  0.00     0.167 HD
ENDBRANCH   2   4
ENDBRANCH   1   2
BRANCH   1   6
ATOM      6  C   UNL d   1       0.280  -1.465   0.202  0.00  0.00     0.273 C 
ATOM      7  O   UNL d   1       0.402  -2.411  -0.567  0.00  0.00    -0.264 OA
BRANCH   6   8
ATOM      8  O   UNL d   1      -0.450  -1.446   1.347  0.00  0.00    -0.321 OA
BRANCH   8   9
ATOM      9  C   UNL d   1      -1.274  -2.594   1.596  0.00  0.00     0.174 C 
ATOM     10  C   UNL d   1      -2.645  -2.327   1.007  0.00  0.00     0.034 C 
ENDBRANCH   8   9
ENDBRANCH   6   8
ENDBRANCH   1   6
BRANCH   1  11
ATOM     11  C   UNL d   1       2.471  -0.125   0.038  0.00  0.00     0.009 C 
BRANCH  11  12
ATOM     12  C   UNL d   1       2.979   1.316  -0.287  0.00  0.00     0.005 C 
BRANCH  12  13
ATOM     13  C   UNL d   1       4.496   1.472  -0.425  0.00  0.00    -0.004 C 
ATOM     14  C   UNL d   1       4.865   2.913  -0.759  0.00  0.00     0.005 C 
ENDBRANCH  12  13
ENDBRANCH  11  12
BRANCH  11  15
ATOM     15  C   UNL d   1       3.014  -0.559   1.430  0.00  0.00     0.005 C 
BRANCH  15  16
ATOM     16  C   UNL d   1       2.850  -2.035   1.806  0.00  0.00    -0.004 C 
ATOM     17  C   UNL d   1       3.495  -2.339   3.151  0.00  0.00     0.005 C 
ENDBRANCH  15  16
ENDBRANCH  11  15
ENDBRANCH   1  11
TORSDOF 10
