REMARK  3 active torsions:
REMARK  status: ('A' for Active; 'I' for Inactive)
REMARK    1  A    between atoms: C_2  and  C_1 
REMARK       I    between atoms: N_6  and  C_1 
REMARK    2  A    between atoms: N_4  and  C_3 
REMARK    3  A    between atoms: N_11  and  N_6 
ROOT
ATOM      1  C   UNL d   1       0.270   1.025  -0.493  0.00  0.00     0.033 A 
ATOM      2  C   UNL d   1      -1.316   3.171  -1.525  0.00  0.00     0.029 A 
ATOM      3  C   UNL d   1       0.564   1.590  -1.734  0.00  0.00     0.019 A 
ATOM      4  C   UNL d   1      -0.805   1.524   0.238  0.00  0.00     0.019 A 
ATOM      5  C   UNL d   1      -0.218   2.647  -2.230  0.00  0.00     0.030 A 
ATOM      6  C   UNL d   1      -1.588   2.566  -0.284  0.00  0.00     0.030 A 
ENDROOT
BRANCH   1   7
ATOM      7  C   UNL d   1       1.103  -0.059   0.087  0.00  0.00     0.265 C 
ATOM      8  O   UNL d   1       1.279  -0.133   1.304  0.00  0.00    -0.266 OA
ATOM      9  N   UNL d   1       1.638  -0.969  -0.816  0.00  0.00    -0.290 N 
ATOM     10  H   UNL d   1       1.255  -1.027  -1.758  0.00  0.00     0.183 HD
BRANCH   9  11
ATOM     11  N   UNL d   1       2.377  -2.069  -0.325  0.00  0.00    -0.247 NA
ATOM     12  H   UNL d   1       2.321  -2.023   0.704  0.00  0.00     0.143 HD
ATOM     13  H   UNL d   1       3.366  -1.897  -0.523  0.00  0.00     0.143 HD
ENDBRANCH   9  11
ENDBRANCH   1   7
BRANCH   2  14
ATOM     14  N   UNL d   1      -2.119   4.184  -2.030  0.00  0.00    -0.390 N 
ATOM     15  C   UNL d   1      -2.766   5.147  -1.135  0.00  0.00     0.149 C 
ATOM     16  C   UNL d   1      -2.032   4.633  -3.418  0.00  0.00     0.149 C 
ENDBRANCH   2  14
TORSDOF 3
