REMARK  2 active torsions:
REMARK  status: ('A' for Active; 'I' for Inactive)
REMARK       I    between atoms: N_2  and  C_1 
REMARK       I    between atoms: N_5  and  C_1 
REMARK    1  A    between atoms: C_4  and  N_3 
REMARK    2  A    between atoms: C_8  and  N_5 
ROOT
ATOM      1  C   UNL d   1      -2.682  -2.205  -3.665  0.00  0.00     0.103 A 
ATOM      2  N   UNL d   1      -3.864  -1.608  -3.921  0.00  0.00    -0.351 N 
ATOM      3  HN  UNL d   1      -4.266  -0.940  -3.263  1.00  0.00     0.166 HD
ATOM      4  N   UNL d   1      -5.302  -3.261  -8.208  0.00  0.00    -0.191 NA
ATOM      5  C   UNL d   1      -4.719  -3.050  -7.225  0.00  0.00     0.101 C 
ATOM      6  C   UNL d   1      -4.003  -2.796  -6.021  0.00  0.00     0.060 A 
ATOM      7  C   UNL d   1      -2.124  -3.111  -4.570  0.00  0.00     0.050 A 
ATOM      8  C   UNL d   1      -4.504  -1.919  -5.073  0.00  0.00     0.112 A 
ATOM      9  C   UNL d   1      -2.781  -3.402  -5.763  0.00  0.00     0.028 A 
ENDROOT
BRANCH   1  10
ATOM     10  N   UNL d   1      -1.973  -1.870  -2.524  0.00  0.00    -0.366 N 
ATOM     11  C   UNL d   1      -2.209  -0.547  -1.925  0.00  0.00     0.144 C 
ATOM     12  C   UNL d   1      -0.866   0.183  -1.703  0.00  0.00     0.147 C 
ATOM     13  N   UNL d   1       0.153  -0.613  -0.991  0.00  0.00    -0.332 N 
ATOM     14  C   UNL d   1       0.664  -0.117   0.204  0.00  0.00     0.322 C 
ATOM     15  C   UNL d   1       0.642  -1.797  -1.703  0.00  0.00     0.129 C 
ATOM     16  N   UNL d   1       1.524  -0.972   0.860  0.00  0.00    -0.309 N 
ATOM     17  O   UNL d   1       0.356   0.999   0.612  0.00  0.00    -0.247 OA
ATOM     18  H   UNL d   1       1.578  -1.911   0.506  0.00  0.00     0.170 HD
ATOM     19  C   UNL d   1      -0.147  -3.062  -1.375  0.00  0.00     0.040 C 
ATOM     20  C   UNL d   1      -1.656  -2.945  -1.587  0.00  0.00     0.126 C 
BRANCH  16  21
ATOM     21  C   UNL d   1       2.335  -0.690   1.979  0.00  0.00     0.039 A 
ATOM     22  C   UNL d   1       2.339   0.533   2.652  0.00  0.00     0.053 A 
ATOM     23  C   UNL d   1       3.245   0.763   3.688  0.00  0.00     0.037 A 
ATOM     24 CL   UNL d   1       3.254   2.288   4.488  0.00  0.00    -0.084 Cl
ATOM     25  C   UNL d   1       4.152  -0.219   4.074  0.00  0.00     0.048 A 
ATOM     26  C   UNL d   1       4.124  -1.450   3.430  0.00  0.00     0.037 A 
ATOM     27  C   UNL d   1       3.218  -1.695   2.396  0.00  0.00     0.053 A 
ATOM     28 CL   UNL d   1       5.236  -2.679   3.894  0.00  0.00    -0.084 Cl
ENDBRANCH  16  21
ENDBRANCH   1  10
TORSDOF 2
