REMARK  5 active torsions:
REMARK  status: ('A' for Active; 'I' for Inactive)
REMARK    1  A    between atoms: C_12  and  C_1 
REMARK       I    between atoms: C_5  and  N_10 
REMARK    2  A    between atoms: C_6  and  C_5 
REMARK    3  A    between atoms: S_11  and  C_7 
REMARK    4  A    between atoms: N_10  and  C_20 
REMARK    5  A    between atoms: C_21  and  S_11 
ROOT
ATOM      1  C   UNL d   1      -8.783  -2.509   0.167  0.00  0.00     0.259 C 
ATOM      2  N   UNL d   1      -8.008  -1.505  -0.389  0.00  0.00    -0.323 N 
ATOM      3  O   UNL d   1      -8.495  -3.193   1.144  0.00  0.00    -0.267 OA
ATOM      4  H   UNL d   1      -8.409  -0.979  -1.158  0.00  0.00     0.169 HD
ENDROOT
BRANCH   2   5
ATOM      5  C   UNL d   1      -6.662  -1.209  -0.081  0.00  0.00     0.035 A 
ATOM      6  C   UNL d   1      -5.923  -1.897   0.878  0.00  0.00     0.030 A 
ATOM      7  C   UNL d   1      -4.555  -1.646   1.041  0.00  0.00     0.016 A 
ATOM      8  C   UNL d   1      -3.884  -0.704   0.247  0.00  0.00    -0.002 A 
ATOM      9  C   UNL d   1      -4.648   0.036  -0.665  0.00  0.00     0.016 A 
ATOM     10  C   UNL d   1      -6.021  -0.214  -0.830  0.00  0.00     0.030 A 
BRANCH   8  11
ATOM     11  C   UNL d   1      -2.427  -0.499   0.343  0.00  0.00     0.085 A 
ATOM     12  N   UNL d   1      -1.796   0.616   0.029  0.00  0.00    -0.349 N 
ATOM     13  C   UNL d   1      -0.432   0.477   0.253  0.00  0.00     0.050 A 
ATOM     14  HN  UNL d   1      -2.245   1.460  -0.327  1.00  0.00     0.166 HD
ATOM     15  C   UNL d   1       0.550   1.472   0.075  0.00  0.00     0.031 A 
ATOM     16  C   UNL d   1      -0.026  -0.778   0.702  0.00  0.00     0.034 A 
ATOM     17  C   UNL d   1       1.893   1.188   0.362  0.00  0.00     0.009 A 
ATOM     18  C   UNL d   1       2.280  -0.076   0.818  0.00  0.00    -0.061 A 
ATOM     19  C   UNL d   1       1.317  -1.079   0.985  0.00  0.00     0.028 A 
ATOM     20  C   UNL d   1       3.723  -0.354   1.127  0.00  0.00     0.048 C 
ATOM     21  S   UNL d   1      -1.398  -1.796   0.828  0.00  0.00    -0.070 SA
ENDBRANCH   8  11
ENDBRANCH   2   5
BRANCH   1  22
ATOM     22  C   UNL d   1     -10.031  -2.864  -0.557  0.00  0.00     0.066 A 
ATOM     23  C   UNL d   1     -10.927  -1.969  -1.142  0.00  0.00     0.090 A 
ATOM     24  N   UNL d   1     -12.014  -2.391  -1.846  0.00  0.00    -0.359 N 
ATOM     25  C   UNL d   1     -12.229  -3.720  -1.956  0.00  0.00     0.089 A 
ATOM     26  HN  UNL d   1     -12.650  -1.721  -2.278  1.00  0.00     0.166 HD
ATOM     27  C   UNL d   1     -11.409  -4.676  -1.390  0.00  0.00     0.018 A 
ATOM     28  C   UNL d   1     -10.300  -4.238  -0.677  0.00  0.00     0.021 A 
BRANCH  23  29
ATOM     29  S   UNL d   1     -10.733  -0.195  -1.112  0.00  0.00    -0.072 SA
BRANCH  29  30
ATOM     30  C   UNL d   1     -11.757   0.279   0.268  0.00  0.00     0.007 A 
ATOM     31  C   UNL d   1     -11.191   1.043   1.296  0.00  0.00     0.020 A 
ATOM     32  C   UNL d   1     -11.978   1.499   2.360  0.00  0.00     0.025 A 
ATOM     33  C   UNL d   1     -13.337   1.194   2.394  0.00  0.00     0.034 A 
ATOM     34  C   UNL d   1     -13.914   0.436   1.377  0.00  0.00     0.025 A 
ATOM     35 CL   UNL d   1     -14.309   1.768   3.692  0.00  0.00    -0.084 Cl
ATOM     36  C   UNL d   1     -13.126  -0.016   0.313  0.00  0.00     0.020 A 
ENDBRANCH  29  30
ENDBRANCH  23  29
ENDBRANCH   1  22
TORSDOF 5
