REMARK  6 active torsions:
REMARK  status: ('A' for Active; 'I' for Inactive)
REMARK    1  A    between atoms: C_6  and  C_1 
REMARK       I    between atoms: N_10  and  C_6 
REMARK    2  A    between atoms: C_9  and  N_11 
REMARK    3  A    between atoms: N_12  and  C_9 
REMARK    4  A    between atoms: N_11  and  N_10 
REMARK    5  A    between atoms: C_16  and  N_12 
REMARK    6  A    between atoms: O_24  and  C_17 
ROOT
ATOM      1  C   UNL d   1       2.428   2.571   0.518  0.00  0.00     0.304 C 
ATOM      2  N   UNL d   1       2.165   3.920   0.587  0.00  0.00    -0.261 N 
ATOM      3  O   UNL d   1       1.649   1.707   0.121  0.00  0.00    -0.263 OA
ATOM      4  H   UNL d   1       2.948   4.569   0.718  0.00  0.00     0.190 HD
ENDROOT
BRANCH   2   5
ATOM      5  N   UNL d   1       1.012   4.407  -0.043  0.00  0.00    -0.273 N 
ATOM      6  H   UNL d   1       0.304   3.714  -0.290  0.00  0.00     0.189 HD
BRANCH   5   7
ATOM      7  C   UNL d   1       0.660   5.729  -0.032  0.00  0.00     0.191 C 
ATOM      8  S   UNL d   1       1.223   6.852   1.074  0.00  0.00    -0.039 SA
BRANCH   7   9
ATOM      9  N   UNL d   1      -0.207   6.149  -1.012  0.00  0.00    -0.332 N 
ATOM     10  H   UNL d   1      -0.591   7.072  -0.832  0.00  0.00     0.168 HD
BRANCH   9  11
ATOM     11  C   UNL d   1      -0.212   5.773  -2.383  0.00  0.00     0.034 A 
ATOM     12  C   UNL d   1       0.572   4.749  -2.914  0.00  0.00     0.032 A 
ATOM     13  C   UNL d   1       0.664   4.547  -4.294  0.00  0.00     0.039 A 
ATOM     14  C   UNL d   1      -0.028   5.369  -5.175  0.00  0.00     0.068 A 
ATOM     15  C   UNL d   1      -0.861   6.361  -4.656  0.00  0.00     0.039 A 
ATOM     16  C   UNL d   1      -0.958   6.559  -3.271  0.00  0.00     0.032 A 
BRANCH  14  17
ATOM     17  O   UNL d   1       0.048   5.305  -6.539  0.00  0.00    -0.356 OA
ATOM     18  C   UNL d   1       0.984   4.372  -7.073  0.00  0.00     0.210 C 
ENDBRANCH  14  17
ENDBRANCH   9  11
ENDBRANCH   7   9
ENDBRANCH   5   7
ENDBRANCH   2   5
BRANCH   1  19
ATOM     19  C   UNL d   1       3.835   2.175   0.944  0.00  0.00     0.179 A 
ATOM     20  N   UNL d   1       4.084   0.822   0.922  0.00  0.00    -0.304 N 
ATOM     21  C   UNL d   1       5.299   0.272   1.248  0.00  0.00     0.259 A 
ATOM     22  H   UNL d   1       3.336   0.189   0.638  0.00  0.00     0.171 HD
ATOM     23  O   UNL d   1       5.504  -0.933   1.223  0.00  0.00    -0.267 OA
ATOM     24  C   UNL d   1       6.332   1.250   1.637  0.00  0.00     0.059 A 
ATOM     25  C   UNL d   1       5.988   2.607   1.645  0.00  0.00     0.049 A 
ATOM     26  C   UNL d   1       7.628   0.825   1.971  0.00  0.00     0.019 A 
ATOM     27  N   UNL d   1       4.709   3.070   1.280  0.00  0.00    -0.337 N 
ATOM     28  C   UNL d   1       6.958   3.538   2.018  0.00  0.00     0.030 A 
ATOM     29  HN  UNL d   1       4.481   4.064   1.281  1.00  0.00     0.167 HD
ATOM     30  C   UNL d   1       8.253   3.127   2.350  0.00  0.00     0.002 A 
ATOM     31  C   UNL d   1       8.588   1.772   2.321  0.00  0.00     0.001 A 
ENDBRANCH   1  19
TORSDOF 6
