REMARK  5 active torsions:
REMARK  status: ('A' for Active; 'I' for Inactive)
REMARK    1  A    between atoms: N_2  and  S_1 
REMARK    2  A    between atoms: C_9  and  S_1 
REMARK    3  A    between atoms: C_3  and  N_2 
REMARK       I    between atoms: C_4  and  N_12 
REMARK       I    between atoms: N_13  and  C_4 
REMARK    4  A    between atoms: N_12  and  C_20 
REMARK    5  A    between atoms: C_21  and  N_13 
ROOT
ATOM      1  C   UNL d   1       0.042  -0.607   1.459  0.00  0.00     0.075 A 
ATOM      2  C   UNL d   1      -0.565  -1.855   1.270  0.00  0.00     0.027 A 
ATOM      3  C   UNL d   1       0.344  -0.175   2.747  0.00  0.00     0.027 A 
ATOM      4  C   UNL d   1      -0.360  -2.328   3.656  0.00  0.00     0.036 A 
ATOM      5  C   UNL d   1       0.128  -1.028   3.834  0.00  0.00     0.031 A 
ATOM      6  C   UNL d   1      -0.777  -2.705   2.371  0.00  0.00     0.031 A 
ENDROOT
BRANCH   1   7
ATOM      7  S   UNL d   1       0.738   0.281   0.064  0.00  0.00     0.248 S 
ATOM      8  O   UNL d   1       1.853   1.049   0.598  0.00  0.00    -0.205 OA
ATOM      9  O   UNL d   1       0.954  -0.687  -0.981  0.00  0.00    -0.205 OA
BRANCH   7  10
ATOM     10  N   UNL d   1      -0.417   1.396  -0.383  0.00  0.00    -0.151 NA
ATOM     11  H   UNL d   1      -0.648   2.021   0.374  0.00  0.00     0.149 HD
BRANCH  10  12
ATOM     12  C   UNL d   1      -1.559   0.861  -0.966  0.00  0.00     0.171 A 
ATOM     13  N   UNL d   1      -2.553   0.585  -0.121  0.00  0.00    -0.336 N 
ATOM     14  C   UNL d   1      -3.710   0.200  -0.698  0.00  0.00     0.009 A 
ATOM     15  HN  UNL d   1      -2.446   0.660   0.891  1.00  0.00     0.168 HD
ATOM     16  C   UNL d   1      -4.861  -0.128   0.205  0.00  0.00     0.068 C 
ATOM     17  C   UNL d   1      -3.866   0.118  -2.071  0.00  0.00     0.049 A 
ATOM     18  C   UNL d   1      -2.767   0.443  -2.843  0.00  0.00     0.009 A 
ATOM     19  N   UNL d   1      -1.594   0.813  -2.297  0.00  0.00    -0.336 N 
ATOM     20  C   UNL d   1      -2.861   0.419  -4.340  0.00  0.00     0.068 C 
ATOM     21  HN  UNL d   1      -0.780   1.043  -2.868  1.00  0.00     0.168 HD
ENDBRANCH  10  12
ENDBRANCH   7  10
ENDBRANCH   1   7
BRANCH   4  22
ATOM     22  N   UNL d   1      -0.356  -3.314   4.684  0.00  0.00    -0.309 N 
ATOM     23  C   UNL d   1       0.265  -3.166   5.925  0.00  0.00     0.325 C 
ATOM     24  N   UNL d   1       0.285  -4.352   6.655  0.00  0.00    -0.309 N 
ATOM     25  O   UNL d   1       0.773  -2.126   6.311  0.00  0.00    -0.247 OA
ATOM     26  H   UNL d   1      -0.096  -5.180   6.224  0.00  0.00     0.170 HD
ATOM     27  H   UNL d   1      -0.659  -4.236   4.417  0.00  0.00     0.170 HD
BRANCH  24  28
ATOM     28  C   UNL d   1       0.979  -4.540   7.883  0.00  0.00     0.036 A 
ATOM     29  C   UNL d   1       1.580  -3.498   8.604  0.00  0.00     0.032 A 
ATOM     30  C   UNL d   1       2.362  -3.751   9.734  0.00  0.00     0.044 A 
ATOM     31  C   UNL d   1       2.525  -5.055  10.169  0.00  0.00     0.116 A 
ATOM     32  C   UNL d   1       1.890  -6.102   9.516  0.00  0.00     0.044 A 
ATOM     33  F   UNL d   1       3.307  -5.306  11.227  0.00  0.00    -0.206 F 
ATOM     34  C   UNL d   1       1.110  -5.846   8.378  0.00  0.00     0.032 A 
ENDBRANCH  24  28
ENDBRANCH   4  22
TORSDOF 5
