REMARK  3 active torsions:
REMARK  status: ('A' for Active; 'I' for Inactive)
REMARK    1  A    between atoms: C_7  and  C_1 
REMARK    2  A    between atoms: C_17  and  C_6 
REMARK    3  A    between atoms: C_24  and  C_13 
ROOT
ATOM      1  C   UNL d   1       3.386  -0.123  -0.131  0.00  0.00     0.044 A 
ATOM      2  N   UNL d   1       2.766   0.037   1.053  0.00  0.00    -0.355 N 
ATOM      3  HN  UNL d   1       3.259  -0.181   1.919  1.00  0.00     0.166 HD
ATOM      4  C   UNL d   1       1.374   0.602  -1.320  0.00  0.00    -0.011 A 
ATOM      5  C   UNL d   1       0.726   0.736  -0.051  0.00  0.00     0.003 A 
ATOM      6  C   UNL d   1       2.720   0.174  -1.318  0.00  0.00     0.043 A 
ATOM      7  C   UNL d   1       1.502   0.483   1.099  0.00  0.00     0.043 A 
ATOM      8  C   UNL d   1      -0.631   1.110   0.155  0.00  0.00     0.038 A 
ATOM      9  C   UNL d   1       0.968   0.712   2.361  0.00  0.00     0.032 A 
ATOM     10  C   UNL d   1      -1.139   1.357   1.430  0.00  0.00     0.035 A 
ATOM     11  C   UNL d   1      -0.336   1.175   2.540  0.00  0.00     0.026 A 
ATOM     12 CL   UNL d   1      -2.755   1.915   1.617  0.00  0.00    -0.084 Cl
ENDROOT
BRANCH   1  13
ATOM     13  C   UNL d   1       4.804  -0.590  -0.102  0.00  0.00    -0.003 A 
ATOM     14  C   UNL d   1       5.276  -1.448  -1.128  0.00  0.00     0.022 A 
ATOM     15  C   UNL d   1       6.620  -1.891  -1.243  0.00  0.00    -0.042 A 
ATOM     16  C   UNL d   1       7.014  -2.850  -2.376  0.00  0.00    -0.020 C 
ATOM     17  C   UNL d   1       7.550  -1.404  -0.317  0.00  0.00    -0.043 A 
ATOM     18  C   UNL d   1       8.450  -3.404  -2.211  0.00  0.00     0.015 C 
ATOM     19  C   UNL d   1       6.890  -2.114  -3.728  0.00  0.00     0.020 C 
ATOM     20  C   UNL d   1       6.085  -4.087  -2.405  0.00  0.00     0.020 C 
ATOM     21  C   UNL d   1       9.443  -2.360  -1.734  0.00  0.00     0.015 C 
ATOM     22  C   UNL d   1       9.045  -1.733  -0.380  0.00  0.00    -0.020 C 
ATOM     23  C   UNL d   1       9.385  -2.697   0.779  0.00  0.00     0.020 C 
ATOM     24  C   UNL d   1       9.910  -0.457  -0.230  0.00  0.00     0.020 C 
ATOM     25  C   UNL d   1       7.077  -0.617   0.752  0.00  0.00     0.016 A 
ATOM     26  C   UNL d   1       5.733  -0.214   0.901  0.00  0.00    -0.045 A 
BRANCH  26  27
ATOM     27  C   UNL d   1       5.319   0.602   2.114  0.00  0.00     0.035 C 
ATOM     28  C   UNL d   1       6.391   0.945   3.146  0.00  0.00     0.010 C 
ENDBRANCH  26  27
ENDBRANCH   1  13
BRANCH   4  29
ATOM     29  C   UNL d   1       0.733   0.924  -2.632  0.00  0.00    -0.025 A 
ATOM     30  C   UNL d   1       0.990   0.147  -3.780  0.00  0.00     0.012 A 
ATOM     31  C   UNL d   1       0.395   0.437  -5.014  0.00  0.00     0.001 A 
ATOM     32  C   UNL d   1      -0.504   1.490  -5.125  0.00  0.00     0.000 A 
ATOM     33  C   UNL d   1      -0.766   2.286  -4.018  0.00  0.00     0.001 A 
ATOM     34  C   UNL d   1      -0.121   2.030  -2.802  0.00  0.00     0.012 A 
ENDBRANCH   4  29
TORSDOF 3
