REMARK  7 active torsions:
REMARK  status: ('A' for Active; 'I' for Inactive)
REMARK    1  A    between atoms: C_3  and  C_1 
REMARK    2  A    between atoms: N_2  and  C_5 
REMARK       I    between atoms: N_6  and  C_3 
REMARK    3  A    between atoms: C_15  and  N_6 
REMARK    4  A    between atoms: S_16  and  C_7 
REMARK    5  A    between atoms: C_22  and  S_16 
REMARK    6  A    between atoms: O_21  and  C_23 
REMARK    7  A    between atoms: C_23  and  C_22 
ROOT
ATOM      1  C   UNL d   1       1.631  -0.298  -0.028  0.00  0.00     0.051 C 
ATOM      2  C   UNL d   1       0.661  -1.195   0.439  0.00  0.00     0.054 C 
ATOM      3  C   UNL d   1      -0.667  -1.028   0.033  0.00  0.00     0.103 C 
ATOM      4  C   UNL d   1       1.319   0.635  -1.030  0.00  0.00     0.016 C 
ATOM      5  C   UNL d   1      -1.036   0.067  -0.752  0.00  0.00     0.037 C 
ATOM      6  C   UNL d   1      -0.037   0.877  -1.299  0.00  0.00     0.022 C 
ENDROOT
BRANCH   1   7
ATOM      7  C   UNL d   1       2.956  -0.302   0.646  0.00  0.00     0.257 C 
ATOM      8  N   UNL d   1       3.338   0.957   1.075  0.00  0.00    -0.323 N 
ATOM      9  H   UNL d   1       2.682   1.714   0.920  0.00  0.00     0.169 HD
ATOM     10  O   UNL d   1       3.551  -1.357   0.776  0.00  0.00    -0.267 OA
BRANCH   8  11
ATOM     11  C   UNL d   1       4.582   1.347   1.607  0.00  0.00     0.037 A 
ATOM     12  C   UNL d   1       5.651   0.476   1.798  0.00  0.00     0.046 A 
ATOM     13  C   UNL d   1       6.836   1.002   2.284  0.00  0.00     0.090 A 
ATOM     14  N   UNL d   1       7.027   2.305   2.590  0.00  0.00    -0.375 N 
ATOM     15  C   UNL d   1       5.973   3.122   2.397  0.00  0.00     0.090 A 
ATOM     16  HN  UNL d   1       7.918   2.650   2.946  1.00  0.00     0.164 HD
ATOM     17  C   UNL d   1       4.750   2.698   1.912  0.00  0.00     0.046 A 
ENDBRANCH   8  11
ENDBRANCH   1   7
BRANCH   4  18
ATOM     18  S   UNL d   1       2.478   1.534  -2.058  0.00  0.00    -0.127 SA
BRANCH  18  19
ATOM     19  C   UNL d   1       3.970   0.445  -2.233  0.00  0.00     0.105 C 
BRANCH  19  20
ATOM     20  C   UNL d   1       3.804  -1.040  -2.571  0.00  0.00     0.174 C 
BRANCH  20  21
ATOM     21  O   UNL d   1       3.275  -1.230  -3.876  0.00  0.00    -0.400 OA
ATOM     22  H   UNL d   1       3.348  -2.185  -4.069  0.00  0.00     0.209 HD
ENDBRANCH  20  21
ENDBRANCH  19  20
ENDBRANCH  18  19
ENDBRANCH   4  18
BRANCH   3  23
ATOM     23  N   UNL d   1      -1.679  -2.018   0.410  0.00  0.00    -0.116 N 
ATOM     24  O   UNL d   1      -1.279  -3.133   0.771  0.00  0.00    -0.532 OA
ATOM     25  O   UNL d   1      -2.869  -1.687   0.317  0.00  0.00    -0.532 OA
ENDBRANCH   3  23
TORSDOF 7
