REMARK  4 active torsions:
REMARK  status: ('A' for Active; 'I' for Inactive)
REMARK    1  A    between atoms: C_7  and  CA_2 
REMARK    2  A    between atoms: C_9  and  C_4 
REMARK    3  A    between atoms: N_5  and  C_8 
REMARK    4  A    between atoms: OXT_17  and  C_7 
ROOT
ATOM      1  N   UNL d   1      -1.354   1.199   0.034  0.00  0.00     0.118 N 
ATOM      2  CA  UNL d   1      -0.042   1.297  -0.656  0.00  0.00     0.336 C 
ATOM      3  S   UNL d   1      -0.247  -1.232   0.119  0.00  0.00    -0.117 SA
ATOM      4  C   UNL d   1      -1.756  -0.217   0.058  0.00  0.00     0.317 C 
ATOM      5  C   UNL d   1       0.870   0.196  -0.071  0.00  0.00     0.044 C 
ATOM      6  C   UNL d   1       1.370   0.577   1.334  0.00  0.00     0.029 C 
ATOM      7  C   UNL d   1       2.071  -0.175  -0.941  0.00  0.00     0.029 C 
ATOM      8  H   UNL d   1      -2.067   1.712  -0.488  0.00  0.00     0.319 HD
ENDROOT
BRANCH   4   9
ATOM      9  C   UNL d   1      -2.681  -0.526   1.224  0.00  0.00    -0.015 A 
ATOM     10  C   UNL d   1      -2.567   0.151   2.453  0.00  0.00     0.012 A 
ATOM     11  C   UNL d   1      -3.413  -0.150   3.522  0.00  0.00     0.037 A 
ATOM     12  C   UNL d   1      -4.384  -1.147   3.372  0.00  0.00     0.102 A 
ATOM     13  C   UNL d   1      -4.509  -1.840   2.161  0.00  0.00     0.037 A 
ATOM     14  C   UNL d   1      -3.656  -1.529   1.096  0.00  0.00     0.012 A 
BRANCH  12  15
ATOM     15  N   UNL d   1      -5.273  -1.466   4.493  0.00  0.00    -0.116 N 
ATOM     16  O   UNL d   1      -5.130  -0.825   5.544  0.00  0.00    -0.532 OA
ATOM     17  O   UNL d   1      -6.118  -2.357   4.325  0.00  0.00    -0.532 OA
ENDBRANCH  12  15
ENDBRANCH   4   9
BRANCH   2  18
ATOM     18  C   UNL d   1      -0.236   1.262  -2.188  0.00  0.00     0.175 C 
ATOM     19  O   UNL d   1      -1.139   0.670  -2.764  0.00  0.00    -0.648 OA
BRANCH  18  20
ATOM     20  OXT UNL d   1       0.664   2.009  -2.870  0.00  0.00    -0.775 OA
ATOM     21  HXT UNL d   1       1.298   2.509  -2.324  0.00  0.00     0.167 HD
ENDBRANCH  18  20
ENDBRANCH   2  18
TORSDOF 4
