REMARK  6 active torsions:
REMARK  status: ('A' for Active; 'I' for Inactive)
REMARK    1  A    between atoms: C_2  and  C_1 
REMARK    2  A    between atoms: C_5  and  C_1 
REMARK    3  A    between atoms: C_7  and  C_1 
REMARK    4  A    between atoms: C_8  and  C_1 
REMARK    5  A    between atoms: O_11  and  C_2 
REMARK    6  A    between atoms: C_6  and  C_5 
ROOT
ATOM      1  C   UNL d   1       1.017   0.106  -0.046  0.00  0.00     0.107 C 
ENDROOT
BRANCH   1   2
ATOM      2  C   UNL d   1       0.381  -0.386  -1.397  0.00  0.00     0.277 C 
ATOM      3  O   UNL d   1       0.800  -0.128  -2.523  0.00  0.00    -0.264 OA
BRANCH   2   4
ATOM      4  O   UNL d   1      -0.812  -1.024  -1.185  0.00  0.00    -0.325 OA
ATOM      5  C   UNL d   1      -1.433  -1.554  -2.358  0.00  0.00     0.213 C 
ENDBRANCH   2   4
ENDBRANCH   1   2
BRANCH   1   6
ATOM      6  C   UNL d   1       0.578  -0.874   1.103  0.00  0.00     0.086 C 
BRANCH   6   7
ATOM      7  C   UNL d   1       0.831  -2.359   0.945  0.00  0.00     0.011 A 
ATOM      8  N   UNL d   1       1.540  -2.794  -0.119  0.00  0.00    -0.363 N 
ATOM      9  C   UNL d   1       1.705  -4.130  -0.274  0.00  0.00     0.005 A 
ATOM     10  HN  UNL d   1       1.939  -2.135  -0.788  1.00  0.00     0.165 HD
ATOM     11  C   UNL d   1       2.527  -4.583  -1.442  0.00  0.00     0.068 C 
ATOM     12  C   UNL d   1       1.154  -5.063   0.597  0.00  0.00     0.024 A 
ATOM     13  C   UNL d   1       0.429  -4.606   1.690  0.00  0.00     0.004 A 
ATOM     14  C   UNL d   1       0.274  -3.237   1.874  0.00  0.00     0.025 A 
ENDBRANCH   6   7
ENDBRANCH   1   6
BRANCH   1  15
ATOM     15  C   UNL d   1       0.437   1.551   0.180  0.00  0.00    -0.035 A 
ATOM     16  C   UNL d   1      -0.335   1.910   1.300  0.00  0.00     0.009 A 
ATOM     17  C   UNL d   1      -0.856   3.201   1.438  0.00  0.00     0.001 A 
ATOM     18  C   UNL d   1      -0.610   4.164   0.465  0.00  0.00     0.000 A 
ATOM     19  C   UNL d   1       0.160   3.840  -0.646  0.00  0.00     0.001 A 
ATOM     20  C   UNL d   1       0.682   2.551  -0.786  0.00  0.00     0.009 A 
ENDBRANCH   1  15
BRANCH   1  21
ATOM     21  C   UNL d   1       2.581   0.194  -0.051  0.00  0.00    -0.035 A 
ATOM     22  C   UNL d   1       3.379  -0.286  -1.105  0.00  0.00     0.009 A 
ATOM     23  C   UNL d   1       4.774  -0.164  -1.084  0.00  0.00     0.001 A 
ATOM     24  C   UNL d   1       5.410   0.423   0.004  0.00  0.00     0.000 A 
ATOM     25  C   UNL d   1       4.651   0.887   1.073  0.00  0.00     0.001 A 
ATOM     26  C   UNL d   1       3.256   0.776   1.045  0.00  0.00     0.009 A 
ENDBRANCH   1  21
TORSDOF 6
