REMARK  5 active torsions:
REMARK  status: ('A' for Active; 'I' for Inactive)
REMARK    1  A    between atoms: C_4  and  C_1 
REMARK       I    between atoms: C_2  and  N_5 
REMARK       I    between atoms: N_7  and  C_2 
REMARK    2  A    between atoms: O_6  and  C_3 
REMARK    3  A    between atoms: N_5  and  C_4 
REMARK    4  A    between atoms: C_12  and  O_6 
REMARK    5  A    between atoms: C_10  and  N_7 
ROOT
ATOM      1  C   UNL d   1       0.103   0.870  -0.123  0.00  0.00     0.015 A 
ATOM      2  C   UNL d   1       1.519   1.069  -0.169  0.00  0.00     0.085 A 
ATOM      3  C   UNL d   1      -0.338  -0.471   0.024  0.00  0.00     0.044 A 
ATOM      4 CL   UNL d   1      -1.993  -0.975   0.124  0.00  0.00    -0.084 Cl
ATOM      5  C   UNL d   1       2.397  -0.035  -0.096  0.00  0.00     0.038 A 
ATOM      6  C   UNL d   1       1.928  -1.332   0.030  0.00  0.00     0.004 A 
ATOM      7  C   UNL d   1       0.563  -1.544   0.098  0.00  0.00     0.024 A 
ENDROOT
BRANCH   1   8
ATOM      8  C   UNL d   1      -0.851   2.037  -0.270  0.00  0.00     0.167 C 
BRANCH   8   9
ATOM      9  N   UNL d   1      -2.236   1.900   0.109  0.00  0.00    -0.338 N 
ATOM     10  C   UNL d   1      -3.352   1.899  -0.661  0.00  0.00     0.320 C 
ATOM     11  N   UNL d   1      -3.186   1.544  -1.974  0.00  0.00    -0.309 N 
ATOM     12  O   UNL d   1      -4.400   2.216  -0.115  0.00  0.00    -0.247 OA
ATOM     13  H   UNL d   1      -2.256   1.284  -2.259  0.00  0.00     0.170 HD
ATOM     14  H   UNL d   1      -2.475   2.203   1.045  0.00  0.00     0.164 HD
BRANCH  11  15
ATOM     15  C   UNL d   1      -4.187   1.531  -2.967  0.00  0.00     0.036 A 
ATOM     16  C   UNL d   1      -5.548   1.708  -2.694  0.00  0.00     0.032 A 
ATOM     17  C   UNL d   1      -6.476   1.811  -3.733  0.00  0.00     0.044 A 
ATOM     18  C   UNL d   1      -6.040   1.728  -5.046  0.00  0.00     0.116 A 
ATOM     19  C   UNL d   1      -4.705   1.490  -5.340  0.00  0.00     0.044 A 
ATOM     20  F   UNL d   1      -6.921   1.874  -6.044  0.00  0.00    -0.206 F 
ATOM     21  C   UNL d   1      -3.778   1.375  -4.299  0.00  0.00     0.032 A 
ENDBRANCH  11  15
ENDBRANCH   8   9
ENDBRANCH   1   8
BRANCH   2  22
ATOM     22  O   UNL d   1       2.284   2.225  -0.300  0.00  0.00    -0.310 OA
BRANCH  22  23
ATOM     23  C   UNL d   1       1.726   3.467  -0.355  0.00  0.00     0.076 C 
ATOM     24  C   UNL d   1       1.292   4.108   0.805  0.00  0.00     0.037 C 
ATOM     25  C   UNL d   1       0.568   5.295   0.693  0.00  0.00     0.003 C 
ATOM     26  C   UNL d   1       0.381   5.881  -0.560  0.00  0.00     0.000 C 
ATOM     27  C   UNL d   1       0.961   5.312  -1.695  0.00  0.00     0.003 C 
ATOM     28  C   UNL d   1       1.645   4.103  -1.592  0.00  0.00     0.037 C 
ENDBRANCH  22  23
ENDBRANCH   2  22
TORSDOF 5
