REMARK  1 active torsions:
REMARK  status: ('A' for Active; 'I' for Inactive)
REMARK    1  A    between atoms: C_7  and  C_5 
ROOT
ATOM      1  N   UNL d   1       1.236  -1.222   0.722  0.00  0.00    -0.321 N 
ATOM      2  C   UNL d   1       2.195  -0.965  -0.260  0.00  0.00     0.225 C 
ATOM      3  S   UNL d   1       0.787   1.880   0.912  0.00  0.00    -0.117 SA
ATOM      4  C   UNL d   1       2.745   0.444  -0.389  0.00  0.00     0.123 C 
ATOM      5  C   UNL d   1       1.804   1.618  -0.586  0.00  0.00     0.094 C 
ATOM      6  C   UNL d   1      -0.104  -0.747   0.500  0.00  0.00     0.053 A 
ATOM      7  C   UNL d   1      -0.429   0.616   0.602  0.00  0.00     0.028 A 
ATOM      8  O   UNL d   1       2.771  -1.882  -0.859  0.00  0.00    -0.273 OA
ATOM      9  C   UNL d   1       1.357  -2.538   1.346  0.00  0.00     0.159 C 
ATOM     10  C   UNL d   1      -1.139  -1.651   0.196  0.00  0.00     0.031 A 
ATOM     11  C   UNL d   1      -1.756   1.041   0.432  0.00  0.00     0.021 A 
ATOM     12  C   UNL d   1      -2.449  -1.216  -0.014  0.00  0.00     0.002 A 
ATOM     13  C   UNL d   1      -2.761   0.131   0.113  0.00  0.00     0.002 A 
ENDROOT
BRANCH   5  14
ATOM     14  C   UNL d   1       0.992   1.641  -1.871  0.00  0.00    -0.037 A 
ATOM     15  C   UNL d   1       0.995   0.683  -2.872  0.00  0.00     0.057 A 
ATOM     16  S   UNL d   1      -0.085   1.035  -4.151  0.00  0.00    -0.113 SA
ATOM     17  C   UNL d   1      -0.562   2.498  -3.418  0.00  0.00     0.050 A 
ATOM     18  C   UNL d   1       0.097   2.715  -2.230  0.00  0.00     0.016 A 
ENDBRANCH   5  14
TORSDOF 1
