REMARK  5 active torsions:
REMARK  status: ('A' for Active; 'I' for Inactive)
REMARK       I    between atoms: N_4  and  C_1 
REMARK    1  A    between atoms: C_6  and  C_1 
REMARK       I    between atoms: C_2  and  N_3 
REMARK    2  A    between atoms: C_10  and  C_2 
REMARK    3  A    between atoms: N_3  and  C_5 
REMARK    4  A    between atoms: C_7  and  N_4 
REMARK    5  A    between atoms: C_12  and  C_8 
ROOT
ATOM      1  C   UNL d   1       1.929  -1.337   2.039  0.00  0.00     0.062 C 
ATOM      2  C   UNL d   1       1.327  -1.933   0.924  0.00  0.00     0.062 C 
ATOM      3  C   UNL d   1       2.655  -3.534   2.808  0.00  0.00    -0.048 C 
ATOM      4  C   UNL d   1       2.664  -2.132   2.929  0.00  0.00     0.039 C 
ATOM      5  C   UNL d   1       1.125  -3.308   0.911  0.00  0.00     0.032 C 
ATOM      6  C   UNL d   1       1.776  -4.098   1.859  0.00  0.00     0.010 C 
ENDROOT
BRANCH   2   7
ATOM      7  N   UNL d   1       1.044  -1.219  -0.262  0.00  0.00    -0.319 N 
ATOM      8  C   UNL d   1       1.908  -0.261  -0.786  0.00  0.00     0.280 C 
ATOM      9  O   UNL d   1       3.000   0.033  -0.305  0.00  0.00    -0.265 OA
ATOM     10  H   UNL d   1       0.338  -1.575  -0.891  0.00  0.00     0.169 HD
BRANCH   8  11
ATOM     11  C   UNL d   1       1.432   0.359  -2.004  0.00  0.00     0.142 A 
ATOM     12  O   UNL d   1       0.129   0.195  -2.388  0.00  0.00    -0.317 OA
ATOM     13  C   UNL d   1      -0.053   0.952  -3.501  0.00  0.00     0.143 A 
ATOM     14  C   UNL d   1       1.120   1.569  -3.866  0.00  0.00     0.027 A 
ATOM     15  C   UNL d   1       2.081   1.184  -2.903  0.00  0.00     0.045 A 
ENDBRANCH   8  11
ENDBRANCH   2   7
BRANCH   1  16
ATOM     16  N   UNL d   1       1.790   0.046   2.321  0.00  0.00    -0.323 N 
ATOM     17  C   UNL d   1       0.632   0.777   2.024  0.00  0.00     0.255 C 
ATOM     18  O   UNL d   1      -0.412   0.265   1.619  0.00  0.00    -0.270 OA
ATOM     19  H   UNL d   1       2.430   0.458   2.991  0.00  0.00     0.169 HD
BRANCH  17  20
ATOM     20  C   UNL d   1       0.782   2.296   2.165  0.00  0.00     0.270 C 
ATOM     21 CL   UNL d   1      -0.808   3.066   2.398  0.00  0.00    -0.098 Cl
ATOM     22 CL   UNL d   1       1.840   2.717   3.536  0.00  0.00    -0.098 Cl
ENDBRANCH  17  20
ENDBRANCH   1  16
BRANCH   3  23
ATOM     23  C   UNL d   1       3.599  -4.455   3.601  0.00  0.00    -0.024 C 
ATOM     24  C   UNL d   1       4.431  -5.285   2.592  0.00  0.00     0.019 C 
ATOM     25  C   UNL d   1       4.611  -3.703   4.494  0.00  0.00     0.019 C 
ATOM     26  C   UNL d   1       2.799  -5.413   4.504  0.00  0.00     0.019 C 
ENDBRANCH   3  23
TORSDOF 5
