REMARK  0 active torsions:
REMARK  status: ('A' for Active; 'I' for Inactive)
ROOT
ATOM      1  N   UNL d   1       1.204   1.418   0.033  0.00  0.00    -0.356 N 
ATOM      2  HN  UNL d   1       1.203   2.438   0.017  1.00  0.00     0.166 HD
ATOM      3  N   UNL d   1       1.206  -1.391   0.041  0.00  0.00    -0.356 N 
ATOM      4  HN  UNL d   1       1.208  -2.411   0.029  1.00  0.00     0.166 HD
ATOM      5  C   UNL d   1       0.054   0.716   0.065  0.00  0.00     0.060 A 
ATOM      6  C   UNL d   1       0.056  -0.692   0.070  0.00  0.00     0.060 A 
ATOM      7  C   UNL d   1       2.362   0.712   0.023  0.00  0.00     0.028 A 
ATOM      8  C   UNL d   1       2.362  -0.682   0.028  0.00  0.00     0.028 A 
ATOM      9  C   UNL d   1      -1.159  -1.362   0.121  0.00  0.00     0.039 A 
ATOM     10  C   UNL d   1      -1.162   1.384   0.113  0.00  0.00     0.039 A 
ATOM     11  C   UNL d   1      -2.397  -0.691   0.196  0.00  0.00    -0.054 A 
ATOM     12  C   UNL d   1      -2.398   0.711   0.192  0.00  0.00    -0.054 A 
ATOM     13  C   UNL d   1       3.630   1.510   0.040  0.00  0.00     0.070 C 
ATOM     14  C   UNL d   1       3.632  -1.478   0.046  0.00  0.00     0.070 C 
ATOM     15  C   UNL d   1      -3.627  -1.552   0.278  0.00  0.00     0.049 C 
ATOM     16  C   UNL d   1      -3.630   1.570   0.268  0.00  0.00     0.049 C 
ENDROOT
TORSDOF 0
