REMARK  5 active torsions:
REMARK  status: ('A' for Active; 'I' for Inactive)
REMARK    1  A    between atoms: C_2  and  C_1 
REMARK       I    between atoms: N_3  and  C_1 
REMARK       I    between atoms: N_4  and  C_2 
REMARK    2  A    between atoms: C_7  and  N_3 
REMARK    3  A    between atoms: C_8  and  N_4 
REMARK    4  A    between atoms: O_14  and  C_9 
REMARK    5  A    between atoms: C_15  and  O_14 
ROOT
ATOM      1  C   UNL d   1       0.779   0.054   0.312  0.00  0.00     0.314 C 
ATOM      2  N   UNL d   1       0.170   0.689   1.381  0.00  0.00    -0.319 N 
ATOM      3  O   UNL d   1       0.303  -0.745  -0.482  0.00  0.00    -0.262 OA
ATOM      4  H   UNL d   1       0.735   1.412   1.821  0.00  0.00     0.169 HD
ENDROOT
BRANCH   1   5
ATOM      5  C   UNL d   1       2.239   0.526   0.092  0.00  0.00     0.314 C 
ATOM      6  N   UNL d   1       2.736   0.164  -1.144  0.00  0.00    -0.319 N 
ATOM      7  H   UNL d   1       2.066  -0.297  -1.752  0.00  0.00     0.169 HD
ATOM      8  O   UNL d   1       2.765   1.199   0.969  0.00  0.00    -0.262 OA
BRANCH   6   9
ATOM      9  C   UNL d   1       4.007   0.468  -1.670  0.00  0.00     0.035 A 
ATOM     10  C   UNL d   1       5.067   0.944  -0.899  0.00  0.00     0.029 A 
ATOM     11  C   UNL d   1       6.292   1.265  -1.495  0.00  0.00     0.002 A 
ATOM     12  C   UNL d   1       6.465   1.118  -2.870  0.00  0.00     0.000 A 
ATOM     13  C   UNL d   1       5.422   0.618  -3.643  0.00  0.00     0.002 A 
ATOM     14  C   UNL d   1       4.204   0.281  -3.045  0.00  0.00     0.029 A 
ENDBRANCH   6   9
ENDBRANCH   1   5
BRANCH   2  15
ATOM     15  C   UNL d   1      -1.167   0.549   1.799  0.00  0.00     0.035 A 
ATOM     16  C   UNL d   1      -1.991  -0.501   1.389  0.00  0.00     0.032 A 
ATOM     17  C   UNL d   1      -3.342  -0.534   1.762  0.00  0.00     0.039 A 
ATOM     18  C   UNL d   1      -3.888   0.493   2.528  0.00  0.00     0.068 A 
ATOM     19  C   UNL d   1      -3.050   1.496   3.013  0.00  0.00     0.039 A 
ATOM     20  C   UNL d   1      -1.694   1.522   2.655  0.00  0.00     0.032 A 
BRANCH  18  21
ATOM     21  O   UNL d   1      -5.212   0.591   2.871  0.00  0.00    -0.352 OA
BRANCH  21  22
ATOM     22  C   UNL d   1      -6.120   0.076   1.891  0.00  0.00     0.171 C 
ATOM     23  C   UNL d   1      -7.533   0.499   2.252  0.00  0.00     0.034 C 
ENDBRANCH  21  22
ENDBRANCH  18  21
ENDBRANCH   2  15
TORSDOF 5
