REMARK  9 active torsions:
REMARK  status: ('A' for Active; 'I' for Inactive)
REMARK    1  A    between atoms: C_3  and  C_1 
REMARK       I    between atoms: N_8  and  C_1 
REMARK       I    between atoms: C_2  and  N_4 
REMARK    2  A    between atoms: O_9  and  C_2 
REMARK    3  A    between atoms: N_4  and  C_3 
REMARK    4  A    between atoms: C_6  and  C_3 
REMARK    5  A    between atoms: C_10  and  C_6 
REMARK    6  A    between atoms: N_11  and  N_8 
REMARK    7  A    between atoms: C_13  and  O_9 
REMARK    8  A    between atoms: O_19  and  C_12 
REMARK    9  A    between atoms: C_18  and  C_13 
ROOT
ATOM      1  C   UNL d   1       0.208  -0.433  -1.303  0.00  0.00     0.184 C 
ENDROOT
BRANCH   1   2
ATOM      2  C   UNL d   1       1.029  -0.056  -0.050  0.00  0.00     0.255 C 
ATOM      3  O   UNL d   1       0.564  -0.286   1.076  0.00  0.00    -0.270 OA
ATOM      4  N   UNL d   1       2.202   0.662  -0.098  0.00  0.00    -0.292 N 
ATOM      5  H   UNL d   1       2.579   0.875   0.826  0.00  0.00     0.183 HD
BRANCH   4   6
ATOM      6  N   UNL d   1       2.970   1.013  -1.206  0.00  0.00    -0.247 NA
ATOM      7  H   UNL d   1       2.399   1.302  -1.999  0.00  0.00     0.143 HD
ATOM      8  H   UNL d   1       3.553   0.222  -1.489  0.00  0.00     0.143 HD
ENDBRANCH   4   6
ENDBRANCH   1   2
BRANCH   1   9
ATOM      9  N   UNL d   1      -0.539   0.749  -1.730  0.00  0.00    -0.323 N 
ATOM     10  C   UNL d   1      -1.692   0.796  -2.452  0.00  0.00     0.361 C 
ATOM     11  O   UNL d   1      -2.055   1.849  -2.957  0.00  0.00    -0.238 OA
ATOM     12  H   UNL d   1      -0.127   1.659  -1.590  0.00  0.00     0.165 HD
BRANCH  10  13
ATOM     13  O   UNL d   1      -2.367  -0.383  -2.521  0.00  0.00    -0.299 OA
BRANCH  13  14
ATOM     14  C   UNL d   1      -3.723  -0.251  -2.975  0.00  0.00     0.219 C 
BRANCH  14  15
ATOM     15  C   UNL d   1      -4.091  -1.350  -3.936  0.00  0.00    -0.034 A 
ATOM     16  C   UNL d   1      -4.751  -2.503  -3.490  0.00  0.00     0.009 A 
ATOM     17  C   UNL d   1      -5.146  -3.488  -4.398  0.00  0.00     0.001 A 
ATOM     18  C   UNL d   1      -4.878  -3.334  -5.757  0.00  0.00     0.000 A 
ATOM     19  C   UNL d   1      -4.212  -2.197  -6.210  0.00  0.00     0.001 A 
ATOM     20  C   UNL d   1      -3.818  -1.210  -5.304  0.00  0.00     0.009 A 
ENDBRANCH  14  15
ENDBRANCH  13  14
ENDBRANCH  10  13
ENDBRANCH   1   9
BRANCH   1  21
ATOM     21  C   UNL d   1       0.960  -1.021  -2.504  0.00  0.00     0.073 C 
BRANCH  21  22
ATOM     22  C   UNL d   1       1.859  -2.211  -2.276  0.00  0.00    -0.056 A 
ATOM     23  C   UNL d   1       1.589  -3.185  -1.307  0.00  0.00     0.010 A 
ATOM     24  C   UNL d   1       2.391  -4.324  -1.208  0.00  0.00     0.037 A 
ATOM     25  C   UNL d   1       3.455  -4.502  -2.082  0.00  0.00     0.065 A 
ATOM     26  C   UNL d   1       3.744  -3.549  -3.050  0.00  0.00     0.037 A 
ATOM     27  C   UNL d   1       2.946  -2.409  -3.147  0.00  0.00     0.010 A 
BRANCH  25  28
ATOM     28  O   UNL d   1       4.188  -5.645  -1.968  0.00  0.00    -0.361 OA
ATOM     29  H   UNL d   1       4.847  -5.664  -2.681  0.00  0.00     0.217 HD
ENDBRANCH  25  28
ENDBRANCH  21  22
ENDBRANCH   1  21
TORSDOF 9
