REMARK  6 active torsions:
REMARK  status: ('A' for Active; 'I' for Inactive)
REMARK       I    between atoms: C_7  and  N_9 
REMARK    1  A    between atoms: C_15  and  C_7 
REMARK    2  A    between atoms: N_9  and  C_13 
REMARK    3  A    between atoms: C_10  and  C_15 
REMARK    4  A    between atoms: C_17  and  C_10 
REMARK    5  A    between atoms: C_12  and  C_17 
REMARK    6  A    between atoms: O_20  and  C_12 
ROOT
ATOM      1  C   UNL d   1       3.507   3.077   0.310  0.00  0.00     0.222 C 
ATOM      2  N   UNL d   1       4.573   3.655   0.983  0.00  0.00    -0.327 N 
ATOM      3  O   UNL d   1       3.515   1.946  -0.176  0.00  0.00    -0.273 OA
ATOM      4  H   UNL d   1       4.455   4.603   1.314  0.00  0.00     0.169 HD
ENDROOT
BRANCH   2   5
ATOM      5  C   UNL d   1       5.870   3.087   1.095  0.00  0.00     0.037 C 
ATOM      6  C   UNL d   1       6.185   1.811   0.634  0.00  0.00     0.067 C 
ATOM      7  C   UNL d   1       7.516   1.403   0.544  0.00  0.00     0.092 C 
ATOM      8  O   UNL d   1       7.715   0.180  -0.124  0.00  0.00    -0.275 OA
ATOM      9  C   UNL d   1       8.578   2.191   0.985  0.00  0.00     0.004 C 
ATOM     10  C   UNL d   1       8.965  -0.139  -0.607  0.00  0.00     0.288 C 
ATOM     11  O   UNL d   1       9.155  -1.045  -1.412  0.00  0.00    -0.260 OA
ATOM     12  C   UNL d   1      10.091   0.626  -0.054  0.00  0.00     0.090 C 
ATOM     13  C   UNL d   1       9.944   1.701   0.739  0.00  0.00    -0.043 C 
ATOM     14  C   UNL d   1      11.167   2.372   1.285  0.00  0.00     0.049 C 
ATOM     15  C   UNL d   1       8.247   3.420   1.569  0.00  0.00     0.017 C 
ATOM     16  C   UNL d   1       6.909   3.868   1.611  0.00  0.00     0.030 C 
ENDBRANCH   2   5
BRANCH   1  17
ATOM     17  C   UNL d   1       2.296   3.990   0.114  0.00  0.00     0.113 C 
BRANCH  17  18
ATOM     18  C   UNL d   1       0.995   3.200  -0.239  0.00  0.00    -0.023 C 
ATOM     19  C   UNL d   1       1.113   2.633  -1.681  0.00  0.00     0.010 C 
ATOM     20  C   UNL d   1      -0.306   2.469  -2.211  0.00  0.00     0.001 C 
ATOM     21  C   UNL d   1      -1.188   3.344  -1.328  0.00  0.00     0.001 C 
ATOM     22  C   UNL d   1      -0.230   4.127  -0.424  0.00  0.00     0.010 C 
BRANCH  18  23
ATOM     23  C   UNL d   1       0.665   2.071   0.781  0.00  0.00     0.119 C 
BRANCH  23  24
ATOM     24  C   UNL d   1       0.432   2.498   2.214  0.00  0.00     0.140 C 
ATOM     25  O   UNL d   1      -0.466   2.095   2.934  0.00  0.00    -0.650 OA
BRANCH  24  26
ATOM     26  O   UNL d   1       1.369   3.313   2.723  0.00  0.00    -0.776 OA
ATOM     27  H   UNL d   1       1.097   3.419   3.660  0.00  0.00     0.167 HD
ENDBRANCH  24  26
ENDBRANCH  23  24
ENDBRANCH  18  23
ENDBRANCH  17  18
ENDBRANCH   1  17
TORSDOF 6
