REMARK  1 active torsions:
REMARK  status: ('A' for Active; 'I' for Inactive)
REMARK    1  A    between atoms: C_8  and  C_7 
ROOT
ATOM      1  C   UNL d   1      -1.895   0.415  -0.031  0.00  0.00     0.115 C 
ATOM      2  C   UNL d   1      -1.663  -1.031   0.104  0.00  0.00     0.302 C 
ATOM      3  C   UNL d   1      -0.889   1.371   0.457  0.00  0.00     0.302 C 
ATOM      4  O   UNL d   1      -0.404  -1.396   0.415  0.00  0.00    -0.279 OA
ATOM      5  O   UNL d   1       0.325   0.847   0.708  0.00  0.00    -0.279 OA
ATOM      6  C   UNL d   1       0.650  -0.455   0.224  0.00  0.00     0.182 C 
ATOM      7  C   UNL d   1      -3.060   0.790  -0.599  0.00  0.00     0.037 C 
ATOM      8  O   UNL d   1      -1.105   2.555   0.669  0.00  0.00    -0.259 OA
ATOM      9  O   UNL d   1      -2.548  -1.866  -0.036  0.00  0.00    -0.259 OA
ATOM     10  C   UNL d   1       1.840  -0.945   1.066  0.00  0.00     0.069 C 
ATOM     11  C   UNL d   1       1.062  -0.405  -1.260  0.00  0.00     0.069 C 
ATOM     12  C   UNL d   1       3.090  -0.089   0.857  0.00  0.00     0.005 C 
ATOM     13  C   UNL d   1       2.306   0.452  -1.487  0.00  0.00     0.005 C 
ATOM     14  C   UNL d   1       3.473  -0.008  -0.618  0.00  0.00     0.000 C 
ENDROOT
BRANCH   7  15
ATOM     15  C   UNL d   1      -3.507   2.117  -0.843  0.00  0.00    -0.011 A 
ATOM     16  C   UNL d   1      -3.335   2.814  -2.018  0.00  0.00     0.152 A 
ATOM     17  O   UNL d   1      -3.881   4.055  -1.910  0.00  0.00    -0.334 OA
ATOM     18  C   UNL d   1      -4.405   4.147  -0.659  0.00  0.00     0.142 A 
ATOM     19  C   UNL d   1      -4.217   2.972   0.033  0.00  0.00     0.038 A 
ENDBRANCH   7  15
TORSDOF 1
