REMARK  5 active torsions:
REMARK  status: ('A' for Active; 'I' for Inactive)
REMARK    1  A    between atoms: C_3  and  C_1 
REMARK    2  A    between atoms: C_7  and  C_6 
REMARK    3  A    between atoms: C_9  and  C_7 
REMARK    4  A    between atoms: C_15  and  C_9 
REMARK    5  A    between atoms: N_14  and  C_15 
ROOT
ATOM      1  C   UNL d   1      -0.332  -1.207   0.070  0.00  0.00     0.034 A 
ATOM      2  S   UNL d   1       1.325  -0.853   0.271  0.00  0.00    -0.079 SA
ATOM      3  C   UNL d   1       1.059   0.818   0.095  0.00  0.00     0.059 A 
ATOM      4  C   UNL d   1      -1.084  -0.062  -0.097  0.00  0.00     0.023 A 
ATOM      5  C   UNL d   1      -0.273   1.118  -0.078  0.00  0.00     0.029 A 
ENDROOT
BRANCH   1   6
ATOM      6  C   UNL d   1      -0.858  -2.607   0.064  0.00  0.00     0.066 A 
ATOM      7  N   UNL d   1      -2.147  -2.904  -0.145  0.00  0.00    -0.300 N 
ATOM      8  N   UNL d   1      -2.178  -4.248  -0.112  0.00  0.00    -0.311 N 
ATOM      9  HN  UNL d   1      -2.924  -2.261  -0.295  1.00  0.00     0.187 HD
ATOM     10  C   UNL d   1      -0.964  -4.819   0.132  0.00  0.00     0.109 A 
ATOM     11  H   UNL d   1      -3.064  -4.714  -0.270  0.00  0.00     0.186 HD
ATOM     12  C   UNL d   1      -0.081  -3.776   0.255  0.00  0.00     0.051 A 
ENDBRANCH   1   6
BRANCH   3  13
ATOM     13  C   UNL d   1       2.141   1.734   0.114  0.00  0.00    -0.058 C 
BRANCH  13  14
ATOM     14  C   UNL d   1       3.124   2.423   0.101  0.00  0.00    -0.070 C 
BRANCH  14  15
ATOM     15  C   UNL d   1       4.344   3.237   0.049  0.00  0.00     0.365 C 
BRANCH  15  16
ATOM     16  N   UNL d   1       4.425   4.029  -1.188  0.00  0.00     0.090 N 
ATOM     17  C   UNL d   1       3.309   4.971  -1.303  0.00  0.00     0.310 C 
ATOM     18  C   UNL d   1       5.696   4.755  -1.228  0.00  0.00     0.310 C 
ENDBRANCH  15  16
ENDBRANCH  14  15
ENDBRANCH  13  14
ENDBRANCH   3  13
TORSDOF 5
