REMARK  5 active torsions:
REMARK  status: ('A' for Active; 'I' for Inactive)
REMARK    1  A    between atoms: C_3  and  O_15 
REMARK    2  A    between atoms: O_16  and  C_4 
REMARK    3  A    between atoms: O_15  and  C_17 
REMARK    4  A    between atoms: C_18  and  O_16 
REMARK    5  A    between atoms: C_17  and  C_18 
ROOT
ATOM      1  C   UNL d   1       6.024   0.956   0.123  0.00  0.00     0.202 C 
ENDROOT
BRANCH   1   2
ATOM      2  O   UNL d   1       6.782   2.169   0.107  0.00  0.00    -0.349 OA
BRANCH   2   3
ATOM      3  C   UNL d   1       7.007   2.744  -1.113  0.00  0.00     0.069 A 
ATOM      4  C   UNL d   1       7.086   4.139  -1.116  0.00  0.00     0.038 A 
ATOM      5  C   UNL d   1       7.335   4.834  -2.304  0.00  0.00     0.026 A 
ATOM      6  C   UNL d   1       7.520   4.126  -3.489  0.00  0.00     0.034 A 
ATOM      7  C   UNL d   1       7.463   2.735  -3.492  0.00  0.00     0.026 A 
ATOM      8 CL   UNL d   1       7.835   4.970  -4.954  0.00  0.00    -0.084 Cl
ATOM      9  C   UNL d   1       7.213   2.044  -2.301  0.00  0.00     0.038 A 
ENDBRANCH   2   3
ENDBRANCH   1   2
BRANCH   1  10
ATOM     10  C   UNL d   1       4.527   1.252   0.088  0.00  0.00     0.202 C 
BRANCH  10  11
ATOM     11  O   UNL d   1       3.814   0.015   0.048  0.00  0.00    -0.349 OA
BRANCH  11  12
ATOM     12  C   UNL d   1       2.447   0.095   0.014  0.00  0.00     0.069 A 
ATOM     13  C   UNL d   1       1.790  -1.137  -0.046  0.00  0.00     0.038 A 
ATOM     14  C   UNL d   1       0.394  -1.197  -0.076  0.00  0.00     0.026 A 
ATOM     15  C   UNL d   1      -0.346  -0.019  -0.045  0.00  0.00     0.034 A 
ATOM     16 CL   UNL d   1      -2.065  -0.083  -0.075  0.00  0.00    -0.084 Cl
ATOM     17  C   UNL d   1       0.299   1.214   0.011  0.00  0.00     0.026 A 
ATOM     18  C   UNL d   1       1.696   1.271   0.041  0.00  0.00     0.038 A 
ENDBRANCH  11  12
ENDBRANCH  10  11
ENDBRANCH   1  10
TORSDOF 5
