REMARK  5 active torsions:
REMARK  status: ('A' for Active; 'I' for Inactive)
REMARK    1  A    between atoms: C_10  and  C_2 
REMARK    2  A    between atoms: N_3  and  C_8 
REMARK    3  A    between atoms: C_13  and  C_10 
REMARK    4  A    between atoms: C_15  and  C_13 
REMARK    5  A    between atoms: N_16  and  C_15 
ROOT
ATOM      1  C   UNL d   1      -1.110   0.633  -0.025  0.00  0.00    -0.012 A 
ATOM      2  C   UNL d   1       0.089   1.521  -0.034  0.00  0.00    -0.014 A 
ATOM      3  C   UNL d   1      -0.616  -0.695  -0.048  0.00  0.00    -0.014 A 
ATOM      4  C   UNL d   1       1.308   0.653  -0.047  0.00  0.00    -0.014 A 
ATOM      5  C   UNL d   1       0.839  -0.681  -0.067  0.00  0.00    -0.014 A 
ATOM      6  C   UNL d   1      -2.473   0.887  -0.053  0.00  0.00     0.049 A 
ATOM      7  C   UNL d   1      -3.342  -0.217  -0.084  0.00  0.00     0.103 A 
ATOM      8  C   UNL d   1      -1.480  -1.782  -0.060  0.00  0.00     0.015 A 
ATOM      9  C   UNL d   1      -2.854  -1.542  -0.078  0.00  0.00     0.037 A 
ATOM     10  C   UNL d   1       2.670   0.911   0.008  0.00  0.00     0.013 A 
ATOM     11  C   UNL d   1       1.728  -1.749  -0.088  0.00  0.00     0.013 A 
ATOM     12  C   UNL d   1       3.098  -1.483  -0.077  0.00  0.00     0.001 A 
ATOM     13  C   UNL d   1       3.565  -0.164  -0.023  0.00  0.00     0.001 A 
ENDROOT
BRANCH   2  14
ATOM     14  C   UNL d   1       0.022   2.866  -0.032  0.00  0.00     0.014 C 
BRANCH  14  15
ATOM     15  C   UNL d   1       1.152   3.749  -0.229  0.00  0.00     0.018 C 
BRANCH  15  16
ATOM     16  C   UNL d   1       1.316   4.965   0.310  0.00  0.00     0.084 C 
BRANCH  16  17
ATOM     17  N   UNL d   1       2.397   5.829   0.174  0.00  0.00    -0.398 N 
ATOM     18  C   UNL d   1       3.676   5.457  -0.436  0.00  0.00     0.148 C 
ATOM     19  C   UNL d   1       2.436   7.128   0.848  0.00  0.00     0.148 C 
ENDBRANCH  16  17
ENDBRANCH  15  16
ENDBRANCH  14  15
ENDBRANCH   2  14
BRANCH   7  20
ATOM     20  N   UNL d   1      -4.795   0.002  -0.144  0.00  0.00    -0.116 N 
ATOM     21  O   UNL d   1      -5.197   1.174  -0.192  0.00  0.00    -0.532 OA
ATOM     22  O   UNL d   1      -5.530  -0.994  -0.145  0.00  0.00    -0.532 OA
ENDBRANCH   7  20
TORSDOF 5
