REMARK  5 active torsions:
REMARK  status: ('A' for Active; 'I' for Inactive)
REMARK    1  A    between atoms: C_2  and  N_1 
REMARK    2  A    between atoms: O_8  and  C_4 
REMARK    3  A    between atoms: N_11  and  C_7 
REMARK    4  A    between atoms: C_12  and  O_8 
REMARK    5  A    between atoms: C_13  and  C_12 
ROOT
ATOM      1  C   UNL d   1       0.911  -0.027  -0.053  0.00  0.00     0.105 A 
ATOM      2  C   UNL d   1       0.146   1.146  -0.091  0.00  0.00     0.075 A 
ATOM      3  C   UNL d   1      -1.260   1.085  -0.069  0.00  0.00     0.097 A 
ATOM      4  C   UNL d   1      -1.905  -0.171   0.015  0.00  0.00     0.059 A 
ATOM      5  C   UNL d   1       0.288  -1.271   0.015  0.00  0.00     0.038 A 
ATOM      6  C   UNL d   1      -1.103  -1.329   0.069  0.00  0.00     0.034 A 
ENDROOT
BRANCH   3   7
ATOM      7  O   UNL d   1      -1.836   2.336  -0.127  0.00  0.00    -0.344 OA
BRANCH   7   8
ATOM      8  C   UNL d   1      -3.137   2.417  -0.696  0.00  0.00     0.214 C 
BRANCH   8   9
ATOM      9  C   UNL d   1      -3.447   3.781  -1.269  0.00  0.00    -0.034 A 
ATOM     10  C   UNL d   1      -3.718   3.925  -2.638  0.00  0.00     0.009 A 
ATOM     11  C   UNL d   1      -4.157   5.148  -3.149  0.00  0.00     0.001 A 
ATOM     12  C   UNL d   1      -4.322   6.239  -2.299  0.00  0.00     0.000 A 
ATOM     13  C   UNL d   1      -4.031   6.114  -0.941  0.00  0.00     0.001 A 
ATOM     14  C   UNL d   1      -3.589   4.893  -0.428  0.00  0.00     0.009 A 
ENDBRANCH   8   9
ENDBRANCH   7   8
ENDBRANCH   3   7
BRANCH   4  15
ATOM     15  N   UNL d   1      -3.261  -0.370   0.311  0.00  0.00    -0.397 N 
ATOM     16  H   UNL d   1      -3.616  -1.288   0.055  0.00  0.00     0.156 HD
ATOM     17  H   UNL d   1      -3.926   0.350   0.089  0.00  0.00     0.156 HD
ENDBRANCH   4  15
BRANCH   1  18
ATOM     18  N   UNL d   1       2.377   0.042  -0.067  0.00  0.00    -0.116 N 
ATOM     19  O   UNL d   1       2.901   1.165  -0.079  0.00  0.00    -0.532 OA
ATOM     20  O   UNL d   1       3.004  -1.026  -0.064  0.00  0.00    -0.532 OA
ENDBRANCH   1  18
TORSDOF 5
