REMARK  6 active torsions:
REMARK  status: ('A' for Active; 'I' for Inactive)
REMARK    1  A    between atoms: CA_4  and  C_1 
REMARK    2  A    between atoms: OXT_7  and  C_1 
REMARK    3  A    between atoms: CA_4  and  N_2 
REMARK       I    between atoms: C_3  and  N_2 
REMARK    4  A    between atoms: C_9  and  CA_4 
REMARK    5  A    between atoms: C_10  and  C_9 
REMARK    6  A    between atoms: C_11  and  C_10 
ROOT
ATOM      1  CA  UNL d   1       0.262   0.893  -0.902  0.00  0.00     0.182 C 
ENDROOT
BRANCH   1   2
ATOM      2  N   UNL d   1      -0.602   1.771  -0.115  0.00  0.00    -0.347 N 
ATOM      3  C   UNL d   1      -1.787   2.250  -0.613  0.00  0.00     0.214 C 
ATOM      4  O   UNL d   1      -2.232   1.922  -1.708  0.00  0.00    -0.274 OA
ATOM      5  C   UNL d   1      -2.526   3.179   0.311  0.00  0.00     0.117 C 
ATOM      6  H   UNL d   1      -0.228   2.134   0.757  0.00  0.00     0.163 HD
ENDBRANCH   1   2
BRANCH   1   7
ATOM      7  C   UNL d   1       1.077   0.060   0.092  0.00  0.00     0.163 C 
ATOM      8  O   UNL d   1       1.742   0.547   0.999  0.00  0.00    -0.648 OA
BRANCH   7   9
ATOM      9  OXT UNL d   1       0.970  -1.276  -0.085  0.00  0.00    -0.775 OA
ATOM     10  HXT UNL d   1       0.343  -1.546  -0.784  0.00  0.00     0.167 HD
ENDBRANCH   7   9
ENDBRANCH   1   7
BRANCH   1  11
ATOM     11  C   UNL d   1       1.169   1.719  -1.820  0.00  0.00     0.036 C 
BRANCH  11  12
ATOM     12  C   UNL d   1       2.105   0.869  -2.685  0.00  0.00     0.002 C 
BRANCH  12  13
ATOM     13  C   UNL d   1       2.933   1.755  -3.619  0.00  0.00    -0.004 C 
ATOM     14  C   UNL d   1       3.888   0.940  -4.475  0.00  0.00     0.005 C 
ENDBRANCH  12  13
ENDBRANCH  11  12
ENDBRANCH   1  11
TORSDOF 6
