REMARK  6 active torsions:
REMARK  status: ('A' for Active; 'I' for Inactive)
REMARK       I    between atoms: N_4  and  C_1 
REMARK       I    between atoms: N_12  and  C_1 
REMARK    1  A    between atoms: C_3  and  N_4 
REMARK    2  A    between atoms: C_5  and  C_17 
REMARK    3  A    between atoms: C_20  and  N_12 
REMARK    4  A    between atoms: S_14  and  C_21 
REMARK    5  A    between atoms: C_17  and  S_14 
REMARK    6  A    between atoms: C_21  and  C_20 
ROOT
ATOM      1  C   UNL d   1       1.155   0.255  -0.161  0.00  0.00     0.320 C 
ATOM      2  N   UNL d   1       0.424  -0.866   0.173  0.00  0.00    -0.308 N 
ATOM      3  O   UNL d   1       0.714   1.281  -0.662  0.00  0.00    -0.247 OA
ATOM      4  N   UNL d   1       2.468   0.108   0.203  0.00  0.00    -0.342 N 
ATOM      5  H   UNL d   1       0.828  -1.417   0.913  0.00  0.00     0.170 HD
ATOM      6  H   UNL d   1       2.818  -0.803   0.460  0.00  0.00     0.164 HD
ENDROOT
BRANCH   2   7
ATOM      7  C   UNL d   1      -0.929  -1.089  -0.155  0.00  0.00     0.043 A 
ATOM      8  C   UNL d   1      -1.748  -1.874   0.689  0.00  0.00    -0.013 A 
ATOM      9  C   UNL d   1      -3.053  -2.181   0.252  0.00  0.00     0.042 A 
ATOM     10  C   UNL d   1      -1.284  -2.351   2.043  0.00  0.00     0.052 C 
ATOM     11 CL   UNL d   1      -4.115  -3.180   1.189  0.00  0.00    -0.084 Cl
ATOM     12  C   UNL d   1      -3.547  -1.694  -0.960  0.00  0.00     0.024 A 
ATOM     13  C   UNL d   1      -2.748  -0.887  -1.760  0.00  0.00     0.004 A 
ATOM     14  C   UNL d   1      -1.448  -0.591  -1.361  0.00  0.00     0.030 A 
ENDBRANCH   2   7
BRANCH   4  15
ATOM     15  C   UNL d   1       3.425   1.201   0.184  0.00  0.00     0.134 C 
BRANCH  15  16
ATOM     16  C   UNL d   1       3.903   1.535   1.600  0.00  0.00     0.094 C 
BRANCH  16  17
ATOM     17  S   UNL d   1       4.740   0.079   2.318  0.00  0.00    -0.161 SA
BRANCH  17  18
ATOM     18  C   UNL d   1       5.123   0.742   3.971  0.00  0.00     0.139 C 
BRANCH  18  19
ATOM     19  C   UNL d   1       5.771  -0.328   4.769  0.00  0.00     0.061 A 
ATOM     20  O   UNL d   1       4.952  -1.092   5.550  0.00  0.00    -0.326 OA
ATOM     21  C   UNL d   1       5.728  -2.052   6.115  0.00  0.00     0.142 A 
ATOM     22  C   UNL d   1       7.038  -1.905   5.726  0.00  0.00     0.027 A 
ATOM     23  C   UNL d   1       7.071  -0.781   4.866  0.00  0.00     0.035 A 
ENDBRANCH  18  19
ENDBRANCH  17  18
ENDBRANCH  16  17
ENDBRANCH  15  16
ENDBRANCH   4  15
TORSDOF 6
