REMARK  6 active torsions:
REMARK  status: ('A' for Active; 'I' for Inactive)
REMARK    1  A    between atoms: N_3  and  C_1 
REMARK    2  A    between atoms: N_4  and  C_1 
REMARK    3  A    between atoms: C_2  and  N_3 
REMARK    4  A    between atoms: C_8  and  N_4 
REMARK    5  A    between atoms: N_6  and  C_5 
REMARK       I    between atoms: C_9  and  N_6 
REMARK    6  A    between atoms: O_17  and  C_14 
ROOT
ATOM      1  C   UNL d   1       1.073  -0.828  -2.373  0.00  0.00     0.064 A 
ATOM      2  C   UNL d   1       2.150  -1.702  -2.131  0.00  0.00     0.061 A 
ATOM      3  C   UNL d   1       0.651  -0.613  -3.699  0.00  0.00     0.068 A 
ATOM      4  C   UNL d   1       2.751  -2.333  -3.240  0.00  0.00     0.035 A 
ATOM      5  C   UNL d   1       1.272  -1.222  -4.787  0.00  0.00     0.070 A 
ATOM      6  C   UNL d   1       2.332  -2.084  -4.555  0.00  0.00     0.039 A 
ENDROOT
BRANCH   1   7
ATOM      7  N   UNL d   1       0.448  -0.077  -1.356  0.00  0.00    -0.331 N 
ATOM      8  H   UNL d   1       0.981   0.035  -0.493  0.00  0.00     0.168 HD
BRANCH   7   9
ATOM      9  C   UNL d   1      -0.866   0.294  -1.255  0.00  0.00     0.176 C 
ATOM     10  S   UNL d   1      -2.184  -0.576  -1.827  0.00  0.00    -0.041 SA
BRANCH   9  11
ATOM     11  N   UNL d   1      -1.140   1.367  -0.455  0.00  0.00    -0.332 N 
ATOM     12  H   UNL d   1      -2.085   1.345  -0.088  0.00  0.00     0.168 HD
BRANCH  11  13
ATOM     13  C   UNL d   1      -0.356   2.482  -0.082  0.00  0.00     0.056 A 
ATOM     14  C   UNL d   1       0.644   3.109  -0.846  0.00  0.00     0.060 A 
ATOM     15 CL   UNL d   1       1.012   2.711  -2.487  0.00  0.00    -0.082 Cl
ATOM     16  C   UNL d   1       1.290   4.255  -0.354  0.00  0.00     0.026 A 
ATOM     17  C   UNL d   1       0.941   4.795   0.883  0.00  0.00     0.002 A 
ATOM     18  C   UNL d   1      -0.065   4.201   1.631  0.00  0.00     0.002 A 
ATOM     19  C   UNL d   1      -0.715   3.063   1.147  0.00  0.00     0.031 A 
ENDBRANCH  11  13
ENDBRANCH   9  11
ENDBRANCH   7   9
ENDBRANCH   1   7
BRANCH   2  20
ATOM     20  N   UNL d   1       2.674  -2.104  -0.871  0.00  0.00    -0.326 N 
ATOM     21  C   UNL d   1       2.499  -1.550   0.379  0.00  0.00     0.218 C 
ATOM     22  O   UNL d   1       1.963  -0.476   0.637  0.00  0.00    -0.274 OA
ATOM     23  C   UNL d   1       3.119  -2.378   1.477  0.00  0.00     0.117 C 
ATOM     24  H   UNL d   1       3.311  -2.890  -0.907  0.00  0.00     0.169 HD
ENDBRANCH   2  20
BRANCH   5  25
ATOM     25  O   UNL d   1       0.748  -0.874  -5.998  0.00  0.00    -0.356 OA
ATOM     26  C   UNL d   1       1.367  -1.403  -7.159  0.00  0.00     0.210 C 
ENDBRANCH   5  25
TORSDOF 6
