REMARK  9 active torsions:
REMARK  status: ('A' for Active; 'I' for Inactive)
REMARK    1  A    between atoms: C_2  and  C_1 
REMARK    2  A    between atoms: N_7  and  C_1 
REMARK    3  A    between atoms: O_9  and  N_3 
REMARK    4  A    between atoms: C_5  and  O_12 
REMARK    5  A    between atoms: C_6  and  O_9 
REMARK       I    between atoms: N_8  and  C_6 
REMARK    6  A    between atoms: C_14  and  N_7 
REMARK    7  A    between atoms: C_18  and  N_8 
REMARK    8  A    between atoms: O_12  and  C_19 
REMARK    9  A    between atoms: O_31  and  C_22 
ROOT
ATOM      1  C   UNL d   1       0.981   0.064  -0.049  0.00  0.00     0.140 C 
ATOM      2  N   UNL d   1       0.420   0.728  -1.028  0.00  0.00    -0.239 N 
ATOM      3  HN  UNL d   1       0.914   1.367  -1.651  1.00  0.00     0.196 HD
ENDROOT
BRANCH   1   4
ATOM      4  C   UNL d   1       2.499   0.112  -0.031  0.00  0.00     0.053 A 
ATOM      5  C   UNL d   1       3.181   1.293  -0.399  0.00  0.00     0.049 A 
ATOM      6 CL   UNL d   1       2.406   2.828  -0.636  0.00  0.00    -0.083 Cl
ATOM      7  C   UNL d   1       4.578   1.303  -0.540  0.00  0.00     0.025 A 
ATOM      8  C   UNL d   1       5.324   0.161  -0.277  0.00  0.00     0.003 A 
ATOM      9  C   UNL d   1       4.677  -0.993   0.148  0.00  0.00     0.025 A 
ATOM     10  C   UNL d   1       3.278  -1.026   0.264  0.00  0.00     0.049 A 
ATOM     11 CL   UNL d   1       2.622  -2.557   0.749  0.00  0.00    -0.083 Cl
ENDBRANCH   1   4
BRANCH   1  12
ATOM     12  N   UNL d   1       0.348  -0.716   0.915  0.00  0.00    -0.340 N 
ATOM     13  H   UNL d   1       0.835  -1.537   1.254  0.00  0.00     0.167 HD
BRANCH  12  14
ATOM     14  C   UNL d   1      -0.912  -0.526   1.514  0.00  0.00     0.033 A 
ATOM     15  C   UNL d   1      -1.676  -1.641   1.883  0.00  0.00     0.032 A 
ATOM     16  C   UNL d   1      -2.998  -1.497   2.334  0.00  0.00     0.039 A 
ATOM     17  C   UNL d   1      -3.581  -0.234   2.388  0.00  0.00     0.078 A 
ATOM     18  C   UNL d   1      -2.803   0.886   2.096  0.00  0.00     0.039 A 
ATOM     19  C   UNL d   1      -1.484   0.741   1.661  0.00  0.00     0.032 A 
BRANCH  17  20
ATOM     20  O   UNL d   1      -4.857   0.032   2.777  0.00  0.00    -0.255 OA
BRANCH  20  21
ATOM     21  C   UNL d   1      -5.901  -0.845   2.370  0.00  0.00     0.530 C 
ATOM     22  F   UNL d   1      -5.498  -1.892   1.621  0.00  0.00    -0.144 F 
ATOM     23  F   UNL d   1      -6.519  -1.323   3.473  0.00  0.00    -0.144 F 
ATOM     24  F   UNL d   1      -6.809  -0.143   1.655  0.00  0.00    -0.144 F 
ENDBRANCH  20  21
ENDBRANCH  17  20
ENDBRANCH  12  14
ENDBRANCH   1  12
BRANCH   2  25
ATOM     25  O   UNL d   1      -0.955   0.442  -1.106  0.00  0.00    -0.179 OA
BRANCH  25  26
ATOM     26  C   UNL d   1      -1.673   1.296  -1.915  0.00  0.00     0.387 C 
ATOM     27  N   UNL d   1      -0.937   2.299  -2.510  0.00  0.00    -0.301 N 
ATOM     28  H   UNL d   1       0.042   2.271  -2.244  0.00  0.00     0.171 HD
ATOM     29  O   UNL d   1      -2.883   1.108  -2.049  0.00  0.00    -0.236 OA
BRANCH  27  30
ATOM     30  C   UNL d   1      -1.379   3.213  -3.489  0.00  0.00     0.037 A 
ATOM     31  C   UNL d   1      -2.700   3.267  -3.942  0.00  0.00     0.032 A 
ATOM     32  C   UNL d   1      -3.070   4.102  -5.003  0.00  0.00     0.039 A 
ATOM     33  C   UNL d   1      -2.119   4.901  -5.626  0.00  0.00     0.068 A 
ATOM     34  C   UNL d   1      -0.818   4.925  -5.124  0.00  0.00     0.039 A 
ATOM     35  C   UNL d   1      -0.445   4.081  -4.065  0.00  0.00     0.032 A 
BRANCH  33  36
ATOM     36  O   UNL d   1      -2.372   5.705  -6.705  0.00  0.00    -0.356 OA
ATOM     37  C   UNL d   1      -3.360   5.196  -7.601  0.00  0.00     0.210 C 
ENDBRANCH  33  36
ENDBRANCH  27  30
ENDBRANCH  25  26
ENDBRANCH   2  25
TORSDOF 9
