REMARK  4 active torsions:
REMARK  status: ('A' for Active; 'I' for Inactive)
REMARK    1  A    between atoms: C_6  and  C_1 
REMARK    2  A    between atoms: C_9  and  N_2 
REMARK       I    between atoms: N_8  and  C_6 
REMARK    3  A    between atoms: C_13  and  N_8 
REMARK    4  A    between atoms: O_24  and  C_16 
ROOT
ATOM      1  C   UNL d   1      -0.184   1.157   0.232  0.00  0.00     0.073 A 
ATOM      2  N   UNL d   1       0.929  -0.786   0.230  0.00  0.00    -0.260 N 
ATOM      3  C   UNL d   1       1.084   0.596   0.419  0.00  0.00     0.048 A 
ATOM      4  N   UNL d   1      -0.337  -1.109  -0.125  0.00  0.00    -0.304 N 
ATOM      5  HN  UNL d   1      -0.699  -2.029  -0.379  1.00  0.00     0.186 HD
ATOM      6  C   UNL d   1      -1.004   0.040  -0.070  0.00  0.00     0.126 A 
ATOM      7  C   UNL d   1       2.413   1.260   0.579  0.00  0.00     0.071 C 
ENDROOT
BRANCH   1   8
ATOM      8  C   UNL d   1      -0.706   2.527   0.217  0.00  0.00     0.259 C 
ATOM      9  N   UNL d   1       0.213   3.547   0.370  0.00  0.00    -0.323 N 
ATOM     10  H   UNL d   1       1.177   3.279   0.456  0.00  0.00     0.169 HD
ATOM     11  O   UNL d   1      -1.910   2.712   0.049  0.00  0.00    -0.267 OA
BRANCH   9  12
ATOM     12  C   UNL d   1       0.007   4.937   0.265  0.00  0.00     0.035 A 
ATOM     13  C   UNL d   1      -1.233   5.527   0.014  0.00  0.00     0.032 A 
ATOM     14  C   UNL d   1      -1.337   6.904  -0.217  0.00  0.00     0.039 A 
ATOM     15  C   UNL d   1      -0.203   7.710  -0.201  0.00  0.00     0.068 A 
ATOM     16  C   UNL d   1       1.026   7.143   0.137  0.00  0.00     0.039 A 
ATOM     17  C   UNL d   1       1.130   5.768   0.367  0.00  0.00     0.032 A 
BRANCH  15  18
ATOM     18  O   UNL d   1      -0.170   9.045  -0.495  0.00  0.00    -0.356 OA
ATOM     19  C   UNL d   1      -1.310   9.560  -1.178  0.00  0.00     0.210 C 
ENDBRANCH  15  18
ENDBRANCH   9  12
ENDBRANCH   1   8
BRANCH   2  20
ATOM     20  C   UNL d   1       1.936  -1.799   0.195  0.00  0.00     0.056 C 
ATOM     21  C   UNL d   1       3.052  -1.751   1.037  0.00  0.00     0.034 C 
ATOM     22  C   UNL d   1       4.157  -2.561   0.782  0.00  0.00     0.044 C 
ATOM     23  C   UNL d   1       4.107  -3.474  -0.262  0.00  0.00     0.116 C 
ATOM     24  C   UNL d   1       2.946  -3.642  -1.009  0.00  0.00     0.044 C 
ATOM     25  F   UNL d   1       5.193  -4.204  -0.548  0.00  0.00    -0.206 F 
ATOM     26  C   UNL d   1       1.846  -2.814  -0.773  0.00  0.00     0.034 C 
ENDBRANCH   2  20
TORSDOF 4
