REMARK  5 active torsions:
REMARK  status: ('A' for Active; 'I' for Inactive)
REMARK       I    between atoms: C_2  and  N_1 
REMARK    1  A    between atoms: C_3  and  N_1 
REMARK    2  A    between atoms: C_8  and  C_2 
REMARK    3  A    between atoms: C_12  and  N_9 
REMARK    4  A    between atoms: C_10  and  C_11 
REMARK    5  A    between atoms: C_11  and  C_12 
ROOT
ATOM      1  C   UNL d   1       2.386  -0.090   0.045  0.00  0.00     0.174 C 
ATOM      2  S   UNL d   1       2.872   0.843  -1.250  0.00  0.00    -0.041 SA
ATOM      3  N   UNL d   1       3.170  -0.947   0.758  0.00  0.00    -0.367 N 
ATOM      4  H   UNL d   1       2.668  -1.551   1.411  0.00  0.00     0.161 HD
ENDROOT
BRANCH   1   5
ATOM      5  N   UNL d   1       1.089   0.038   0.492  0.00  0.00    -0.300 N 
ATOM      6  C   UNL d   1       0.511  -0.551   1.606  0.00  0.00     0.257 C 
ATOM      7  O   UNL d   1       1.066  -1.411   2.291  0.00  0.00    -0.267 OA
ATOM      8  H   UNL d   1       0.580   0.763   0.007  0.00  0.00     0.171 HD
BRANCH   6   9
ATOM      9  C   UNL d   1      -0.856  -0.098   1.985  0.00  0.00     0.032 A 
ATOM     10  C   UNL d   1      -1.767   0.419   1.054  0.00  0.00     0.017 A 
ATOM     11  C   UNL d   1      -3.047   0.795   1.469  0.00  0.00     0.001 A 
ATOM     12  C   UNL d   1      -3.425   0.651   2.805  0.00  0.00     0.000 A 
ATOM     13  C   UNL d   1      -2.524   0.137   3.734  0.00  0.00     0.001 A 
ATOM     14  C   UNL d   1      -1.244  -0.238   3.326  0.00  0.00     0.017 A 
ENDBRANCH   6   9
ENDBRANCH   1   5
BRANCH   3  15
ATOM     15  C   UNL d   1       4.618  -1.105   0.687  0.00  0.00     0.128 C 
BRANCH  15  16
ATOM     16  C   UNL d   1       5.148  -1.783   1.948  0.00  0.00     0.076 C 
BRANCH  16  17
ATOM     17  C   UNL d   1       6.651  -1.793   1.975  0.00  0.00     0.010 A 
ATOM     18  N   UNL d   1       7.269  -2.850   1.400  0.00  0.00    -0.369 N 
ATOM     19  C   UNL d   1       8.619  -2.860   1.410  0.00  0.00     0.088 A 
ATOM     20  HN  UNL d   1       6.736  -3.610   0.976  1.00  0.00     0.165 HD
ATOM     21  C   UNL d   1       9.394  -1.856   1.964  0.00  0.00     0.017 A 
ATOM     22  C   UNL d   1       8.744  -0.772   2.545  0.00  0.00     0.003 A 
ATOM     23  C   UNL d   1       7.353  -0.737   2.552  0.00  0.00     0.025 A 
ENDBRANCH  16  17
ENDBRANCH  15  16
ENDBRANCH   3  15
TORSDOF 5
