REMARK  2 active torsions:
REMARK  status: ('A' for Active; 'I' for Inactive)
REMARK    1  A    between atoms: C_6  and  N_1 
REMARK    2  A    between atoms: N_7  and  C_6 
ROOT
ATOM      1  N   UNL d   1      -2.703   1.245   0.012  0.00  0.00    -0.294 N 
ATOM      2  C   UNL d   1      -2.836   0.423  -1.094  0.00  0.00     0.300 A 
ATOM      3  C   UNL d   1      -1.432  -0.604   0.559  0.00  0.00     0.048 A 
ATOM      4  C   UNL d   1      -1.896   0.638   0.992  0.00  0.00     0.053 A 
ATOM      5  C   UNL d   1      -1.995  -0.838  -0.769  0.00  0.00     0.252 A 
ATOM      6  C   UNL d   1      -1.528   1.117   2.236  0.00  0.00     0.032 A 
ATOM      7  C   UNL d   1      -0.579  -1.396   1.304  0.00  0.00     0.037 A 
ATOM      8  O   UNL d   1      -3.458   0.600  -2.119  0.00  0.00    -0.263 OA
ATOM      9  O   UNL d   1      -1.836  -1.816  -1.462  0.00  0.00    -0.281 OA
ATOM     10  C   UNL d   1      -0.188  -0.898   2.546  0.00  0.00     0.012 A 
ATOM     11  C   UNL d   1      -0.660   0.341   3.014  0.00  0.00     0.021 A 
ATOM     12 BR   UNL d   1       1.005  -1.898   3.619  0.00  0.00    -0.051 Br
ENDROOT
BRANCH   1  13
ATOM     13  C   UNL d   1      -3.273   2.564   0.099  0.00  0.00     0.253 C 
BRANCH  13  14
ATOM     14  N   UNL d   1      -2.215   3.535   0.166  0.00  0.00    -0.392 N 
ATOM     15  C   UNL d   1      -1.383   3.794  -0.997  0.00  0.00     0.145 C 
ATOM     16  C   UNL d   1      -1.389   5.275  -1.402  0.00  0.00     0.187 C 
ATOM     17  O   UNL d   1      -1.077   6.118  -0.285  0.00  0.00    -0.388 OA
ATOM     18  C   UNL d   1      -2.068   5.968   0.737  0.00  0.00     0.187 C 
ATOM     19  C   UNL d   1      -2.169   4.518   1.232  0.00  0.00     0.145 C 
ENDBRANCH  13  14
ENDBRANCH   1  13
TORSDOF 2
