REMARK  1 active torsions:
REMARK  status: ('A' for Active; 'I' for Inactive)
REMARK    1  A    between atoms: C_4  and  C_1 
ROOT
ATOM      1  C   UNL d   1      -2.374  -0.604   0.007  0.00  0.00     0.241 A 
ATOM      2  N   UNL d   1      -1.333  -1.636  -0.174  0.00  0.00    -0.260 NA
ATOM      3  O   UNL d   1      -1.787   0.728   0.130  0.00  0.00    -0.324 OA
ATOM      4  C   UNL d   1      -0.166  -0.857  -0.095  0.00  0.00     0.046 A 
ATOM      5  C   UNL d   1      -0.444   0.492   0.031  0.00  0.00     0.092 A 
ATOM      6  C   UNL d   1       1.138  -1.308  -0.142  0.00  0.00     0.050 A 
ATOM      7  C   UNL d   1       0.544   1.451   0.099  0.00  0.00     0.040 A 
ATOM      8  C   UNL d   1       2.159  -0.357  -0.068  0.00  0.00     0.035 A 
ATOM      9  C   UNL d   1       1.870   1.014   0.045  0.00  0.00     0.026 A 
ATOM     10 CL   UNL d   1       3.801  -0.873  -0.111  0.00  0.00    -0.084 Cl
ATOM     11  H   UNL d   1      -1.343  -2.344   0.555  0.00  0.00     0.130 HD
ENDROOT
BRANCH   1  12
ATOM     12  C   UNL d   1      -3.224  -0.936   1.223  0.00  0.00     0.007 A 
ATOM     13  C   UNL d   1      -4.390  -1.714   1.125  0.00  0.00     0.044 A 
ATOM     14 CL   UNL d   1      -4.981  -2.304  -0.388  0.00  0.00    -0.084 Cl
ATOM     15  C   UNL d   1      -5.117  -2.060   2.270  0.00  0.00     0.024 A 
ATOM     16  C   UNL d   1      -4.689  -1.644   3.530  0.00  0.00     0.002 A 
ATOM     17  C   UNL d   1      -3.534  -0.879   3.649  0.00  0.00     0.001 A 
ATOM     18  C   UNL d   1      -2.807  -0.531   2.508  0.00  0.00     0.013 A 
ENDBRANCH   1  12
TORSDOF 1
