REMARK  2 active torsions:
REMARK  status: ('A' for Active; 'I' for Inactive)
REMARK    1  A    between atoms: N_2  and  S_1 
REMARK    2  A    between atoms: C_4  and  N_3 
ROOT
ATOM      1  C   UNL d   1      -3.481   1.819  -1.708  0.00  0.00     0.103 A 
ATOM      2  N   UNL d   1      -4.479   1.265  -0.991  0.00  0.00    -0.351 N 
ATOM      3  HN  UNL d   1      -4.299   0.496  -0.345  1.00  0.00     0.166 HD
ATOM      4  N   UNL d   1      -8.496   3.602  -2.308  0.00  0.00    -0.191 NA
ATOM      5  C   UNL d   1      -7.402   3.231  -2.178  0.00  0.00     0.101 C 
ATOM      6  C   UNL d   1      -6.056   2.783  -2.032  0.00  0.00     0.060 A 
ATOM      7  C   UNL d   1      -3.735   2.859  -2.608  0.00  0.00     0.050 A 
ATOM      8  C   UNL d   1      -5.733   1.762  -1.153  0.00  0.00     0.112 A 
ATOM      9  C   UNL d   1      -5.029   3.341  -2.780  0.00  0.00     0.028 A 
ENDROOT
BRANCH   1  10
ATOM     10  N   UNL d   1      -2.196   1.303  -1.647  0.00  0.00    -0.365 N 
ATOM     11  C   UNL d   1      -2.027  -0.058  -1.115  0.00  0.00     0.140 C 
ATOM     12  C   UNL d   1      -0.693  -0.606  -1.670  0.00  0.00     0.127 C 
ATOM     13  N   UNL d   1       0.484   0.275  -1.318  0.00  0.00    -0.208 NA
ATOM     14  C   UNL d   1       0.213   1.709  -1.688  0.00  0.00     0.127 C 
ATOM     15  C   UNL d   1      -1.148   2.220  -1.174  0.00  0.00     0.140 C 
BRANCH  13  16
ATOM     16  S   UNL d   1       1.147  -0.012   0.216  0.00  0.00     0.207 S 
ATOM     17  O   UNL d   1       1.301  -1.442   0.368  0.00  0.00    -0.212 OA
ATOM     18  O   UNL d   1       0.400   0.767   1.178  0.00  0.00    -0.212 OA
ATOM     19  C   UNL d   1       2.776   0.692   0.058  0.00  0.00     0.180 C 
ENDBRANCH  13  16
ENDBRANCH   1  10
TORSDOF 2
