REMARK  1 active torsions:
REMARK  status: ('A' for Active; 'I' for Inactive)
REMARK    1  A    between atoms: C_9  and  N_2 
ROOT
ATOM      1  C   UNL d   1       2.364  -0.982  -0.495  0.00  0.00     0.194 C 
ATOM      2  N   UNL d   1       2.799   0.311  -0.191  0.00  0.00    -0.245 N 
ATOM      3  N   UNL d   1       1.875   1.363  -0.483  0.00  0.00    -0.160 NA
ATOM      4  C   UNL d   1       0.932   1.532   0.508  0.00  0.00     0.251 C 
ATOM      5  N   UNL d   1       1.026  -1.288  -0.492  0.00  0.00    -0.331 N 
ATOM      6  C   UNL d   1      -0.272   0.711   0.293  0.00  0.00     0.054 A 
ATOM      7  C   UNL d   1      -0.165  -0.607  -0.167  0.00  0.00     0.049 A 
ATOM      8  S   UNL d   1       3.303  -2.281  -1.038  0.00  0.00    -0.039 SA
ATOM      9  O   UNL d   1       1.022   2.311   1.449  0.00  0.00    -0.272 OA
ATOM     10  C   UNL d   1      -1.526   1.286   0.539  0.00  0.00     0.019 A 
ATOM     11  C   UNL d   1      -1.347  -1.345  -0.344  0.00  0.00     0.030 A 
ATOM     12  C   UNL d   1      -2.691   0.549   0.317  0.00  0.00     0.001 A 
ATOM     13  C   UNL d   1      -2.600  -0.770  -0.114  0.00  0.00     0.002 A 
ATOM     14  H   UNL d   1       1.469   1.156  -1.395  0.00  0.00     0.157 HD
ATOM     15  H   UNL d   1       0.896  -2.256  -0.774  0.00  0.00     0.168 HD
ENDROOT
BRANCH   2  16
ATOM     16  C   UNL d   1       4.167   0.714   0.020  0.00  0.00     0.054 A 
ATOM     17  C   UNL d   1       4.596   2.005  -0.330  0.00  0.00     0.031 A 
ATOM     18  C   UNL d   1       5.943   2.375  -0.224  0.00  0.00     0.002 A 
ATOM     19  C   UNL d   1       6.881   1.472   0.263  0.00  0.00     0.000 A 
ATOM     20  C   UNL d   1       6.465   0.216   0.688  0.00  0.00     0.002 A 
ATOM     21  C   UNL d   1       5.118  -0.147   0.589  0.00  0.00     0.031 A 
ENDBRANCH   2  16
TORSDOF 1
