REMARK  7 active torsions:
REMARK  status: ('A' for Active; 'I' for Inactive)
REMARK    1  A    between atoms: S_9  and  C_1 
REMARK    2  A    between atoms: N_6  and  C_2 
REMARK    3  A    between atoms: C_16  and  N_3 
REMARK    4  A    between atoms: C_5  and  S_9 
REMARK    5  A    between atoms: O_21  and  C_22 
REMARK    6  A    between atoms: C_23  and  O_21 
REMARK    7  A    between atoms: C_26  and  C_23 
ROOT
ATOM      1  C   UNL d   1      -0.132  -1.104  -0.459  0.00  0.00     0.174 A 
ATOM      2  N   UNL d   1       1.072  -0.658   0.065  0.00  0.00    -0.279 N 
ATOM      3  N   UNL d   1      -1.102  -0.270  -0.160  0.00  0.00    -0.278 N 
ATOM      4  HN  UNL d   1      -2.083  -0.372  -0.420  1.00  0.00     0.189 HD
ATOM      5  N   UNL d   1      -0.564   0.757   0.561  0.00  0.00    -0.287 N 
ATOM      6  HN  UNL d   1      -1.077   1.552   0.942  1.00  0.00     0.188 HD
ATOM      7  C   UNL d   1       0.731   0.546   0.682  0.00  0.00     0.101 A 
ATOM      8  C   UNL d   1       1.673   1.532   1.274  0.00  0.00     0.091 C 
ENDROOT
BRANCH   2   9
ATOM      9  C   UNL d   1       2.366  -1.252   0.002  0.00  0.00     0.043 A 
ATOM     10  C   UNL d   1       2.805  -1.918  -1.148  0.00  0.00     0.033 A 
ATOM     11  C   UNL d   1       4.068  -2.520  -1.173  0.00  0.00     0.039 A 
ATOM     12  C   UNL d   1       4.908  -2.463  -0.061  0.00  0.00     0.069 A 
ATOM     13  C   UNL d   1       4.494  -1.756   1.066  0.00  0.00     0.039 A 
ATOM     14  C   UNL d   1       3.225  -1.169   1.105  0.00  0.00     0.033 A 
BRANCH  12  15
ATOM     15  O   UNL d   1       6.094  -3.132  -0.191  0.00  0.00    -0.347 OA
BRANCH  15  16
ATOM     16  C   UNL d   1       6.799  -3.397   1.021  0.00  0.00     0.214 C 
BRANCH  16  17
ATOM     17  C   UNL d   1       7.736  -4.557   0.805  0.00  0.00    -0.034 A 
ATOM     18  C   UNL d   1       9.100  -4.350   0.565  0.00  0.00     0.009 A 
ATOM     19  C   UNL d   1       9.960  -5.438   0.407  0.00  0.00     0.001 A 
ATOM     20  C   UNL d   1       9.464  -6.739   0.478  0.00  0.00     0.000 A 
ATOM     21  C   UNL d   1       8.105  -6.956   0.694  0.00  0.00     0.001 A 
ATOM     22  C   UNL d   1       7.244  -5.870   0.850  0.00  0.00     0.009 A 
ENDBRANCH  16  17
ENDBRANCH  15  16
ENDBRANCH  12  15
ENDBRANCH   2   9
BRANCH   1  23
ATOM     23  S   UNL d   1      -0.391  -2.586  -1.316  0.00  0.00    -0.027 SA
BRANCH  23  24
ATOM     24  C   UNL d   1      -1.127  -3.502  -0.018  0.00  0.00     0.121 A 
ATOM     25  S   UNL d   1      -2.369  -4.651  -0.335  0.00  0.00    -0.039 SA
ATOM     26  C   UNL d   1      -2.369  -5.069   1.310  0.00  0.00     0.161 A 
ATOM     27  C   UNL d   1      -1.447  -4.324   2.006  0.00  0.00     0.133 A 
ATOM     28  N   UNL d   1      -0.714  -3.436   1.232  0.00  0.00    -0.352 N 
ATOM     29  HN  UNL d   1       0.029  -2.828   1.577  1.00  0.00     0.166 HD
BRANCH  26  30
ATOM     30  N   UNL d   1      -3.227  -6.083   1.831  0.00  0.00    -0.107 N 
ATOM     31  O   UNL d   1      -3.122  -6.322   3.040  0.00  0.00    -0.531 OA
ATOM     32  O   UNL d   1      -3.999  -6.656   1.050  0.00  0.00    -0.531 OA
ENDBRANCH  26  30
ENDBRANCH  23  24
ENDBRANCH   1  23
TORSDOF 7
