REMARK  4 active torsions:
REMARK  status: ('A' for Active; 'I' for Inactive)
REMARK    1  A    between atoms: C_4  and  C_1 
REMARK       I    between atoms: N_12  and  C_4 
REMARK    2  A    between atoms: C_6  and  O_8 
REMARK    3  A    between atoms: O_8  and  C_11 
REMARK    4  A    between atoms: N_18  and  N_12 
ROOT
ATOM      1  C   UNL d   1      -2.435  -0.197  -0.085  0.00  0.00     0.103 A 
ATOM      2  N   UNL d   1      -1.645   0.938  -0.086  0.00  0.00    -0.351 N 
ATOM      3  C   UNL d   1      -1.567  -1.272  -0.055  0.00  0.00     0.049 A 
ATOM      4  C   UNL d   1      -0.236  -0.780  -0.044  0.00  0.00    -0.004 A 
ATOM      5  C   UNL d   1      -0.309   0.610  -0.073  0.00  0.00     0.043 A 
ATOM      6  C   UNL d   1       1.027  -1.392  -0.006  0.00  0.00     0.051 A 
ATOM      7  C   UNL d   1       2.187  -0.610   0.016  0.00  0.00     0.079 A 
ATOM      8  C   UNL d   1       0.835   1.417  -0.089  0.00  0.00     0.033 A 
ATOM      9  C   UNL d   1       2.087   0.778  -0.056  0.00  0.00     0.039 A 
ATOM     10  H   UNL d   1      -2.018   1.880  -0.103  0.00  0.00     0.166 HD
ENDROOT
BRANCH   1  11
ATOM     11  C   UNL d   1      -3.880  -0.125  -0.096  0.00  0.00     0.282 C 
ATOM     12  O   UNL d   1      -4.492   0.941  -0.038  0.00  0.00    -0.265 OA
ATOM     13  N   UNL d   1      -4.531  -1.351  -0.188  0.00  0.00    -0.288 N 
ATOM     14  H   UNL d   1      -3.999  -2.196  -0.370  0.00  0.00     0.183 HD
BRANCH  13  15
ATOM     15  N   UNL d   1      -5.941  -1.410  -0.277  0.00  0.00    -0.247 NA
ATOM     16  H   UNL d   1      -6.270  -0.451  -0.458  0.00  0.00     0.143 HD
ATOM     17  H   UNL d   1      -6.304  -1.624   0.656  0.00  0.00     0.143 HD
ENDBRANCH  13  15
ENDBRANCH   1  11
BRANCH   7  18
ATOM     18  O   UNL d   1       3.334  -1.341   0.074  0.00  0.00    -0.255 OA
BRANCH  18  19
ATOM     19  C   UNL d   1       4.512  -0.770   0.618  0.00  0.00     0.530 C 
ATOM     20  F   UNL d   1       4.288   0.311   1.394  0.00  0.00    -0.144 F 
ATOM     21  F   UNL d   1       5.119  -1.705   1.384  0.00  0.00    -0.144 F 
ATOM     22  F   UNL d   1       5.356  -0.432  -0.380  0.00  0.00    -0.144 F 
ENDBRANCH  18  19
ENDBRANCH   7  18
TORSDOF 4
