REMARK  7 active torsions:
REMARK  status: ('A' for Active; 'I' for Inactive)
REMARK    1  A    between atoms: C_2  and  S_1 
REMARK    2  A    between atoms: N_10  and  S_1 
REMARK    3  A    between atoms: C_13  and  C_4 
REMARK    4  A    between atoms: N_14  and  C_5 
REMARK    5  A    between atoms: C_20  and  N_10 
REMARK    6  A    between atoms: O_25  and  C_13 
REMARK    7  A    between atoms: C_28  and  O_25 
ROOT
ATOM      1  C   UNL d   1       2.414   3.965   1.860  0.00  0.00     0.068 A 
ATOM      2  C   UNL d   1       1.433   4.945   2.168  0.00  0.00     0.046 A 
ATOM      3  C   UNL d   1       2.150   2.894   0.983  0.00  0.00     0.050 A 
ATOM      4  C   UNL d   1       0.173   4.742   1.558  0.00  0.00     0.033 A 
ATOM      5  C   UNL d   1       0.900   2.747   0.407  0.00  0.00     0.043 A 
ATOM      6  C   UNL d   1      -0.097   3.662   0.700  0.00  0.00     0.032 A 
ENDROOT
BRANCH   5   7
ATOM      7  N   UNL d   1       0.621   1.577  -0.336  0.00  0.00    -0.281 N 
ATOM      8  H   UNL d   1       0.525   0.681   0.137  0.00  0.00     0.179 HD
BRANCH   7   9
ATOM      9  S   UNL d   1       0.553   1.556  -2.001  0.00  0.00     0.265 S 
ATOM     10  O   UNL d   1       0.236   0.201  -2.397  0.00  0.00    -0.200 OA
ATOM     11  O   UNL d   1      -0.274   2.663  -2.437  0.00  0.00    -0.200 OA
BRANCH   9  12
ATOM     12  C   UNL d   1       2.190   1.877  -2.534  0.00  0.00     0.110 A 
ATOM     13  C   UNL d   1       3.290   1.076  -2.184  0.00  0.00     0.108 A 
ATOM     14  C   UNL d   1       4.630   1.361  -2.696  0.00  0.00     0.086 A 
ATOM     15  N   UNL d   1       3.380  -0.002  -1.392  0.00  0.00    -0.238 N 
ATOM     16  N   UNL d   1       5.475   0.447  -2.206  0.00  0.00    -0.239 N 
ATOM     17  C   UNL d   1       4.902   2.441  -3.558  0.00  0.00     0.034 A 
ATOM     18  O   UNL d   1       4.707  -0.393  -1.421  0.00  0.00    -0.156 OA
ATOM     19  HN  UNL d   1       6.479   0.384  -2.375  1.00  0.00     0.197 HD
ATOM     20  C   UNL d   1       3.782   3.223  -3.894  0.00  0.00     0.004 A 
ATOM     21  C   UNL d   1       2.477   2.953  -3.405  0.00  0.00     0.028 A 
ATOM     22  HN  UNL d   1       2.622  -0.445  -0.872  1.00  0.00     0.197 HD
ENDBRANCH   9  12
ENDBRANCH   7   9
ENDBRANCH   5   7
BRANCH   1  23
ATOM     23  C   UNL d   1       3.717   3.888   2.558  0.00  0.00     0.295 C 
ATOM     24  O   UNL d   1       3.863   4.047   3.759  0.00  0.00    -0.259 OA
BRANCH  23  25
ATOM     25  O   UNL d   1       4.699   3.624   1.661  0.00  0.00    -0.318 OA
BRANCH  25  26
ATOM     26  C   UNL d   1       6.033   3.596   2.206  0.00  0.00     0.174 C 
ATOM     27  C   UNL d   1       6.276   2.336   3.018  0.00  0.00     0.034 C 
ENDBRANCH  25  26
ENDBRANCH  23  25
ENDBRANCH   1  23
BRANCH   2  28
ATOM     28  N   UNL d   1       1.631   6.076   2.951  0.00  0.00    -0.380 N 
ATOM     29  C   UNL d   1       0.585   6.628   3.825  0.00  0.00     0.123 C 
ATOM     30  C   UNL d   1       0.412   8.119   3.523  0.00  0.00     0.020 C 
ATOM     31  C   UNL d   1       1.738   8.870   3.638  0.00  0.00     0.003 C 
ATOM     32  C   UNL d   1       2.819   8.203   2.794  0.00  0.00     0.020 C 
ATOM     33  C   UNL d   1       2.942   6.715   3.116  0.00  0.00     0.123 C 
ENDBRANCH   2  28
TORSDOF 7
