REMARK  4 active torsions:
REMARK  status: ('A' for Active; 'I' for Inactive)
REMARK    1  A    between atoms: C_2  and  C_1 
REMARK       I    between atoms: C_3  and  N_4 
REMARK    2  A    between atoms: C_9  and  C_3 
REMARK    3  A    between atoms: N_4  and  C_5 
REMARK    4  A    between atoms: N_8  and  C_9 
ROOT
ATOM      1  C   UNL d   1       1.991  -5.543   0.124  0.00  0.00     0.049 A 
ATOM      2  C   UNL d   1       0.543  -4.322   2.235  0.00  0.00     0.056 A 
ATOM      3  C   UNL d   1       1.051  -3.560   1.165  0.00  0.00     0.061 A 
ATOM      4  C   UNL d   1       1.767  -4.159   0.122  0.00  0.00     0.042 A 
ATOM      5  C   UNL d   1       1.486  -6.301   1.192  0.00  0.00     0.018 A 
ATOM      6  C   UNL d   1       0.773  -5.698   2.236  0.00  0.00     0.032 A 
ATOM      7 CL   UNL d   1       0.800  -1.847   1.090  0.00  0.00    -0.082 Cl
ENDROOT
BRANCH   2   8
ATOM      8  N   UNL d   1      -0.192  -3.667   3.245  0.00  0.00    -0.324 N 
ATOM      9  C   UNL d   1      -0.848  -4.196   4.343  0.00  0.00     0.250 C 
ATOM     10  O   UNL d   1      -0.838  -5.373   4.702  0.00  0.00    -0.271 OA
ATOM     11  H   UNL d   1      -0.342  -2.664   3.124  0.00  0.00     0.169 HD
BRANCH   9  12
ATOM     12  C   UNL d   1      -1.602  -3.120   5.161  0.00  0.00     0.375 C 
BRANCH  12  13
ATOM     13  N   UNL d   1      -1.935  -1.965   4.304  0.00  0.00     0.101 N 
ATOM     14  C   UNL d   1      -3.040  -2.240   3.359  0.00  0.00     0.299 C 
ATOM     15  C   UNL d   1      -4.444  -1.813   3.809  0.00  0.00     0.198 C 
ATOM     16  O   UNL d   1      -4.447  -0.459   4.264  0.00  0.00    -0.388 OA
ATOM     17  C   UNL d   1      -3.585  -0.337   5.398  0.00  0.00     0.198 C 
ATOM     18  C   UNL d   1      -2.138  -0.710   5.047  0.00  0.00     0.299 C 
ENDBRANCH  12  13
ENDBRANCH   9  12
ENDBRANCH   2   8
BRANCH   1  19
ATOM     19  C   UNL d   1       2.752  -6.219  -0.990  0.00  0.00     0.417 C 
ATOM     20  F   UNL d   1       3.193  -5.358  -1.948  0.00  0.00    -0.166 F 
ATOM     21  F   UNL d   1       2.000  -7.148  -1.641  0.00  0.00    -0.166 F 
ATOM     22  F   UNL d   1       3.856  -6.876  -0.540  0.00  0.00    -0.166 F 
ENDBRANCH   1  19
TORSDOF 4
