REMARK  2 active torsions:
REMARK  status: ('A' for Active; 'I' for Inactive)
REMARK    1  A    between atoms: C_11  and  N_2 
REMARK    2  A    between atoms: C_12  and  C_11 
ROOT
ATOM      1  N   UNL d   1       3.778  -5.263   1.013  0.00  0.00    -0.197 NA
ATOM      2  C   UNL d   1       3.450  -4.154   1.097  0.00  0.00     0.060 C 
ATOM      3  C   UNL d   1       3.007  -2.757   1.190  0.00  0.00     0.144 C 
ENDROOT
BRANCH   3   4
ATOM      4  C   UNL d   1       2.139  -2.401  -0.018  0.00  0.00     0.149 C 
BRANCH   4   5
ATOM      5  N   UNL d   1       1.610  -1.057   0.041  0.00  0.00    -0.290 N 
ATOM      6  C   UNL d   1       2.357   0.105   0.004  0.00  0.00     0.372 A 
ATOM      7  O   UNL d   1       1.534   1.238   0.003  0.00  0.00    -0.259 OA
ATOM      8  O   UNL d   1       3.579   0.164  -0.018  0.00  0.00    -0.237 OA
ATOM      9  C   UNL d   1       0.266   0.684   0.011  0.00  0.00     0.107 A 
ATOM     10  C   UNL d   1      -0.914   1.395  -0.001  0.00  0.00     0.040 A 
ATOM     11  C   UNL d   1       0.282  -0.697   0.025  0.00  0.00     0.073 A 
ATOM     12  C   UNL d   1      -2.106   0.664  -0.000  0.00  0.00     0.009 A 
ATOM     13  C   UNL d   1      -2.097  -0.751   0.006  0.00  0.00    -0.060 A 
ATOM     14  C   UNL d   1      -0.877  -1.444   0.016  0.00  0.00     0.039 A 
ATOM     15  C   UNL d   1      -3.399  -1.499   0.006  0.00  0.00     0.048 C 
ENDBRANCH   4   5
ENDBRANCH   3   4
TORSDOF 2
