REMARK  9 active torsions:
REMARK  status: ('A' for Active; 'I' for Inactive)
REMARK    1  A    between atoms: N_2  and  C_1 
REMARK    2  A    between atoms: C_3  and  C_1 
REMARK    3  A    between atoms: N_4  and  C_1 
REMARK    4  A    between atoms: C_5  and  C_1 
REMARK       I    between atoms: C_6  and  N_2 
REMARK    5  A    between atoms: C_7  and  N_4 
REMARK    6  A    between atoms: O_15  and  C_5 
REMARK    7  A    between atoms: O_14  and  C_6 
REMARK    8  A    between atoms: C_19  and  O_14 
REMARK    9  A    between atoms: C_20  and  O_15 
ROOT
ATOM      1  C   UNL d   1       1.075  -0.041  -0.274  0.00  0.00     0.298 C 
ENDROOT
BRANCH   1   2
ATOM      2  N   UNL d   1       0.660   1.128  -1.045  0.00  0.00    -0.294 N 
ATOM      3  C   UNL d   1       1.036   2.389  -0.726  0.00  0.00     0.363 C 
ATOM      4  O   UNL d   1       1.808   2.688   0.171  0.00  0.00    -0.238 OA
ATOM      5  H   UNL d   1      -0.129   1.045  -1.671  0.00  0.00     0.168 HD
BRANCH   3   6
ATOM      6  O   UNL d   1       0.444   3.253  -1.586  0.00  0.00    -0.304 OA
BRANCH   6   7
ATOM      7  C   UNL d   1       0.909   4.611  -1.521  0.00  0.00     0.176 C 
ATOM      8  C   UNL d   1       0.147   5.388  -0.467  0.00  0.00     0.034 C 
ENDBRANCH   6   7
ENDBRANCH   3   6
ENDBRANCH   1   2
BRANCH   1   9
ATOM      9  C   UNL d   1       0.885  -1.404  -1.039  0.00  0.00     0.442 C 
ATOM     10  F   UNL d   1      -0.042  -1.260  -2.032  0.00  0.00    -0.166 F 
ATOM     11  F   UNL d   1       1.996  -1.880  -1.647  0.00  0.00    -0.166 F 
ATOM     12  F   UNL d   1       0.435  -2.401  -0.237  0.00  0.00    -0.166 F 
ENDBRANCH   1   9
BRANCH   1  13
ATOM     13  N   UNL d   1       0.373   0.053   1.031  0.00  0.00    -0.347 N 
ATOM     14  H   UNL d   1       0.879   0.638   1.700  0.00  0.00     0.163 HD
BRANCH  13  15
ATOM     15  C   UNL d   1      -0.983  -0.059   1.310  0.00  0.00     0.052 A 
ATOM     16  C   UNL d   1      -1.460   0.222   2.612  0.00  0.00     0.060 A 
ATOM     17 CL   UNL d   1      -0.384   0.828   3.830  0.00  0.00    -0.082 Cl
ATOM     18  C   UNL d   1      -2.801   0.032   2.970  0.00  0.00     0.026 A 
ATOM     19  C   UNL d   1      -3.705  -0.464   2.039  0.00  0.00     0.002 A 
ATOM     20  C   UNL d   1      -3.265  -0.759   0.756  0.00  0.00     0.002 A 
ATOM     21  C   UNL d   1      -1.923  -0.558   0.401  0.00  0.00     0.031 A 
ENDBRANCH  13  15
ENDBRANCH   1  13
BRANCH   1  22
ATOM     22  C   UNL d   1       2.621  -0.023  -0.113  0.00  0.00     0.318 C 
ATOM     23  O   UNL d   1       3.404   0.260  -1.016  0.00  0.00    -0.260 OA
BRANCH  22  24
ATOM     24  O   UNL d   1       3.003  -0.424   1.136  0.00  0.00    -0.318 OA
BRANCH  24  25
ATOM     25  C   UNL d   1       4.403  -0.686   1.309  0.00  0.00     0.174 C 
ATOM     26  C   UNL d   1       4.611  -2.184   1.193  0.00  0.00     0.034 C 
ENDBRANCH  24  25
ENDBRANCH  22  24
ENDBRANCH   1  22
TORSDOF 9
