REMARK  6 active torsions:
REMARK  status: ('A' for Active; 'I' for Inactive)
REMARK    1  A    between atoms: C_15  and  N_1 
REMARK    2  A    between atoms: C_22  and  N_5 
REMARK    3  A    between atoms: C_11  and  C_7 
REMARK       I    between atoms: N_16  and  C_11 
REMARK       I    between atoms: C_14  and  N_17 
REMARK    4  A    between atoms: C_20  and  C_14 
REMARK    5  A    between atoms: C_24  and  C_15 
REMARK    6  A    between atoms: N_17  and  N_16 
ROOT
ATOM      1  N   UNL d   1      -0.741   1.185  -0.058  0.00  0.00    -0.261 N 
ATOM      2  C   UNL d   1      -1.427  -0.022  -0.219  0.00  0.00     0.332 C 
ATOM      3  C   UNL d   1       1.388   0.023   0.112  0.00  0.00     0.082 C 
ATOM      4  C   UNL d   1       0.635   1.297   0.074  0.00  0.00     0.266 C 
ATOM      5  N   UNL d   1      -0.666  -1.182  -0.028  0.00  0.00    -0.304 N 
ATOM      6  C   UNL d   1       2.806   0.008   0.186  0.00  0.00     0.091 A 
ATOM      7  C   UNL d   1       4.901  -0.203   0.957  0.00  0.00     0.110 A 
ATOM      8  N   UNL d   1       3.539  -0.167   1.273  0.00  0.00    -0.345 N 
ATOM      9  HN  UNL d   1       3.161  -0.262   2.216  1.00  0.00     0.167 HD
ATOM     10  C   UNL d   1       0.711  -1.128   0.084  0.00  0.00     0.116 C 
ATOM     11  S   UNL d   1       3.724   0.116  -1.280  0.00  0.00    -0.081 SA
ATOM     12  C   UNL d   1       5.172  -0.082  -0.393  0.00  0.00     0.087 A 
ATOM     13  O   UNL d   1      -2.621  -0.070  -0.516  0.00  0.00    -0.246 OA
ATOM     14  O   UNL d   1       1.233   2.371   0.135  0.00  0.00    -0.267 OA
ENDROOT
BRANCH   1  15
ATOM     15  C   UNL d   1      -1.529   2.413  -0.036  0.00  0.00     0.175 C 
BRANCH  15  16
ATOM     16  C   UNL d   1      -2.141   2.648   1.332  0.00  0.00    -0.040 A 
ATOM     17  C   UNL d   1      -1.432   3.331   2.330  0.00  0.00     0.009 A 
ATOM     18  C   UNL d   1      -1.968   3.464   3.613  0.00  0.00     0.001 A 
ATOM     19  C   UNL d   1      -3.212   2.911   3.914  0.00  0.00     0.000 A 
ATOM     20  C   UNL d   1      -3.932   2.242   2.927  0.00  0.00     0.001 A 
ATOM     21  C   UNL d   1      -3.403   2.117   1.643  0.00  0.00     0.009 A 
ENDBRANCH  15  16
ENDBRANCH   1  15
BRANCH   5  22
ATOM     22  C   UNL d   1      -1.361  -2.490  -0.060  0.00  0.00     0.086 C 
ATOM     23  C   UNL d   1      -1.290  -3.128  -1.448  0.00  0.00     0.032 C 
ATOM     24  C   UNL d   1      -0.886  -3.469   1.020  0.00  0.00     0.032 C 
ENDBRANCH   5  22
BRANCH   7  25
ATOM     25  C   UNL d   1       5.935  -0.384   1.979  0.00  0.00     0.287 C 
ATOM     26  N   UNL d   1       5.451  -0.347   3.271  0.00  0.00    -0.262 N 
ATOM     27  H   UNL d   1       4.469  -0.139   3.465  0.00  0.00     0.190 HD
ATOM     28  O   UNL d   1       7.124  -0.559   1.717  0.00  0.00    -0.264 OA
BRANCH  26  29
ATOM     29  N   UNL d   1       6.321  -0.502   4.359  0.00  0.00    -0.267 N 
ATOM     30  C   UNL d   1       5.783  -0.435   5.630  0.00  0.00     0.243 C 
ATOM     31  O   UNL d   1       4.580  -0.244   5.799  0.00  0.00    -0.271 OA
ATOM     32  H   UNL d   1       7.285  -0.750   4.151  0.00  0.00     0.190 HD
BRANCH  30  33
ATOM     33  C   UNL d   1       6.781  -0.575   6.802  0.00  0.00     0.032 C 
ATOM     34  C   UNL d   1       7.801   0.572   6.755  0.00  0.00     0.025 C 
ATOM     35  C   UNL d   1       6.000  -0.490   8.125  0.00  0.00     0.025 C 
ATOM     36  C   UNL d   1       7.517  -1.919   6.755  0.00  0.00     0.025 C 
ENDBRANCH  30  33
ENDBRANCH  26  29
ENDBRANCH   7  25
TORSDOF 6
