REMARK  7 active torsions:
REMARK  status: ('A' for Active; 'I' for Inactive)
REMARK    1  A    between atoms: C_13  and  C_1 
REMARK    2  A    between atoms: C_2  and  N_12 
REMARK    3  A    between atoms: N_10  and  C_2 
REMARK    4  A    between atoms: O_16  and  C_4 
REMARK    5  A    between atoms: N_12  and  N_6 
REMARK    6  A    between atoms: C_17  and  N_10 
REMARK    7  A    between atoms: C_19  and  C_17 
ROOT
ATOM      1  N   UNL d   1       0.874   4.372  -0.512  0.00  0.00    -0.309 N 
ATOM      2  HN  UNL d   1       1.680   4.140  -1.092  1.00  0.00     0.186 HD
ATOM      3  C   UNL d   1      -0.016   3.481  -0.207  0.00  0.00     0.121 C 
ENDROOT
BRANCH   1   4
ATOM      4  N   UNL d   1       0.688   5.627  -0.028  0.00  0.00    -0.277 N 
ATOM      5  H   UNL d   1      -0.209   5.883   0.366  0.00  0.00     0.189 HD
BRANCH   4   6
ATOM      6  C   UNL d   1       1.731   6.519   0.033  0.00  0.00     0.186 C 
ATOM      7  S   UNL d   1       3.360   6.139   0.004  0.00  0.00    -0.040 SA
BRANCH   6   8
ATOM      8  N   UNL d   1       1.387   7.844   0.098  0.00  0.00    -0.364 N 
ATOM      9  H   UNL d   1       2.210   8.434   0.136  0.00  0.00     0.162 HD
BRANCH   8  10
ATOM     10  C   UNL d   1       0.223   8.405  -0.583  0.00  0.00     0.154 C 
BRANCH  10  11
ATOM     11  C   UNL d   1       0.125   9.933  -0.529  0.00  0.00     0.139 C 
ATOM     12  O   UNL d   1       0.013  10.409   0.823  0.00  0.00    -0.384 OA
ATOM     13  C   UNL d   1       0.608  11.715   0.886  0.00  0.00     0.168 C 
ATOM     14  C   UNL d   1       1.096  12.060  -0.509  0.00  0.00     0.029 C 
ATOM     15  C   UNL d   1       1.286  10.701  -1.138  0.00  0.00     0.035 C 
ENDBRANCH  10  11
ENDBRANCH   8  10
ENDBRANCH   6   8
ENDBRANCH   4   6
ENDBRANCH   1   4
BRANCH   3  16
ATOM     16  C   UNL d   1       0.068   2.133  -0.808  0.00  0.00     0.017 A 
ATOM     17  C   UNL d   1      -0.733   1.086  -0.350  0.00  0.00     0.099 A 
ATOM     18  C   UNL d   1      -0.641  -0.171  -0.964  0.00  0.00     0.069 A 
ATOM     19 CL   UNL d   1      -1.616  -1.483  -0.409  0.00  0.00    -0.081 Cl
ATOM     20  C   UNL d   1       0.231  -0.381  -2.031  0.00  0.00     0.050 A 
ATOM     21  C   UNL d   1       1.023   0.670  -2.483  0.00  0.00     0.036 A 
ATOM     22  C   UNL d   1       0.952   1.922  -1.876  0.00  0.00     0.039 A 
ATOM     23 CL   UNL d   1       2.087   0.428  -3.813  0.00  0.00    -0.084 Cl
BRANCH  17  24
ATOM     24  O   UNL d   1      -1.597   1.293   0.693  0.00  0.00    -0.358 OA
ATOM     25  H   UNL d   1      -2.033   0.441   0.890  0.00  0.00     0.217 HD
ENDBRANCH  17  24
ENDBRANCH   3  16
TORSDOF 7
