REMARK  7 active torsions:
REMARK  status: ('A' for Active; 'I' for Inactive)
REMARK    1  A    between atoms: N_2  and  C_1 
REMARK    2  A    between atoms: C_3  and  N_8 
REMARK    3  A    between atoms: N_4  and  C_3 
REMARK       I    between atoms: C_7  and  N_4 
REMARK    4  A    between atoms: N_8  and  C_5 
REMARK    5  A    between atoms: O_17  and  C_7 
REMARK    6  A    between atoms: C_13  and  C_9 
REMARK    7  A    between atoms: C_21  and  O_17 
ROOT
ATOM      1  C   UNL d   1       1.216  -0.350   0.942  0.00  0.00     0.130 C 
ATOM      2  C   UNL d   1       0.692  -1.370   0.135  0.00  0.00     0.067 C 
ATOM      3  C   UNL d   1       0.558   0.884   1.068  0.00  0.00     0.046 C 
ATOM      4  C   UNL d   1      -0.675   1.121   0.433  0.00  0.00    -0.048 C 
ATOM      5  C   UNL d   1      -0.594  -1.194  -0.385  0.00  0.00     0.032 C 
ATOM      6  C   UNL d   1      -1.260   0.039  -0.246  0.00  0.00     0.010 C 
ENDROOT
BRANCH   2   7
ATOM      7  N   UNL d   1       1.401  -2.538  -0.247  0.00  0.00    -0.331 N 
ATOM      8  H   UNL d   1       0.856  -3.378  -0.435  0.00  0.00     0.168 HD
BRANCH   7   9
ATOM      9  C   UNL d   1       2.674  -2.550  -0.783  0.00  0.00     0.180 C 
ATOM     10  S   UNL d   1       3.523  -1.241  -1.403  0.00  0.00    -0.040 SA
BRANCH   9  11
ATOM     11  N   UNL d   1       3.310  -3.764  -0.825  0.00  0.00    -0.279 N 
ATOM     12  C   UNL d   1       2.897  -5.002  -0.414  0.00  0.00     0.366 C 
ATOM     13  O   UNL d   1       1.745  -5.321  -0.152  0.00  0.00    -0.238 OA
ATOM     14  H   UNL d   1       4.281  -3.727  -1.102  0.00  0.00     0.173 HD
BRANCH  12  15
ATOM     15  O   UNL d   1       3.969  -5.832  -0.432  0.00  0.00    -0.304 OA
BRANCH  15  16
ATOM     16  C   UNL d   1       3.733  -7.208  -0.105  0.00  0.00     0.176 C 
ATOM     17  C   UNL d   1       3.849  -7.425   1.391  0.00  0.00     0.034 C 
ENDBRANCH  15  16
ENDBRANCH  12  15
ENDBRANCH   9  11
ENDBRANCH   7   9
ENDBRANCH   2   7
BRANCH   1  18
ATOM     18  N   UNL d   1       2.391  -0.574   1.790  0.00  0.00    -0.113 N 
ATOM     19  O   UNL d   1       2.573  -1.710   2.249  0.00  0.00    -0.532 OA
ATOM     20  O   UNL d   1       3.103   0.408   2.047  0.00  0.00    -0.532 OA
ENDBRANCH   1  18
BRANCH   4  21
ATOM     21  C   UNL d   1      -1.291   2.533   0.469  0.00  0.00    -0.024 C 
ATOM     22  C   UNL d   1      -0.372   3.489  -0.324  0.00  0.00     0.019 C 
ATOM     23  C   UNL d   1      -2.698   2.621  -0.162  0.00  0.00     0.019 C 
ATOM     24  C   UNL d   1      -1.413   3.041   1.922  0.00  0.00     0.019 C 
ENDBRANCH   4  21
TORSDOF 7
