REMARK  5 active torsions:
REMARK  status: ('A' for Active; 'I' for Inactive)
REMARK    1  A    between atoms: C_11  and  C_3 
REMARK    2  A    between atoms: C_8  and  C_4 
REMARK    3  A    between atoms: O_14  and  C_15 
REMARK    4  A    between atoms: C_18  and  O_14 
REMARK    5  A    between atoms: C_17  and  C_18 
ROOT
ATOM      1  C   UNL d   1       0.516   2.450  -0.008  0.00  0.00     0.010 A 
ATOM      2  C   UNL d   1       1.309   3.009  -1.018  0.00  0.00     0.018 A 
ATOM      3  C   UNL d   1       0.014   3.300   0.991  0.00  0.00     0.018 A 
ATOM      4  C   UNL d   1       1.130   5.209   0.017  0.00  0.00     0.069 A 
ATOM      5  C   UNL d   1       0.308   4.664   1.001  0.00  0.00     0.038 A 
ATOM      6  C   UNL d   1       1.607   4.382  -1.004  0.00  0.00     0.038 A 
ENDROOT
BRANCH   1   7
ATOM      7  C   UNL d   1       0.217   1.018   0.045  0.00  0.00     0.137 A 
ATOM      8  N   UNL d   1       0.631   0.101  -0.901  0.00  0.00    -0.322 N 
ATOM      9  C   UNL d   1       0.162  -1.034  -0.424  0.00  0.00     0.152 A 
ATOM     10  HN  UNL d   1       1.166   0.262  -1.754  1.00  0.00     0.169 HD
ATOM     11  O   UNL d   1      -0.516  -0.875   0.749  0.00  0.00    -0.222 OA
ATOM     12  N   UNL d   1      -0.483   0.472   1.054  0.00  0.00    -0.242 N 
ATOM     13  HN  UNL d   1      -0.896   0.943   1.859  1.00  0.00     0.196 HD
BRANCH   9  14
ATOM     14  C   UNL d   1       0.336  -2.408  -1.049  0.00  0.00     0.063 A 
ATOM     15  C   UNL d   1       1.601  -2.708  -1.823  0.00  0.00     0.013 A 
ATOM     16  C   UNL d   1       0.310  -2.559  -2.554  0.00  0.00     0.013 A 
ENDBRANCH   9  14
ENDBRANCH   1   7
BRANCH   4  17
ATOM     17  O   UNL d   1       1.526   6.519  -0.038  0.00  0.00    -0.347 OA
BRANCH  17  18
ATOM     18  C   UNL d   1       1.347   7.268   1.166  0.00  0.00     0.214 C 
BRANCH  18  19
ATOM     19  C   UNL d   1       2.170   8.531   1.095  0.00  0.00    -0.034 A 
ATOM     20  C   UNL d   1       1.575   9.764   0.795  0.00  0.00     0.011 A 
ATOM     21  C   UNL d   1       2.347  10.927   0.751  0.00  0.00     0.024 A 
ATOM     22  C   UNL d   1       3.717  10.861   1.000  0.00  0.00     0.034 A 
ATOM     23  C   UNL d   1       4.323   9.641   1.290  0.00  0.00     0.024 A 
ATOM     24 CL   UNL d   1       4.666  12.295   0.949  0.00  0.00    -0.084 Cl
ATOM     25  C   UNL d   1       3.552   8.478   1.333  0.00  0.00     0.011 A 
ENDBRANCH  18  19
ENDBRANCH  17  18
ENDBRANCH   4  17
TORSDOF 5
