REMARK  6 active torsions:
REMARK  status: ('A' for Active; 'I' for Inactive)
REMARK    1  A    between atoms: N_4  and  C_1 
REMARK    2  A    between atoms: N_5  and  C_1 
REMARK       I    between atoms: C_2  and  N_3 
REMARK    3  A    between atoms: C_10  and  C_2 
REMARK    4  A    between atoms: N_3  and  N_4 
REMARK    5  A    between atoms: C_11  and  N_5 
REMARK    6  A    between atoms: O_17  and  C_12 
ROOT
ATOM      1  N   UNL d   1       0.451   1.244  -0.519  0.00  0.00    -0.273 N 
ATOM      2  H   UNL d   1      -0.487   1.518  -0.228  0.00  0.00     0.189 HD
ENDROOT
BRANCH   1   3
ATOM      3  N   UNL d   1       0.983   1.960  -1.595  0.00  0.00    -0.264 N 
ATOM      4  C   UNL d   1       0.160   2.893  -2.196  0.00  0.00     0.270 C 
ATOM      5  O   UNL d   1      -0.957   3.171  -1.761  0.00  0.00    -0.266 OA
ATOM      6  H   UNL d   1       1.925   1.730  -1.897  0.00  0.00     0.190 HD
BRANCH   4   7
ATOM      7  C   UNL d   1       0.673   3.565  -3.409  0.00  0.00     0.036 A 
ATOM      8  C   UNL d   1       1.471   2.903  -4.341  0.00  0.00     0.034 A 
ATOM      9  C   UNL d   1       1.859   3.609  -5.468  0.00  0.00     0.088 A 
ATOM     10  N   UNL d   1       1.515   4.893  -5.705  0.00  0.00    -0.375 N 
ATOM     11  C   UNL d   1       0.733   5.502  -4.789  0.00  0.00     0.088 A 
ATOM     12  HN  UNL d   1       1.833   5.382  -6.541  1.00  0.00     0.164 HD
ATOM     13  C   UNL d   1       0.282   4.884  -3.639  0.00  0.00     0.034 A 
ENDBRANCH   4   7
ENDBRANCH   1   3
BRANCH   1  14
ATOM     14  C   UNL d   1       1.064   0.145   0.013  0.00  0.00     0.191 C 
ATOM     15  S   UNL d   1       2.719  -0.109  -0.027  0.00  0.00    -0.039 SA
BRANCH  14  16
ATOM     16  N   UNL d   1       0.271  -0.774   0.643  0.00  0.00    -0.332 N 
ATOM     17  H   UNL d   1       0.783  -1.413   1.242  0.00  0.00     0.168 HD
BRANCH  16  18
ATOM     18  C   UNL d   1      -1.084  -1.106   0.414  0.00  0.00     0.034 A 
ATOM     19  C   UNL d   1      -1.839  -0.612  -0.654  0.00  0.00     0.032 A 
ATOM     20  C   UNL d   1      -3.175  -0.986  -0.830  0.00  0.00     0.039 A 
ATOM     21  C   UNL d   1      -3.771  -1.884   0.050  0.00  0.00     0.068 A 
ATOM     22  C   UNL d   1      -3.007  -2.442   1.073  0.00  0.00     0.039 A 
ATOM     23  C   UNL d   1      -1.676  -2.049   1.262  0.00  0.00     0.032 A 
BRANCH  21  24
ATOM     24  O   UNL d   1      -5.065  -2.314  -0.040  0.00  0.00    -0.356 OA
ATOM     25  C   UNL d   1      -5.976  -1.357  -0.577  0.00  0.00     0.210 C 
ENDBRANCH  21  24
ENDBRANCH  16  18
ENDBRANCH  14  16
ENDBRANCH   1  14
TORSDOF 6
