REMARK  4 active torsions:
REMARK  status: ('A' for Active; 'I' for Inactive)
REMARK    1  A    between atoms: C_2  and  C_1 
REMARK       I    between atoms: N_5  and  C_1 
REMARK    2  A    between atoms: C_3  and  C_2 
REMARK    3  A    between atoms: C_4  and  C_2 
REMARK    4  A    between atoms: C_7  and  N_5 
ROOT
ATOM      1  C   UNL d   1       0.920  -0.021   0.041  0.00  0.00     0.244 C 
ATOM      2  N   UNL d   1       0.172   0.744  -0.828  0.00  0.00    -0.326 N 
ATOM      3  O   UNL d   1       0.463  -0.710   0.948  0.00  0.00    -0.272 OA
ATOM      4  H   UNL d   1       0.622   1.134  -1.649  0.00  0.00     0.169 HD
ENDROOT
BRANCH   1   5
ATOM      5  C   UNL d   1       2.411  -0.016  -0.132  0.00  0.00     0.292 C 
BRANCH   5   6
ATOM      6  C   UNL d   1       2.843  -0.524  -1.466  0.00  0.00     0.408 C 
ATOM      7  F   UNL d   1       1.792  -0.845  -2.259  0.00  0.00    -0.170 F 
ATOM      8  F   UNL d   1       3.595   0.334  -2.180  0.00  0.00    -0.170 F 
ATOM      9  F   UNL d   1       3.572  -1.657  -1.329  0.00  0.00    -0.170 F 
ENDBRANCH   5   6
BRANCH   5  10
ATOM     10  C   UNL d   1       2.989   1.303   0.246  0.00  0.00     0.408 C 
ATOM     11  F   UNL d   1       2.123   2.059   0.959  0.00  0.00    -0.170 F 
ATOM     12  F   UNL d   1       4.074   1.123   1.040  0.00  0.00    -0.170 F 
ATOM     13  F   UNL d   1       3.377   2.063  -0.794  0.00  0.00    -0.170 F 
ENDBRANCH   5  10
ENDBRANCH   1   5
BRANCH   2  14
ATOM     14  C   UNL d   1      -1.235   0.869  -0.816  0.00  0.00     0.035 A 
ATOM     15  C   UNL d   1      -2.052   0.457   0.245  0.00  0.00     0.036 A 
ATOM     16  C   UNL d   1      -3.450   0.567   0.169  0.00  0.00    -0.060 A 
ATOM     17  C   UNL d   1      -4.315   0.093   1.298  0.00  0.00     0.048 C 
ATOM     18  C   UNL d   1      -4.032   1.103  -0.982  0.00  0.00     0.007 A 
ATOM     19  C   UNL d   1      -3.230   1.546  -2.034  0.00  0.00     0.003 A 
ATOM     20  C   UNL d   1      -1.842   1.436  -1.947  0.00  0.00     0.029 A 
ENDBRANCH   2  14
TORSDOF 4
