REMARK  6 active torsions:
REMARK  status: ('A' for Active; 'I' for Inactive)
REMARK    1  A    between atoms: C_5  and  C_1 
REMARK    2  A    between atoms: N_8  and  C_2 
REMARK       I    between atoms: C_9  and  N_8 
REMARK    3  A    between atoms: O_17  and  C_9 
REMARK    4  A    between atoms: N_10  and  O_17 
REMARK    5  A    between atoms: N_15  and  C_14 
REMARK    6  A    between atoms: C_21  and  C_20 
ROOT
ATOM      1  N   UNL d   1       0.684  -2.668   0.062  0.00  0.00    -0.297 N 
ATOM      2  C   UNL d   1       1.906  -3.313   0.243  0.00  0.00     0.387 C 
ATOM      3  O   UNL d   1       2.947  -2.704   0.005  0.00  0.00    -0.236 OA
ATOM      4  H   UNL d   1       0.702  -2.087  -0.765  0.00  0.00     0.171 HD
ENDROOT
BRANCH   1   5
ATOM      5  C   UNL d   1      -0.547  -3.100   0.527  0.00  0.00     0.098 A 
ATOM      6  C   UNL d   1      -1.805  -3.285  -0.165  0.00  0.00     0.098 A 
ATOM      7  N   UNL d   1      -2.695  -3.753   0.732  0.00  0.00    -0.258 N 
ATOM      8  O   UNL d   1      -2.081  -3.855   1.945  0.00  0.00    -0.240 OA
ATOM      9  HN  UNL d   1      -3.667  -3.992   0.536  1.00  0.00     0.195 HD
ATOM     10  C   UNL d   1      -0.790  -3.482   1.832  0.00  0.00     0.101 A 
ATOM     11  C   UNL d   1       0.005  -3.585   3.071  0.00  0.00     0.081 C 
BRANCH   6  12
ATOM     12  C   UNL d   1      -2.222  -3.209  -1.602  0.00  0.00     0.038 A 
ATOM     13  C   UNL d   1      -1.343  -3.375  -2.703  0.00  0.00     0.048 A 
ATOM     14 CL   UNL d   1       0.364  -3.607  -2.630  0.00  0.00    -0.083 Cl
ATOM     15  C   UNL d   1      -1.810  -3.417  -4.034  0.00  0.00     0.025 A 
ATOM     16  C   UNL d   1      -3.159  -3.342  -4.325  0.00  0.00     0.003 A 
ATOM     17  C   UNL d   1      -4.052  -3.181  -3.282  0.00  0.00     0.025 A 
ATOM     18  C   UNL d   1      -3.601  -3.088  -1.949  0.00  0.00     0.048 A 
ATOM     19 CL   UNL d   1      -4.894  -2.782  -0.823  0.00  0.00    -0.083 Cl
ENDBRANCH   6  12
ENDBRANCH   1   5
BRANCH   2  20
ATOM     20  O   UNL d   1       1.951  -4.650   0.636  0.00  0.00    -0.181 OA
BRANCH  20  21
ATOM     21  N   UNL d   1       0.814  -5.370   0.215  0.00  0.00    -0.267 N 
ATOM     22  C   UNL d   1       0.769  -6.525   0.792  0.00  0.00     0.126 C 
ATOM     23  HN  UNL d   1       0.122  -5.026  -0.452  1.00  0.00     0.194 HD
BRANCH  22  24
ATOM     24  C   UNL d   1      -0.471  -7.331   0.786  0.00  0.00    -0.019 A 
ATOM     25  C   UNL d   1      -1.611  -6.896   0.118  0.00  0.00     0.015 A 
ATOM     26  C   UNL d   1      -2.851  -7.507   0.355  0.00  0.00     0.030 A 
ATOM     27  C   UNL d   1      -2.987  -8.592   1.235  0.00  0.00     0.029 A 
ATOM     28  C   UNL d   1      -1.791  -9.079   1.799  0.00  0.00     0.030 A 
ATOM     29  C   UNL d   1      -0.551  -8.452   1.601  0.00  0.00     0.015 A 
BRANCH  27  30
ATOM     30  N   UNL d   1      -4.214  -9.197   1.510  0.00  0.00    -0.390 N 
ATOM     31  C   UNL d   1      -4.466  -9.708   2.861  0.00  0.00     0.149 C 
ATOM     32  C   UNL d   1      -5.425  -8.751   0.819  0.00  0.00     0.149 C 
ENDBRANCH  27  30
ENDBRANCH  22  24
ENDBRANCH  20  21
ENDBRANCH   2  20
TORSDOF 6
