REMARK  7 active torsions:
REMARK  status: ('A' for Active; 'I' for Inactive)
REMARK    1  A    between atoms: N_2  and  C_1 
REMARK    2  A    between atoms: N_4  and  C_1 
REMARK    3  A    between atoms: C_3  and  N_2 
REMARK    4  A    between atoms: N_10  and  N_4 
REMARK    5  A    between atoms: C_11  and  N_4 
REMARK    6  A    between atoms: C_16  and  C_11 
REMARK    7  A    between atoms: O_15  and  C_16 
ROOT
ATOM      1  C   UNL d   1       1.091  -0.271   0.131  0.00  0.00     0.189 C 
ATOM      2  S   UNL d   1       2.692  -0.710   0.432  0.00  0.00    -0.039 SA
ENDROOT
BRANCH   1   3
ATOM      3  N   UNL d   1       0.459   0.817   0.707  0.00  0.00    -0.331 N 
ATOM      4  H   UNL d   1      -0.469   0.602   1.083  0.00  0.00     0.168 HD
BRANCH   3   5
ATOM      5  C   UNL d   1       1.029   2.046   1.118  0.00  0.00     0.057 A 
ATOM      6  C   UNL d   1       2.042   2.646   0.360  0.00  0.00     0.055 A 
ATOM      7  C   UNL d   1       2.523   3.910   0.706  0.00  0.00     0.036 A 
ATOM      8 CL   UNL d   1       3.725   4.661  -0.269  0.00  0.00    -0.084 Cl
ATOM      9  C   UNL d   1       2.014   4.583   1.813  0.00  0.00     0.026 A 
ATOM     10  C   UNL d   1       1.004   3.993   2.577  0.00  0.00     0.028 A 
ATOM     11  C   UNL d   1       0.500   2.739   2.221  0.00  0.00     0.060 A 
ATOM     12 CL   UNL d   1      -0.749   2.055   3.199  0.00  0.00    -0.082 Cl
ENDBRANCH   3   5
ENDBRANCH   1   3
BRANCH   1  13
ATOM     13  N   UNL d   1       0.237  -1.028  -0.703  0.00  0.00    -0.289 N 
BRANCH  13  14
ATOM     14  N   UNL d   1       0.634  -2.317  -1.158  0.00  0.00    -0.245 NA
ATOM     15  H   UNL d   1       1.218  -2.725  -0.419  0.00  0.00     0.143 HD
ATOM     16  H   UNL d   1       1.293  -2.170  -1.929  0.00  0.00     0.143 HD
ENDBRANCH  13  14
BRANCH  13  17
ATOM     17  C   UNL d   1      -1.011  -0.502  -1.283  0.00  0.00     0.171 C 
BRANCH  17  18
ATOM     18  C   UNL d   1      -2.239  -0.823  -0.436  0.00  0.00     0.185 C 
BRANCH  18  19
ATOM     19  O   UNL d   1      -2.210  -0.090   0.791  0.00  0.00    -0.399 OA
ATOM     20  H   UNL d   1      -3.002  -0.361   1.290  0.00  0.00     0.209 HD
ENDBRANCH  18  19
ENDBRANCH  17  18
ENDBRANCH  13  17
ENDBRANCH   1  13
TORSDOF 7
