REMARK  7 active torsions:
REMARK  status: ('A' for Active; 'I' for Inactive)
REMARK    1  A    between atoms: C_8  and  C_1 
REMARK    2  A    between atoms: N_4  and  C_6 
REMARK    3  A    between atoms: C_17  and  C_5 
REMARK       I    between atoms: N_11  and  C_8 
REMARK       I    between atoms: C_10  and  N_13 
REMARK    4  A    between atoms: C_20  and  C_10 
REMARK    5  A    between atoms: N_13  and  N_11 
REMARK    6  A    between atoms: C_14  and  S_15 
REMARK    7  A    between atoms: S_15  and  C_20 
ROOT
ATOM      1  C   UNL d   1      -0.012  -2.771   0.001  0.00  0.00     0.275 C 
ATOM      2  N   UNL d   1      -0.752  -3.925  -0.164  0.00  0.00    -0.263 N 
ATOM      3  O   UNL d   1      -0.531  -1.661  -0.112  0.00  0.00    -0.266 OA
ATOM      4  H   UNL d   1      -0.402  -4.851   0.068  0.00  0.00     0.190 HD
ENDROOT
BRANCH   2   5
ATOM      5  N   UNL d   1      -2.144  -3.854  -0.356  0.00  0.00    -0.267 N 
ATOM      6  C   UNL d   1      -2.807  -5.055  -0.507  0.00  0.00     0.245 C 
ATOM      7  O   UNL d   1      -2.211  -6.128  -0.373  0.00  0.00    -0.271 OA
ATOM      8  H   UNL d   1      -2.534  -2.961  -0.656  0.00  0.00     0.190 HD
BRANCH   6   9
ATOM      9  C   UNL d   1      -4.311  -4.988  -0.705  0.00  0.00     0.184 C 
BRANCH   9  10
ATOM     10  S   UNL d   1      -4.776  -3.869  -2.067  0.00  0.00    -0.118 SA
BRANCH  10  11
ATOM     11  C   UNL d   1      -6.575  -3.765  -2.030  0.00  0.00     0.034 A 
ATOM     12  C   UNL d   1      -7.538  -4.686  -1.594  0.00  0.00     0.119 A 
ATOM     13  C   UNL d   1      -8.923  -4.450  -1.693  0.00  0.00     0.037 A 
ATOM     14  C   UNL d   1      -9.379  -3.264  -2.256  0.00  0.00     0.003 A 
ATOM     15  C   UNL d   1      -8.455  -2.329  -2.710  0.00  0.00     0.002 A 
ATOM     16  C   UNL d   1      -7.078  -2.576  -2.598  0.00  0.00     0.021 A 
BRANCH  12  17
ATOM     17  N   UNL d   1      -7.179  -5.968  -1.050  0.00  0.00    -0.114 N 
ATOM     18  O   UNL d   1      -6.959  -6.881  -1.854  0.00  0.00    -0.532 OA
ATOM     19  O   UNL d   1      -7.139  -6.058   0.185  0.00  0.00    -0.532 OA
ENDBRANCH  12  17
ENDBRANCH  10  11
ENDBRANCH   9  10
ENDBRANCH   6   9
ENDBRANCH   2   5
BRANCH   1  20
ATOM     20  C   UNL d   1       1.393  -2.964   0.327  0.00  0.00     0.094 A 
ATOM     21  C   UNL d   1       2.300  -2.055   0.976  0.00  0.00     0.083 A 
ATOM     22  N   UNL d   1       3.533  -2.588   1.030  0.00  0.00    -0.259 N 
ATOM     23  O   UNL d   1       3.453  -3.829   0.465  0.00  0.00    -0.241 OA
ATOM     24  HN  UNL d   1       4.367  -2.150   1.419  1.00  0.00     0.195 HD
ATOM     25  C   UNL d   1       2.186  -4.067   0.047  0.00  0.00     0.090 A 
ATOM     26  C   UNL d   1       1.995  -5.384  -0.595  0.00  0.00     0.080 C 
BRANCH  21  27
ATOM     27  C   UNL d   1       2.075  -0.743   1.591  0.00  0.00    -0.006 A 
ATOM     28  C   UNL d   1       3.076   0.242   1.522  0.00  0.00     0.014 A 
ATOM     29  C   UNL d   1       2.926   1.466   2.180  0.00  0.00     0.001 A 
ATOM     30  C   UNL d   1       1.772   1.721   2.915  0.00  0.00     0.000 A 
ATOM     31  C   UNL d   1       0.768   0.757   2.989  0.00  0.00     0.001 A 
ATOM     32  C   UNL d   1       0.920  -0.470   2.335  0.00  0.00     0.014 A 
ENDBRANCH  21  27
ENDBRANCH   1  20
TORSDOF 7
