REMARK  8 active torsions:
REMARK  status: ('A' for Active; 'I' for Inactive)
REMARK    1  A    between atoms: C_2  and  C_1 
REMARK    2  A    between atoms: O_11  and  C_1 
REMARK       I    between atoms: C_3  and  N_4 
REMARK    3  A    between atoms: C_14  and  C_3 
REMARK    4  A    between atoms: N_4  and  C_7 
REMARK    5  A    between atoms: C_5  and  C_15 
REMARK    6  A    between atoms: O_13  and  C_5 
REMARK    7  A    between atoms: O_12  and  C_14 
REMARK    8  A    between atoms: C_15  and  O_12 
ROOT
ATOM      1  C   UNL d   1       1.624  -3.888  -3.118  0.00  0.00     0.245 C 
ATOM      2  N   UNL d   1       0.497  -3.147  -3.438  0.00  0.00    -0.325 N 
ATOM      3  O   UNL d   1       2.409  -3.665  -2.201  0.00  0.00    -0.271 OA
ATOM      4  H   UNL d   1      -0.017  -3.453  -4.255  0.00  0.00     0.169 HD
ENDROOT
BRANCH   2   5
ATOM      5  C   UNL d   1       0.044  -1.972  -2.807  0.00  0.00     0.035 A 
ATOM      6  C   UNL d   1       0.681  -1.400  -1.703  0.00  0.00     0.047 A 
ATOM      7  C   UNL d   1       0.219  -0.194  -1.163  0.00  0.00     0.039 A 
ATOM      8  C   UNL d   1      -0.927   0.412  -1.687  0.00  0.00     0.018 A 
ATOM      9  C   UNL d   1      -1.588  -0.170  -2.766  0.00  0.00     0.003 A 
ATOM     10  C   UNL d   1      -1.097  -1.351  -3.330  0.00  0.00     0.029 A 
BRANCH   7  11
ATOM     11  C   UNL d   1       0.907   0.460  -0.022  0.00  0.00     0.176 C 
ATOM     12  O   UNL d   1       0.315   1.133   0.804  0.00  0.00    -0.646 OA
BRANCH  11  13
ATOM     13  O   UNL d   1       2.248   0.296  -0.020  0.00  0.00    -0.773 OA
ATOM     14  H   UNL d   1       2.623  -0.153  -0.798  0.00  0.00     0.167 HD
ENDBRANCH  11  13
ENDBRANCH   7  11
ENDBRANCH   2   5
BRANCH   1  15
ATOM     15  C   UNL d   1       1.809  -5.099  -4.031  0.00  0.00     0.271 C 
BRANCH  15  16
ATOM     16  O   UNL d   1       1.787  -4.712  -5.410  0.00  0.00    -0.372 OA
BRANCH  16  17
ATOM     17  C   UNL d   1       2.262  -5.774  -6.245  0.00  0.00     0.277 C 
BRANCH  17  18
ATOM     18  C   UNL d   1       1.155  -6.788  -6.481  0.00  0.00     0.164 C 
ATOM     19  O   UNL d   1       1.295  -7.999  -6.430  0.00  0.00    -0.648 OA
BRANCH  18  20
ATOM     20  O   UNL d   1      -0.032  -6.185  -6.745  0.00  0.00    -0.775 OA
ATOM     21  H   UNL d   1       0.072  -5.211  -6.729  0.00  0.00     0.167 HD
ENDBRANCH  18  20
ENDBRANCH  17  18
ENDBRANCH  16  17
ENDBRANCH  15  16
ENDBRANCH   1  15
TORSDOF 8
