REMARK  5 active torsions:
REMARK  status: ('A' for Active; 'I' for Inactive)
REMARK       I    between atoms: N_3  and  C_1 
REMARK    1  A    between atoms: C_6  and  C_1 
REMARK    2  A    between atoms: N_2  and  C_5 
REMARK    3  A    between atoms: C_15  and  N_3 
REMARK    4  A    between atoms: C_10  and  N_4 
REMARK    5  A    between atoms: C_23  and  C_10 
ROOT
ATOM      1  C   UNL d   1       2.410   4.959  -0.775  0.00  0.00     0.030 A 
ATOM      2  C   UNL d   1       2.589   3.801  -1.543  0.00  0.00     0.031 A 
ATOM      3  C   UNL d   1       1.554   4.866   0.325  0.00  0.00     0.031 A 
ATOM      4  C   UNL d   1       1.015   2.558  -0.194  0.00  0.00     0.035 A 
ATOM      5  C   UNL d   1       0.858   3.683   0.611  0.00  0.00     0.032 A 
ATOM      6  C   UNL d   1       1.912   2.613  -1.256  0.00  0.00     0.032 A 
ENDROOT
BRANCH   1   7
ATOM      7  N   UNL d   1       3.070   6.122  -1.100  0.00  0.00    -0.378 N 
ATOM      8  C   UNL d   1       3.193   6.550  -2.498  0.00  0.00     0.153 C 
ATOM      9  C   UNL d   1       4.649   6.972  -2.767  0.00  0.00     0.292 C 
ATOM     10  N   UNL d   1       5.146   8.047  -1.871  0.00  0.00     0.095 N 
ATOM     11  C   UNL d   1       4.959   7.590  -0.466  0.00  0.00     0.292 C 
ATOM     12  C   UNL d   1       3.536   7.081  -0.093  0.00  0.00     0.153 C 
BRANCH  10  13
ATOM     13  C   UNL d   1       4.452   9.330  -2.083  0.00  0.00     0.311 C 
BRANCH  13  14
ATOM     14  C   UNL d   1       4.554   9.870  -3.495  0.00  0.00    -0.030 A 
ATOM     15  C   UNL d   1       3.401  10.033  -4.279  0.00  0.00     0.009 A 
ATOM     16  C   UNL d   1       3.489  10.547  -5.573  0.00  0.00     0.001 A 
ATOM     17  C   UNL d   1       4.730  10.905  -6.097  0.00  0.00     0.000 A 
ATOM     18  C   UNL d   1       5.883  10.741  -5.331  0.00  0.00     0.001 A 
ATOM     19  C   UNL d   1       5.797  10.224  -4.037  0.00  0.00     0.009 A 
ENDBRANCH  13  14
ENDBRANCH  10  13
ENDBRANCH   1   7
BRANCH   4  20
ATOM     20  N   UNL d   1       0.317   1.352  -0.002  0.00  0.00    -0.323 N 
ATOM     21  C   UNL d   1      -0.784   1.162   0.809  0.00  0.00     0.256 C 
ATOM     22  O   UNL d   1      -1.376   2.015   1.460  0.00  0.00    -0.267 OA
ATOM     23  H   UNL d   1       0.564   0.596  -0.628  0.00  0.00     0.169 HD
BRANCH  21  24
ATOM     24  C   UNL d   1      -1.317  -0.222   0.808  0.00  0.00     0.032 A 
ATOM     25  C   UNL d   1      -0.475  -1.337   0.761  0.00  0.00     0.017 A 
ATOM     26  C   UNL d   1      -1.022  -2.622   0.755  0.00  0.00     0.007 A 
ATOM     27  C   UNL d   1      -2.410  -2.803   0.804  0.00  0.00    -0.062 A 
ATOM     28  C   UNL d   1      -3.250  -1.683   0.868  0.00  0.00     0.007 A 
ATOM     29  C   UNL d   1      -2.984  -4.190   0.795  0.00  0.00     0.048 C 
ATOM     30  C   UNL d   1      -2.706  -0.398   0.875  0.00  0.00     0.017 A 
ENDBRANCH  21  24
ENDBRANCH   4  20
TORSDOF 5
