REMARK  3 active torsions:
REMARK  status: ('A' for Active; 'I' for Inactive)
REMARK    1  A    between atoms: C_6  and  C_8 
REMARK    2  A    between atoms: N_9  and  C_14 
REMARK    3  A    between atoms: O_21  and  C_12 
ROOT
ATOM      1  C   UNL d   1       4.563   0.897  -0.199  0.00  0.00     0.102 C 
ATOM      2  N   UNL d   1       3.467   1.357   0.318  0.00  0.00    -0.365 N 
ATOM      3  HN  UNL d   1       3.470   2.241   0.826  1.00  0.00     0.165 HD
ENDROOT
BRANCH   2   4
ATOM      4  C   UNL d   1       2.271   0.628   0.171  0.00  0.00     0.034 A 
ATOM      5  C   UNL d   1       1.095   1.362  -0.044  0.00  0.00     0.062 A 
ATOM      6  C   UNL d   1      -0.128   0.684  -0.132  0.00  0.00     0.076 A 
ATOM      7  N   UNL d   1      -1.402   1.147  -0.323  0.00  0.00    -0.282 N 
ATOM      8  C   UNL d   1      -0.152  -0.698  -0.009  0.00  0.00     0.074 A 
ATOM      9  N   UNL d   1      -2.225   0.105  -0.322  0.00  0.00    -0.022 NA
ATOM     10  HN  UNL d   1      -1.673   2.123  -0.445  1.00  0.00     0.184 HD
ATOM     11  N   UNL d   1      -1.480  -0.996  -0.135  0.00  0.00    -0.282 N 
ATOM     12  H   UNL d   1      -1.942  -1.896  -0.099  0.00  0.00     0.184 HD
ATOM     13  C   UNL d   1       0.988  -1.470   0.207  0.00  0.00     0.035 A 
ATOM     14  C   UNL d   1       2.200  -0.768   0.309  0.00  0.00     0.032 A 
ENDBRANCH   2   4
BRANCH   1  15
ATOM     15  C   UNL d   1       5.834   1.643  -0.068  0.00  0.00     0.014 A 
ATOM     16  C   UNL d   1       5.885   2.929   0.482  0.00  0.00     0.077 A 
ATOM     17  C   UNL d   1       7.097   3.612   0.572  0.00  0.00     0.039 A 
ATOM     18  C   UNL d   1       8.268   3.006   0.118  0.00  0.00     0.022 A 
ATOM     19  C   UNL d   1       8.219   1.722  -0.423  0.00  0.00     0.011 A 
ATOM     20  C   UNL d   1       7.007   1.034  -0.524  0.00  0.00     0.034 A 
ATOM     21 BR   UNL d   1       9.810   0.900  -1.031  0.00  0.00    -0.051 Br
BRANCH  16  22
ATOM     22  O   UNL d   1       4.779   3.583   0.951  0.00  0.00    -0.360 OA
ATOM     23  H   UNL d   1       4.017   2.966   0.863  0.00  0.00     0.217 HD
ENDBRANCH  16  22
ENDBRANCH   1  15
TORSDOF 3
