REMARK  6 active torsions:
REMARK  status: ('A' for Active; 'I' for Inactive)
REMARK    1  A    between atoms: C_9  and  N_1 
REMARK    2  A    between atoms: C_13  and  N_2 
REMARK    3  A    between atoms: C_24  and  C_13 
REMARK    4  A    between atoms: S_14  and  C_15 
REMARK    5  A    between atoms: C_16  and  C_19 
REMARK    6  A    between atoms: O_25  and  C_16 
ROOT
ATOM      1  N   UNL d   1       0.933  -1.415   0.082  0.00  0.00    -0.247 N 
ATOM      2  N   UNL d   1       2.120   0.678  -0.059  0.00  0.00    -0.260 N 
ATOM      3  C   UNL d   1       2.166  -0.730   0.049  0.00  0.00     0.338 A 
ATOM      4  C   UNL d   1      -0.245  -0.690   0.044  0.00  0.00     0.150 A 
ATOM      5  C   UNL d   1      -0.223   0.668  -0.071  0.00  0.00     0.147 A 
ATOM      6  C   UNL d   1       0.959   1.448  -0.132  0.00  0.00     0.282 A 
ATOM      7  N   UNL d   1      -1.533  -1.150   0.058  0.00  0.00    -0.336 N 
ATOM      8  HN  UNL d   1      -1.844  -2.119   0.127  1.00  0.00     0.168 HD
ATOM      9  N   UNL d   1      -1.529   1.065  -0.112  0.00  0.00    -0.345 N 
ATOM     10  C   UNL d   1      -2.287  -0.072  -0.037  0.00  0.00     0.182 A 
ATOM     11  O   UNL d   1       3.254  -1.304   0.175  0.00  0.00    -0.246 OA
ATOM     12  O   UNL d   1       0.929   2.671  -0.212  0.00  0.00    -0.265 OA
ATOM     13  H   UNL d   1      -1.864   2.017  -0.195  0.00  0.00     0.167 HD
ENDROOT
BRANCH   2  14
ATOM     14  C   UNL d   1       3.383   1.391   0.053  0.00  0.00     0.175 C 
BRANCH  14  15
ATOM     15  C   UNL d   1       4.143   1.534  -1.249  0.00  0.00    -0.040 A 
ATOM     16  C   UNL d   1       3.831   2.562  -2.149  0.00  0.00     0.010 A 
ATOM     17  C   UNL d   1       4.616   2.770  -3.287  0.00  0.00     0.018 A 
ATOM     18  C   UNL d   1       5.726   1.955  -3.539  0.00  0.00     0.039 A 
ATOM     19  C   UNL d   1       6.011   0.892  -2.676  0.00  0.00     0.018 A 
ATOM     20  C   UNL d   1       5.219   0.680  -1.543  0.00  0.00     0.010 A 
BRANCH  18  21
ATOM     21  C   UNL d   1       6.579   2.273  -4.713  0.00  0.00     0.292 C 
ATOM     22  O   UNL d   1       6.202   2.946  -5.659  0.00  0.00    -0.259 OA
BRANCH  21  23
ATOM     23  O   UNL d   1       7.832   1.783  -4.534  0.00  0.00    -0.323 OA
ATOM     24  C   UNL d   1       8.754   2.157  -5.558  0.00  0.00     0.213 C 
ENDBRANCH  21  23
ENDBRANCH  18  21
ENDBRANCH  14  15
ENDBRANCH   2  14
BRANCH   1  25
ATOM     25  C   UNL d   1       0.869  -2.841   0.167  0.00  0.00     0.047 A 
ATOM     26  C   UNL d   1      -0.056  -3.498   1.000  0.00  0.00     0.051 A 
ATOM     27  C   UNL d   1      -0.035  -4.894   1.146  0.00  0.00     0.033 A 
ATOM     28  C   UNL d   1       0.878  -5.644   0.397  0.00  0.00     0.021 A 
ATOM     29  C   UNL d   1       1.773  -5.014  -0.463  0.00  0.00     0.004 A 
ATOM     30  C   UNL d   1       1.776  -3.623  -0.563  0.00  0.00     0.030 A 
BRANCH  27  31
ATOM     31  S   UNL d   1      -1.201  -5.765   2.227  0.00  0.00     0.045 S 
ATOM     32  O   UNL d   1      -0.515  -7.047   2.605  0.00  0.00    -0.253 OA
ATOM     33  C   UNL d   1      -1.168  -4.691   3.679  0.00  0.00     0.133 C 
ENDBRANCH  27  31
ENDBRANCH   1  25
TORSDOF 6
