REMARK  2 active torsions:
REMARK  status: ('A' for Active; 'I' for Inactive)
REMARK    1  A    between atoms: N_9  and  C_1 
REMARK    2  A    between atoms: C_6  and  C_3 
ROOT
ATOM      1  C   UNL d   1       1.112  -1.443  -0.178  0.00  0.00     0.025 A 
ATOM      2  C   UNL d   1      -0.101  -0.703  -0.080  0.00  0.00     0.015 A 
ATOM      3  C   UNL d   1       2.307   0.651   0.059  0.00  0.00     0.118 A 
ATOM      4  N   UNL d   1       1.150   1.351   0.187  0.00  0.00    -0.352 N 
ATOM      5  HN  UNL d   1       1.169   2.360   0.334  1.00  0.00     0.166 HD
ATOM      6  C   UNL d   1       2.316  -0.733  -0.105  0.00  0.00     0.059 A 
ATOM      7  C   UNL d   1      -0.014   0.697   0.116  0.00  0.00     0.044 A 
ATOM      8  C   UNL d   1      -1.386  -1.280  -0.202  0.00  0.00     0.057 A 
ATOM      9  C   UNL d   1      -1.181   1.446   0.218  0.00  0.00     0.033 A 
ATOM     10  C   UNL d   1      -2.533  -0.505  -0.089  0.00  0.00     0.117 A 
ATOM     11  C   UNL d   1      -2.442   0.857   0.126  0.00  0.00     0.044 A 
ATOM     12  F   UNL d   1      -3.736  -1.084  -0.190  0.00  0.00    -0.206 F 
ENDROOT
BRANCH   1  13
ATOM     13  N   UNL d   1       1.091  -2.834  -0.388  0.00  0.00    -0.279 NA
ATOM     14  C   UNL d   1       2.233  -3.459  -1.093  0.00  0.00     0.122 C 
ATOM     15  C   UNL d   1       1.855  -4.893  -1.496  0.00  0.00     0.182 C 
ATOM     16  O   UNL d   1       1.477  -5.676  -0.350  0.00  0.00    -0.389 OA
ATOM     17  C   UNL d   1       0.360  -5.069   0.325  0.00  0.00     0.182 C 
ATOM     18  C   UNL d   1       0.697  -3.641   0.795  0.00  0.00     0.122 C 
ENDBRANCH   1  13
BRANCH   3  19
ATOM     19  C   UNL d   1       3.638   1.389   0.089  0.00  0.00     0.432 C 
ATOM     20  F   UNL d   1       3.533   2.747   0.062  0.00  0.00    -0.165 F 
ATOM     21  F   UNL d   1       4.374   1.092   1.200  0.00  0.00    -0.165 F 
ATOM     22  F   UNL d   1       4.436   1.061  -0.971  0.00  0.00    -0.165 F 
ENDBRANCH   3  19
TORSDOF 2
