REMARK  3 active torsions:
REMARK  status: ('A' for Active; 'I' for Inactive)
REMARK       I    between atoms: N_5  and  C_1 
REMARK    1  A    between atoms: C_7  and  C_1 
REMARK    2  A    between atoms: N_3  and  C_2 
REMARK    3  A    between atoms: C_9  and  N_5 
ROOT
ATOM      1  C   UNL d   1       2.284   4.830   1.724  0.00  0.00     0.052 A 
ATOM      2  C   UNL d   1       2.755   4.107   0.605  0.00  0.00     0.062 A 
ATOM      3  C   UNL d   1       2.120   2.935   0.165  0.00  0.00     0.055 A 
ATOM      4  C   UNL d   1       1.145   4.300   2.361  0.00  0.00     0.033 A 
ATOM      5  C   UNL d   1       1.021   2.415   0.840  0.00  0.00     0.036 A 
ATOM      6 CL   UNL d   1       4.213   4.516  -0.249  0.00  0.00    -0.082 Cl
ATOM      7  C   UNL d   1       0.517   3.121   1.930  0.00  0.00     0.032 A 
ENDROOT
BRANCH   5   8
ATOM      8  N   UNL d   1       0.398   1.198   0.489  0.00  0.00    -0.323 N 
ATOM      9  C   UNL d   1       0.935   0.236  -0.355  0.00  0.00     0.256 C 
ATOM     10  O   UNL d   1       2.036   0.269  -0.889  0.00  0.00    -0.267 OA
ATOM     11  H   UNL d   1      -0.427   0.946   1.015  0.00  0.00     0.169 HD
BRANCH   9  12
ATOM     12  C   UNL d   1       0.107  -0.976  -0.569  0.00  0.00     0.034 A 
ATOM     13  C   UNL d   1       0.772  -2.196  -0.748  0.00  0.00     0.041 A 
ATOM     14  C   UNL d   1       0.036  -3.347  -1.004  0.00  0.00     0.035 A 
ATOM     15 CL   UNL d   1       0.852  -4.847  -1.227  0.00  0.00    -0.084 Cl
ATOM     16  C   UNL d   1      -1.353  -3.295  -1.089  0.00  0.00     0.024 A 
ATOM     17  C   UNL d   1      -2.017  -2.079  -0.917  0.00  0.00     0.003 A 
ATOM     18  C   UNL d   1      -1.289  -0.915  -0.658  0.00  0.00     0.017 A 
ENDBRANCH   9  12
ENDBRANCH   5   8
BRANCH   1  19
ATOM     19  N   UNL d   1       2.857   5.992   2.207  0.00  0.00    -0.375 N 
ATOM     20  C   UNL d   1       2.944   6.315   3.640  0.00  0.00     0.149 C 
ATOM     21  C   UNL d   1       2.283   7.675   3.915  0.00  0.00     0.187 C 
ATOM     22  O   UNL d   1       2.835   8.711   3.085  0.00  0.00    -0.388 OA
ATOM     23  C   UNL d   1       2.650   8.387   1.698  0.00  0.00     0.187 C 
ATOM     24  C   UNL d   1       3.336   7.065   1.322  0.00  0.00     0.149 C 
ENDBRANCH   1  19
TORSDOF 3
