REMARK  4 active torsions:
REMARK  status: ('A' for Active; 'I' for Inactive)
REMARK    1  A    between atoms: C_5  and  C_1 
REMARK       I    between atoms: C_2  and  N_3 
REMARK    2  A    between atoms: C_7  and  C_2 
REMARK    3  A    between atoms: N_3  and  C_4 
REMARK    4  A    between atoms: O_9  and  C_5 
ROOT
ATOM      1  C   UNL d   1       1.518  -0.200   0.130  0.00  0.00     0.066 A 
ATOM      2  C   UNL d   1       0.708  -1.349   0.175  0.00  0.00     0.051 A 
ATOM      3  C   UNL d   1       0.900   1.067   0.059  0.00  0.00     0.020 A 
ATOM      4  C   UNL d   1      -0.692  -1.198   0.120  0.00  0.00     0.030 A 
ATOM      5  C   UNL d   1      -0.489   1.198   0.016  0.00  0.00     0.001 A 
ATOM      6  C   UNL d   1      -1.285   0.063   0.042  0.00  0.00     0.002 A 
ENDROOT
BRANCH   2   7
ATOM      7  N   UNL d   1       1.241  -2.664   0.242  0.00  0.00    -0.322 N 
ATOM      8  C   UNL d   1       0.698  -3.628   1.070  0.00  0.00     0.256 C 
ATOM      9  O   UNL d   1      -0.181  -3.433   1.909  0.00  0.00    -0.267 OA
ATOM     10  H   UNL d   1       2.224  -2.773   0.005  0.00  0.00     0.169 HD
BRANCH   8  11
ATOM     11  C   UNL d   1       1.264  -4.992   0.969  0.00  0.00     0.032 A 
ATOM     12  C   UNL d   1       1.484  -5.715   2.147  0.00  0.00     0.017 A 
ATOM     13  C   UNL d   1       1.829  -7.065   2.083  0.00  0.00     0.001 A 
ATOM     14  C   UNL d   1       1.943  -7.693   0.843  0.00  0.00     0.000 A 
ATOM     15  C   UNL d   1       1.742  -6.967  -0.334  0.00  0.00     0.001 A 
ATOM     16  C   UNL d   1       1.410  -5.611  -0.276  0.00  0.00     0.017 A 
ENDBRANCH   8  11
ENDBRANCH   2   7
BRANCH   1  17
ATOM     17  C   UNL d   1       3.004  -0.175   0.271  0.00  0.00     0.295 C 
ATOM     18  O   UNL d   1       3.641   0.869   0.320  0.00  0.00    -0.259 OA
BRANCH  17  19
ATOM     19  O   UNL d   1       3.541  -1.417   0.371  0.00  0.00    -0.322 OA
ATOM     20  C   UNL d   1       4.944  -1.448   0.657  0.00  0.00     0.213 C 
ENDBRANCH  17  19
ENDBRANCH   1  17
TORSDOF 4
