REMARK  2 active torsions:
REMARK  status: ('A' for Active; 'I' for Inactive)
REMARK    1  A    between atoms: C_12  and  C_3 
REMARK    2  A    between atoms: C_13  and  C_11 
ROOT
ATOM      1  C   UNL d   1       0.209  -0.775   0.014  0.00  0.00     0.152 A 
ATOM      2  N   UNL d   1       0.261   0.627  -0.001  0.00  0.00    -0.233 N 
ATOM      3  C   UNL d   1      -0.911   1.373  -0.003  0.00  0.00     0.144 A 
ATOM      4  N   UNL d   1       1.540   1.069  -0.005  0.00  0.00    -0.295 N 
ATOM      5  HN  UNL d   1       1.857   2.038  -0.014  1.00  0.00     0.187 HD
ATOM      6  N   UNL d   1      -0.979  -1.462   0.022  0.00  0.00    -0.339 N 
ATOM      7  HN  UNL d   1      -1.004  -2.481   0.045  1.00  0.00     0.167 HD
ATOM      8  C   UNL d   1       1.519  -1.201   0.021  0.00  0.00     0.103 A 
ATOM      9  C   UNL d   1      -2.100   0.740  -0.002  0.00  0.00     0.067 A 
ATOM     10  C   UNL d   1       2.302  -0.029   0.006  0.00  0.00     0.048 A 
ATOM     11  C   UNL d   1      -2.072  -0.756  -0.002  0.00  0.00     0.046 A 
ATOM     12 CL   UNL d   1       2.086  -2.800   0.040  0.00  0.00    -0.078 Cl
ATOM     13  C   UNL d   1       3.778   0.119   0.003  0.00  0.00     0.071 C 
ENDROOT
BRANCH  11  14
ATOM     14  C   UNL d   1      -3.398  -1.443   0.014  0.00  0.00    -0.009 A 
ATOM     15  C   UNL d   1      -4.521  -0.895  -0.623  0.00  0.00     0.015 A 
ATOM     16  C   UNL d   1      -5.761  -1.534  -0.536  0.00  0.00     0.024 A 
ATOM     17  C   UNL d   1      -5.878  -2.729   0.172  0.00  0.00     0.034 A 
ATOM     18  C   UNL d   1      -4.762  -3.301   0.778  0.00  0.00     0.024 A 
ATOM     19 CL   UNL d   1      -7.411  -3.498   0.296  0.00  0.00    -0.084 Cl
ATOM     20  C   UNL d   1      -3.520  -2.663   0.694  0.00  0.00     0.015 A 
ENDBRANCH  11  14
BRANCH   3  21
ATOM     21  C   UNL d   1      -0.838   2.853   0.010  0.00  0.00     0.434 C 
ATOM     22  F   UNL d   1       0.394   3.410   0.010  0.00  0.00    -0.165 F 
ATOM     23  F   UNL d   1      -1.492   3.370  -1.067  0.00  0.00    -0.165 F 
ATOM     24  F   UNL d   1      -1.483   3.351   1.103  0.00  0.00    -0.165 F 
ENDBRANCH   3  21
TORSDOF 2
