REMARK  4 active torsions:
REMARK  status: ('A' for Active; 'I' for Inactive)
REMARK    1  A    between atoms: O_16  and  C_2 
REMARK    2  A    between atoms: C_7  and  C_13 
REMARK    3  A    between atoms: C_13  and  C_19 
REMARK    4  A    between atoms: C_19  and  O_16 
ROOT
ATOM      1  O   UNL d   1       1.719   2.811  -1.447  0.00  0.00    -0.327 OA
ENDROOT
BRANCH   1   2
ATOM      2  C   UNL d   1       2.072   1.502  -1.733  0.00  0.00     0.156 A 
ATOM      3  C   UNL d   1       1.548   0.936  -2.895  0.00  0.00     0.042 A 
ATOM      4  C   UNL d   1       1.935  -0.388  -3.131  0.00  0.00     0.049 A 
ATOM      5  C   UNL d   1       0.690   1.599  -3.807  0.00  0.00     0.020 A 
ATOM      6  N   UNL d   1       2.744  -1.057  -2.296  0.00  0.00    -0.351 N 
ATOM      7  C   UNL d   1       1.466  -1.026  -4.268  0.00  0.00     0.054 A 
ATOM      8  C   UNL d   1       3.175  -0.405  -1.209  0.00  0.00     0.182 A 
ATOM      9  HN  UNL d   1       3.020  -2.021  -2.481  1.00  0.00     0.166 HD
ATOM     10  N   UNL d   1       2.872   0.853  -0.869  0.00  0.00    -0.332 N 
ATOM     11  HN  UNL d   1       3.222   1.289  -0.016  1.00  0.00     0.168 HD
ATOM     12  C   UNL d   1       0.616  -0.375  -5.166  0.00  0.00     0.036 A 
ATOM     13  C   UNL d   1       0.224   0.939  -4.940  0.00  0.00     0.025 A 
ATOM     14 CL   UNL d   1       0.051  -1.206  -6.561  0.00  0.00    -0.084 Cl
ENDBRANCH   1   2
BRANCH   1  15
ATOM     15  C   UNL d   1       2.444   3.355  -0.353  0.00  0.00     0.261 C 
BRANCH  15  16
ATOM     16  C   UNL d   1       2.176   4.846  -0.276  0.00  0.00     0.183 C 
ATOM     17  O   UNL d   1       2.922   5.671  -0.802  0.00  0.00    -0.290 OA
BRANCH  16  18
ATOM     18  C   UNL d   1       0.987   5.327   0.475  0.00  0.00     0.015 A 
ATOM     19  C   UNL d   1       1.065   6.584   1.088  0.00  0.00     0.054 A 
ATOM     20  C   UNL d   1      -0.055   7.120   1.719  0.00  0.00     0.103 A 
ATOM     21  O   UNL d   1       0.085   8.364   2.273  0.00  0.00    -0.346 OA
ATOM     22  C   UNL d   1      -1.254   6.407   1.752  0.00  0.00     0.102 A 
ATOM     23  C   UNL d   1      -1.177   9.035   2.287  0.00  0.00     0.202 C 
ATOM     24  C   UNL d   1      -2.252   8.171   2.927  0.00  0.00     0.202 C 
ATOM     25  O   UNL d   1      -2.414   6.901   2.284  0.00  0.00    -0.346 OA
ATOM     26  C   UNL d   1      -1.322   5.137   1.179  0.00  0.00     0.040 A 
ATOM     27  C   UNL d   1      -0.203   4.593   0.538  0.00  0.00     0.018 A 
ENDBRANCH  16  18
ENDBRANCH  15  16
ENDBRANCH   1  15
TORSDOF 4
