REMARK  2 active torsions:
REMARK  status: ('A' for Active; 'I' for Inactive)
REMARK       I    between atoms: N_2  and  C_1 
REMARK    1  A    between atoms: C_3  and  C_1 
REMARK       I    between atoms: C_4  and  N_2 
REMARK       I    between atoms: N_6  and  C_4 
REMARK    2  A    between atoms: C_9  and  N_6 
ROOT
ATOM      1  C   UNL d   1       0.834   0.521   0.085  0.00  0.00     0.262 C 
ATOM      2  N   UNL d   1       0.368  -0.391   1.015  0.00  0.00    -0.275 N 
ATOM      3  C   UNL d   1       1.060  -1.031   2.015  0.00  0.00     0.327 C 
ATOM      4  N   UNL d   1       2.269  -0.488   2.351  0.00  0.00    -0.307 N 
ATOM      5  O   UNL d   1       1.870   1.163   0.233  0.00  0.00    -0.267 OA
ATOM      6  O   UNL d   1       0.547  -2.034   2.506  0.00  0.00    -0.247 OA
ATOM      7  H   UNL d   1      -0.498  -0.878   0.822  0.00  0.00     0.173 HD
ATOM      8  H   UNL d   1       2.464   0.436   1.966  0.00  0.00     0.170 HD
ENDROOT
BRANCH   1   9
ATOM      9  C   UNL d   1      -0.025   0.760  -1.115  0.00  0.00     0.071 A 
ATOM     10  C   UNL d   1      -1.209   0.050  -1.352  0.00  0.00     0.135 A 
ATOM     11  C   UNL d   1      -1.992   0.298  -2.475  0.00  0.00     0.085 A 
ATOM     12  F   UNL d   1      -1.624  -0.897  -0.496  0.00  0.00    -0.205 F 
ATOM     13  C   UNL d   1      -1.586   1.267  -3.379  0.00  0.00     0.119 A 
ATOM     14  C   UNL d   1      -0.412   1.986  -3.178  0.00  0.00     0.043 A 
ATOM     15  F   UNL d   1      -2.337   1.517  -4.459  0.00  0.00    -0.206 F 
ATOM     16  C   UNL d   1       0.371   1.732  -2.046  0.00  0.00     0.023 A 
ENDBRANCH   1   9
BRANCH   4  17
ATOM     17  C   UNL d   1       3.214  -1.004   3.269  0.00  0.00     0.058 A 
ATOM     18  C   UNL d   1       4.255  -0.176   3.725  0.00  0.00     0.060 A 
ATOM     19 CL   UNL d   1       4.377   1.474   3.218  0.00  0.00    -0.082 Cl
ATOM     20  C   UNL d   1       5.209  -0.657   4.628  0.00  0.00     0.026 A 
ATOM     21  C   UNL d   1       5.147  -1.976   5.074  0.00  0.00     0.002 A 
ATOM     22  C   UNL d   1       4.131  -2.811   4.618  0.00  0.00     0.002 A 
ATOM     23  C   UNL d   1       3.170  -2.327   3.725  0.00  0.00     0.031 A 
ENDBRANCH   4  17
TORSDOF 2
