REMARK  5 active torsions:
REMARK  status: ('A' for Active; 'I' for Inactive)
REMARK    1  A    between atoms: C_7  and  C_1 
REMARK    2  A    between atoms: C_9  and  C_2 
REMARK    3  A    between atoms: C_6  and  O_10 
REMARK       I    between atoms: N_8  and  C_6 
REMARK    4  A    between atoms: C_14  and  N_8 
REMARK    5  A    between atoms: O_10  and  C_9 
ROOT
ATOM      1  C   UNL d   1      -1.394   0.665   0.176  0.00  0.00     0.086 A 
ATOM      2  C   UNL d   1      -0.086  -1.180   0.220  0.00  0.00    -0.002 A 
ATOM      3  O   UNL d   1      -0.092   1.073   0.131  0.00  0.00    -0.314 OA
ATOM      4  C   UNL d   1      -1.432  -0.714   0.254  0.00  0.00     0.050 A 
ATOM      5  C   UNL d   1       0.693  -0.039   0.150  0.00  0.00     0.058 A 
ATOM      6  C   UNL d   1       2.151   0.190   0.055  0.00  0.00     0.077 C 
ENDROOT
BRANCH   2   7
ATOM      7  C   UNL d   1       0.374  -2.597   0.185  0.00  0.00     0.222 C 
BRANCH   7   8
ATOM      8  O   UNL d   1      -0.196  -3.378   1.248  0.00  0.00    -0.299 OA
BRANCH   8   9
ATOM      9  C   UNL d   1      -0.848  -4.501   0.868  0.00  0.00     0.365 C 
ATOM     10  N   UNL d   1      -1.206  -5.358   1.874  0.00  0.00    -0.303 N 
ATOM     11  H   UNL d   1      -1.573  -6.219   1.491  0.00  0.00     0.171 HD
ATOM     12  O   UNL d   1      -1.077  -4.814  -0.296  0.00  0.00    -0.238 OA
BRANCH  10  13
ATOM     13  C   UNL d   1      -1.129  -5.271   3.274  0.00  0.00     0.036 A 
ATOM     14  C   UNL d   1      -0.809  -4.113   3.985  0.00  0.00     0.031 A 
ATOM     15  C   UNL d   1      -0.803  -4.123   5.387  0.00  0.00     0.026 A 
ATOM     16  C   UNL d   1      -1.111  -5.290   6.081  0.00  0.00     0.034 A 
ATOM     17  C   UNL d   1      -1.421  -6.454   5.386  0.00  0.00     0.026 A 
ATOM     18 CL   UNL d   1      -1.123  -5.292   7.800  0.00  0.00    -0.084 Cl
ATOM     19  C   UNL d   1      -1.434  -6.440   3.988  0.00  0.00     0.031 A 
ENDBRANCH  10  13
ENDBRANCH   8   9
ENDBRANCH   7   8
ENDBRANCH   2   7
BRANCH   1  20
ATOM     20  C   UNL d   1      -2.412   1.710   0.101  0.00  0.00    -0.002 A 
ATOM     21  C   UNL d   1      -2.065   3.068   0.007  0.00  0.00     0.016 A 
ATOM     22  C   UNL d   1      -3.050   4.058  -0.099  0.00  0.00     0.024 A 
ATOM     23  C   UNL d   1      -4.394   3.698  -0.111  0.00  0.00     0.034 A 
ATOM     24  C   UNL d   1      -4.762   2.360  -0.013  0.00  0.00     0.024 A 
ATOM     25 CL   UNL d   1      -5.607   4.910  -0.254  0.00  0.00    -0.084 Cl
ATOM     26  C   UNL d   1      -3.775   1.373   0.093  0.00  0.00     0.016 A 
ENDBRANCH   1  20
TORSDOF 5
