REMARK  7 active torsions:
REMARK  status: ('A' for Active; 'I' for Inactive)
REMARK    1  A    between atoms: C_7  and  C_1 
REMARK    2  A    between atoms: C_12  and  C_2 
REMARK    3  A    between atoms: C_3  and  O_11 
REMARK       I    between atoms: N_4  and  C_3 
REMARK    4  A    between atoms: C_8  and  N_4 
REMARK    5  A    between atoms: O_11  and  N_5 
REMARK    6  A    between atoms: O_17  and  C_7 
REMARK    7  A    between atoms: C_13  and  C_15 
ROOT
ATOM      1  N   UNL d   1       6.191  -1.266  -0.002  0.00  0.00    -0.267 N 
ATOM      2  HN  UNL d   1       5.858  -2.156   0.371  1.00  0.00     0.194 HD
ATOM      3  C   UNL d   1       5.458  -0.256  -0.368  0.00  0.00     0.126 C 
ENDROOT
BRANCH   1   4
ATOM      4  O   UNL d   1       7.540  -0.891  -0.220  0.00  0.00    -0.181 OA
BRANCH   4   5
ATOM      5  C   UNL d   1       8.461  -1.860   0.137  0.00  0.00     0.387 C 
ATOM      6  N   UNL d   1       7.919  -2.960   0.760  0.00  0.00    -0.301 N 
ATOM      7  H   UNL d   1       6.912  -2.885   0.856  0.00  0.00     0.171 HD
ATOM      8  O   UNL d   1       9.650  -1.675  -0.107  0.00  0.00    -0.236 OA
BRANCH   6   9
ATOM      9  C   UNL d   1       8.586  -4.116   1.214  0.00  0.00     0.038 A 
ATOM     10  C   UNL d   1       9.967  -4.309   1.095  0.00  0.00     0.053 A 
ATOM     11  C   UNL d   1      10.556  -5.500   1.529  0.00  0.00     0.036 A 
ATOM     12 CL   UNL d   1      12.255  -5.726   1.356  0.00  0.00    -0.084 Cl
ATOM     13  C   UNL d   1       9.785  -6.510   2.091  0.00  0.00     0.024 A 
ATOM     14  C   UNL d   1       8.411  -6.323   2.234  0.00  0.00     0.004 A 
ATOM     15  C   UNL d   1       7.817  -5.131   1.799  0.00  0.00     0.029 A 
ENDBRANCH   6   9
ENDBRANCH   4   5
ENDBRANCH   1   4
BRANCH   3  16
ATOM     16  C   UNL d   1       3.984  -0.260  -0.309  0.00  0.00    -0.019 A 
ATOM     17  C   UNL d   1       3.279  -1.422   0.008  0.00  0.00     0.014 A 
ATOM     18  C   UNL d   1       1.882  -1.390   0.081  0.00  0.00     0.021 A 
ATOM     19  C   UNL d   1       1.191  -0.198  -0.159  0.00  0.00     0.017 A 
ATOM     20  C   UNL d   1       1.899   0.959  -0.495  0.00  0.00     0.021 A 
ATOM     21  C   UNL d   1       3.295   0.931  -0.575  0.00  0.00     0.014 A 
BRANCH  19  22
ATOM     22  C   UNL d   1      -0.237  -0.158  -0.059  0.00  0.00    -0.064 C 
ATOM     23  C   UNL d   1      -1.436  -0.112   0.016  0.00  0.00    -0.064 C 
BRANCH  23  24
ATOM     24  C   UNL d   1      -2.907  -0.050   0.074  0.00  0.00     0.114 C 
ATOM     25  C   UNL d   1      -3.373   1.222   0.781  0.00  0.00     0.060 C 
ATOM     26  C   UNL d   1      -3.477  -1.286   0.766  0.00  0.00     0.060 C 
BRANCH  24  27
ATOM     27  O   UNL d   1      -3.417  -0.029  -1.258  0.00  0.00    -0.378 OA
ATOM     28  H   UNL d   1      -2.947   0.678  -1.732  0.00  0.00     0.211 HD
ENDBRANCH  24  27
ENDBRANCH  23  24
ENDBRANCH  19  22
ENDBRANCH   3  16
TORSDOF 7
