REMARK  2 active torsions:
REMARK  status: ('A' for Active; 'I' for Inactive)
REMARK       I    between atoms: N_2  and  C_1 
REMARK       I    between atoms: N_3  and  C_1 
REMARK    1  A    between atoms: C_4  and  N_2 
REMARK    2  A    between atoms: C_6  and  N_3 
ROOT
ATOM      1  C   UNL d   1       0.859   0.192   0.521  0.00  0.00     0.321 C 
ATOM      2  N   UNL d   1       0.402  -1.028   0.887  0.00  0.00    -0.334 N 
ATOM      3  N   UNL d   1       0.056   0.969  -0.259  0.00  0.00    -0.306 N 
ATOM      4  O   UNL d   1       1.989   0.586   0.793  0.00  0.00    -0.247 OA
ATOM      5  H   UNL d   1      -0.507  -1.324   0.571  0.00  0.00     0.165 HD
ATOM      6  H   UNL d   1       0.585   1.747  -0.637  0.00  0.00     0.171 HD
ENDROOT
BRANCH   2   7
ATOM      7  C   UNL d   1       1.192  -2.029   1.575  0.00  0.00     0.120 C 
ATOM      8  C   UNL d   1       0.269  -2.914   2.400  0.00  0.00    -0.029 A 
ATOM      9  C   UNL d   1      -0.018  -4.243   2.030  0.00  0.00    -0.050 A 
ATOM     10  C   UNL d   1      -0.349  -2.378   3.545  0.00  0.00     0.010 A 
ATOM     11  C   UNL d   1      -0.850  -5.025   2.848  0.00  0.00     0.007 A 
ATOM     12  C   UNL d   1       0.592  -4.872   0.803  0.00  0.00     0.039 C 
ATOM     13  C   UNL d   1      -1.430  -4.487   3.996  0.00  0.00     0.001 A 
ATOM     14  C   UNL d   1      -1.190  -3.159   4.336  0.00  0.00     0.001 A 
ATOM     15  C   UNL d   1       1.144  -3.844  -0.180  0.00  0.00     0.007 C 
ATOM     16  C   UNL d   1       2.018  -2.833   0.558  0.00  0.00     0.030 C 
ENDBRANCH   2   7
BRANCH   3  17
ATOM     17  C   UNL d   1      -1.274   0.820  -0.713  0.00  0.00     0.075 A 
ATOM     18  C   UNL d   1      -2.255   0.015  -0.120  0.00  0.00     0.143 A 
ATOM     19  F   UNL d   1      -2.031  -0.617   1.041  0.00  0.00    -0.204 F 
ATOM     20  C   UNL d   1      -3.514  -0.149  -0.689  0.00  0.00     0.044 A 
ATOM     21  C   UNL d   1      -3.834   0.525  -1.861  0.00  0.00     0.003 A 
ATOM     22  C   UNL d   1      -2.901   1.386  -2.435  0.00  0.00     0.002 A 
ATOM     23  C   UNL d   1      -1.634   1.543  -1.859  0.00  0.00     0.033 A 
ENDBRANCH   3  17
TORSDOF 2
