REMARK  2 active torsions:
REMARK  status: ('A' for Active; 'I' for Inactive)
REMARK       I    between atoms: C_3  and  N_2 
REMARK    1  A    between atoms: C_16  and  C_3 
REMARK    2  A    between atoms: N_4  and  C_5 
ROOT
ATOM      1  N   UNL d   1      -3.834  -5.125  -0.545  0.00  0.00    -0.349 N 
ATOM      2  C   UNL d   1      -4.528  -6.322  -0.456  0.00  0.00     0.224 C 
ATOM      3  N   UNL d   1      -2.877  -2.425  -0.468  0.00  0.00    -0.377 N 
ATOM      4  C   UNL d   1      -4.220  -4.160  -1.592  0.00  0.00     0.145 C 
ATOM      5  C   UNL d   1      -2.599  -4.779   0.176  0.00  0.00     0.145 C 
ATOM      6  C   UNL d   1      -4.189  -2.702  -1.090  0.00  0.00     0.143 C 
ATOM      7  C   UNL d   1      -2.618  -3.323   0.681  0.00  0.00     0.143 C 
ATOM      8  O   UNL d   1      -5.503  -6.540  -1.177  0.00  0.00    -0.273 OA
ENDROOT
BRANCH   3   9
ATOM      9  C   UNL d   1      -2.496  -1.089  -0.249  0.00  0.00     0.044 A 
ATOM     10  C   UNL d   1      -1.116  -0.726  -0.252  0.00  0.00     0.017 A 
ATOM     11  C   UNL d   1      -0.780   0.626  -0.002  0.00  0.00     0.046 A 
ATOM     12  C   UNL d   1      -0.068  -1.641  -0.518  0.00  0.00     0.018 A 
ATOM     13  C   UNL d   1       0.555   1.001   0.011  0.00  0.00     0.054 A 
ATOM     14  N   UNL d   1      -1.701   1.573   0.217  0.00  0.00    -0.365 N 
ATOM     15  C   UNL d   1       1.572   0.078  -0.221  0.00  0.00     0.036 A 
ATOM     16  C   UNL d   1       1.267  -1.248  -0.489  0.00  0.00     0.025 A 
ATOM     17 CL   UNL d   1       3.216   0.582  -0.185  0.00  0.00    -0.084 Cl
ATOM     18  C   UNL d   1      -2.998   1.212   0.189  0.00  0.00     0.090 A 
ATOM     19  HN  UNL d   1      -1.429   2.539   0.399  1.00  0.00     0.165 HD
ATOM     20  C   UNL d   1      -3.437  -0.079  -0.034  0.00  0.00     0.047 A 
ENDBRANCH   3   9
BRANCH   2  21
ATOM     21  C   UNL d   1      -4.070  -7.361   0.581  0.00  0.00     0.078 C 
ATOM     22  C   UNL d   1      -2.772  -8.073   0.173  0.00  0.00     0.014 C 
ATOM     23  C   UNL d   1      -2.979  -9.110  -0.927  0.00  0.00     0.001 C 
ATOM     24  C   UNL d   1      -4.051 -10.127  -0.553  0.00  0.00     0.000 C 
ATOM     25  C   UNL d   1      -5.363  -9.452  -0.180  0.00  0.00     0.001 C 
ATOM     26  C   UNL d   1      -5.176  -8.385   0.897  0.00  0.00     0.014 C 
ENDBRANCH   2  21
TORSDOF 2
