REMARK  3 active torsions:
REMARK  status: ('A' for Active; 'I' for Inactive)
REMARK    1  A    between atoms: C_8  and  N_1 
REMARK    2  A    between atoms: S_11  and  C_2 
REMARK    3  A    between atoms: O_12  and  C_3 
ROOT
ATOM      1  N   UNL d   1      -0.270  -1.314   0.005  0.00  0.00    -0.286 N 
ATOM      2  C   UNL d   1       1.033  -0.865  -0.025  0.00  0.00     0.162 A 
ATOM      3  C   UNL d   1      -1.036  -0.163  -0.054  0.00  0.00     0.240 A 
ATOM      4  N   UNL d   1       1.040   0.451  -0.076  0.00  0.00    -0.277 N 
ATOM      5  HN  UNL d   1       1.871   1.043  -0.104  1.00  0.00     0.189 HD
ATOM      6  N   UNL d   1      -0.259   0.892  -0.085  0.00  0.00    -0.263 N 
ATOM      7  HN  UNL d   1      -0.565   1.864  -0.110  1.00  0.00     0.190 HD
ENDROOT
BRANCH   1   8
ATOM      8  C   UNL d   1      -0.851  -2.646   0.102  0.00  0.00     0.096 A 
ATOM      9  C   UNL d   1      -0.213  -3.835   0.788  0.00  0.00     0.028 A 
ATOM     10  C   UNL d   1      -0.344  -3.829  -0.700  0.00  0.00     0.028 A 
ENDBRANCH   1   8
BRANCH   2  11
ATOM     11  S   UNL d   1       2.505  -1.771   0.039  0.00  0.00    -0.105 SA
ATOM     12  H   UNL d   1       2.072  -3.005  -0.214  0.00  0.00     0.110 HD
ENDBRANCH   2  11
BRANCH   3  13
ATOM     13  O   UNL d   1      -2.358  -0.072  -0.086  0.00  0.00    -0.331 OA
ATOM     14  H   UNL d   1      -2.742  -0.918  -0.352  0.00  0.00     0.221 HD
ENDBRANCH   3  13
TORSDOF 3
