REMARK  1 active torsions:
REMARK  status: ('A' for Active; 'I' for Inactive)
REMARK    1  A    between atoms: N_9  and  C_1 
ROOT
ATOM      1  C   UNL d   1      -2.541   0.652   0.099  0.00  0.00     0.061 A 
ATOM      2  C   UNL d   1      -2.498  -0.684   0.053  0.00  0.00     0.083 A 
ATOM      3  C   UNL d   1      -1.263   1.440   0.019  0.00  0.00     0.204 A 
ATOM      4  C   UNL d   1      -1.238  -1.444  -0.025  0.00  0.00     0.184 A 
ATOM      5  C   UNL d   1       0.015   0.702   0.006  0.00  0.00     0.030 A 
ATOM      6  C   UNL d   1       0.027  -0.690  -0.011  0.00  0.00     0.028 A 
ATOM      7  O   UNL d   1      -1.291   2.666  -0.053  0.00  0.00    -0.286 OA
ATOM      8  O   UNL d   1      -1.258  -2.667  -0.090  0.00  0.00    -0.287 OA
ATOM      9  C   UNL d   1       1.224   1.411   0.005  0.00  0.00     0.016 A 
ATOM     10  C   UNL d   1       1.246  -1.381  -0.019  0.00  0.00     0.016 A 
ATOM     11  C   UNL d   1       2.438   0.722  -0.002  0.00  0.00     0.001 A 
ATOM     12  C   UNL d   1       2.449  -0.673  -0.012  0.00  0.00     0.001 A 
ENDROOT
BRANCH   1  13
ATOM     13  N   UNL d   1      -3.710   1.389   0.203  0.00  0.00    -0.299 NA
ATOM     14  H   UNL d   1      -4.529   0.954  -0.212  0.00  0.00     0.124 HD
ATOM     15  H   UNL d   1      -3.566   2.358  -0.091  0.00  0.00     0.124 HD
ENDBRANCH   1  13
TORSDOF 1
