REMARK  6 active torsions:
REMARK  status: ('A' for Active; 'I' for Inactive)
REMARK    1  A    between atoms: C_6  and  C_1 
REMARK    2  A    between atoms: C_8  and  C_2 
REMARK    3  A    between atoms: S_3  and  C_10 
REMARK    4  A    between atoms: N_16  and  S_3 
REMARK       I    between atoms: N_11  and  C_8 
REMARK    5  A    between atoms: N_17  and  N_11 
REMARK    6  A    between atoms: C_21  and  N_17 
ROOT
ATOM      1  C   UNL d   1       0.322  -2.736   0.257  0.00  0.00     0.271 C 
ATOM      2  N   UNL d   1      -0.606  -3.768   0.320  0.00  0.00    -0.282 N 
ATOM      3  O   UNL d   1       1.532  -2.952   0.261  0.00  0.00    -0.266 OA
ATOM      4  H   UNL d   1      -1.597  -3.610   0.400  0.00  0.00     0.184 HD
ENDROOT
BRANCH   1   5
ATOM      5  C   UNL d   1      -0.238  -1.396   0.135  0.00  0.00     0.094 A 
ATOM      6  C   UNL d   1       0.351  -0.235  -0.494  0.00  0.00     0.088 A 
ATOM      7  N   UNL d   1      -0.515   0.791  -0.453  0.00  0.00    -0.259 N 
ATOM      8  O   UNL d   1      -1.597   0.375   0.266  0.00  0.00    -0.241 OA
ATOM      9  HN  UNL d   1      -0.388   1.709  -0.879  1.00  0.00     0.195 HD
ATOM     10  C   UNL d   1      -1.443  -0.921   0.632  0.00  0.00     0.090 A 
ATOM     11  C   UNL d   1      -2.564  -1.425   1.454  0.00  0.00     0.080 C 
BRANCH   6  12
ATOM     12  C   UNL d   1       1.637  -0.055  -1.180  0.00  0.00     0.054 A 
ATOM     13  C   UNL d   1       2.101  -1.026  -2.073  0.00  0.00     0.130 A 
ATOM     14  F   UNL d   1       1.361  -2.115  -2.340  0.00  0.00    -0.205 F 
ATOM     15  C   UNL d   1       3.314  -0.895  -2.749  0.00  0.00     0.043 A 
ATOM     16  C   UNL d   1       4.082   0.254  -2.584  0.00  0.00     0.005 A 
ATOM     17  C   UNL d   1       3.632   1.257  -1.730  0.00  0.00     0.025 A 
ATOM     18  C   UNL d   1       2.431   1.105  -1.021  0.00  0.00     0.049 A 
ATOM     19 CL   UNL d   1       2.030   2.408   0.051  0.00  0.00    -0.083 Cl
ENDBRANCH   6  12
ENDBRANCH   1   5
BRANCH   2  20
ATOM     20  N   UNL d   1      -0.142  -5.094   0.442  0.00  0.00    -0.203 NA
ATOM     21  H   UNL d   1       0.846  -5.152   0.170  0.00  0.00     0.153 HD
BRANCH  20  22
ATOM     22  C   UNL d   1      -0.932  -6.074  -0.213  0.00  0.00     0.027 A 
ATOM     23  C   UNL d   1      -0.310  -7.245  -0.684  0.00  0.00     0.026 A 
ATOM     24  C   UNL d   1      -1.052  -8.292  -1.247  0.00  0.00     0.026 A 
ATOM     25  C   UNL d   1      -2.441  -8.185  -1.328  0.00  0.00     0.074 A 
ATOM     26  C   UNL d   1      -3.087  -7.057  -0.826  0.00  0.00     0.026 A 
ATOM     27  C   UNL d   1      -2.336  -6.018  -0.264  0.00  0.00     0.026 A 
BRANCH  25  28
ATOM     28  S   UNL d   1      -3.399  -9.525  -1.977  0.00  0.00     0.239 S 
ATOM     29  O   UNL d   1      -2.608 -10.732  -1.955  0.00  0.00    -0.206 OA
ATOM     30  O   UNL d   1      -4.734  -9.464  -1.427  0.00  0.00    -0.206 OA
BRANCH  28  31
ATOM     31  N   UNL d   1      -3.549  -9.098  -3.592  0.00  0.00    -0.225 NA
ATOM     32  H   UNL d   1      -3.098  -9.801  -4.178  0.00  0.00     0.136 HD
ATOM     33  H   UNL d   1      -4.531  -8.944  -3.820  0.00  0.00     0.136 HD
ENDBRANCH  28  31
ENDBRANCH  25  28
ENDBRANCH  20  22
ENDBRANCH   2  20
TORSDOF 6
