REMARK  5 active torsions:
REMARK  status: ('A' for Active; 'I' for Inactive)
REMARK    1  A    between atoms: C_12  and  C_2 
REMARK    2  A    between atoms: C_13  and  C_9 
REMARK    3  A    between atoms: C_14  and  C_11 
REMARK    4  A    between atoms: O_27  and  C_16 
REMARK    5  A    between atoms: O_28  and  C_19 
ROOT
ATOM      1  N   UNL d   1       0.314   0.646   0.086  0.00  0.00    -0.235 N 
ATOM      2  C   UNL d   1      -0.810   1.461   0.079  0.00  0.00     0.144 A 
ATOM      3  C   UNL d   1       0.177  -0.747   0.014  0.00  0.00     0.130 A 
ATOM      4  N   UNL d   1       1.618   1.000   0.137  0.00  0.00    -0.289 N 
ATOM      5  HN  UNL d   1       2.000   1.939   0.248  1.00  0.00     0.188 HD
ATOM      6  N   UNL d   1      -1.039  -1.367   0.020  0.00  0.00    -0.340 N 
ATOM      7  HN  UNL d   1      -1.120  -2.383  -0.013  1.00  0.00     0.167 HD
ATOM      8  C   UNL d   1       1.451  -1.258  -0.068  0.00  0.00     0.084 A 
ATOM      9  C   UNL d   1       2.298  -0.142   0.013  0.00  0.00     0.086 A 
ATOM     10  C   UNL d   1      -2.036   0.897   0.052  0.00  0.00     0.067 A 
ATOM     11  C   UNL d   1      -2.092  -0.601   0.069  0.00  0.00     0.046 A 
ENDROOT
BRANCH  11  12
ATOM     12  C   UNL d   1      -3.446  -1.230   0.134  0.00  0.00    -0.006 A 
ATOM     13  C   UNL d   1      -3.632  -2.499  -0.437  0.00  0.00     0.053 A 
ATOM     14  C   UNL d   1      -4.875  -3.152  -0.376  0.00  0.00     0.102 A 
ATOM     15  C   UNL d   1      -5.949  -2.508   0.266  0.00  0.00     0.101 A 
ATOM     16  C   UNL d   1      -5.747  -1.247   0.846  0.00  0.00     0.040 A 
ATOM     17  C   UNL d   1      -4.507  -0.612   0.794  0.00  0.00     0.016 A 
BRANCH  14  18
ATOM     18  O   UNL d   1      -5.092  -4.395  -0.906  0.00  0.00    -0.353 OA
ATOM     19  C   UNL d   1      -4.013  -5.062  -1.550  0.00  0.00     0.210 C 
ENDBRANCH  14  18
BRANCH  15  20
ATOM     20  O   UNL d   1      -7.239  -2.938   0.431  0.00  0.00    -0.353 OA
ATOM     21  C   UNL d   1      -7.612  -4.212  -0.067  0.00  0.00     0.210 C 
ENDBRANCH  15  20
ENDBRANCH  11  12
BRANCH   2  22
ATOM     22  C   UNL d   1      -0.637   2.934   0.061  0.00  0.00     0.434 C 
ATOM     23  F   UNL d   1       0.631   3.402   0.014  0.00  0.00    -0.165 F 
ATOM     24  F   UNL d   1      -1.278   3.474  -1.013  0.00  0.00    -0.165 F 
ATOM     25  F   UNL d   1      -1.216   3.498   1.156  0.00  0.00    -0.165 F 
ENDBRANCH   2  22
BRANCH   9  26
ATOM     26  C   UNL d   1       3.786  -0.177  -0.042  0.00  0.00     0.103 A 
ATOM     27  O   UNL d   1       4.531  -1.304  -0.253  0.00  0.00    -0.320 OA
ATOM     28  C   UNL d   1       5.835  -0.927  -0.266  0.00  0.00     0.142 A 
ATOM     29  C   UNL d   1       5.949   0.425  -0.048  0.00  0.00     0.027 A 
ATOM     30  C   UNL d   1       4.628   0.910   0.097  0.00  0.00     0.041 A 
ENDBRANCH   9  26
TORSDOF 5
