REMARK  5 active torsions:
REMARK  status: ('A' for Active; 'I' for Inactive)
REMARK    1  A    between atoms: C_9  and  C_3 
REMARK    2  A    between atoms: C_7  and  C_6 
REMARK    3  A    between atoms: C_8  and  C_7 
REMARK    4  A    between atoms: O_18  and  C_8 
REMARK    5  A    between atoms: C_10  and  C_11 
ROOT
ATOM      1  N   UNL d   1       1.086  -0.105   0.455  0.00  0.00    -0.320 N 
ATOM      2  HN  UNL d   1       1.971  -0.017   0.954  1.00  0.00     0.169 HD
ATOM      3  C   UNL d   1       0.615  -1.230   0.031  0.00  0.00     0.083 A 
ATOM      4  C   UNL d   1       0.268   0.964   0.162  0.00  0.00     0.237 A 
ATOM      5  S   UNL d   1      -0.946  -1.191  -0.746  0.00  0.00    -0.096 SA
ATOM      6  C   UNL d   1      -0.982   0.622  -0.638  0.00  0.00     0.156 A 
ATOM      7  O   UNL d   1       0.504   2.110   0.529  0.00  0.00    -0.272 OA
ENDROOT
BRANCH   3   8
ATOM      8  C   UNL d   1       1.310  -2.524   0.189  0.00  0.00    -0.003 A 
ATOM      9  C   UNL d   1       2.175  -2.726   1.263  0.00  0.00     0.015 A 
ATOM     10  C   UNL d   1       2.834  -3.958   1.411  0.00  0.00     0.009 A 
ATOM     11  C   UNL d   1       2.660  -4.998   0.478  0.00  0.00    -0.051 A 
ATOM     12  C   UNL d   1       1.791  -4.761  -0.601  0.00  0.00     0.009 A 
ATOM     13  C   UNL d   1       1.125  -3.542  -0.744  0.00  0.00     0.015 A 
BRANCH  11  14
ATOM     14  C   UNL d   1       3.423  -6.329   0.616  0.00  0.00    -0.024 C 
ATOM     15  C   UNL d   1       3.109  -7.324  -0.527  0.00  0.00     0.019 C 
ATOM     16  C   UNL d   1       4.942  -6.060   0.591  0.00  0.00     0.019 C 
ATOM     17  C   UNL d   1       3.061  -7.032   1.940  0.00  0.00     0.019 C 
ENDBRANCH  11  14
ENDBRANCH   3   8
BRANCH   6  18
ATOM     18  C   UNL d   1      -2.211   1.132   0.097  0.00  0.00     0.135 C 
BRANCH  18  19
ATOM     19  C   UNL d   1      -3.481   0.823  -0.649  0.00  0.00     0.141 C 
ATOM     20  O   UNL d   1      -3.567   0.732  -1.862  0.00  0.00    -0.650 OA
BRANCH  19  21
ATOM     21  O   UNL d   1      -4.555   0.703   0.164  0.00  0.00    -0.776 OA
ATOM     22  H   UNL d   1      -4.367   0.824   1.114  0.00  0.00     0.167 HD
ENDBRANCH  19  21
ENDBRANCH  18  19
ENDBRANCH   6  18
TORSDOF 5
