REMARK  3 active torsions:
REMARK  status: ('A' for Active; 'I' for Inactive)
REMARK    1  A    between atoms: C_2  and  C_1 
REMARK       I    between atoms: N_5  and  C_2 
REMARK    2  A    between atoms: N_3  and  C_9 
REMARK    3  A    between atoms: C_13  and  N_5 
ROOT
ATOM      1  C   UNL d   1      -1.016  -5.712  -0.251  0.00  0.00     0.030 A 
ATOM      2  C   UNL d   1       1.400  -4.208  -0.077  0.00  0.00     0.035 A 
ATOM      3  C   UNL d   1      -0.744  -4.675  -1.148  0.00  0.00     0.031 A 
ATOM      4  C   UNL d   1      -0.025  -6.002   0.698  0.00  0.00     0.031 A 
ATOM      5  C   UNL d   1       1.160  -5.269   0.788  0.00  0.00     0.032 A 
ATOM      6  C   UNL d   1       0.442  -3.922  -1.055  0.00  0.00     0.032 A 
ENDROOT
BRANCH   2   7
ATOM      7  N   UNL d   1       2.532  -3.369   0.025  0.00  0.00    -0.323 N 
ATOM      8  C   UNL d   1       3.617  -3.558   0.865  0.00  0.00     0.259 C 
ATOM      9  O   UNL d   1       3.874  -4.594   1.473  0.00  0.00    -0.267 OA
ATOM     10  H   UNL d   1       2.512  -2.527  -0.540  0.00  0.00     0.169 HD
BRANCH   8  11
ATOM     11  C   UNL d   1       4.549  -2.407   1.055  0.00  0.00     0.071 A 
ATOM     12  C   UNL d   1       4.316  -1.135   0.525  0.00  0.00     0.135 A 
ATOM     13  C   UNL d   1       5.175  -0.072   0.800  0.00  0.00     0.085 A 
ATOM     14  F   UNL d   1       3.253  -0.898  -0.259  0.00  0.00    -0.205 F 
ATOM     15  C   UNL d   1       6.282  -0.285   1.610  0.00  0.00     0.119 A 
ATOM     16  C   UNL d   1       6.549  -1.540   2.141  0.00  0.00     0.043 A 
ATOM     17  F   UNL d   1       7.101   0.736   1.889  0.00  0.00    -0.206 F 
ATOM     18  C   UNL d   1       5.683  -2.600   1.865  0.00  0.00     0.023 A 
ENDBRANCH   8  11
ENDBRANCH   2   7
BRANCH   1  19
ATOM     19  N   UNL d   1      -2.173  -6.478  -0.264  0.00  0.00    -0.378 N 
ATOM     20  C   UNL d   1      -3.033  -6.558  -1.454  0.00  0.00     0.153 C 
ATOM     21  C   UNL d   1      -3.906  -7.840  -1.363  0.00  0.00     0.291 C 
ATOM     22  N   UNL d   1      -4.701  -7.930  -0.114  0.00  0.00     0.087 N 
ATOM     23  C   UNL d   1      -3.803  -7.777   1.055  0.00  0.00     0.291 C 
ATOM     24  C   UNL d   1      -5.400  -9.213  -0.041  0.00  0.00     0.310 C 
ATOM     25  C   UNL d   1      -2.958  -6.487   0.990  0.00  0.00     0.153 C 
ENDBRANCH   1  19
TORSDOF 3
