REMARK  6 active torsions:
REMARK  status: ('A' for Active; 'I' for Inactive)
REMARK    1  A    between atoms: C_5  and  C_1 
REMARK    2  A    between atoms: C_7  and  C_2 
REMARK    3  A    between atoms: O_12  and  C_7 
REMARK    4  A    between atoms: N_9  and  O_12 
REMARK    5  A    between atoms: C_13  and  C_11 
REMARK    6  A    between atoms: N_20  and  C_11 
ROOT
ATOM      1  O   UNL d   1       1.079   2.382   0.020  0.00  0.00    -0.193 OA
ENDROOT
BRANCH   1   2
ATOM      2  N   UNL d   1       2.444   2.724  -0.076  0.00  0.00    -0.246 N 
ATOM      3  C   UNL d   1       2.651   3.993   0.102  0.00  0.00     0.109 C 
ATOM      4  HN  UNL d   1       3.185   2.050  -0.264  1.00  0.00     0.196 HD
BRANCH   3   5
ATOM      5  C   UNL d   1       4.069   4.473   0.014  0.00  0.00     0.004 A 
ATOM      6  C   UNL d   1       4.998   3.751  -0.748  0.00  0.00     0.016 A 
ATOM      7  C   UNL d   1       6.324   4.182  -0.832  0.00  0.00     0.024 A 
ATOM      8  C   UNL d   1       6.723   5.329  -0.147  0.00  0.00     0.034 A 
ATOM      9  C   UNL d   1       5.806   6.049   0.620  0.00  0.00     0.024 A 
ATOM     10 CL   UNL d   1       8.357   5.857  -0.243  0.00  0.00    -0.084 Cl
ATOM     11  C   UNL d   1       4.477   5.622   0.701  0.00  0.00     0.016 A 
ENDBRANCH   3   5
BRANCH   3  12
ATOM     12  N   UNL d   1       1.654   4.910   0.339  0.00  0.00    -0.286 NA
ATOM     13  H   UNL d   1       0.731   4.555   0.123  0.00  0.00     0.125 HD
ATOM     14  H   UNL d   1       1.808   5.839  -0.044  0.00  0.00     0.125 HD
ENDBRANCH   3  12
ENDBRANCH   1   2
BRANCH   1  15
ATOM     15  C   UNL d   1       0.935   1.021  -0.149  0.00  0.00     0.324 C 
ATOM     16  O   UNL d   1       1.843   0.212  -0.303  0.00  0.00    -0.257 OA
BRANCH  15  17
ATOM     17  C   UNL d   1      -0.464   0.656  -0.169  0.00  0.00     0.115 A 
ATOM     18  C   UNL d   1      -1.065  -0.364  -0.895  0.00  0.00     0.140 A 
ATOM     19  N   UNL d   1      -2.431  -0.529  -0.612  0.00  0.00    -0.349 N 
ATOM     20  C   UNL d   1      -2.824   0.330   0.297  0.00  0.00     0.048 A 
ATOM     21  HN  UNL d   1      -3.035  -1.223  -1.054  1.00  0.00     0.166 HD
ATOM     22  C   UNL d   1      -4.201   0.378   0.862  0.00  0.00     0.076 C 
ATOM     23  S   UNL d   1      -1.624   1.434   0.832  0.00  0.00    -0.069 SA
BRANCH  18  24
ATOM     24  C   UNL d   1      -0.405  -1.257  -1.913  0.00  0.00     0.434 C 
ATOM     25  F   UNL d   1       0.708  -0.707  -2.461  0.00  0.00    -0.165 F 
ATOM     26  F   UNL d   1      -0.051  -2.456  -1.386  0.00  0.00    -0.165 F 
ATOM     27  F   UNL d   1      -1.236  -1.519  -2.961  0.00  0.00    -0.165 F 
ENDBRANCH  18  24
ENDBRANCH  15  17
ENDBRANCH   1  15
TORSDOF 6
