REMARK  5 active torsions:
REMARK  status: ('A' for Active; 'I' for Inactive)
REMARK    1  A    between atoms: C_2  and  C_1 
REMARK       I    between atoms: N_8  and  C_1 
REMARK       I    between atoms: N_3  and  C_2 
REMARK    2  A    between atoms: C_4  and  N_3 
REMARK    3  A    between atoms: O_14  and  C_7 
REMARK    4  A    between atoms: N_12  and  N_8 
REMARK    5  A    between atoms: O_15  and  C_11 
ROOT
ATOM      1  C   UNL d   1       0.451   1.134   0.416  0.00  0.00     0.315 C 
ATOM      2  N   UNL d   1      -0.920   1.158   0.295  0.00  0.00    -0.316 N 
ATOM      3  O   UNL d   1       1.211   0.178   0.309  0.00  0.00    -0.262 OA
ATOM      4  H   UNL d   1      -1.358   2.076   0.268  0.00  0.00     0.169 HD
ENDROOT
BRANCH   2   5
ATOM      5  C   UNL d   1      -1.732   0.036   0.031  0.00  0.00     0.071 A 
ATOM      6  C   UNL d   1      -1.347  -1.239   0.474  0.00  0.00     0.069 A 
ATOM      7  C   UNL d   1      -2.169  -2.349   0.275  0.00  0.00     0.070 A 
ATOM      8  C   UNL d   1      -3.372  -2.190  -0.411  0.00  0.00     0.039 A 
ATOM      9  C   UNL d   1      -3.774  -0.926  -0.851  0.00  0.00     0.042 A 
ATOM     10  C   UNL d   1      -2.961   0.190  -0.629  0.00  0.00     0.095 A 
BRANCH   7  11
ATOM     11  O   UNL d   1      -1.905  -3.620   0.711  0.00  0.00    -0.356 OA
ATOM     12  C   UNL d   1      -0.849  -3.757   1.658  0.00  0.00     0.210 C 
ENDBRANCH   7  11
BRANCH  10  13
ATOM     13  O   UNL d   1      -3.473   1.390  -1.050  0.00  0.00    -0.354 OA
ATOM     14  C   UNL d   1      -2.637   2.114  -1.953  0.00  0.00     0.210 C 
ENDBRANCH  10  13
ENDBRANCH   2   5
BRANCH   1  15
ATOM     15  C   UNL d   1       1.066   2.526   0.625  0.00  0.00     0.323 C 
ATOM     16  O   UNL d   1       0.352   3.496   0.851  0.00  0.00    -0.261 OA
ATOM     17  N   UNL d   1       2.448   2.527   0.513  0.00  0.00    -0.286 N 
ATOM     18  H   UNL d   1       2.911   1.626   0.372  0.00  0.00     0.184 HD
BRANCH  17  19
ATOM     19  N   UNL d   1       3.200   3.674   0.830  0.00  0.00    -0.247 NA
ATOM     20  H   UNL d   1       2.629   4.264   1.447  0.00  0.00     0.143 HD
ATOM     21  H   UNL d   1       3.310   4.230  -0.023  0.00  0.00     0.143 HD
ENDBRANCH  17  19
ENDBRANCH   1  15
TORSDOF 5
