REMARK  8 active torsions:
REMARK  status: ('A' for Active; 'I' for Inactive)
REMARK    1  A    between atoms: C_22  and  C_1 
REMARK    2  A    between atoms: C_7  and  N_13 
REMARK    3  A    between atoms: N_8  and  C_7 
REMARK    4  A    between atoms: C_9  and  N_8 
REMARK    5  A    between atoms: C_10  and  C_23 
REMARK       I    between atoms: N_15  and  C_10 
REMARK    6  A    between atoms: N_13  and  N_15 
REMARK    7  A    between atoms: S_21  and  C_22 
REMARK    8  A    between atoms: C_23  and  S_21 
ROOT
ATOM      1  C   UNL d   1      -3.971   5.555  -0.357  0.00  0.00     0.245 C 
ATOM      2  N   UNL d   1      -3.493   6.519   0.515  0.00  0.00    -0.267 N 
ATOM      3  O   UNL d   1      -4.520   5.840  -1.421  0.00  0.00    -0.271 OA
ATOM      4  H   UNL d   1      -2.903   6.300   1.313  0.00  0.00     0.190 HD
ENDROOT
BRANCH   1   5
ATOM      5  C   UNL d   1      -3.779   4.128   0.133  0.00  0.00     0.178 C 
BRANCH   5   6
ATOM      6  S   UNL d   1      -2.519   3.270  -0.866  0.00  0.00    -0.155 SA
BRANCH   6   7
ATOM      7  C   UNL d   1      -2.498   1.678   0.030  0.00  0.00     0.114 C 
BRANCH   7   8
ATOM      8  C   UNL d   1      -1.544   0.635  -0.557  0.00  0.00    -0.036 C 
ATOM      9  C   UNL d   1      -0.139   0.856  -0.548  0.00  0.00    -0.048 C 
ATOM     10  C   UNL d   1       0.729  -0.067  -1.189  0.00  0.00    -0.049 C 
ATOM     11  C   UNL d   1       0.456   2.075   0.125  0.00  0.00     0.049 C 
ATOM     12  C   UNL d   1       2.201   0.247  -1.356  0.00  0.00     0.049 C 
ATOM     13  C   UNL d   1       0.231  -1.319  -1.627  0.00  0.00    -0.049 C 
ATOM     14  C   UNL d   1      -1.149  -1.617  -1.494  0.00  0.00    -0.049 C 
ATOM     15  C   UNL d   1       1.203  -2.325  -2.213  0.00  0.00     0.049 C 
ATOM     16  C   UNL d   1      -2.049  -0.606  -1.055  0.00  0.00    -0.048 C 
ATOM     17  C   UNL d   1      -1.629  -3.010  -1.839  0.00  0.00     0.049 C 
ATOM     18  C   UNL d   1      -3.543  -0.848  -1.065  0.00  0.00     0.049 C 
ENDBRANCH   7   8
ENDBRANCH   6   7
ENDBRANCH   5   6
ENDBRANCH   1   5
BRANCH   2  19
ATOM     19  N   UNL d   1      -3.493   7.858   0.096  0.00  0.00    -0.274 N 
ATOM     20  H   UNL d   1      -3.788   8.011  -0.864  0.00  0.00     0.189 HD
BRANCH  19  21
ATOM     21  C   UNL d   1      -3.332   8.886   0.972  0.00  0.00     0.186 C 
ATOM     22  S   UNL d   1      -3.225   8.707   2.636  0.00  0.00    -0.040 SA
BRANCH  21  23
ATOM     23  N   UNL d   1      -3.205  10.145   0.479  0.00  0.00    -0.361 N 
ATOM     24  H   UNL d   1      -3.080  10.812   1.234  0.00  0.00     0.162 HD
BRANCH  23  25
ATOM     25  C   UNL d   1      -2.842  10.669  -0.833  0.00  0.00     0.092 C 
ATOM     26  C   UNL d   1      -1.433  10.297  -1.382  0.00  0.00     0.031 C 
ATOM     27  C   UNL d   1      -1.373   8.843  -1.789  0.00  0.00    -0.024 C 
ATOM     28  C   UNL d   1      -1.552  10.902  -2.788  0.00  0.00     0.019 C 
ATOM     29  C   UNL d   1      -2.180   8.687  -2.846  0.00  0.00    -0.026 C 
ATOM     30  C   UNL d   1      -2.768  10.042  -3.164  0.00  0.00     0.010 C 
ATOM     31  C   UNL d   1      -3.778  10.398  -2.044  0.00  0.00     0.034 C 
ENDBRANCH  23  25
ENDBRANCH  21  23
ENDBRANCH  19  21
ENDBRANCH   2  19
TORSDOF 8
