REMARK  2 active torsions:
REMARK  status: ('A' for Active; 'I' for Inactive)
REMARK    1  A    between atoms: C_6  and  C_1 
REMARK       I    between atoms: N_8  and  C_6 
REMARK    2  A    between atoms: C_13  and  N_8 
ROOT
ATOM      1  C   UNL d   1      -2.592   0.123   0.391  0.00  0.00     0.102 C 
ATOM      2  N   UNL d   1      -1.965   1.164   1.050  0.00  0.00    -0.351 N 
ATOM      3  C   UNL d   1      -1.579  -0.709  -0.051  0.00  0.00     0.049 C 
ATOM      4  C   UNL d   1      -0.602   1.119   0.853  0.00  0.00     0.044 A 
ATOM      5  C   UNL d   1      -0.341  -0.028   0.106  0.00  0.00    -0.001 A 
ATOM      6  C   UNL d   1       0.966  -0.269  -0.372  0.00  0.00    -0.049 A 
ATOM      7  C   UNL d   1       0.403   2.020   1.231  0.00  0.00     0.037 A 
ATOM      8  C   UNL d   1       1.975   0.641  -0.005  0.00  0.00     0.014 A 
ATOM      9  C   UNL d   1       1.712   1.761   0.793  0.00  0.00    -0.059 A 
ATOM     10  C   UNL d   1       1.306  -1.383  -1.323  0.00  0.00     0.049 C 
ATOM     11  C   UNL d   1       2.839   2.698   1.123  0.00  0.00     0.048 C 
ATOM     12  H   UNL d   1      -2.465   1.924   1.493  0.00  0.00     0.166 HD
ENDROOT
BRANCH   1  13
ATOM     13  C   UNL d   1      -4.023   0.067   0.188  0.00  0.00     0.268 C 
ATOM     14  N   UNL d   1      -4.452  -1.001  -0.564  0.00  0.00    -0.351 N 
ATOM     15  H   UNL d   1      -3.823  -1.789  -0.605  0.00  0.00     0.163 HD
ATOM     16  O   UNL d   1      -4.781   0.933   0.626  0.00  0.00    -0.266 OA
BRANCH  14  17
ATOM     17  C   UNL d   1      -5.847  -1.248  -0.913  0.00  0.00     0.084 C 
ATOM     18  C   UNL d   1      -5.992  -2.667  -1.482  0.00  0.00     0.025 C 
ATOM     19  C   UNL d   1      -5.450  -2.768  -2.907  0.00  0.00     0.002 C 
ATOM     20  C   UNL d   1      -6.254  -1.859  -3.824  0.00  0.00     0.000 C 
ATOM     21  C   UNL d   1      -6.163  -0.407  -3.369  0.00  0.00     0.002 C 
ATOM     22  C   UNL d   1      -6.441  -0.197  -1.875  0.00  0.00     0.025 C 
ENDBRANCH  14  17
ENDBRANCH   1  13
TORSDOF 2
