REMARK  6 active torsions:
REMARK  status: ('A' for Active; 'I' for Inactive)
REMARK    1  A    between atoms: C_9  and  C_1 
REMARK    2  A    between atoms: C_7  and  C_2 
REMARK    3  A    between atoms: N_10  and  C_5 
REMARK    4  A    between atoms: O_20  and  C_9 
REMARK    5  A    between atoms: C_13  and  N_10 
REMARK    6  A    between atoms: C_25  and  O_20 
ROOT
ATOM      1  C   UNL d   1      -1.581   1.393   0.144  0.00  0.00     0.072 A 
ATOM      2  C   UNL d   1      -2.222   0.167   0.023  0.00  0.00     0.134 A 
ATOM      3  N   UNL d   1      -1.492  -0.989  -0.056  0.00  0.00    -0.336 N 
ATOM      4  HN  UNL d   1      -1.982  -1.884  -0.088  1.00  0.00     0.167 HD
ATOM      5  C   UNL d   1      -0.142  -0.977  -0.092  0.00  0.00     0.127 A 
ATOM      6  C   UNL d   1       0.544   0.238  -0.050  0.00  0.00     0.089 A 
ATOM      7  C   UNL d   1      -0.183   1.423   0.095  0.00  0.00     0.046 A 
ATOM      8  C   UNL d   1       1.966   0.298  -0.156  0.00  0.00     0.103 C 
ATOM      9  N   UNL d   1       3.126   0.350  -0.225  0.00  0.00    -0.191 NA
ENDROOT
BRANCH   5  10
ATOM     10  N   UNL d   1       0.554  -2.200  -0.232  0.00  0.00    -0.341 N 
ATOM     11  H   UNL d   1       1.365  -2.238   0.379  0.00  0.00     0.167 HD
BRANCH  10  12
ATOM     12  C   UNL d   1       0.014  -3.493  -0.445  0.00  0.00     0.035 A 
ATOM     13  C   UNL d   1      -1.217  -3.714  -1.077  0.00  0.00     0.053 A 
ATOM     14  C   UNL d   1      -1.700  -5.008  -1.274  0.00  0.00     0.036 A 
ATOM     15 CL   UNL d   1      -3.239  -5.241  -2.011  0.00  0.00    -0.084 Cl
ATOM     16  C   UNL d   1      -0.947  -6.110  -0.885  0.00  0.00     0.024 A 
ATOM     17  C   UNL d   1       0.304  -5.913  -0.305  0.00  0.00     0.004 A 
ATOM     18  C   UNL d   1       0.782  -4.616  -0.096  0.00  0.00     0.029 A 
ENDBRANCH  10  12
ENDBRANCH   5  10
BRANCH   1  19
ATOM     19  C   UNL d   1      -2.328   2.646   0.323  0.00  0.00     0.295 C 
ATOM     20  O   UNL d   1      -3.288   2.760   1.058  0.00  0.00    -0.259 OA
BRANCH  19  21
ATOM     21  O   UNL d   1      -1.787   3.571  -0.499  0.00  0.00    -0.318 OA
BRANCH  21  22
ATOM     22  C   UNL d   1      -2.549   4.771  -0.702  0.00  0.00     0.174 C 
ATOM     23  C   UNL d   1      -3.235   4.649  -2.049  0.00  0.00     0.034 C 
ENDBRANCH  21  22
ENDBRANCH  19  21
ENDBRANCH   1  19
BRANCH   2  24
ATOM     24  C   UNL d   1      -3.731   0.014  -0.117  0.00  0.00     0.433 C 
ATOM     25  F   UNL d   1      -4.400   1.134  -0.499  0.00  0.00    -0.165 F 
ATOM     26  F   UNL d   1      -4.049  -0.905  -1.083  0.00  0.00    -0.165 F 
ATOM     27  F   UNL d   1      -4.330  -0.433   1.022  0.00  0.00    -0.165 F 
ENDBRANCH   2  24
TORSDOF 6
