REMARK  2 active torsions:
REMARK  status: ('A' for Active; 'I' for Inactive)
REMARK    1  A    between atoms: C_6  and  C_1 
REMARK    2  A    between atoms: N_11  and  C_10 
ROOT
ATOM      1  C   UNL d   1       2.172  -1.576   0.033  0.00  0.00    -0.005 C 
ATOM      2  C   UNL d   1       2.498  -2.333  -1.108  0.00  0.00     0.037 C 
ATOM      3  C   UNL d   1       3.614  -3.177  -1.142  0.00  0.00     0.006 C 
ATOM      4  C   UNL d   1       3.044  -1.643   1.127  0.00  0.00     0.014 C 
ATOM      5  C   UNL d   1       4.224  -2.389   1.059  0.00  0.00     0.003 C 
ATOM      6  C   UNL d   1       4.513  -3.138  -0.079  0.00  0.00     0.023 C 
ENDROOT
BRANCH   1   7
ATOM      7  C   UNL d   1       0.942  -0.763   0.061  0.00  0.00     0.079 A 
ATOM      8  N   UNL d   1       0.815   0.504   0.617  0.00  0.00    -0.295 N 
ATOM      9  N   UNL d   1      -0.420   1.039   0.494  0.00  0.00    -0.308 N 
ATOM     10  C   UNL d   1       1.823   1.310   1.266  0.00  0.00     0.178 C 
ATOM     11  C   UNL d   1      -1.110   0.108  -0.159  0.00  0.00     0.129 A 
ATOM     12  HN  UNL d   1      -0.747   1.947   0.825  1.00  0.00     0.186 HD
ATOM     13  C   UNL d   1      -0.326  -1.016  -0.438  0.00  0.00     0.057 A 
ATOM     14 BR   UNL d   1      -1.013  -2.530  -1.306  0.00  0.00    -0.047 Br
ENDBRANCH   1   7
BRANCH   3  15
ATOM     15  N   UNL d   1       3.935  -3.878  -2.313  0.00  0.00    -0.303 NA
ATOM     16  H   UNL d   1       3.118  -4.134  -2.861  0.00  0.00     0.124 HD
ATOM     17  H   UNL d   1       4.540  -4.677  -2.149  0.00  0.00     0.124 HD
ENDBRANCH   3  15
TORSDOF 2
