REMARK  6 active torsions:
REMARK  status: ('A' for Active; 'I' for Inactive)
REMARK    1  A    between atoms: C_3  and  C_1 
REMARK    2  A    between atoms: O_10  and  C_3 
REMARK    3  A    between atoms: C_6  and  C_4 
REMARK    4  A    between atoms: C_11  and  C_7 
REMARK    5  A    between atoms: C_12  and  C_11 
REMARK    6  A    between atoms: C_13  and  C_12 
ROOT
ATOM      1  C   UNL d   1      -0.332  -1.073   0.003  0.00  0.00     0.150 A 
ATOM      2  O   UNL d   1       0.983  -0.664  -0.004  0.00  0.00    -0.295 OA
ATOM      3  C   UNL d   1       0.963   0.696  -0.011  0.00  0.00     0.129 A 
ATOM      4  C   UNL d   1      -1.163   0.031  -0.001  0.00  0.00     0.048 A 
ATOM      5  C   UNL d   1      -0.326   1.171  -0.009  0.00  0.00     0.050 A 
ENDROOT
BRANCH   3   6
ATOM      6  C   UNL d   1       2.196   1.393  -0.017  0.00  0.00    -0.041 C 
ATOM      7  C   UNL d   1       3.182   2.082  -0.019  0.00  0.00    -0.099 C 
BRANCH   7   8
ATOM      8  C   UNL d   1       4.326   3.005  -0.003  0.00  0.00     0.094 C 
BRANCH   8   9
ATOM      9  C   UNL d   1       4.596   3.634  -1.373  0.00  0.00     0.012 C 
BRANCH   9  10
ATOM     10  C   UNL d   1       3.448   4.515  -1.876  0.00  0.00    -0.004 C 
ATOM     11  C   UNL d   1       3.772   5.133  -3.228  0.00  0.00     0.005 C 
ENDBRANCH   9  10
ENDBRANCH   8   9
ENDBRANCH   7   8
ENDBRANCH   3   6
BRANCH   1  12
ATOM     12  C   UNL d   1      -0.639  -2.483   0.012  0.00  0.00     0.201 C 
ATOM     13  O   UNL d   1      -1.759  -2.973   0.015  0.00  0.00    -0.645 OA
BRANCH  12  14
ATOM     14  O   UNL d   1       0.491  -3.238   0.018  0.00  0.00    -0.771 OA
ATOM     15  H   UNL d   1       1.280  -2.657   0.015  0.00  0.00     0.167 HD
ENDBRANCH  12  14
ENDBRANCH   1  12
TORSDOF 6
