REMARK  8 active torsions:
REMARK  status: ('A' for Active; 'I' for Inactive)
REMARK    1  A    between atoms: C_8  and  C_1 
REMARK    2  A    between atoms: C_7  and  C_2 
REMARK    3  A    between atoms: C_9  and  C_3 
REMARK    4  A    between atoms: O_14  and  C_7 
REMARK    5  A    between atoms: O_15  and  C_8 
REMARK    6  A    between atoms: C_23  and  O_14 
REMARK    7  A    between atoms: C_22  and  O_15 
REMARK    8  A    between atoms: O_21  and  C_18 
ROOT
ATOM      1  C   UNL d   1      -1.286  -0.970   0.128  0.00  0.00     0.052 C 
ATOM      2  C   UNL d   1       1.279  -0.996   0.107  0.00  0.00     0.052 C 
ATOM      3  C   UNL d   1      -0.007  -1.804  -0.073  0.00  0.00     0.100 C 
ATOM      4  C   UNL d   1      -1.222   0.383   0.091  0.00  0.00     0.018 C 
ATOM      5  C   UNL d   1       1.238   0.357   0.078  0.00  0.00     0.018 C 
ATOM      6  N   UNL d   1       0.018   0.999  -0.040  0.00  0.00    -0.362 N 
ATOM      7  C   UNL d   1      -2.360   1.372   0.185  0.00  0.00     0.069 C 
ATOM      8  C   UNL d   1       2.450   1.250   0.156  0.00  0.00     0.069 C 
ATOM      9  H   UNL d   1       0.029   2.017  -0.025  0.00  0.00     0.165 HD
ENDROOT
BRANCH   3  10
ATOM     10  C   UNL d   1      -0.026  -2.462  -1.467  0.00  0.00    -0.044 A 
ATOM     11  C   UNL d   1      -0.127  -3.855  -1.601  0.00  0.00     0.011 A 
ATOM     12  C   UNL d   1      -0.130  -4.447  -2.866  0.00  0.00     0.037 A 
ATOM     13  C   UNL d   1      -0.043  -3.653  -4.003  0.00  0.00     0.065 A 
ATOM     14  C   UNL d   1       0.043  -2.271  -3.900  0.00  0.00     0.037 A 
ATOM     15  C   UNL d   1       0.050  -1.679  -2.636  0.00  0.00     0.011 A 
BRANCH  13  16
ATOM     16  O   UNL d   1      -0.047  -4.273  -5.219  0.00  0.00    -0.361 OA
ATOM     17  H   UNL d   1       0.034  -3.595  -5.909  0.00  0.00     0.217 HD
ENDBRANCH  13  16
ENDBRANCH   3  10
BRANCH   2  18
ATOM     18  C   UNL d   1       2.563  -1.735   0.229  0.00  0.00     0.292 C 
ATOM     19  O   UNL d   1       3.661  -1.271  -0.044  0.00  0.00    -0.259 OA
BRANCH  18  20
ATOM     20  O   UNL d   1       2.341  -3.007   0.646  0.00  0.00    -0.318 OA
BRANCH  20  21
ATOM     21  C   UNL d   1       3.463  -3.894   0.524  0.00  0.00     0.174 C 
ATOM     22  C   UNL d   1       3.454  -4.503  -0.866  0.00  0.00     0.034 C 
ENDBRANCH  20  21
ENDBRANCH  18  20
ENDBRANCH   2  18
BRANCH   1  23
ATOM     23  C   UNL d   1      -2.494  -1.825   0.316  0.00  0.00     0.292 C 
ATOM     24  O   UNL d   1      -2.443  -2.997   0.671  0.00  0.00    -0.259 OA
BRANCH  23  25
ATOM     25  O   UNL d   1      -3.615  -1.171  -0.048  0.00  0.00    -0.318 OA
BRANCH  25  26
ATOM     26  C   UNL d   1      -4.794  -1.961  -0.239  0.00  0.00     0.174 C 
ATOM     27  C   UNL d   1      -4.852  -2.331  -1.707  0.00  0.00     0.034 C 
ENDBRANCH  25  26
ENDBRANCH  23  25
ENDBRANCH   1  23
TORSDOF 8
