REMARK  7 active torsions:
REMARK  status: ('A' for Active; 'I' for Inactive)
REMARK    1  A    between atoms: C_2  and  C_1 
REMARK    2  A    between atoms: N_13  and  C_3 
REMARK    3  A    between atoms: C_14  and  C_6 
REMARK    4  A    between atoms: C_7  and  C_18 
REMARK    5  A    between atoms: N_11  and  N_13 
REMARK    6  A    between atoms: O_22  and  C_14 
REMARK    7  A    between atoms: C_21  and  C_19 
ROOT
ATOM      1  N   UNL d   1      -1.353   5.587  -5.584  0.00  0.00    -0.309 N 
ATOM      2  HN  UNL d   1      -1.983   6.331  -5.883  1.00  0.00     0.186 HD
ATOM      3  C   UNL d   1      -0.215   5.864  -5.041  0.00  0.00     0.118 C 
ENDROOT
BRANCH   1   4
ATOM      4  N   UNL d   1      -1.689   4.300  -5.746  0.00  0.00    -0.284 N 
ATOM      5  H   UNL d   1      -1.061   3.517  -5.588  0.00  0.00     0.188 HD
BRANCH   4   6
ATOM      6  C   UNL d   1      -2.922   3.921  -6.287  0.00  0.00     0.141 A 
ATOM      7  N   UNL d   1      -3.061   2.576  -6.454  0.00  0.00    -0.349 N 
ATOM      8  C   UNL d   1      -4.230   2.095  -6.944  0.00  0.00     0.106 A 
ATOM      9  HN  UNL d   1      -2.298   1.942  -6.215  1.00  0.00     0.167 HD
ATOM     10  C   UNL d   1      -5.310   2.886  -7.291  0.00  0.00     0.065 A 
ATOM     11  C   UNL d   1      -5.164   4.261  -7.134  0.00  0.00     0.045 A 
ATOM     12  C   UNL d   1      -3.972   4.793  -6.629  0.00  0.00     0.080 A 
ATOM     13 CL   UNL d   1      -3.958   6.514  -6.475  0.00  0.00    -0.080 Cl
BRANCH  10  14
ATOM     14  C   UNL d   1      -6.574   2.274  -7.805  0.00  0.00     0.418 C 
ATOM     15  F   UNL d   1      -7.558   3.186  -8.042  0.00  0.00    -0.166 F 
ATOM     16  F   UNL d   1      -7.105   1.372  -6.937  0.00  0.00    -0.166 F 
ATOM     17  F   UNL d   1      -6.393   1.609  -8.977  0.00  0.00    -0.166 F 
ENDBRANCH  10  14
ENDBRANCH   4   6
ENDBRANCH   1   4
BRANCH   3  18
ATOM     18  C   UNL d   1       0.163   7.280  -4.839  0.00  0.00    -0.019 A 
ATOM     19  C   UNL d   1      -0.720   8.290  -5.245  0.00  0.00     0.014 A 
ATOM     20  C   UNL d   1      -0.389   9.630  -5.071  0.00  0.00     0.021 A 
ATOM     21  C   UNL d   1       0.831   9.972  -4.491  0.00  0.00     0.017 A 
ATOM     22  C   UNL d   1       1.715   8.969  -4.077  0.00  0.00     0.021 A 
ATOM     23  C   UNL d   1       1.383   7.617  -4.250  0.00  0.00     0.014 A 
BRANCH  21  24
ATOM     24  C   UNL d   1       1.158  11.355  -4.341  0.00  0.00    -0.064 C 
ATOM     25  C   UNL d   1       1.383  12.530  -4.253  0.00  0.00    -0.064 C 
BRANCH  25  26
ATOM     26  C   UNL d   1       1.649  13.975  -4.165  0.00  0.00     0.114 C 
ATOM     27  C   UNL d   1       2.590  14.267  -2.998  0.00  0.00     0.060 C 
ATOM     28  C   UNL d   1       0.348  14.760  -4.021  0.00  0.00     0.060 C 
BRANCH  26  29
ATOM     29  O   UNL d   1       2.280  14.406  -5.369  0.00  0.00    -0.378 OA
ATOM     30  H   UNL d   1       3.006  13.785  -5.549  0.00  0.00     0.211 HD
ENDBRANCH  26  29
ENDBRANCH  25  26
ENDBRANCH  21  24
ENDBRANCH   3  18
TORSDOF 7
