REMARK  7 active torsions:
REMARK  status: ('A' for Active; 'I' for Inactive)
REMARK    1  A    between atoms: C_7  and  C_1 
REMARK    2  A    between atoms: C_13  and  N_4 
REMARK    3  A    between atoms: S_15  and  C_5 
REMARK    4  A    between atoms: N_8  and  C_7 
REMARK    5  A    between atoms: O_12  and  N_8 
REMARK    6  A    between atoms: C_10  and  O_12 
REMARK       I    between atoms: N_11  and  C_10 
REMARK    7  A    between atoms: C_17  and  N_11 
ROOT
ATOM      1  C   UNL d   1      -0.840   2.571  -0.277  0.00  0.00     0.134 C 
ATOM      2  N   UNL d   1      -0.026   3.547  -0.778  0.00  0.00    -0.383 N 
ATOM      3  H   UNL d   1      -0.361   4.505  -0.777  0.00  0.00     0.157 HD
ATOM      4  H   UNL d   1       0.952   3.449  -0.532  0.00  0.00     0.157 HD
ENDROOT
BRANCH   1   5
ATOM      5  C   UNL d   1      -2.261   2.888  -0.320  0.00  0.00     0.061 A 
ATOM      6  C   UNL d   1      -2.958   4.066  -0.709  0.00  0.00     0.100 A 
ATOM      7  N   UNL d   1      -4.278   3.942  -0.631  0.00  0.00    -0.287 N 
ATOM      8  N   UNL d   1      -4.488   2.681  -0.195  0.00  0.00    -0.266 N 
ATOM      9  HN  UNL d   1      -4.982   4.646  -0.853  1.00  0.00     0.188 HD
ATOM     10  C   UNL d   1      -3.294   2.030   0.035  0.00  0.00     0.135 A 
BRANCH   6  11
ATOM     11  S   UNL d   1      -2.266   5.592  -1.235  0.00  0.00    -0.114 SA
ATOM     12  C   UNL d   1      -3.683   6.706  -1.087  0.00  0.00     0.097 C 
ENDBRANCH   6  11
BRANCH   8  13
ATOM     13  C   UNL d   1      -5.819   2.203  -0.034  0.00  0.00     0.056 A 
ATOM     14  C   UNL d   1      -6.082   0.904   0.418  0.00  0.00     0.031 A 
ATOM     15  C   UNL d   1      -7.405   0.469   0.552  0.00  0.00     0.002 A 
ATOM     16  C   UNL d   1      -8.466   1.319   0.237  0.00  0.00     0.000 A 
ATOM     17  C   UNL d   1      -8.211   2.611  -0.212  0.00  0.00     0.002 A 
ATOM     18  C   UNL d   1      -6.895   3.053  -0.347  0.00  0.00     0.031 A 
ENDBRANCH   8  13
ENDBRANCH   1   5
BRANCH   1  19
ATOM     19  N   UNL d   1      -0.422   1.431   0.198  0.00  0.00    -0.239 N 
ATOM     20  HN  UNL d   1      -0.999   0.687   0.592  1.00  0.00     0.196 HD
BRANCH  19  21
ATOM     21  O   UNL d   1       0.994   1.424   0.060  0.00  0.00    -0.179 OA
BRANCH  21  22
ATOM     22  C   UNL d   1       1.633   0.264   0.437  0.00  0.00     0.387 C 
ATOM     23  N   UNL d   1       0.827  -0.672   1.036  0.00  0.00    -0.301 N 
ATOM     24  H   UNL d   1      -0.138  -0.372   1.107  0.00  0.00     0.171 HD
ATOM     25  O   UNL d   1       2.841   0.172   0.242  0.00  0.00    -0.236 OA
BRANCH  23  26
ATOM     26  C   UNL d   1       1.213  -1.929   1.548  0.00  0.00     0.036 A 
ATOM     27  C   UNL d   1       2.519  -2.428   1.469  0.00  0.00     0.029 A 
ATOM     28  C   UNL d   1       2.844  -3.684   1.993  0.00  0.00     0.002 A 
ATOM     29  C   UNL d   1       1.864  -4.458   2.604  0.00  0.00     0.000 A 
ATOM     30  C   UNL d   1       0.562  -3.973   2.693  0.00  0.00     0.002 A 
ATOM     31  C   UNL d   1       0.237  -2.717   2.168  0.00  0.00     0.029 A 
ENDBRANCH  23  26
ENDBRANCH  21  22
ENDBRANCH  19  21
ENDBRANCH   1  19
TORSDOF 7
