REMARK  12 active torsions:
REMARK  status: ('A' for Active; 'I' for Inactive)
REMARK    1  A    between atoms: O_4  and  N_1 
REMARK    2  A    between atoms: C_5  and  O_4 
REMARK    3  A    between atoms: C_11  and  C_5 
REMARK    4  A    between atoms: C_12  and  C_11 
REMARK    5  A    between atoms: C_19  and  C_12 
REMARK    6  A    between atoms: C_13  and  C_14 
REMARK    7  A    between atoms: C_14  and  C_18 
REMARK    8  A    between atoms: C_15  and  C_20 
REMARK    9  A    between atoms: C_16  and  C_15 
REMARK   10  A    between atoms: C_17  and  C_16 
REMARK   11  A    between atoms: C_18  and  C_17 
REMARK   12  A    between atoms: C_20  and  C_19 
ROOT
ATOM      1  C   UNL d   1      -1.202   4.342  -0.317  0.00  0.00     0.113 C 
ENDROOT
BRANCH   1   2
ATOM      2  C   UNL d   1      -1.307   2.845  -0.087  0.00  0.00     0.282 C 
ATOM      3  O   UNL d   1      -2.215   2.117  -0.470  0.00  0.00    -0.263 OA
BRANCH   2   4
ATOM      4  O   UNL d   1      -0.264   2.459   0.700  0.00  0.00    -0.187 OA
BRANCH   4   5
ATOM      5  N   UNL d   1      -0.647   1.502   1.641  0.00  0.00    -0.145 N 
ATOM      6  C   UNL d   1       0.173   0.464   1.930  0.00  0.00     0.251 C 
ATOM      7  C   UNL d   1      -0.279  -0.112   3.245  0.00  0.00     0.115 C 
ATOM      8  O   UNL d   1       1.172   0.098   1.329  0.00  0.00    -0.271 OA
ATOM      9  C   UNL d   1      -1.432   0.781   3.687  0.00  0.00     0.115 C 
ATOM     10  C   UNL d   1      -1.448   1.883   2.672  0.00  0.00     0.251 C 
ATOM     11  O   UNL d   1      -2.034   2.946   2.809  0.00  0.00    -0.271 OA
ENDBRANCH   4   5
ENDBRANCH   2   4
ENDBRANCH   1   2
BRANCH   1  12
ATOM     12  C   UNL d   1      -2.594   4.956  -0.343  0.00  0.00     0.010 C 
BRANCH  12  13
ATOM     13  C   UNL d   1      -2.565   6.480  -0.421  0.00  0.00     0.000 C 
BRANCH  13  14
ATOM     14  C   UNL d   1      -3.995   7.018  -0.454  0.00  0.00     0.000 C 
BRANCH  14  15
ATOM     15  C   UNL d   1      -4.032   8.538  -0.555  0.00  0.00     0.000 C 
BRANCH  15  16
ATOM     16  C   UNL d   1      -5.474   9.043  -0.596  0.00  0.00     0.000 C 
BRANCH  16  17
ATOM     17  C   UNL d   1      -5.511  10.564  -0.702  0.00  0.00     0.000 C 
BRANCH  17  18
ATOM     18  C   UNL d   1      -6.946  11.085  -0.742  0.00  0.00     0.000 C 
BRANCH  18  19
ATOM     19  C   UNL d   1      -6.962  12.609  -0.850  0.00  0.00    -0.000 C 
BRANCH  19  20
ATOM     20  C   UNL d   1      -8.389  13.153  -0.890  0.00  0.00    -0.005 C 
ATOM     21  C   UNL d   1      -8.394  14.667  -0.998  0.00  0.00     0.005 C 
ENDBRANCH  19  20
ENDBRANCH  18  19
ENDBRANCH  17  18
ENDBRANCH  16  17
ENDBRANCH  15  16
ENDBRANCH  14  15
ENDBRANCH  13  14
ENDBRANCH  12  13
ENDBRANCH   1  12
TORSDOF 12
