REMARK  6 active torsions:
REMARK  status: ('A' for Active; 'I' for Inactive)
REMARK    1  A    between atoms: O_6  and  C_1 
REMARK    2  A    between atoms: C_13  and  N_2 
REMARK    3  A    between atoms: C_7  and  O_6 
REMARK    4  A    between atoms: C_10  and  C_7 
REMARK       I    between atoms: C_8  and  N_12 
REMARK    5  A    between atoms: C_11  and  C_8 
REMARK    6  A    between atoms: N_12  and  C_28 
ROOT
ATOM      1  C   UNL d   1       0.465   0.142   1.431  0.00  0.00     0.175 C 
ATOM      2  N   UNL d   1       0.817  -0.685   0.364  0.00  0.00    -0.234 N 
ATOM      3  N   UNL d   1      -0.145  -0.693  -0.596  0.00  0.00    -0.296 N 
ATOM      4  HN  UNL d   1      -0.197  -1.292  -1.420  1.00  0.00     0.187 HD
ATOM      5  C   UNL d   1      -0.648   0.837   1.009  0.00  0.00     0.084 C 
ATOM      6  C   UNL d   1      -1.008   0.257  -0.223  0.00  0.00     0.026 C 
ATOM      7  C   UNL d   1      -2.204   0.549  -1.048  0.00  0.00     0.070 C 
ENDROOT
BRANCH   2   8
ATOM      8  C   UNL d   1       1.990  -1.483   0.216  0.00  0.00     0.059 A 
ATOM      9  C   UNL d   1       2.006  -2.545  -0.697  0.00  0.00     0.034 A 
ATOM     10  C   UNL d   1       3.157  -3.334  -0.841  0.00  0.00     0.032 A 
ATOM     11  C   UNL d   1       4.316  -3.047  -0.109  0.00  0.00     0.035 A 
ATOM     12  C   UNL d   1       4.294  -1.984   0.790  0.00  0.00     0.032 A 
ATOM     13  C   UNL d   1       3.145  -1.206   0.952  0.00  0.00     0.034 A 
BRANCH  11  14
ATOM     14  N   UNL d   1       5.457  -3.848  -0.334  0.00  0.00    -0.323 N 
ATOM     15  C   UNL d   1       6.712  -3.674   0.230  0.00  0.00     0.256 C 
ATOM     16  O   UNL d   1       7.050  -2.812   1.031  0.00  0.00    -0.267 OA
ATOM     17  H   UNL d   1       5.319  -4.634  -0.955  0.00  0.00     0.169 HD
BRANCH  15  18
ATOM     18  C   UNL d   1       7.730  -4.686  -0.156  0.00  0.00     0.034 A 
ATOM     19  C   UNL d   1       7.774  -5.249  -1.436  0.00  0.00     0.042 A 
ATOM     20  C   UNL d   1       8.706  -6.254  -1.720  0.00  0.00     0.056 A 
ATOM     21 CL   UNL d   1       8.679  -6.939  -3.306  0.00  0.00    -0.083 Cl
ATOM     22  C   UNL d   1       9.606  -6.682  -0.734  0.00  0.00     0.055 A 
ATOM     23  C   UNL d   1       9.595  -6.077   0.525  0.00  0.00     0.026 A 
ATOM     24 CL   UNL d   1      10.741  -7.954  -1.004  0.00  0.00    -0.083 Cl
ATOM     25  C   UNL d   1       8.664  -5.078   0.811  0.00  0.00     0.019 A 
ENDBRANCH  15  18
ENDBRANCH  11  14
ENDBRANCH   2   8
BRANCH   1  26
ATOM     26  O   UNL d   1       1.139   0.100   2.569  0.00  0.00    -0.256 OA
BRANCH  26  27
ATOM     27  C   UNL d   1       0.752   0.750   3.683  0.00  0.00     0.299 C 
ATOM     28  O   UNL d   1      -0.179   1.519   3.833  0.00  0.00    -0.259 OA
BRANCH  27  29
ATOM     29  C   UNL d   1       1.736   0.440   4.754  0.00  0.00     0.041 A 
ATOM     30  C   UNL d   1       1.986   1.417   5.724  0.00  0.00     0.043 A 
ATOM     31  C   UNL d   1       2.962   1.200   6.702  0.00  0.00     0.056 A 
ATOM     32 CL   UNL d   1       3.254   2.470   7.837  0.00  0.00    -0.083 Cl
ATOM     33  C   UNL d   1       3.675  -0.005   6.728  0.00  0.00     0.055 A 
ATOM     34  C   UNL d   1       3.392  -1.000   5.787  0.00  0.00     0.026 A 
ATOM     35 CL   UNL d   1       4.923  -0.321   7.879  0.00  0.00    -0.083 Cl
ATOM     36  C   UNL d   1       2.423  -0.781   4.803  0.00  0.00     0.019 A 
ENDBRANCH  27  29
ENDBRANCH  26  27
ENDBRANCH   1  26
TORSDOF 6
