REMARK  4 active torsions:
REMARK  status: ('A' for Active; 'I' for Inactive)
REMARK    1  A    between atoms: C_7  and  C_3 
REMARK    2  A    between atoms: C_8  and  C_4 
REMARK    3  A    between atoms: C_11  and  C_8 
REMARK    4  A    between atoms: O_21  and  C_13 
ROOT
ATOM      1  N   UNL d   1       0.191  -0.337   0.946  0.00  0.00    -0.353 N 
ATOM      2  HN  UNL d   1       0.060  -0.668   1.902  1.00  0.00     0.166 HD
ATOM      3  C   UNL d   1       0.369   0.990   0.582  0.00  0.00     0.049 A 
ATOM      4  C   UNL d   1       0.217  -1.110  -0.122  0.00  0.00     0.055 A 
ATOM      5  S   UNL d   1       0.450  -0.291  -1.616  0.00  0.00    -0.086 SA
ATOM      6  C   UNL d   1       0.509   1.202  -0.774  0.00  0.00     0.081 A 
ENDROOT
BRANCH   4   7
ATOM      7  C   UNL d   1       0.024  -2.600  -0.093  0.00  0.00     0.103 C 
BRANCH   7   8
ATOM      8  C   UNL d   1       1.320  -3.373   0.009  0.00  0.00    -0.052 A 
ATOM      9  C   UNL d   1       2.160  -3.206   1.121  0.00  0.00     0.010 A 
ATOM     10  C   UNL d   1       3.372  -3.897   1.212  0.00  0.00     0.037 A 
ATOM     11  C   UNL d   1       3.761  -4.771   0.199  0.00  0.00     0.068 A 
ATOM     12  C   UNL d   1       2.914  -4.963  -0.896  0.00  0.00     0.037 A 
ATOM     13  C   UNL d   1       1.702  -4.274  -0.991  0.00  0.00     0.010 A 
BRANCH  11  14
ATOM     14  O   UNL d   1       4.928  -5.483   0.157  0.00  0.00    -0.356 OA
ATOM     15  C   UNL d   1       5.829  -5.289   1.240  0.00  0.00     0.210 C 
ENDBRANCH  11  14
ENDBRANCH   7   8
ENDBRANCH   4   7
BRANCH   3  16
ATOM     16  C   UNL d   1       0.347   2.054   1.581  0.00  0.00    -0.009 A 
ATOM     17  C   UNL d   1       1.033   3.262   1.392  0.00  0.00     0.015 A 
ATOM     18  C   UNL d   1       0.983   4.268   2.363  0.00  0.00     0.024 A 
ATOM     19  C   UNL d   1       0.251   4.068   3.532  0.00  0.00     0.034 A 
ATOM     20  C   UNL d   1      -0.429   2.870   3.738  0.00  0.00     0.024 A 
ATOM     21 CL   UNL d   1       0.188   5.305   4.724  0.00  0.00    -0.084 Cl
ATOM     22  C   UNL d   1      -0.377   1.865   2.768  0.00  0.00     0.015 A 
ENDBRANCH   3  16
TORSDOF 4
