REMARK  6 active torsions:
REMARK  status: ('A' for Active; 'I' for Inactive)
REMARK    1  A    between atoms: C_3  and  C_1 
REMARK       I    between atoms: C_2  and  N_5 
REMARK       I    between atoms: N_7  and  C_2 
REMARK       I    between atoms: N_6  and  C_3 
REMARK    2  A    between atoms: N_5  and  C_4 
REMARK    3  A    between atoms: C_17  and  N_6 
REMARK    4  A    between atoms: C_18  and  N_7 
REMARK    5  A    between atoms: C_8  and  C_17 
REMARK    6  A    between atoms: C_11  and  C_12 
ROOT
ATOM      1  C   UNL d   1       2.587  -2.309  -0.500  0.00  0.00     0.325 C 
ATOM      2  N   UNL d   1       1.227  -2.436  -0.472  0.00  0.00    -0.308 N 
ATOM      3  N   UNL d   1       3.163  -1.102  -0.657  0.00  0.00    -0.309 N 
ATOM      4  O   UNL d   1       3.390  -3.253  -0.500  0.00  0.00    -0.247 OA
ATOM      5  H   UNL d   1       0.697  -1.635  -0.808  0.00  0.00     0.170 HD
ATOM      6  H   UNL d   1       4.141  -1.267  -0.865  0.00  0.00     0.170 HD
ENDROOT
BRANCH   2   7
ATOM      7  C   UNL d   1       0.585  -3.700  -0.688  0.00  0.00     0.052 C 
ATOM      8  C   UNL d   1      -0.625  -3.790  -1.417  0.00  0.00     0.058 C 
ATOM      9  C   UNL d   1      -1.009  -5.044  -1.930  0.00  0.00     0.019 C 
ATOM     10  C   UNL d   1      -0.287  -6.200  -1.621  0.00  0.00     0.001 C 
ATOM     11  C   UNL d   1       0.790  -6.130  -0.752  0.00  0.00     0.002 C 
ATOM     12  C   UNL d   1       1.214  -4.889  -0.282  0.00  0.00     0.030 C 
BRANCH   8  13
ATOM     13  C   UNL d   1      -1.488  -2.575  -1.619  0.00  0.00     0.253 C 
ATOM     14  N   UNL d   1      -2.793  -2.769  -2.054  0.00  0.00    -0.356 N 
ATOM     15  H   UNL d   1      -3.152  -3.702  -2.168  0.00  0.00     0.162 HD
ATOM     16  O   UNL d   1      -1.052  -1.466  -1.319  0.00  0.00    -0.268 OA
BRANCH  14  17
ATOM     17  C   UNL d   1      -3.793  -1.744  -1.839  0.00  0.00     0.127 C 
BRANCH  17  18
ATOM     18  C   UNL d   1      -4.771  -1.583  -2.962  0.00  0.00     0.003 A 
ATOM     19  C   UNL d   1      -5.740  -2.686  -3.327  0.00  0.00     0.007 A 
ATOM     20  C   UNL d   1      -4.667  -2.280  -4.301  0.00  0.00     0.007 A 
ENDBRANCH  17  18
ENDBRANCH  14  17
ENDBRANCH   8  13
ENDBRANCH   2   7
BRANCH   3  21
ATOM     21  C   UNL d   1       2.805   0.245  -0.569  0.00  0.00     0.036 A 
ATOM     22  C   UNL d   1       1.630   0.755  -0.037  0.00  0.00     0.030 A 
ATOM     23  C   UNL d   1       1.467   2.150   0.090  0.00  0.00     0.010 A 
ATOM     24  C   UNL d   1       2.467   3.062  -0.312  0.00  0.00    -0.051 A 
ATOM     25  C   UNL d   1       3.635   2.518  -0.858  0.00  0.00     0.010 A 
ATOM     26  C   UNL d   1       3.797   1.139  -0.987  0.00  0.00     0.030 A 
BRANCH  24  27
ATOM     27  C   UNL d   1       2.357   4.582  -0.092  0.00  0.00    -0.024 C 
ATOM     28  C   UNL d   1       2.981   5.385  -1.260  0.00  0.00     0.019 C 
ATOM     29  C   UNL d   1       0.902   5.074   0.054  0.00  0.00     0.019 C 
ATOM     30  C   UNL d   1       3.122   4.931   1.203  0.00  0.00     0.019 C 
ENDBRANCH  24  27
ENDBRANCH   3  21
TORSDOF 6
