REMARK  2 active torsions:
REMARK  status: ('A' for Active; 'I' for Inactive)
REMARK    1  A    between atoms: C_7  and  C_1 
REMARK    2  A    between atoms: C_8  and  C_5 
ROOT
ATOM      1  C   UNL d   1       1.064   0.574   0.073  0.00  0.00     0.141 C 
ATOM      2  N   UNL d   1      -0.226   1.162  -0.059  0.00  0.00    -0.351 N 
ATOM      3  N   UNL d   1       1.026  -0.718   0.200  0.00  0.00    -0.303 N 
ATOM      4  HN  UNL d   1       1.819  -1.356   0.268  1.00  0.00     0.182 HD
ATOM      5  C   UNL d   1      -1.180   0.076  -0.155  0.00  0.00     0.209 C 
ATOM      6  N   UNL d   1      -0.314  -1.043   0.225  0.00  0.00    -0.211 NA
ATOM      7  H   UNL d   1      -0.355   2.150  -0.213  0.00  0.00     0.163 HD
ATOM      8  H   UNL d   1      -0.535  -1.895  -0.291  0.00  0.00     0.149 HD
ENDROOT
BRANCH   1   9
ATOM      9  C   UNL d   1       2.246   1.429  -0.054  0.00  0.00     0.092 A 
ATOM     10  N   UNL d   1       2.015   2.765  -0.212  0.00  0.00    -0.360 N 
ATOM     11  C   UNL d   1       3.129   3.511  -0.407  0.00  0.00     0.105 A 
ATOM     12  HN  UNL d   1       1.079   3.169  -0.186  1.00  0.00     0.165 HD
ATOM     13  C   UNL d   1       4.400   2.957  -0.454  0.00  0.00     0.104 A 
ATOM     14  N   UNL d   1       4.617   1.628  -0.303  0.00  0.00    -0.372 N 
ATOM     15  C   UNL d   1       3.513   0.870  -0.101  0.00  0.00     0.121 A 
ATOM     16  HN  UNL d   1       5.553   1.224  -0.339  1.00  0.00     0.164 HD
ENDBRANCH   1   9
BRANCH   5  17
ATOM     17  C   UNL d   1      -1.687   0.017  -1.579  0.00  0.00    -0.019 A 
ATOM     18  C   UNL d   1      -0.806  -0.151  -2.667  0.00  0.00     0.017 A 
ATOM     19  C   UNL d   1      -1.268  -0.159  -3.989  0.00  0.00    -0.061 A 
ATOM     20  C   UNL d   1      -0.312  -0.315  -5.134  0.00  0.00     0.048 C 
ATOM     21  C   UNL d   1      -2.636  -0.009  -4.226  0.00  0.00     0.007 A 
ATOM     22  C   UNL d   1      -3.525   0.148  -3.163  0.00  0.00     0.001 A 
ATOM     23  C   UNL d   1      -3.055   0.162  -1.847  0.00  0.00     0.011 A 
ENDBRANCH   5  17
TORSDOF 2
