REMARK  5 active torsions:
REMARK  status: ('A' for Active; 'I' for Inactive)
REMARK    1  A    between atoms: S_10  and  C_3 
REMARK    2  A    between atoms: C_9  and  C_6 
REMARK    3  A    between atoms: O_11  and  C_8 
REMARK    4  A    between atoms: O_12  and  C_9 
REMARK    5  A    between atoms: O_13  and  C_9 
ROOT
ATOM      1  N   UNL d   1      -0.351  -1.201   0.164  0.00  0.00    -0.318 N 
ATOM      2  HN  UNL d   1      -0.915  -2.051   0.171  1.00  0.00     0.170 HD
ATOM      3  C   UNL d   1       0.984  -1.237   0.230  0.00  0.00     0.146 A 
ATOM      4  N   UNL d   1       1.771  -0.154   0.198  0.00  0.00    -0.336 N 
ATOM      5  HN  UNL d   1       2.786  -0.241   0.252  1.00  0.00     0.168 HD
ATOM      6  C   UNL d   1       1.182   1.057   0.091  0.00  0.00     0.070 A 
ATOM      7  C   UNL d   1      -0.194   1.191   0.055  0.00  0.00     0.086 A 
ATOM      8  C   UNL d   1      -0.902   0.014   0.088  0.00  0.00     0.143 A 
ENDROOT
BRANCH   6   9
ATOM      9  C   UNL d   1       2.078   2.291  -0.031  0.00  0.00     0.309 C 
BRANCH   9  10
ATOM     10  O   UNL d   1       2.269   2.810   1.289  0.00  0.00    -0.360 OA
ATOM     11  C   UNL d   1       2.999   4.029   1.288  0.00  0.00     0.205 C 
ENDBRANCH   9  10
BRANCH   9  12
ATOM     12  O   UNL d   1       3.341   1.987  -0.635  0.00  0.00    -0.360 OA
ATOM     13  C   UNL d   1       3.237   1.600  -1.998  0.00  0.00     0.205 C 
ENDBRANCH   9  12
ENDBRANCH   6   9
BRANCH   8  14
ATOM     14  O   UNL d   1      -2.265   0.012   0.009  0.00  0.00    -0.346 OA
ATOM     15  H   UNL d   1      -2.583   0.925  -0.001  0.00  0.00     0.219 HD
ENDBRANCH   8  14
BRANCH   3  16
ATOM     16  S   UNL d   1       1.748  -2.839   0.290  0.00  0.00    -0.098 SA
ATOM     17  C   UNL d   1       3.494  -2.356   0.319  0.00  0.00     0.099 C 
ENDBRANCH   3  16
TORSDOF 5
