REMARK  3 active torsions:
REMARK  status: ('A' for Active; 'I' for Inactive)
REMARK    1  A    between atoms: N_2  and  C_1 
REMARK    2  A    between atoms: N_3  and  C_1 
REMARK    3  A    between atoms: C_4  and  N_2 
ROOT
ATOM      1  N   UNL d   1       0.429   0.859  -0.801  0.00  0.00    -0.333 N 
ATOM      2  H   UNL d   1      -0.577   0.839  -0.741  0.00  0.00     0.168 HD
ENDROOT
BRANCH   1   3
ATOM      3  C   UNL d   1       1.062   0.216   0.257  0.00  0.00     0.174 C 
ATOM      4  S   UNL d   1       2.240   0.972   1.202  0.00  0.00    -0.041 SA
BRANCH   3   5
ATOM      5  N   UNL d   1       0.572  -1.075   0.505  0.00  0.00    -0.354 N 
ATOM      6  C   UNL d   1      -0.383  -1.789  -0.365  0.00  0.00     0.151 C 
ATOM      7  C   UNL d   1       0.197  -3.127  -0.849  0.00  0.00     0.187 C 
ATOM      8  O   UNL d   1       0.658  -3.935   0.243  0.00  0.00    -0.388 OA
ATOM      9  C   UNL d   1       1.662  -3.237   0.997  0.00  0.00     0.187 C 
ATOM     10  C   UNL d   1       1.083  -1.945   1.586  0.00  0.00     0.151 C 
ENDBRANCH   3   5
ENDBRANCH   1   3
BRANCH   1  11
ATOM     11  C   UNL d   1       1.004   1.772  -1.722  0.00  0.00     0.040 A 
ATOM     12  C   UNL d   1       0.223   2.750  -2.368  0.00  0.00    -0.034 A 
ATOM     13  C   UNL d   1       0.836   3.596  -3.319  0.00  0.00     0.028 A 
ATOM     14  C   UNL d   1      -1.240   2.986  -2.109  0.00  0.00     0.050 C 
ATOM     15  C   UNL d   1       2.192   3.477  -3.617  0.00  0.00     0.011 A 
ATOM     16  C   UNL d   1       2.959   2.505  -2.995  0.00  0.00     0.021 A 
ATOM     17 BR   UNL d   1       2.987   4.636  -4.880  0.00  0.00    -0.051 Br
ATOM     18  C   UNL d   1       2.363   1.652  -2.067  0.00  0.00     0.031 A 
ENDBRANCH   1  11
TORSDOF 3
