REMARK  2 active torsions:
REMARK  status: ('A' for Active; 'I' for Inactive)
REMARK    1  A    between atoms: C_9  and  C_5 
REMARK    2  A    between atoms: C_18  and  C_10 
ROOT
ATOM      1  C   UNL d   1      -0.347  -0.684   0.028  0.00  0.00     0.112 A 
ATOM      2  N   UNL d   1      -1.597  -1.097   0.067  0.00  0.00    -0.340 N 
ATOM      3  HN  UNL d   1      -1.930  -2.059   0.127  1.00  0.00     0.167 HD
ATOM      4  N   UNL d   1      -0.270   0.700  -0.011  0.00  0.00    -0.317 N 
ATOM      5  C   UNL d   1      -2.358   0.048   0.008  0.00  0.00     0.060 A 
ATOM      6  C   UNL d   1      -1.557   1.170  -0.026  0.00  0.00     0.128 A 
ATOM      7  C   UNL d   1       0.882  -1.402   0.029  0.00  0.00     0.056 A 
ATOM      8  C   UNL d   1       0.927   1.405  -0.027  0.00  0.00     0.098 A 
ATOM      9  C   UNL d   1       2.064  -0.743   0.000  0.00  0.00    -0.054 A 
ATOM     10  C   UNL d   1       2.089   0.724  -0.015  0.00  0.00     0.025 A 
ENDROOT
BRANCH   5  11
ATOM     11  C   UNL d   1      -3.808   0.047  -0.002  0.00  0.00    -0.007 A 
ATOM     12  C   UNL d   1      -4.526   1.052  -0.667  0.00  0.00     0.022 A 
ATOM     13  C   UNL d   1      -5.931   1.059  -0.679  0.00  0.00    -0.039 A 
ATOM     14  C   UNL d   1      -6.654   2.146  -1.423  0.00  0.00     0.050 C 
ATOM     15  C   UNL d   1      -6.613   0.040   0.001  0.00  0.00     0.040 A 
ATOM     16  C   UNL d   1      -5.907  -0.971   0.659  0.00  0.00     0.025 A 
ATOM     17 CL   UNL d   1      -8.338  -0.012   0.052  0.00  0.00    -0.084 Cl
ATOM     18  C   UNL d   1      -4.510  -0.972   0.650  0.00  0.00     0.015 A 
ENDBRANCH   5  11
BRANCH   9  19
ATOM     19  C   UNL d   1       3.376  -1.494   0.054  0.00  0.00     0.034 C 
ATOM     20  C   UNL d   1       4.287  -1.287  -1.150  0.00  0.00     0.010 C 
ENDBRANCH   9  19
TORSDOF 2
