REMARK  6 active torsions:
REMARK  status: ('A' for Active; 'I' for Inactive)
REMARK    1  A    between atoms: C_2  and  C_1 
REMARK       I    between atoms: N_5  and  C_2 
REMARK    2  A    between atoms: O_10  and  C_4 
REMARK    3  A    between atoms: C_8  and  C_16 
REMARK    4  A    between atoms: O_23  and  C_8 
REMARK    5  A    between atoms: C_9  and  O_10 
REMARK    6  A    between atoms: C_26  and  O_23 
ROOT
ATOM      1  C   UNL d   1      -0.104   1.469   0.643  0.00  0.00     0.146 A 
ATOM      2  O   UNL d   1      -0.783   0.351   1.058  0.00  0.00    -0.282 OA
ATOM      3  C   UNL d   1       0.105  -0.428   1.742  0.00  0.00     0.191 A 
ATOM      4  C   UNL d   1       1.221   1.371   1.035  0.00  0.00     0.048 A 
ATOM      5  C   UNL d   1       1.358   0.146   1.722  0.00  0.00     0.067 A 
ENDROOT
BRANCH   1   6
ATOM      6  C   UNL d   1      -0.722   2.485  -0.190  0.00  0.00     0.277 C 
ATOM      7  N   UNL d   1      -2.087   2.777  -0.059  0.00  0.00    -0.346 N 
ATOM      8  C   UNL d   1      -2.713   3.626  -1.066  0.00  0.00     0.127 C 
ATOM      9  C   UNL d   1      -2.927   2.415   1.084  0.00  0.00     0.127 C 
ATOM     10  C   UNL d   1      -3.287   4.896  -0.439  0.00  0.00     0.034 C 
ATOM     11  C   UNL d   1      -4.255   4.560   0.706  0.00  0.00     0.088 C 
ATOM     12  C   UNL d   1      -3.520   3.675   1.731  0.00  0.00     0.034 C 
ATOM     13  O   UNL d   1      -0.037   3.102  -1.008  0.00  0.00    -0.265 OA
BRANCH  11  14
ATOM     14  C   UNL d   1      -5.530   3.860   0.240  0.00  0.00     0.263 C 
ATOM     15  O   UNL d   1      -6.193   3.115   0.951  0.00  0.00    -0.265 OA
BRANCH  14  16
ATOM     16  O   UNL d   1      -5.813   4.141  -1.059  0.00  0.00    -0.322 OA
BRANCH  16  17
ATOM     17  C   UNL d   1      -6.727   3.251  -1.716  0.00  0.00     0.174 C 
ATOM     18  C   UNL d   1      -8.051   3.936  -1.981  0.00  0.00     0.034 C 
ENDBRANCH  16  17
ENDBRANCH  14  16
ENDBRANCH  11  14
ENDBRANCH   1   6
BRANCH   3  19
ATOM     19  O   UNL d   1      -0.420  -1.538   2.264  0.00  0.00    -0.288 OA
BRANCH  19  20
ATOM     20  C   UNL d   1       0.140  -2.104   3.389  0.00  0.00     0.081 A 
ATOM     21  C   UNL d   1       0.629  -1.336   4.448  0.00  0.00     0.061 A 
ATOM     22  C   UNL d   1       1.168  -1.960   5.571  0.00  0.00     0.038 A 
ATOM     23 CL   UNL d   1       1.810  -1.000   6.845  0.00  0.00    -0.084 Cl
ATOM     24  C   UNL d   1       1.190  -3.348   5.667  0.00  0.00     0.048 A 
ATOM     25  C   UNL d   1       0.668  -4.109   4.623  0.00  0.00     0.038 A 
ATOM     26  C   UNL d   1       0.143  -3.499   3.482  0.00  0.00     0.061 A 
ATOM     27 CL   UNL d   1       0.668  -5.827   4.751  0.00  0.00    -0.084 Cl
ENDBRANCH  19  20
ENDBRANCH   3  19
TORSDOF 6
