REMARK  4 active torsions:
REMARK  status: ('A' for Active; 'I' for Inactive)
REMARK    1  A    between atoms: N_2  and  C_1 
REMARK    2  A    between atoms: C_8  and  C_3 
REMARK    3  A    between atoms: O_14  and  C_5 
REMARK       I    between atoms: N_13  and  C_8 
REMARK    4  A    between atoms: N_15  and  N_13 
ROOT
ATOM      1  C   UNL d   1       0.800   1.214  -0.008  0.00  0.00     0.154 A 
ATOM      2  C   UNL d   1       0.891  -1.182   0.009  0.00  0.00     0.051 A 
ATOM      3  C   UNL d   1       1.563   0.040  -0.003  0.00  0.00     0.059 A 
ATOM      4  C   UNL d   1      -0.584   1.153  -0.012  0.00  0.00     0.175 A 
ATOM      5  N   UNL d   1      -1.243  -0.030  -0.003  0.00  0.00    -0.344 N 
ATOM      6  HN  UNL d   1      -2.263  -0.067  -0.015  1.00  0.00     0.167 HD
ATOM      7  C   UNL d   1      -0.499  -1.167   0.021  0.00  0.00     0.107 A 
ENDROOT
BRANCH   2   8
ATOM      8  C   UNL d   1       1.586  -2.485   0.065  0.00  0.00     0.267 C 
ATOM      9  O   UNL d   1       1.042  -3.452   0.589  0.00  0.00    -0.266 OA
ATOM     10  N   UNL d   1       2.852  -2.536  -0.509  0.00  0.00    -0.290 N 
ATOM     11  H   UNL d   1       3.169  -1.802  -1.139  0.00  0.00     0.183 HD
BRANCH  10  12
ATOM     12  N   UNL d   1       3.524  -3.775  -0.553  0.00  0.00    -0.247 NA
ATOM     13  H   UNL d   1       2.870  -4.485  -0.188  0.00  0.00     0.143 HD
ATOM     14  H   UNL d   1       4.276  -3.755   0.141  0.00  0.00     0.143 HD
ENDBRANCH  10  12
ENDBRANCH   2   8
BRANCH   1  15
ATOM     15  N   UNL d   1       1.480   2.482  -0.006  0.00  0.00    -0.111 N 
ATOM     16  O   UNL d   1       2.297   2.671  -0.917  0.00  0.00    -0.532 OA
ATOM     17  O   UNL d   1       1.270   3.245   0.944  0.00  0.00    -0.532 OA
ENDBRANCH   1  15
BRANCH   4  18
ATOM     18  O   UNL d   1      -1.319   2.316  -0.059  0.00  0.00    -0.339 OA
ATOM     19  C   UNL d   1      -2.728   2.096  -0.026  0.00  0.00     0.211 C 
ENDBRANCH   4  18
TORSDOF 4
