REMARK  3 active torsions:
REMARK  status: ('A' for Active; 'I' for Inactive)
REMARK    1  A    between atoms: C_7  and  C_3 
REMARK    2  A    between atoms: N_10  and  N_14 
REMARK    3  A    between atoms: C_13  and  C_19 
ROOT
ATOM      1  C   UNL d   1       0.298  -1.203  -0.089  0.00  0.00     0.164 A 
ATOM      2  S   UNL d   1      -1.039  -0.107  -0.132  0.00  0.00    -0.051 SA
ATOM      3  C   UNL d   1       0.033   1.235  -0.011  0.00  0.00     0.034 A 
ATOM      4  N   UNL d   1       1.474  -0.615  -0.032  0.00  0.00    -0.344 N 
ATOM      5  HN  UNL d   1       2.368  -1.105  -0.017  1.00  0.00     0.167 HD
ATOM      6  C   UNL d   1       1.329   0.750   0.003  0.00  0.00     0.110 A 
ATOM      7  N   UNL d   1       0.108  -2.554  -0.092  0.00  0.00    -0.280 N 
ATOM      8  H   UNL d   1      -0.852  -2.885  -0.124  0.00  0.00     0.189 HD
ENDROOT
BRANCH   7   9
ATOM      9  N   UNL d   1       1.081  -3.377   0.390  0.00  0.00    -0.309 N 
ATOM     10  C   UNL d   1       0.865  -4.654   0.357  0.00  0.00     0.120 C 
ATOM     11  HN  UNL d   1       1.952  -2.999   0.764  1.00  0.00     0.186 HD
BRANCH  10  12
ATOM     12  C   UNL d   1       1.869  -5.581   0.934  0.00  0.00     0.002 A 
ATOM     13  C   UNL d   1       1.715  -6.971   0.895  0.00  0.00     0.045 A 
ATOM     14 CL   UNL d   1       0.370  -7.745   0.137  0.00  0.00    -0.083 Cl
ATOM     15  C   UNL d   1       2.681  -7.796   1.490  0.00  0.00     0.024 A 
ATOM     16  C   UNL d   1       3.796  -7.241   2.121  0.00  0.00     0.002 A 
ATOM     17  C   UNL d   1       3.957  -5.859   2.156  0.00  0.00     0.001 A 
ATOM     18  C   UNL d   1       3.000  -5.034   1.565  0.00  0.00     0.014 A 
ENDBRANCH  10  12
ENDBRANCH   7   9
BRANCH   3  19
ATOM     19  C   UNL d   1      -0.419   2.634   0.036  0.00  0.00    -0.015 A 
ATOM     20  C   UNL d   1      -1.615   3.027   0.658  0.00  0.00     0.052 A 
ATOM     21  C   UNL d   1      -1.990   4.379   0.717  0.00  0.00     0.102 A 
ATOM     22  O   UNL d   1      -3.206   4.622   1.311  0.00  0.00    -0.348 OA
ATOM     23  C   UNL d   1      -1.139   5.366   0.204  0.00  0.00     0.102 A 
ATOM     24  C   UNL d   1      -3.936   5.676   0.680  0.00  0.00     0.178 C 
ATOM     25  C   UNL d   1      -3.546   7.033   1.242  0.00  0.00     0.053 C 
ATOM     26  C   UNL d   1      -2.043   7.162   1.417  0.00  0.00     0.178 C 
ATOM     27  O   UNL d   1      -1.352   6.720   0.249  0.00  0.00    -0.348 OA
ATOM     28  C   UNL d   1       0.037   4.985  -0.438  0.00  0.00     0.040 A 
ATOM     29  C   UNL d   1       0.393   3.637  -0.520  0.00  0.00     0.016 A 
ENDBRANCH   3  19
TORSDOF 3
