REMARK  5 active torsions:
REMARK  status: ('A' for Active; 'I' for Inactive)
REMARK    1  A    between atoms: C_2  and  C_1 
REMARK    2  A    between atoms: C_3  and  C_1 
REMARK    3  A    between atoms: N_4  and  C_2 
REMARK    4  A    between atoms: O_8  and  C_3 
REMARK       I    between atoms: C_5  and  N_4 
REMARK    5  A    between atoms: O_9  and  C_5 
ROOT
ATOM      1  C   UNL d   1       0.594   0.603  -1.349  0.00  0.00     0.044 C 
ATOM      2  C   UNL d   1      -0.950   0.666  -1.470  0.00  0.00     0.039 C 
ATOM      3  C   UNL d   1       1.076   2.069  -1.511  0.00  0.00     0.039 C 
ENDROOT
BRANCH   1   4
ATOM      4  C   UNL d   1       1.065  -0.002   0.041  0.00  0.00     0.062 C 
ATOM      5  C   UNL d   1       0.658  -1.476   0.249  0.00  0.00     0.029 C 
ATOM      6  C   UNL d   1       0.462   0.780   1.239  0.00  0.00     0.029 C 
BRANCH   4   7
ATOM      7  C   UNL d   1       2.596   0.092   0.172  0.00  0.00     0.150 C 
ATOM      8  O   UNL d   1       3.182   0.787   0.990  0.00  0.00    -0.649 OA
BRANCH   7   9
ATOM      9  O   UNL d   1       3.283  -0.651  -0.724  0.00  0.00    -0.776 OA
ATOM     10  H   UNL d   1       2.703  -1.121  -1.356  0.00  0.00     0.167 HD
ENDBRANCH   7   9
ENDBRANCH   4   7
ENDBRANCH   1   4
BRANCH   1  11
ATOM     11  N   UNL d   1       1.167  -0.148  -2.501  0.00  0.00    -0.327 N 
ATOM     12  C   UNL d   1       0.638  -1.252  -3.107  0.00  0.00     0.360 C 
ATOM     13  O   UNL d   1      -0.342  -1.873  -2.740  0.00  0.00    -0.239 OA
ATOM     14  H   UNL d   1       1.936   0.269  -3.016  0.00  0.00     0.165 HD
BRANCH  12  15
ATOM     15  O   UNL d   1       1.391  -1.553  -4.191  0.00  0.00    -0.309 OA
ATOM     16  C   UNL d   1       0.874  -2.637  -4.968  0.00  0.00     0.215 C 
ENDBRANCH  12  15
ENDBRANCH   1  11
TORSDOF 5
