REMARK  4 active torsions:
REMARK  status: ('A' for Active; 'I' for Inactive)
REMARK    1  A    between atoms: N_7  and  C_1 
REMARK    2  A    between atoms: C_13  and  C_6 
REMARK       I    between atoms: C_9  and  N_7 
REMARK    3  A    between atoms: N_8  and  C_10 
REMARK       I    between atoms: N_11  and  C_9 
REMARK    4  A    between atoms: C_17  and  N_11 
ROOT
ATOM      1  N   UNL d   1      -0.455  -2.200  -0.111  0.00  0.00    -0.293 N 
ATOM      2  C   UNL d   1      -0.254  -3.275  -1.014  0.00  0.00     0.326 C 
ATOM      3  N   UNL d   1       0.765  -3.171  -1.913  0.00  0.00    -0.309 N 
ATOM      4  O   UNL d   1      -1.054  -4.180  -0.865  0.00  0.00    -0.247 OA
ATOM      5  H   UNL d   1      -1.313  -2.346   0.407  0.00  0.00     0.172 HD
ATOM      6  H   UNL d   1       1.280  -2.309  -1.953  0.00  0.00     0.170 HD
ENDROOT
BRANCH   1   7
ATOM      7  C   UNL d   1       0.286  -1.073   0.185  0.00  0.00     0.127 C 
ATOM      8  C   UNL d   1       1.577  -0.728  -0.153  0.00  0.00     0.077 C 
ATOM      9  C   UNL d   1       1.752   0.605   0.311  0.00  0.00     0.037 C 
ATOM     10  N   UNL d   1       0.683   1.008   1.006  0.00  0.00    -0.301 N 
ATOM     11  N   UNL d   1      -0.153  -0.038   0.979  0.00  0.00    -0.281 N 
ATOM     12  HN  UNL d   1       0.537   1.911   1.457  1.00  0.00     0.187 HD
ATOM     13  C   UNL d   1      -1.372   0.032   1.751  0.00  0.00     0.179 C 
BRANCH   9  14
ATOM     14  C   UNL d   1       2.909   1.566   0.090  0.00  0.00    -0.007 C 
ATOM     15  C   UNL d   1       4.109   0.879  -0.592  0.00  0.00     0.021 C 
ATOM     16  C   UNL d   1       2.441   2.720  -0.822  0.00  0.00     0.021 C 
ATOM     17  C   UNL d   1       3.392   2.147   1.433  0.00  0.00     0.021 C 
ENDBRANCH   9  14
ENDBRANCH   1   7
BRANCH   3  18
ATOM     18  C   UNL d   1       1.240  -4.220  -2.733  0.00  0.00     0.038 A 
ATOM     19  C   UNL d   1       0.531  -5.406  -2.948  0.00  0.00     0.065 A 
ATOM     20  C   UNL d   1       1.128  -6.464  -3.649  0.00  0.00     0.105 A 
ATOM     21  C   UNL d   1       2.424  -6.342  -4.158  0.00  0.00     0.036 A 
ATOM     22  C   UNL d   1       3.108  -5.137  -3.997  0.00  0.00     0.005 A 
ATOM     23  C   UNL d   1       2.513  -4.077  -3.303  0.00  0.00     0.030 A 
BRANCH  20  24
ATOM     24  N   UNL d   1       0.388  -7.722  -3.824  0.00  0.00    -0.116 N 
ATOM     25  O   UNL d   1      -0.767  -7.776  -3.382  0.00  0.00    -0.532 OA
ATOM     26  O   UNL d   1       0.969  -8.655  -4.398  0.00  0.00    -0.532 OA
ENDBRANCH  20  24
ENDBRANCH   3  18
TORSDOF 4
