REMARK  6 active torsions:
REMARK  status: ('A' for Active; 'I' for Inactive)
REMARK    1  A    between atoms: C_5  and  C_1 
REMARK    2  A    between atoms: C_2  and  C_8 
REMARK    3  A    between atoms: S_6  and  C_3 
REMARK       I    between atoms: C_4  and  N_7 
REMARK       I    between atoms: N_9  and  C_4 
REMARK    4  A    between atoms: N_7  and  C_5 
REMARK    5  A    between atoms: C_17  and  S_6 
REMARK    6  A    between atoms: C_18  and  N_9 
ROOT
ATOM      1  C   UNL d   1      -0.650   2.256  -0.297  0.00  0.00     0.166 C 
ENDROOT
BRANCH   1   2
ATOM      2  C   UNL d   1       0.181   0.989  -0.247  0.00  0.00    -0.002 A 
ATOM      3  C   UNL d   1       1.397   0.928   0.482  0.00  0.00     0.015 A 
ATOM      4  C   UNL d   1       2.149  -0.262   0.506  0.00  0.00     0.019 A 
ATOM      5  C   UNL d   1       1.734  -1.392  -0.188  0.00  0.00     0.003 A 
ATOM      6  C   UNL d   1       0.572  -1.336  -0.942  0.00  0.00     0.024 A 
ATOM      7  C   UNL d   1      -0.181  -0.156  -0.996  0.00  0.00     0.043 A 
ATOM      8 CL   UNL d   1      -1.528  -0.187  -2.082  0.00  0.00    -0.084 Cl
BRANCH   3   9
ATOM      9  S   UNL d   1       2.061   2.240   1.504  0.00  0.00    -0.090 SA
BRANCH   9  10
ATOM     10  C   UNL d   1       2.694   3.495   0.403  0.00  0.00     0.005 A 
ATOM     11  C   UNL d   1       2.541   3.501  -0.988  0.00  0.00     0.020 A 
ATOM     12  C   UNL d   1       2.941   4.611  -1.743  0.00  0.00     0.025 A 
ATOM     13  C   UNL d   1       3.529   5.707  -1.117  0.00  0.00     0.034 A 
ATOM     14  C   UNL d   1       3.751   5.690   0.255  0.00  0.00     0.025 A 
ATOM     15 CL   UNL d   1       3.963   7.092  -2.038  0.00  0.00    -0.084 Cl
ATOM     16  C   UNL d   1       3.335   4.588   1.008  0.00  0.00     0.020 A 
ENDBRANCH   9  10
ENDBRANCH   3   9
ENDBRANCH   1   2
BRANCH   1  17
ATOM     17  N   UNL d   1      -2.060   2.046  -0.023  0.00  0.00    -0.339 N 
ATOM     18  C   UNL d   1      -3.179   2.425  -0.700  0.00  0.00     0.320 C 
ATOM     19  N   UNL d   1      -3.003   2.978  -1.936  0.00  0.00    -0.309 N 
ATOM     20  O   UNL d   1      -4.254   2.245  -0.128  0.00  0.00    -0.247 OA
ATOM     21  H   UNL d   1      -2.066   3.003  -2.295  0.00  0.00     0.170 HD
ATOM     22  H   UNL d   1      -2.294   1.664   0.884  0.00  0.00     0.164 HD
BRANCH  19  23
ATOM     23  C   UNL d   1      -3.992   3.520  -2.787  0.00  0.00     0.036 A 
ATOM     24  C   UNL d   1      -5.361   3.475  -2.522  0.00  0.00     0.030 A 
ATOM     25  C   UNL d   1      -6.273   4.128  -3.360  0.00  0.00     0.018 A 
ATOM     26  C   UNL d   1      -5.832   4.846  -4.479  0.00  0.00     0.048 A 
ATOM     27  C   UNL d   1      -4.465   4.836  -4.783  0.00  0.00     0.018 A 
ATOM     28  C   UNL d   1      -3.556   4.172  -3.949  0.00  0.00     0.030 A 
BRANCH  26  29
ATOM     29  C   UNL d   1      -6.820   5.630  -5.308  0.00  0.00     0.417 C 
ATOM     30  F   UNL d   1      -6.238   6.362  -6.300  0.00  0.00    -0.166 F 
ATOM     31  F   UNL d   1      -7.740   4.836  -5.921  0.00  0.00    -0.166 F 
ATOM     32  F   UNL d   1      -7.532   6.521  -4.562  0.00  0.00    -0.166 F 
ENDBRANCH  26  29
ENDBRANCH  19  23
ENDBRANCH   1  17
TORSDOF 6
