REMARK  2 active torsions:
REMARK  status: ('A' for Active; 'I' for Inactive)
REMARK    1  A    between atoms: N_8  and  C_7 
REMARK    2  A    between atoms: C_9  and  N_8 
ROOT
ATOM      1  N   UNL d   1      -2.579   0.793  -1.758  0.00  0.00    -0.284 NA
ATOM      2  H   UNL d   1      -1.641   0.578  -2.089  0.00  0.00     0.128 HD
ENDROOT
BRANCH   1   3
ATOM      3  C   UNL d   1      -3.528  -0.309  -1.904  0.00  0.00     0.098 A 
ATOM      4  C   UNL d   1      -4.421  -0.450  -0.672  0.00  0.00     0.168 A 
ATOM      5  S   UNL d   1      -4.086  -2.057   0.018  0.00  0.00     0.167 S 
ATOM      6  C   UNL d   1      -2.922  -2.533  -1.163  0.00  0.00     0.106 A 
ATOM      7  O   UNL d   1      -5.269  -2.879  -0.135  0.00  0.00    -0.223 OA
ATOM      8  O   UNL d   1      -3.430  -1.901   1.300  0.00  0.00    -0.223 OA
ATOM      9  C   UNL d   1      -2.730  -1.571  -2.071  0.00  0.00     0.005 A 
ENDBRANCH   1   3
BRANCH   1  10
ATOM     10  C   UNL d   1      -2.958   2.088  -2.139  0.00  0.00     0.008 A 
ATOM     11  C   UNL d   1      -4.280   2.549  -2.112  0.00  0.00     0.024 A 
ATOM     12  C   UNL d   1      -4.597   3.868  -2.452  0.00  0.00     0.008 A 
ATOM     13  C   UNL d   1      -3.595   4.771  -2.810  0.00  0.00    -0.062 A 
ATOM     14  C   UNL d   1      -2.268   4.338  -2.800  0.00  0.00     0.008 A 
ATOM     15  C   UNL d   1      -3.955   6.176  -3.189  0.00  0.00     0.048 C 
ATOM     16  C   UNL d   1      -1.957   3.019  -2.449  0.00  0.00     0.024 A 
ENDBRANCH   1  10
TORSDOF 2
