REMARK  4 active torsions:
REMARK  status: ('A' for Active; 'I' for Inactive)
REMARK    1  A    between atoms: S_8  and  C_3 
REMARK    2  A    between atoms: C_7  and  C_4 
REMARK    3  A    between atoms: C_13  and  S_8 
REMARK    4  A    between atoms: C_15  and  C_13 
ROOT
ATOM      1  N   UNL d   1       1.234   0.554   0.023  0.00  0.00    -0.336 N 
ATOM      2  HN  UNL d   1       2.165   0.972   0.015  1.00  0.00     0.168 HD
ATOM      3  C   UNL d   1       0.132   1.321   0.031  0.00  0.00     0.144 A 
ATOM      4  C   UNL d   1       1.073  -0.787   0.026  0.00  0.00     0.047 A 
ATOM      5  N   UNL d   1      -1.124   0.850   0.034  0.00  0.00    -0.347 N 
ATOM      6  HN  UNL d   1      -1.933   1.471   0.048  1.00  0.00     0.167 HD
ATOM      7  C   UNL d   1      -0.188  -1.356   0.014  0.00  0.00     0.047 A 
ATOM      8  C   UNL d   1      -1.254  -0.487   0.019  0.00  0.00     0.092 A 
ENDROOT
BRANCH   3   9
ATOM      9  S   UNL d   1       0.396   3.071  -0.044  0.00  0.00    -0.089 SA
BRANCH   9  10
ATOM     10  C   UNL d   1      -1.098   3.651   0.814  0.00  0.00     0.121 C 
BRANCH  10  11
ATOM     11  C   UNL d   1      -1.103   5.159   0.921  0.00  0.00    -0.049 A 
ATOM     12  C   UNL d   1      -1.688   5.941  -0.087  0.00  0.00     0.008 A 
ATOM     13  C   UNL d   1      -1.658   7.335  -0.011  0.00  0.00     0.001 A 
ATOM     14  C   UNL d   1      -1.041   7.962   1.070  0.00  0.00     0.000 A 
ATOM     15  C   UNL d   1      -0.455   7.197   2.076  0.00  0.00     0.001 A 
ATOM     16  C   UNL d   1      -0.483   5.803   2.002  0.00  0.00     0.008 A 
ENDBRANCH  10  11
ENDBRANCH   9  10
ENDBRANCH   3   9
BRANCH   4  17
ATOM     17  C   UNL d   1       2.316  -1.578   0.018  0.00  0.00     0.006 A 
ATOM     18  C   UNL d   1       2.407  -2.855   0.577  0.00  0.00     0.101 A 
ATOM     19  N   UNL d   1       3.519  -3.634   0.581  0.00  0.00    -0.374 N 
ATOM     20  C   UNL d   1       4.623  -3.112   0.009  0.00  0.00     0.087 A 
ATOM     21  HN  UNL d   1       3.520  -4.566   0.996  1.00  0.00     0.164 HD
ATOM     22  C   UNL d   1       4.665  -1.854  -0.562  0.00  0.00     0.018 A 
ATOM     23  C   UNL d   1       3.501  -1.085  -0.552  0.00  0.00     0.016 A 
ENDBRANCH   4  17
TORSDOF 4
