REMARK  4 active torsions:
REMARK  status: ('A' for Active; 'I' for Inactive)
REMARK    1  A    between atoms: N_3  and  C_1 
REMARK    2  A    between atoms: N_4  and  C_1 
REMARK    3  A    between atoms: C_2  and  C_5 
REMARK    4  A    between atoms: C_7  and  N_4 
ROOT
ATOM      1  C   UNL d   1      -3.527  -0.060   0.466  0.00  0.00     0.050 A 
ATOM      2  C   UNL d   1      -1.225  -0.754   0.859  0.00  0.00     0.035 A 
ATOM      3  C   UNL d   1      -2.147   0.132   0.294  0.00  0.00     0.045 A 
ATOM      4  C   UNL d   1      -3.972  -1.166   1.206  0.00  0.00     0.016 A 
ATOM      5  C   UNL d   1      -3.056  -2.045   1.782  0.00  0.00     0.003 A 
ATOM      6  C   UNL d   1      -1.685  -1.827   1.625  0.00  0.00     0.029 A 
ENDROOT
BRANCH   2   7
ATOM      7  N   UNL d   1       0.165  -0.542   0.772  0.00  0.00    -0.333 N 
ATOM      8  H   UNL d   1       0.739  -1.084   1.404  0.00  0.00     0.168 HD
BRANCH   7   9
ATOM      9  C   UNL d   1       0.897   0.062  -0.241  0.00  0.00     0.174 C 
ATOM     10  S   UNL d   1       0.467   0.004  -1.865  0.00  0.00    -0.041 SA
BRANCH   9  11
ATOM     11  N   UNL d   1       2.084   0.633   0.237  0.00  0.00    -0.354 N 
ATOM     12  C   UNL d   1       2.190   1.198   1.596  0.00  0.00     0.151 C 
ATOM     13  C   UNL d   1       2.437   2.713   1.531  0.00  0.00     0.187 C 
ATOM     14  O   UNL d   1       3.592   3.020   0.735  0.00  0.00    -0.388 OA
ATOM     15  C   UNL d   1       3.420   2.541  -0.610  0.00  0.00     0.187 C 
ATOM     16  C   UNL d   1       3.220   1.022  -0.620  0.00  0.00     0.151 C 
ENDBRANCH   9  11
ENDBRANCH   7   9
ENDBRANCH   2   7
BRANCH   1  17
ATOM     17  C   UNL d   1      -4.521   0.920  -0.103  0.00  0.00     0.417 C 
ATOM     18  F   UNL d   1      -3.951   1.938  -0.806  0.00  0.00    -0.166 F 
ATOM     19  F   UNL d   1      -5.413   0.333  -0.948  0.00  0.00    -0.166 F 
ATOM     20  F   UNL d   1      -5.267   1.516   0.870  0.00  0.00    -0.166 F 
ENDBRANCH   1  17
TORSDOF 4
