REMARK  2 active torsions:
REMARK  status: ('A' for Active; 'I' for Inactive)
REMARK    1  A    between atoms: C_7  and  C_1 
REMARK    2  A    between atoms: O_10  and  C_7 
ROOT
ATOM      1  C   UNL d   1      -0.790   1.231  -0.096  0.00  0.00     0.073 A 
ATOM      2  C   UNL d   1      -1.468   0.066  -0.087  0.00  0.00     0.070 A 
ATOM      3  C   UNL d   1       0.658   1.211   0.055  0.00  0.00    -0.037 A 
ATOM      4  O   UNL d   1      -0.788  -1.173   0.080  0.00  0.00    -0.279 OA
ATOM      5  C   UNL d   1       0.569  -1.243   0.200  0.00  0.00     0.288 A 
ATOM      6  C   UNL d   1       1.293   0.038   0.195  0.00  0.00     0.090 A 
ATOM      7  O   UNL d   1       1.172  -2.302   0.321  0.00  0.00    -0.260 OA
ATOM      8  C   UNL d   1      -2.946  -0.124  -0.269  0.00  0.00     0.078 C 
ATOM      9  C   UNL d   1       1.430   2.503   0.060  0.00  0.00     0.049 C 
ENDROOT
BRANCH   1  10
ATOM     10  C   UNL d   1      -1.518   2.511  -0.286  0.00  0.00     0.179 C 
ATOM     11  O   UNL d   1      -1.325   3.267  -1.222  0.00  0.00    -0.646 OA
BRANCH  10  12
ATOM     12  O   UNL d   1      -2.366   2.781   0.731  0.00  0.00    -0.773 OA
ATOM     13  H   UNL d   1      -2.370   2.108   1.438  0.00  0.00     0.167 HD
ENDBRANCH  10  12
ENDBRANCH   1  10
TORSDOF 2
