REMARK  7 active torsions:
REMARK  status: ('A' for Active; 'I' for Inactive)
REMARK    1  A    between atoms: N_9  and  C_3 
REMARK    2  A    between atoms: C_7  and  C_4 
REMARK    3  A    between atoms: C_10  and  C_11 
REMARK    4  A    between atoms: C_11  and  O_24 
REMARK    5  A    between atoms: C_27  and  N_14 
REMARK    6  A    between atoms: O_24  and  C_28 
REMARK    7  A    between atoms: C_28  and  C_27 
ROOT
ATOM      1  N   UNL d   1       0.335   1.288  -0.167  0.00  0.00    -0.350 N 
ATOM      2  HN  UNL d   1      -0.475   1.907  -0.195  1.00  0.00     0.166 HD
ATOM      3  C   UNL d   1       2.563  -0.434  -0.076  0.00  0.00     0.045 A 
ATOM      4  C   UNL d   1       0.812   0.853   1.020  0.00  0.00     0.119 A 
ATOM      5  C   UNL d   1       0.929   0.902  -1.315  0.00  0.00     0.067 A 
ATOM      6  C   UNL d   1       2.066   0.054  -1.327  0.00  0.00     0.019 A 
ATOM      7  C   UNL d   1       1.905   0.000   1.089  0.00  0.00     0.064 A 
ATOM      8  C   UNL d   1       0.410   1.349  -2.544  0.00  0.00     0.061 A 
ATOM      9 CL   UNL d   1      -0.979   2.395  -2.594  0.00  0.00    -0.082 Cl
ATOM     10  C   UNL d   1       2.650  -0.227  -2.593  0.00  0.00     0.016 A 
ATOM     11  C   UNL d   1       2.096   0.200  -3.798  0.00  0.00     0.003 A 
ATOM     12  C   UNL d   1       0.965   0.991  -3.772  0.00  0.00     0.026 A 
ENDROOT
BRANCH   3  13
ATOM     13  N   UNL d   1       3.601  -1.350   0.075  0.00  0.00    -0.377 N 
ATOM     14  C   UNL d   1       3.883  -2.430  -0.884  0.00  0.00     0.153 C 
ATOM     15  C   UNL d   1       4.265  -3.745  -0.163  0.00  0.00     0.292 C 
ATOM     16  N   UNL d   1       5.332  -3.626   0.862  0.00  0.00     0.093 N 
ATOM     17  C   UNL d   1       4.936  -2.537   1.791  0.00  0.00     0.292 C 
ATOM     18  C   UNL d   1       4.631  -1.175   1.118  0.00  0.00     0.153 C 
BRANCH  16  19
ATOM     19  C   UNL d   1       6.646  -3.392   0.232  0.00  0.00     0.299 C 
BRANCH  19  20
ATOM     20  C   UNL d   1       7.817  -3.414   1.228  0.00  0.00     0.209 C 
BRANCH  20  21
ATOM     21  O   UNL d   1       9.074  -3.225   0.558  0.00  0.00    -0.319 OA
BRANCH  21  22
ATOM     22  C   UNL d   1       9.374  -1.921   0.282  0.00  0.00     0.263 C 
ATOM     23  O   UNL d   1       8.638  -0.961   0.475  0.00  0.00    -0.265 OA
BRANCH  22  24
ATOM     24  C   UNL d   1      10.740  -1.799  -0.292  0.00  0.00     0.085 A 
ATOM     25  C   UNL d   1      11.548  -0.546  -0.042  0.00  0.00     0.015 A 
ATOM     26  C   UNL d   1      11.011  -0.829  -1.416  0.00  0.00     0.015 A 
ENDBRANCH  22  24
ENDBRANCH  21  22
ENDBRANCH  20  21
ENDBRANCH  19  20
ENDBRANCH  16  19
ENDBRANCH   3  13
BRANCH   4  27
ATOM     27  C   UNL d   1       0.121   1.274   2.310  0.00  0.00     0.432 C 
ATOM     28  F   UNL d   1      -0.940   2.112   2.135  0.00  0.00    -0.165 F 
ATOM     29  F   UNL d   1      -0.362   0.208   3.012  0.00  0.00    -0.165 F 
ATOM     30  F   UNL d   1       0.965   1.919   3.167  0.00  0.00    -0.165 F 
ENDBRANCH   4  27
TORSDOF 7
