REMARK  4 active torsions:
REMARK  status: ('A' for Active; 'I' for Inactive)
REMARK    1  A    between atoms: C_3  and  C_1 
REMARK       I    between atoms: N_7  and  C_3 
REMARK    2  A    between atoms: C_4  and  S_6 
REMARK    3  A    between atoms: C_9  and  C_5 
REMARK    4  A    between atoms: S_6  and  N_7 
ROOT
ATOM      1  C   UNL d   1       0.295  -5.246   0.050  0.00  0.00     0.263 C 
ATOM      2  N   UNL d   1       0.460  -4.154   0.817  0.00  0.00    -0.301 N 
ATOM      3  HN  UNL d   1       0.507  -4.200   1.835  1.00  0.00     0.176 HD
ATOM      4  O   UNL d   1       0.434  -5.394  -1.172  0.00  0.00    -0.267 OA
ENDROOT
BRANCH   2   5
ATOM      5  S   UNL d   1       0.570  -2.845   0.049  0.00  0.00    -0.076 SA
ATOM      6  C   UNL d   1       2.272  -3.027  -0.560  0.00  0.00     0.109 C 
BRANCH   5   7
ATOM      7  C   UNL d   1       0.838  -1.812   1.488  0.00  0.00     0.093 A 
ATOM      8  C   UNL d   1      -0.164  -1.320   2.307  0.00  0.00     0.082 A 
ATOM      9  C   UNL d   1       0.228  -0.419   3.321  0.00  0.00     0.020 A 
ATOM     10  C   UNL d   1       1.555  -0.032   3.462  0.00  0.00     0.018 A 
ATOM     11  C   UNL d   1       2.467  -0.564   2.577  0.00  0.00     0.089 A 
ATOM     12  N   UNL d   1       2.137  -1.427   1.601  0.00  0.00    -0.359 N 
ATOM     13  HN  UNL d   1       2.845  -1.785   0.959  1.00  0.00     0.166 HD
BRANCH   8  14
ATOM     14  C   UNL d   1      -1.625  -1.622   2.176  0.00  0.00     0.420 C 
ATOM     15  F   UNL d   1      -2.078  -2.405   1.169  0.00  0.00    -0.166 F 
ATOM     16  F   UNL d   1      -2.132  -2.164   3.330  0.00  0.00    -0.166 F 
ATOM     17  F   UNL d   1      -2.337  -0.449   2.039  0.00  0.00    -0.166 F 
ENDBRANCH   8  14
ENDBRANCH   5   7
ENDBRANCH   2   5
BRANCH   1  18
ATOM     18  C   UNL d   1      -0.024  -6.496   0.770  0.00  0.00     0.063 A 
ATOM     19  C   UNL d   1      -0.911  -6.622   1.861  0.00  0.00     0.101 A 
ATOM     20  C   UNL d   1      -1.215  -7.940   2.431  0.00  0.00     0.086 A 
ATOM     21  N   UNL d   1      -1.636  -5.724   2.548  0.00  0.00    -0.238 N 
ATOM     22  N   UNL d   1      -2.089  -7.787   3.435  0.00  0.00    -0.240 N 
ATOM     23  C   UNL d   1      -0.655  -9.140   1.946  0.00  0.00     0.034 A 
ATOM     24  O   UNL d   1      -2.343  -6.429   3.499  0.00  0.00    -0.156 OA
ATOM     25  HN  UNL d   1      -2.483  -8.518   4.028  1.00  0.00     0.197 HD
ATOM     26  C   UNL d   1       0.221  -8.988   0.861  0.00  0.00     0.003 A 
ATOM     27  C   UNL d   1       0.517  -7.723   0.297  0.00  0.00     0.020 A 
ATOM     28  HN  UNL d   1      -1.660  -4.716   2.396  1.00  0.00     0.197 HD
ENDBRANCH   1  18
TORSDOF 4
