REMARK  3 active torsions:
REMARK  status: ('A' for Active; 'I' for Inactive)
REMARK    1  A    between atoms: C_2  and  C_1 
REMARK       I    between atoms: N_5  and  C_2 
REMARK    2  A    between atoms: N_8  and  N_5 
REMARK    3  A    between atoms: C_11  and  N_8 
ROOT
ATOM      1  C   UNL d   1       0.419   2.367   0.736  0.00  0.00     0.274 C 
ATOM      2  N   UNL d   1       1.104   3.470   0.236  0.00  0.00    -0.282 N 
ATOM      3  O   UNL d   1       0.951   1.256   0.714  0.00  0.00    -0.266 OA
ATOM      4  H   UNL d   1       0.601   4.309  -0.031  0.00  0.00     0.184 HD
ENDROOT
BRANCH   2   5
ATOM      5  N   UNL d   1       2.322   3.224  -0.431  0.00  0.00    -0.203 NA
ATOM      6  H   UNL d   1       2.631   2.259  -0.247  0.00  0.00     0.153 HD
BRANCH   5   7
ATOM      7  C   UNL d   1       3.348   4.158  -0.141  0.00  0.00     0.027 A 
ATOM      8  C   UNL d   1       4.686   3.734  -0.204  0.00  0.00     0.027 A 
ATOM      9  C   UNL d   1       5.742   4.640  -0.049  0.00  0.00     0.026 A 
ATOM     10  C   UNL d   1       5.469   5.991   0.141  0.00  0.00     0.034 A 
ATOM     11  C   UNL d   1       4.153   6.439   0.183  0.00  0.00     0.026 A 
ATOM     12 CL   UNL d   1       6.763   7.114   0.297  0.00  0.00    -0.084 Cl
ATOM     13  C   UNL d   1       3.101   5.529   0.032  0.00  0.00     0.027 A 
ENDBRANCH   5   7
ENDBRANCH   2   5
BRANCH   1  14
ATOM     14  C   UNL d   1      -0.917   2.630   1.262  0.00  0.00     0.095 A 
ATOM     15  C   UNL d   1      -1.605   3.809   1.491  0.00  0.00     0.057 A 
ATOM     16  C   UNL d   1      -2.890   3.593   2.074  0.00  0.00     0.032 A 
ATOM     17 CL   UNL d   1      -1.065   5.407   1.175  0.00  0.00    -0.083 Cl
ATOM     18  C   UNL d   1      -3.161   2.259   2.260  0.00  0.00     0.052 A 
ATOM     19  S   UNL d   1      -1.874   1.272   1.732  0.00  0.00    -0.095 SA
ENDBRANCH   1  14
TORSDOF 3
