REMARK  6 active torsions:
REMARK  status: ('A' for Active; 'I' for Inactive)
REMARK    1  A    between atoms: N_2  and  C_1 
REMARK    2  A    between atoms: N_3  and  C_4 
REMARK       I    between atoms: C_5  and  N_3 
REMARK    3  A    between atoms: C_4  and  N_7 
REMARK    4  A    between atoms: C_13  and  C_5 
REMARK    5  A    between atoms: N_7  and  C_6 
REMARK    6  A    between atoms: O_17  and  C_15 
ROOT
ATOM      1  N   UNL d   1       1.308  -2.586  -0.096  0.00  0.00    -0.331 N 
ATOM      2  H   UNL d   1       0.784  -3.407  -0.399  0.00  0.00     0.168 HD
ENDROOT
BRANCH   1   3
ATOM      3  C   UNL d   1       2.649  -2.612  -0.413  0.00  0.00     0.179 C 
ATOM      4  S   UNL d   1       3.641  -1.301  -0.751  0.00  0.00    -0.040 SA
BRANCH   3   5
ATOM      5  N   UNL d   1       3.246  -3.848  -0.482  0.00  0.00    -0.299 N 
ATOM      6  C   UNL d   1       2.706  -5.110  -0.285  0.00  0.00     0.257 C 
ATOM      7  O   UNL d   1       1.512  -5.333  -0.114  0.00  0.00    -0.267 OA
ATOM      8  H   UNL d   1       4.248  -3.776  -0.592  0.00  0.00     0.171 HD
BRANCH   6   9
ATOM      9  C   UNL d   1       3.693  -6.227  -0.328  0.00  0.00     0.032 A 
ATOM     10  C   UNL d   1       3.490  -7.339   0.497  0.00  0.00     0.017 A 
ATOM     11  C   UNL d   1       4.395  -8.403   0.471  0.00  0.00     0.001 A 
ATOM     12  C   UNL d   1       5.500  -8.363  -0.383  0.00  0.00     0.000 A 
ATOM     13  C   UNL d   1       5.703  -7.260  -1.210  0.00  0.00     0.001 A 
ATOM     14  C   UNL d   1       4.802  -6.194  -1.187  0.00  0.00     0.017 A 
ENDBRANCH   6   9
ENDBRANCH   3   5
ENDBRANCH   1   3
BRANCH   1  15
ATOM     15  C   UNL d   1       0.584  -1.425   0.272  0.00  0.00     0.067 C 
ATOM     16  C   UNL d   1       1.012  -0.506   1.246  0.00  0.00     0.132 C 
ATOM     17  C   UNL d   1       0.403   0.749   1.369  0.00  0.00     0.075 C 
ATOM     18  C   UNL d   1      -0.698   1.070   0.579  0.00  0.00     0.070 C 
ATOM     19  C   UNL d   1      -1.221   0.112  -0.291  0.00  0.00     0.039 C 
ATOM     20  C   UNL d   1      -0.588  -1.137  -0.435  0.00  0.00     0.035 C 
BRANCH  16  21
ATOM     21  N   UNL d   1       1.997  -0.877   2.265  0.00  0.00    -0.113 N 
ATOM     22  O   UNL d   1       2.058  -2.060   2.619  0.00  0.00    -0.532 OA
ATOM     23  O   UNL d   1       2.676   0.036   2.760  0.00  0.00    -0.532 OA
ENDBRANCH  16  21
BRANCH  18  24
ATOM     24  O   UNL d   1      -1.144   2.350   0.749  0.00  0.00    -0.356 OA
ATOM     25  C   UNL d   1      -2.433   2.669   0.248  0.00  0.00     0.210 C 
ENDBRANCH  18  24
ENDBRANCH   1  15
TORSDOF 6
