REMARK  5 active torsions:
REMARK  status: ('A' for Active; 'I' for Inactive)
REMARK    1  A    between atoms: N_2  and  S_1 
REMARK    2  A    between atoms: C_9  and  S_1 
REMARK    3  A    between atoms: C_3  and  N_2 
REMARK       I    between atoms: C_4  and  N_10 
REMARK    4  A    between atoms: C_17  and  C_4 
REMARK    5  A    between atoms: N_10  and  C_20 
ROOT
ATOM      1  C   UNL d   1       0.527  -1.320   0.806  0.00  0.00     0.075 A 
ATOM      2  C   UNL d   1       0.742  -2.599   0.280  0.00  0.00     0.027 A 
ATOM      3  C   UNL d   1       0.044  -1.171   2.102  0.00  0.00     0.027 A 
ATOM      4  C   UNL d   1      -0.076  -3.594   2.344  0.00  0.00     0.035 A 
ATOM      5  C   UNL d   1       0.440  -3.732   1.049  0.00  0.00     0.031 A 
ATOM      6  C   UNL d   1      -0.251  -2.305   2.861  0.00  0.00     0.031 A 
ENDROOT
BRANCH   1   7
ATOM      7  S   UNL d   1       1.052   0.120  -0.096  0.00  0.00     0.248 S 
ATOM      8  O   UNL d   1       1.229   1.185   0.869  0.00  0.00    -0.205 OA
ATOM      9  O   UNL d   1       2.158  -0.274  -0.944  0.00  0.00    -0.205 OA
BRANCH   7  10
ATOM     10  N   UNL d   1      -0.286   0.558  -1.002  0.00  0.00    -0.151 NA
ATOM     11  H   UNL d   1      -0.289   1.567  -1.114  0.00  0.00     0.149 HD
BRANCH  10  12
ATOM     12  C   UNL d   1      -0.356  -0.093  -2.229  0.00  0.00     0.171 A 
ATOM     13  N   UNL d   1      -0.973  -1.275  -2.256  0.00  0.00    -0.336 N 
ATOM     14  C   UNL d   1      -0.928  -1.926  -3.434  0.00  0.00     0.009 A 
ATOM     15  HN  UNL d   1      -1.446  -1.660  -1.439  1.00  0.00     0.168 HD
ATOM     16  C   UNL d   1      -1.658  -3.231  -3.527  0.00  0.00     0.068 C 
ATOM     17  C   UNL d   1      -0.220  -1.442  -4.519  0.00  0.00     0.049 A 
ATOM     18  C   UNL d   1       0.408  -0.219  -4.359  0.00  0.00     0.009 A 
ATOM     19  N   UNL d   1       0.313   0.494  -3.221  0.00  0.00    -0.336 N 
ATOM     20  C   UNL d   1       1.273   0.337  -5.449  0.00  0.00     0.068 C 
ATOM     21  HN  UNL d   1       0.726   1.421  -3.125  1.00  0.00     0.168 HD
ENDBRANCH  10  12
ENDBRANCH   7  10
ENDBRANCH   1   7
BRANCH   4  22
ATOM     22  N   UNL d   1      -0.368  -4.763   3.090  0.00  0.00    -0.323 N 
ATOM     23  C   UNL d   1      -1.142  -4.786   4.243  0.00  0.00     0.256 C 
ATOM     24  O   UNL d   1      -1.780  -3.833   4.685  0.00  0.00    -0.267 OA
ATOM     25  H   UNL d   1      -0.095  -5.648   2.686  0.00  0.00     0.169 HD
BRANCH  23  26
ATOM     26  C   UNL d   1      -1.251  -6.068   4.988  0.00  0.00     0.032 A 
ATOM     27  C   UNL d   1      -0.261  -7.059   4.978  0.00  0.00     0.017 A 
ATOM     28  C   UNL d   1      -0.392  -8.180   5.809  0.00  0.00     0.001 A 
ATOM     29  C   UNL d   1      -1.501  -8.316   6.647  0.00  0.00     0.000 A 
ATOM     30  C   UNL d   1      -2.493  -7.341   6.654  0.00  0.00     0.001 A 
ATOM     31  C   UNL d   1      -2.368  -6.226   5.827  0.00  0.00     0.017 A 
ENDBRANCH  23  26
ENDBRANCH   4  22
TORSDOF 5
