REMARK  5 active torsions:
REMARK  status: ('A' for Active; 'I' for Inactive)
REMARK    1  A    between atoms: N_8  and  C_2 
REMARK    2  A    between atoms: C_17  and  C_3 
REMARK    3  A    between atoms: C_4  and  N_7 
REMARK    4  A    between atoms: N_14  and  C_4 
REMARK    5  A    between atoms: C_22  and  N_14 
ROOT
ATOM      1  N   UNL d   1       2.844   5.410   0.160  0.00  0.00    -0.356 N 
ATOM      2  N   UNL d   1       2.318   2.651  -0.478  0.00  0.00    -0.265 NA
ATOM      3  C   UNL d   1       3.761   4.663  -0.727  0.00  0.00     0.140 C 
ATOM      4  C   UNL d   1       1.988   4.570   1.011  0.00  0.00     0.140 C 
ATOM      5  C   UNL d   1       1.288   3.463   0.213  0.00  0.00     0.117 C 
ATOM      6  C   UNL d   1       3.069   3.473  -1.451  0.00  0.00     0.117 C 
ENDROOT
BRANCH   2   7
ATOM      7  C   UNL d   1       1.779   1.481  -1.038  0.00  0.00     0.097 A 
ATOM      8  C   UNL d   1       2.488   0.250  -1.102  0.00  0.00     0.048 A 
ATOM      9  C   UNL d   1       3.849  -0.181  -0.799  0.00  0.00    -0.003 A 
ATOM     10  C   UNL d   1       1.741  -0.839  -1.538  0.00  0.00     0.089 A 
ATOM     11  C   UNL d   1       4.008  -1.546  -0.969  0.00  0.00     0.065 A 
ATOM     12  S   UNL d   1       2.596  -2.310  -1.537  0.00  0.00    -0.082 SA
ATOM     13  N   UNL d   1       0.455  -0.843  -1.926  0.00  0.00    -0.346 N 
ATOM     14  C   UNL d   1      -0.100   0.363  -1.847  0.00  0.00     0.182 A 
ATOM     15  HN  UNL d   1      -0.039  -1.677  -2.246  1.00  0.00     0.167 HD
ATOM     16  N   UNL d   1       0.478   1.491  -1.427  0.00  0.00    -0.342 N 
ATOM     17  HN  UNL d   1      -0.056   2.360  -1.399  1.00  0.00     0.167 HD
BRANCH   9  18
ATOM     18  C   UNL d   1       5.006   0.611  -0.382  0.00  0.00    -0.024 A 
ATOM     19  C   UNL d   1       4.943   1.464   0.723  0.00  0.00     0.012 A 
ATOM     20  C   UNL d   1       6.052   2.233   1.089  0.00  0.00     0.001 A 
ATOM     21  C   UNL d   1       7.241   2.138   0.369  0.00  0.00     0.000 A 
ATOM     22  C   UNL d   1       7.328   1.268  -0.714  0.00  0.00     0.001 A 
ATOM     23  C   UNL d   1       6.215   0.511  -1.091  0.00  0.00     0.012 A 
ENDBRANCH   9  18
ENDBRANCH   2   7
BRANCH   1  24
ATOM     24  C   UNL d   1       2.647   6.758  -0.004  0.00  0.00     0.170 C 
ATOM     25  S   UNL d   1       1.160   7.519  -0.066  0.00  0.00    -0.041 SA
BRANCH  24  26
ATOM     26  N   UNL d   1       3.763   7.527  -0.172  0.00  0.00    -0.363 N 
ATOM     27  H   UNL d   1       3.515   8.470  -0.445  0.00  0.00     0.162 HD
BRANCH  26  28
ATOM     28  C   UNL d   1       4.978   7.430   0.660  0.00  0.00     0.083 C 
ATOM     29  C   UNL d   1       4.938   8.435   1.834  0.00  0.00     0.025 C 
ATOM     30  C   UNL d   1       4.731   9.914   1.498  0.00  0.00     0.002 C 
ATOM     31  C   UNL d   1       5.977  10.770   1.300  0.00  0.00     0.000 C 
ATOM     32  C   UNL d   1       6.973  10.316   0.239  0.00  0.00     0.000 C 
ATOM     33  C   UNL d   1       7.916   9.209   0.712  0.00  0.00     0.000 C 
ATOM     34  C   UNL d   1       7.543   7.748   0.432  0.00  0.00     0.002 C 
ATOM     35  C   UNL d   1       6.210   7.465  -0.249  0.00  0.00     0.025 C 
ENDBRANCH  26  28
ENDBRANCH  24  26
ENDBRANCH   1  24
TORSDOF 5
