REMARK  5 active torsions:
REMARK  status: ('A' for Active; 'I' for Inactive)
REMARK    1  A    between atoms: N_5  and  C_1 
REMARK    2  A    between atoms: C_8  and  C_2 
REMARK       I    between atoms: C_7  and  N_5 
REMARK    3  A    between atoms: C_9  and  C_7 
REMARK    4  A    between atoms: O_19  and  C_8 
REMARK    5  A    between atoms: C_24  and  O_19 
ROOT
ATOM      1  N   UNL d   1       2.080  -2.288  -0.227  0.00  0.00    -0.316 N 
ATOM      2  C   UNL d   1       3.423  -1.998  -0.433  0.00  0.00     0.256 C 
ATOM      3  O   UNL d   1       3.906  -0.938  -0.804  0.00  0.00    -0.267 OA
ATOM      4  H   UNL d   1       1.822  -3.224   0.055  0.00  0.00     0.169 HD
ENDROOT
BRANCH   1   5
ATOM      5  C   UNL d   1       1.007  -1.399  -0.279  0.00  0.00     0.094 A 
ATOM      6  C   UNL d   1      -0.347  -1.690  -0.107  0.00  0.00     0.080 A 
ATOM      7  C   UNL d   1      -1.147  -0.464  -0.124  0.00  0.00    -0.030 A 
ATOM      8  C   UNL d   1      -2.638  -0.361   0.033  0.00  0.00     0.050 C 
ATOM      9  C   UNL d   1      -0.343   0.659  -0.242  0.00  0.00    -0.012 A 
ATOM     10  S   UNL d   1       1.284   0.258  -0.502  0.00  0.00    -0.076 SA
ATOM     11  C   UNL d   1      -0.745   2.096  -0.166  0.00  0.00     0.057 C 
BRANCH   6  12
ATOM     12  C   UNL d   1      -0.886  -3.038   0.130  0.00  0.00     0.296 C 
ATOM     13  O   UNL d   1      -2.070  -3.273   0.335  0.00  0.00    -0.259 OA
BRANCH  12  14
ATOM     14  O   UNL d   1       0.084  -4.005   0.195  0.00  0.00    -0.318 OA
BRANCH  14  15
ATOM     15  C   UNL d   1      -0.330  -5.230   0.822  0.00  0.00     0.174 C 
ATOM     16  C   UNL d   1      -0.120  -5.081   2.318  0.00  0.00     0.034 C 
ENDBRANCH  14  15
ENDBRANCH  12  14
ENDBRANCH   6  12
ENDBRANCH   1   5
BRANCH   2  17
ATOM     17  C   UNL d   1       4.380  -3.112  -0.130  0.00  0.00     0.033 A 
ATOM     18  C   UNL d   1       5.692  -2.772   0.235  0.00  0.00     0.030 A 
ATOM     19  C   UNL d   1       6.627  -3.766   0.585  0.00  0.00    -0.009 A 
ATOM     20  C   UNL d   1       7.940  -3.453   0.966  0.00  0.00     0.015 A 
ATOM     21  C   UNL d   1       6.253  -5.122   0.568  0.00  0.00     0.042 A 
ATOM     22  C   UNL d   1       8.813  -4.468   1.337  0.00  0.00     0.018 A 
ATOM     23  C   UNL d   1       8.345  -5.768   1.310  0.00  0.00     0.088 A 
ATOM     24  N   UNL d   1       7.095  -6.110   0.927  0.00  0.00    -0.365 N 
ATOM     25  HN  UNL d   1       6.798  -7.085   0.912  1.00  0.00     0.165 HD
ATOM     26  C   UNL d   1       4.964  -5.443   0.163  0.00  0.00     0.031 A 
ATOM     27  C   UNL d   1       4.029  -4.461  -0.192  0.00  0.00     0.019 A 
ENDBRANCH   2  17
TORSDOF 5
