REMARK  3 active torsions:
REMARK  status: ('A' for Active; 'I' for Inactive)
REMARK    1  A    between atoms: C_14  and  N_3 
REMARK    2  A    between atoms: N_15  and  C_8 
REMARK    3  A    between atoms: C_13  and  C_9 
ROOT
ATOM      1  C   UNL d   1       0.166  -0.612   0.016  0.00  0.00     0.180 A 
ATOM      2  C   UNL d   1       0.159   0.763  -0.026  0.00  0.00     0.033 A 
ATOM      3  N   UNL d   1       1.486  -1.023   0.063  0.00  0.00    -0.233 N 
ATOM      4  N   UNL d   1       2.312   0.062   0.124  0.00  0.00    -0.296 N 
ATOM      5  HN  UNL d   1       3.327   0.057   0.227  1.00  0.00     0.187 HD
ATOM      6  C   UNL d   1      -2.317   0.551  -0.018  0.00  0.00     0.080 A 
ATOM      7  O   UNL d   1      -0.902  -1.408   0.016  0.00  0.00    -0.278 OA
ATOM      8  C   UNL d   1      -2.166  -0.799   0.027  0.00  0.00     0.140 A 
ATOM      9  C   UNL d   1      -1.131   1.506  -0.121  0.00  0.00     0.105 A 
ATOM     10  C   UNL d   1       1.519   1.134   0.022  0.00  0.00     0.034 A 
ATOM     11  C   UNL d   1      -3.619   1.135   0.016  0.00  0.00     0.100 C 
ATOM     12  N   UNL d   1      -4.675   1.607   0.074  0.00  0.00    -0.191 NA
ATOM     13  C   UNL d   1       2.139   2.482  -0.005  0.00  0.00     0.070 C 
ENDROOT
BRANCH   8  14
ATOM     14  N   UNL d   1      -3.192  -1.715   0.095  0.00  0.00    -0.282 NA
ATOM     15  H   UNL d   1      -4.066  -1.372   0.488  0.00  0.00     0.126 HD
ATOM     16  H   UNL d   1      -2.895  -2.600   0.499  0.00  0.00     0.126 HD
ENDBRANCH   8  14
BRANCH   9  17
ATOM     17  C   UNL d   1      -1.099   2.559   0.977  0.00  0.00    -0.044 A 
ATOM     18  C   UNL d   1      -1.197   3.919   0.627  0.00  0.00     0.011 A 
ATOM     19  C   UNL d   1      -1.146   4.910   1.607  0.00  0.00     0.043 A 
ATOM     20  C   UNL d   1      -1.013   4.547   2.941  0.00  0.00     0.116 A 
ATOM     21  C   UNL d   1      -0.936   3.212   3.315  0.00  0.00     0.043 A 
ATOM     22  F   UNL d   1      -0.956   5.500   3.879  0.00  0.00    -0.206 F 
ATOM     23  C   UNL d   1      -0.984   2.217   2.338  0.00  0.00     0.011 A 
ENDBRANCH   9  17
BRANCH   3  24
ATOM     24  C   UNL d   1       2.045  -2.334   0.021  0.00  0.00     0.059 A 
ATOM     25  C   UNL d   1       1.256  -3.473  -0.185  0.00  0.00     0.031 A 
ATOM     26  C   UNL d   1       1.855  -4.734  -0.283  0.00  0.00     0.002 A 
ATOM     27  C   UNL d   1       3.237  -4.869  -0.167  0.00  0.00     0.000 A 
ATOM     28  C   UNL d   1       4.028  -3.745   0.056  0.00  0.00     0.002 A 
ATOM     29  C   UNL d   1       3.437  -2.484   0.149  0.00  0.00     0.031 A 
ENDBRANCH   3  24
TORSDOF 3
