REMARK  4 active torsions:
REMARK  status: ('A' for Active; 'I' for Inactive)
REMARK    1  A    between atoms: C_2  and  C_1 
REMARK    2  A    between atoms: C_6  and  C_2 
REMARK    3  A    between atoms: N_5  and  C_3 
REMARK    4  A    between atoms: S_7  and  C_6 
ROOT
ATOM      1  C   UNL d   1       0.329   0.032  -1.256  0.00  0.00     0.164 C 
ATOM      2  O   UNL d   1       0.979   0.033  -2.302  0.00  0.00    -0.292 OA
ENDROOT
BRANCH   1   3
ATOM      3  C   UNL d   1       1.000  -0.192   0.058  0.00  0.00     0.068 C 
ATOM      4  C   UNL d   1       2.311   0.006   0.212  0.00  0.00     0.088 C 
BRANCH   4   5
ATOM      5  N   UNL d   1       3.075  -0.050   1.374  0.00  0.00    -0.398 N 
ATOM      6  C   UNL d   1       2.521  -0.311   2.703  0.00  0.00     0.148 C 
ATOM      7  C   UNL d   1       4.459   0.424   1.396  0.00  0.00     0.148 C 
ENDBRANCH   4   5
ENDBRANCH   1   3
BRANCH   1   8
ATOM      8  C   UNL d   1      -1.188   0.250  -1.226  0.00  0.00     0.116 C 
ATOM      9  C   UNL d   1      -1.774   0.426  -2.621  0.00  0.00     0.030 C 
BRANCH   8  10
ATOM     10  S   UNL d   1      -1.628   1.682  -0.152  0.00  0.00    -0.161 SA
ATOM     11  C   UNL d   1      -0.814   3.032  -1.051  0.00  0.00     0.090 C 
ENDBRANCH   8  10
ENDBRANCH   1   8
TORSDOF 4
