REMARK  10 active torsions:
REMARK  status: ('A' for Active; 'I' for Inactive)
REMARK    1  A    between atoms: C_3  and  N_1 
REMARK    2  A    between atoms: C_2  and  O_10 
REMARK    3  A    between atoms: C_14  and  C_3 
REMARK    4  A    between atoms: C_15  and  C_3 
REMARK    5  A    between atoms: C_4  and  C_16 
REMARK       I    between atoms: N_11  and  C_4 
REMARK    6  A    between atoms: S_12  and  C_7 
REMARK    7  A    between atoms: N_8  and  N_11 
REMARK    8  A    between atoms: O_10  and  C_21 
REMARK    9  A    between atoms: C_16  and  S_12 
REMARK   10  A    between atoms: C_22  and  C_20 
ROOT
ATOM      1  C   UNL d   1      -1.841  -2.514  -1.981  0.00  0.00     0.178 C 
ENDROOT
BRANCH   1   2
ATOM      2  C   UNL d   1      -3.148  -1.752  -1.916  0.00  0.00     0.245 C 
ATOM      3  N   UNL d   1      -3.129  -0.446  -2.392  0.00  0.00    -0.270 N 
ATOM      4  H   UNL d   1      -2.247  -0.003  -2.640  0.00  0.00     0.190 HD
ATOM      5  O   UNL d   1      -4.165  -2.323  -1.519  0.00  0.00    -0.271 OA
BRANCH   3   6
ATOM      6  N   UNL d   1      -4.288   0.247  -2.365  0.00  0.00    -0.308 N 
ATOM      7  C   UNL d   1      -4.277   1.512  -2.641  0.00  0.00     0.118 C 
ATOM      8  HN  UNL d   1      -5.163  -0.221  -2.129  1.00  0.00     0.186 HD
BRANCH   7   9
ATOM      9  C   UNL d   1      -5.559   2.256  -2.632  0.00  0.00    -0.019 A 
ATOM     10  C   UNL d   1      -6.751   1.575  -2.358  0.00  0.00     0.015 A 
ATOM     11  C   UNL d   1      -7.967   2.256  -2.366  0.00  0.00     0.038 A 
ATOM     12  C   UNL d   1      -8.012   3.627  -2.631  0.00  0.00     0.078 A 
ATOM     13  C   UNL d   1      -6.826   4.300  -2.934  0.00  0.00     0.038 A 
ATOM     14  C   UNL d   1      -5.596   3.622  -2.919  0.00  0.00     0.015 A 
BRANCH  12  15
ATOM     15  O   UNL d   1      -9.265   4.154  -2.653  0.00  0.00    -0.255 OA
BRANCH  15  16
ATOM     16  C   UNL d   1      -9.480   5.493  -2.230  0.00  0.00     0.530 C 
ATOM     17  F   UNL d   1      -8.368   6.141  -1.835  0.00  0.00    -0.144 F 
ATOM     18  F   UNL d   1     -10.048   6.185  -3.243  0.00  0.00    -0.144 F 
ATOM     19  F   UNL d   1     -10.349   5.483  -1.193  0.00  0.00    -0.144 F 
ENDBRANCH  15  16
ENDBRANCH  12  15
ENDBRANCH   7   9
ENDBRANCH   3   6
ENDBRANCH   1   2
BRANCH   1  20
ATOM     20  S   UNL d   1      -0.351  -1.499  -1.871  0.00  0.00    -0.151 SA
BRANCH  20  21
ATOM     21  C   UNL d   1      -0.407  -1.040  -0.066  0.00  0.00     0.104 C 
ATOM     22  C   UNL d   1       0.913  -0.311   0.332  0.00  0.00     0.290 C 
ATOM     23  N   UNL d   1       0.276   0.955  -0.155  0.00  0.00     0.104 N 
ATOM     24  C   UNL d   1      -1.036   0.353   0.217  0.00  0.00     0.290 C 
BRANCH  23  25
ATOM     25  C   UNL d   1       0.659   2.109   0.682  0.00  0.00     0.289 C 
BRANCH  25  26
ATOM     26  C   UNL d   1       2.024   2.657   0.242  0.00  0.00    -0.021 A 
ATOM     27  C   UNL d   1       2.232   3.113  -1.073  0.00  0.00     0.010 A 
ATOM     28  C   UNL d   1       3.431   3.724  -1.441  0.00  0.00     0.001 A 
ATOM     29  C   UNL d   1       4.452   3.868  -0.506  0.00  0.00     0.000 A 
ATOM     30  C   UNL d   1       4.282   3.380   0.789  0.00  0.00     0.001 A 
ATOM     31  C   UNL d   1       3.078   2.778   1.162  0.00  0.00     0.010 A 
ENDBRANCH  25  26
BRANCH  25  32
ATOM     32  C   UNL d   1      -0.378   3.245   0.683  0.00  0.00    -0.021 A 
ATOM     33  C   UNL d   1      -0.507   4.055   1.826  0.00  0.00     0.010 A 
ATOM     34  C   UNL d   1      -1.431   5.101   1.859  0.00  0.00     0.001 A 
ATOM     35  C   UNL d   1      -2.235   5.358   0.751  0.00  0.00     0.000 A 
ATOM     36  C   UNL d   1      -2.103   4.582  -0.398  0.00  0.00     0.001 A 
ATOM     37  C   UNL d   1      -1.176   3.541  -0.435  0.00  0.00     0.010 A 
ENDBRANCH  25  32
ENDBRANCH  23  25
ENDBRANCH  20  21
ENDBRANCH   1  20
TORSDOF 10
