REMARK  3 active torsions:
REMARK  status: ('A' for Active; 'I' for Inactive)
REMARK    1  A    between atoms: C_7  and  C_1 
REMARK    2  A    between atoms: C_10  and  C_2 
REMARK    3  A    between atoms: N_6  and  C_7 
ROOT
ATOM      1  C   UNL d   1       0.999   0.811   0.041  0.00  0.00     0.016 A 
ATOM      2  C   UNL d   1       1.031  -0.628   0.093  0.00  0.00     0.067 A 
ATOM      3  N   UNL d   1      -0.220  -1.124   0.061  0.00  0.00    -0.300 N 
ATOM      4  HN  UNL d   1      -0.499  -2.105   0.065  1.00  0.00     0.187 HD
ATOM      5  N   UNL d   1      -1.016  -0.053   0.022  0.00  0.00    -0.311 N 
ATOM      6  C   UNL d   1      -0.347   1.127   0.015  0.00  0.00     0.118 A 
ATOM      7  H   UNL d   1      -2.023  -0.205  -0.002  0.00  0.00     0.186 HD
ENDROOT
BRANCH   1   8
ATOM      8  C   UNL d   1       2.123   1.797  -0.009  0.00  0.00     0.315 C 
BRANCH   8   9
ATOM      9  N   UNL d   1       3.002   1.534  -1.153  0.00  0.00     0.096 N 
ATOM     10  C   UNL d   1       2.312   1.703  -2.446  0.00  0.00     0.303 C 
ATOM     11  C   UNL d   1       3.258   1.475  -3.647  0.00  0.00     0.302 C 
ATOM     12  N   UNL d   1       4.472   2.313  -3.643  0.00  0.00     0.087 N 
ATOM     13  C   UNL d   1       5.130   2.193  -2.327  0.00  0.00     0.302 C 
ATOM     14  C   UNL d   1       4.166   3.702  -3.975  0.00  0.00     0.310 C 
ATOM     15  C   UNL d   1       4.199   2.394  -1.106  0.00  0.00     0.303 C 
ENDBRANCH   8   9
ENDBRANCH   1   8
BRANCH   2  16
ATOM     16  C   UNL d   1       2.183  -1.539   0.162  0.00  0.00    -0.007 A 
ATOM     17  C   UNL d   1       3.370  -1.170   0.810  0.00  0.00     0.017 A 
ATOM     18  C   UNL d   1       4.453  -2.045   0.888  0.00  0.00     0.043 A 
ATOM     19  C   UNL d   1       4.346  -3.314   0.333  0.00  0.00     0.116 A 
ATOM     20  C   UNL d   1       3.182  -3.712  -0.309  0.00  0.00     0.043 A 
ATOM     21  F   UNL d   1       5.376  -4.163   0.434  0.00  0.00    -0.206 F 
ATOM     22  C   UNL d   1       2.103  -2.827  -0.401  0.00  0.00     0.017 A 
ENDBRANCH   2  16
TORSDOF 3
