REMARK  4 active torsions:
REMARK  status: ('A' for Active; 'I' for Inactive)
REMARK    1  A    between atoms: C_5  and  C_1 
REMARK    2  A    between atoms: O_12  and  C_2 
REMARK    3  A    between atoms: C_14  and  C_5 
REMARK       I    between atoms: C_6  and  N_7 
REMARK    4  A    between atoms: N_7  and  C_8 
ROOT
ATOM      1  C   UNL d   1       0.222   1.202  -0.025  0.00  0.00     0.043 A 
ATOM      2  C   UNL d   1       0.776  -0.083   0.013  0.00  0.00     0.081 A 
ATOM      3  C   UNL d   1      -0.043  -1.216   0.026  0.00  0.00     0.067 A 
ATOM      4  C   UNL d   1      -1.169   1.336   0.002  0.00  0.00     0.020 A 
ATOM      5  C   UNL d   1      -1.437  -1.080   0.022  0.00  0.00     0.037 A 
ATOM      6  C   UNL d   1      -1.988   0.202   0.025  0.00  0.00     0.030 A 
ENDROOT
BRANCH   5   7
ATOM      7  N   UNL d   1      -2.209  -2.262   0.017  0.00  0.00    -0.327 N 
ATOM      8  C   UNL d   1      -3.588  -2.359  -0.019  0.00  0.00     0.218 C 
ATOM      9  O   UNL d   1      -4.388  -1.429  -0.052  0.00  0.00    -0.274 OA
ATOM     10  C   UNL d   1      -4.089  -3.782  -0.014  0.00  0.00     0.117 C 
ATOM     11  H   UNL d   1      -1.685  -3.129   0.021  0.00  0.00     0.169 HD
ENDBRANCH   5   7
BRANCH   2  12
ATOM     12  O   UNL d   1       2.127  -0.313   0.025  0.00  0.00    -0.360 OA
ATOM     13  H   UNL d   1       2.579   0.556   0.132  0.00  0.00     0.217 HD
ENDBRANCH   2  12
BRANCH   1  14
ATOM     14  C   UNL d   1       1.105   2.399  -0.118  0.00  0.00     0.162 C 
ATOM     15  O   UNL d   1       2.290   2.277   0.194  0.00  0.00    -0.292 OA
BRANCH  14  16
ATOM     16  C   UNL d   1       0.507   3.701  -0.622  0.00  0.00     0.079 C 
ATOM     17  C   UNL d   1       1.569   4.676  -1.098  0.00  0.00     0.013 C 
ENDBRANCH  14  16
ENDBRANCH   1  14
TORSDOF 4
