REMARK  3 active torsions:
REMARK  status: ('A' for Active; 'I' for Inactive)
REMARK    1  A    between atoms: N_3  and  S_1 
REMARK    2  A    between atoms: C_4  and  S_1 
REMARK    3  A    between atoms: C_13  and  N_3 
ROOT
ATOM      1  C   UNL d   1       0.024   0.534  -1.455  0.00  0.00     0.100 A 
ATOM      2  N   UNL d   1      -2.616  -0.412   0.690  0.00  0.00    -0.191 NA
ATOM      3  C   UNL d   1      -2.079   0.083  -0.212  0.00  0.00     0.101 C 
ATOM      4  C   UNL d   1      -1.375   0.573  -1.360  0.00  0.00     0.068 A 
ATOM      5  C   UNL d   1       0.669   0.982  -2.615  0.00  0.00     0.027 A 
ATOM      6  C   UNL d   1      -2.122   1.028  -2.455  0.00  0.00     0.024 A 
ATOM      7  C   UNL d   1      -0.086   1.444  -3.693  0.00  0.00     0.002 A 
ATOM      8  C   UNL d   1      -1.478   1.460  -3.616  0.00  0.00     0.002 A 
ENDROOT
BRANCH   1   9
ATOM      9  S   UNL d   1       1.005  -0.094  -0.107  0.00  0.00     0.264 S 
ATOM     10  O   UNL d   1       2.392  -0.080  -0.523  0.00  0.00    -0.200 OA
ATOM     11  O   UNL d   1       0.575   0.605   1.082  0.00  0.00    -0.200 OA
BRANCH   9  12
ATOM     12  N   UNL d   1       0.506  -1.705   0.030  0.00  0.00    -0.281 N 
ATOM     13  H   UNL d   1      -0.357  -1.820   0.567  0.00  0.00     0.179 HD
BRANCH  12  14
ATOM     14  C   UNL d   1       0.749  -2.586  -1.060  0.00  0.00     0.043 A 
ATOM     15  C   UNL d   1      -0.224  -2.778  -2.036  0.00  0.00     0.048 A 
ATOM     16  C   UNL d   1       0.104  -3.596  -3.101  0.00  0.00     0.050 A 
ATOM     17  C   UNL d   1      -0.706  -3.917  -4.265  0.00  0.00     0.294 A 
ATOM     18  C   UNL d   1       1.320  -4.235  -3.214  0.00  0.00    -0.018 A 
ATOM     19  O   UNL d   1       0.036  -4.767  -5.035  0.00  0.00    -0.313 OA
ATOM     20  O   UNL d   1      -1.817  -3.490  -4.504  0.00  0.00    -0.259 OA
ATOM     21  C   UNL d   1       1.328  -5.046  -4.447  0.00  0.00     0.218 A 
ATOM     22  C   UNL d   1       2.293  -4.058  -2.245  0.00  0.00     0.012 A 
ATOM     23  C   UNL d   1       2.003  -3.211  -1.168  0.00  0.00     0.031 A 
ENDBRANCH  12  14
ENDBRANCH   9  12
ENDBRANCH   1   9
TORSDOF 3
