REMARK  1 active torsions:
REMARK  status: ('A' for Active; 'I' for Inactive)
REMARK       I    between atoms: C_10  and  N_11 
REMARK    1  A    between atoms: N_11  and  C_12 
ROOT
ATOM      1  N   UNL d   1       1.643  -0.020   0.018  0.00  0.00    -0.284 N 
ATOM      2  C   UNL d   1       0.858  -1.138   0.024  0.00  0.00     0.261 A 
ATOM      3  C   UNL d   1       0.897   1.129   0.010  0.00  0.00     0.261 A 
ATOM      4  C   UNL d   1      -0.526  -0.669   0.012  0.00  0.00     0.050 A 
ATOM      5  C   UNL d   1      -0.505   0.711   0.003  0.00  0.00     0.048 A 
ATOM      6  C   UNL d   1      -1.670   1.450  -0.001  0.00  0.00     0.020 A 
ATOM      7  C   UNL d   1      -1.704  -1.390   0.022  0.00  0.00     0.047 A 
ATOM      8  O   UNL d   1       1.187  -2.307   0.040  0.00  0.00    -0.267 OA
ATOM      9  O   UNL d   1       1.266   2.286   0.011  0.00  0.00    -0.267 OA
ATOM     10  C   UNL d   1      -2.908  -0.679   0.022  0.00  0.00     0.035 A 
ATOM     11  C   UNL d   1       3.083  -0.041   0.047  0.00  0.00     0.163 C 
ATOM     12  C   UNL d   1      -2.881   0.740   0.009  0.00  0.00     0.030 A 
ENDROOT
BRANCH  10  13
ATOM     13  N   UNL d   1      -4.175  -1.306   0.043  0.00  0.00    -0.327 N 
ATOM     14  C   UNL d   1      -4.420  -2.669   0.071  0.00  0.00     0.218 C 
ATOM     15  O   UNL d   1      -3.579  -3.562   0.073  0.00  0.00    -0.274 OA
ATOM     16  C   UNL d   1      -5.884  -3.025   0.105  0.00  0.00     0.117 C 
ATOM     17  H   UNL d   1      -4.980  -0.693   0.044  0.00  0.00     0.169 HD
ENDBRANCH  10  13
TORSDOF 1
