REMARK  5 active torsions:
REMARK  status: ('A' for Active; 'I' for Inactive)
REMARK    1  A    between atoms: S_15  and  C_3 
REMARK    2  A    between atoms: C_14  and  C_17 
REMARK       I    between atoms: N_16  and  C_14 
REMARK    3  A    between atoms: C_17  and  S_15 
REMARK    4  A    between atoms: C_21  and  N_16 
REMARK    5  A    between atoms: C_22  and  N_16 
ROOT
ATOM      1  N   UNL d   1       0.998   0.541   0.010  0.00  0.00    -0.120 N 
ATOM      2  C   UNL d   1       1.751  -0.621   0.024  0.00  0.00     0.720 A 
ATOM      3  C   UNL d   1       1.927   1.563  -0.002  0.00  0.00     0.183 A 
ATOM      4  N   UNL d   1       3.031  -0.303   0.031  0.00  0.00    -0.128 N 
ATOM      5  HN  UNL d   1       3.808  -0.963   0.045  1.00  0.00     0.205 HD
ATOM      6  N   UNL d   1       1.156  -1.844   0.027  0.00  0.00    -0.130 N 
ATOM      7  HN  UNL d   1       1.746  -2.676   0.034  1.00  0.00     0.205 HD
ATOM      8  N   UNL d   1       3.143   1.066   0.016  0.00  0.00    -0.265 N 
ATOM      9  HN  UNL d   1       4.012   1.600   0.018  1.00  0.00     0.189 HD
ATOM     10  N   UNL d   1      -0.091  -1.988   0.023  0.00  0.00    -0.284 N 
ATOM     11  HN  UNL d   1      -0.503  -2.921   0.023  1.00  0.00     0.187 HD
ATOM     12  C   UNL d   1      -0.408   0.469   0.013  0.00  0.00     0.087 A 
ATOM     13  C   UNL d   1      -0.916  -0.840   0.018  0.00  0.00     0.076 A 
ATOM     14  C   UNL d   1      -1.275   1.565   0.014  0.00  0.00     0.033 A 
ATOM     15  C   UNL d   1      -2.305  -1.027   0.021  0.00  0.00     0.033 A 
ATOM     16  C   UNL d   1      -2.657   1.359   0.017  0.00  0.00     0.002 A 
ATOM     17  C   UNL d   1      -3.172   0.066   0.020  0.00  0.00     0.002 A 
ENDROOT
BRANCH   3  18
ATOM     18  S   UNL d   1       1.551   3.243  -0.059  0.00  0.00    -0.082 SA
BRANCH  18  19
ATOM     19  C   UNL d   1       3.158   4.090   0.030  0.00  0.00     0.185 C 
BRANCH  19  20
ATOM     20  C   UNL d   1       2.929   5.611   0.018  0.00  0.00     0.229 C 
ATOM     21  N   UNL d   1       4.042   6.449  -0.017  0.00  0.00    -0.352 N 
ATOM     22  O   UNL d   1       1.795   6.099   0.031  0.00  0.00    -0.273 OA
BRANCH  21  23
ATOM     23  C   UNL d   1       3.807   7.892  -0.123  0.00  0.00     0.121 C 
ATOM     24  C   UNL d   1       3.665   8.556   1.238  0.00  0.00     0.026 C 
ENDBRANCH  21  23
BRANCH  21  25
ATOM     25  C   UNL d   1       5.432   6.006   0.093  0.00  0.00     0.121 C 
ATOM     26  C   UNL d   1       6.099   5.884  -1.267  0.00  0.00     0.026 C 
ENDBRANCH  21  25
ENDBRANCH  19  20
ENDBRANCH  18  19
ENDBRANCH   3  18
TORSDOF 5
