REMARK  5 active torsions:
REMARK  status: ('A' for Active; 'I' for Inactive)
REMARK    1  A    between atoms: S_5  and  C_1 
REMARK    2  A    between atoms: C_12  and  S_5 
REMARK    3  A    between atoms: C_7  and  C_12 
REMARK       I    between atoms: N_9  and  C_7 
REMARK    4  A    between atoms: C_15  and  N_9 
REMARK    5  A    between atoms: C_16  and  C_10 
ROOT
ATOM      1  C   UNL d   1       2.386   6.494  -0.790  0.00  0.00     0.231 C 
ATOM      2  N   UNL d   1       1.753   5.566   0.020  0.00  0.00    -0.327 N 
ATOM      3  O   UNL d   1       1.816   7.365  -1.449  0.00  0.00    -0.272 OA
ATOM      4  H   UNL d   1       2.351   4.968   0.579  0.00  0.00     0.169 HD
ENDROOT
BRANCH   2   5
ATOM      5  C   UNL d   1       0.357   5.345   0.115  0.00  0.00     0.034 A 
ATOM      6  C   UNL d   1      -0.584   5.970  -0.703  0.00  0.00     0.030 A 
ATOM      7  C   UNL d   1      -1.945   5.650  -0.612  0.00  0.00     0.010 A 
ATOM      8  C   UNL d   1      -2.413   4.699   0.304  0.00  0.00    -0.054 A 
ATOM      9  C   UNL d   1      -1.470   4.111   1.156  0.00  0.00     0.010 A 
ATOM     10  C   UNL d   1      -0.101   4.420   1.053  0.00  0.00     0.030 A 
BRANCH   8  11
ATOM     11  C   UNL d   1      -3.886   4.307   0.256  0.00  0.00     0.018 C 
ATOM     12  C   UNL d   1      -4.676   4.501   1.560  0.00  0.00     0.009 C 
ATOM     13  C   UNL d   1      -4.557   3.357   2.564  0.00  0.00     0.001 C 
ATOM     14  C   UNL d   1      -4.756   1.985   1.929  0.00  0.00     0.000 C 
ATOM     15  C   UNL d   1      -3.908   1.774   0.681  0.00  0.00     0.001 C 
ATOM     16  C   UNL d   1      -4.092   2.900  -0.332  0.00  0.00     0.009 C 
ENDBRANCH   8  11
ENDBRANCH   2   5
BRANCH   1  17
ATOM     17  C   UNL d   1       3.906   6.484  -0.754  0.00  0.00     0.185 C 
BRANCH  17  18
ATOM     18  S   UNL d   1       4.646   4.823  -0.748  0.00  0.00    -0.084 SA
BRANCH  18  19
ATOM     19  C   UNL d   1       6.320   5.280  -0.844  0.00  0.00     0.146 A 
ATOM     20  N   UNL d   1       7.353   4.402  -1.045  0.00  0.00    -0.341 N 
ATOM     21  C   UNL d   1       8.517   5.134  -1.029  0.00  0.00     0.109 A 
ATOM     22  C   UNL d   1       7.301   2.975  -1.242  0.00  0.00     0.158 C 
ATOM     23  C   UNL d   1       8.121   6.435  -0.838  0.00  0.00     0.107 A 
ATOM     24  N   UNL d   1       6.758   6.514  -0.724  0.00  0.00    -0.345 N 
ATOM     25  HN  UNL d   1       6.200   7.355  -0.576  1.00  0.00     0.167 HD
ENDBRANCH  18  19
ENDBRANCH  17  18
ENDBRANCH   1  17
TORSDOF 5
