REMARK  6 active torsions:
REMARK  status: ('A' for Active; 'I' for Inactive)
REMARK    1  A    between atoms: N_2  and  C_1 
REMARK    2  A    between atoms: N_3  and  C_1 
REMARK    3  A    between atoms: C_5  and  N_2 
REMARK    4  A    between atoms: C_6  and  N_3 
REMARK    5  A    between atoms: C_9  and  N_3 
REMARK    6  A    between atoms: O_8  and  C_7 
ROOT
ATOM      1  C   UNL d   1       0.777   0.267  -0.383  0.00  0.00     0.179 C 
ATOM      2  S   UNL d   1       2.177  -0.618  -0.065  0.00  0.00    -0.040 SA
ENDROOT
BRANCH   1   3
ATOM      3  N   UNL d   1       0.104  -0.058  -1.535  0.00  0.00    -0.331 N 
ATOM      4  H   UNL d   1       0.453  -0.891  -1.993  0.00  0.00     0.168 HD
BRANCH   3   5
ATOM      5  C   UNL d   1      -0.875   0.664  -2.257  0.00  0.00     0.068 A 
ATOM      6  C   UNL d   1      -1.697   0.028  -3.202  0.00  0.00     0.095 A 
ATOM      7  C   UNL d   1      -2.695   0.762  -3.861  0.00  0.00     0.039 A 
ATOM      8  C   UNL d   1      -2.869   2.122  -3.603  0.00  0.00     0.003 A 
ATOM      9  C   UNL d   1      -2.015   2.770  -2.728  0.00  0.00     0.002 A 
ATOM     10  C   UNL d   1      -1.016   2.049  -2.075  0.00  0.00     0.032 A 
BRANCH   6  11
ATOM     11  O   UNL d   1      -1.584  -1.271  -3.638  0.00  0.00    -0.354 OA
ATOM     12  C   UNL d   1      -1.560  -2.289  -2.645  0.00  0.00     0.210 C 
ENDBRANCH   6  11
ENDBRANCH   3   5
ENDBRANCH   1   3
BRANCH   1  13
ATOM     13  N   UNL d   1       0.211   1.175   0.512  0.00  0.00    -0.324 N 
BRANCH  13  14
ATOM     14  C   UNL d   1       0.963   2.274   1.085  0.00  0.00     0.036 A 
ATOM     15  C   UNL d   1       2.105   2.779   0.442  0.00  0.00     0.029 A 
ATOM     16  C   UNL d   1       2.776   3.913   0.925  0.00  0.00     0.002 A 
ATOM     17  C   UNL d   1       2.317   4.563   2.065  0.00  0.00     0.000 A 
ATOM     18  C   UNL d   1       1.194   4.079   2.724  0.00  0.00     0.002 A 
ATOM     19  C   UNL d   1       0.522   2.953   2.234  0.00  0.00     0.029 A 
ENDBRANCH  13  14
BRANCH  13  20
ATOM     20  C   UNL d   1      -1.205   1.023   0.913  0.00  0.00     0.127 C 
ATOM     21  C   UNL d   1      -1.409   0.129   2.127  0.00  0.00     0.027 C 
ENDBRANCH  13  20
ENDBRANCH   1  13
TORSDOF 6
