REMARK  5 active torsions:
REMARK  status: ('A' for Active; 'I' for Inactive)
REMARK    1  A    between atoms: C_2  and  C_1 
REMARK    2  A    between atoms: C_6  and  C_1 
REMARK    3  A    between atoms: C_13  and  C_6 
REMARK    4  A    between atoms: S_7  and  C_13 
REMARK    5  A    between atoms: C_8  and  S_7 
ROOT
ATOM      1  C   UNL d   1       2.632  -0.056   0.006  0.00  0.00     0.094 C 
ENDROOT
BRANCH   1   2
ATOM      2  C   UNL d   1       1.116  -0.043   0.063  0.00  0.00     0.160 C 
ATOM      3  O   UNL d   1       0.499   0.545   0.950  0.00  0.00    -0.292 OA
BRANCH   2   4
ATOM      4  C   UNL d   1       0.350  -0.763  -1.001  0.00  0.00     0.010 A 
ATOM      5  C   UNL d   1      -1.051  -0.687  -0.983  0.00  0.00     0.017 A 
ATOM      6  C   UNL d   1      -1.808  -1.308  -1.980  0.00  0.00     0.025 A 
ATOM      7  C   UNL d   1      -1.167  -2.010  -2.997  0.00  0.00     0.034 A 
ATOM      8  C   UNL d   1       0.223  -2.110  -3.016  0.00  0.00     0.025 A 
ATOM      9 CL   UNL d   1      -2.094  -2.751  -4.242  0.00  0.00    -0.084 Cl
ATOM     10  C   UNL d   1       0.984  -1.490  -2.018  0.00  0.00     0.017 A 
ENDBRANCH   2   4
ENDBRANCH   1   2
BRANCH   1  11
ATOM     11  C   UNL d   1       3.220   0.844   1.088  0.00  0.00     0.087 C 
BRANCH  11  12
ATOM     12  S   UNL d   1       5.045   0.813   0.996  0.00  0.00    -0.130 SA
BRANCH  12  13
ATOM     13  C   UNL d   1       5.423   1.872   2.380  0.00  0.00     0.000 A 
ATOM     14  C   UNL d   1       6.190   1.372   3.438  0.00  0.00     0.020 A 
ATOM     15  C   UNL d   1       6.486   2.180   4.539  0.00  0.00     0.020 A 
ATOM     16  C   UNL d   1       6.022   3.494   4.577  0.00  0.00     0.011 A 
ATOM     17  C   UNL d   1       5.276   4.010   3.519  0.00  0.00     0.020 A 
ATOM     18 BR   UNL d   1       6.406   4.584   6.072  0.00  0.00    -0.051 Br
ATOM     19  C   UNL d   1       4.983   3.199   2.420  0.00  0.00     0.020 A 
ENDBRANCH  12  13
ENDBRANCH  11  12
ENDBRANCH   1  11
TORSDOF 5
