REMARK  6 active torsions:
REMARK  status: ('A' for Active; 'I' for Inactive)
REMARK    1  A    between atoms: O_5  and  C_1 
REMARK    2  A    between atoms: C_13  and  N_2 
REMARK    3  A    between atoms: C_8  and  O_5 
REMARK       I    between atoms: N_11  and  C_8 
REMARK    4  A    between atoms: C_16  and  C_13 
REMARK    5  A    between atoms: C_20  and  C_16 
REMARK    6  A    between atoms: O_17  and  C_20 
ROOT
ATOM      1  C   UNL d   1      -0.740   1.261   0.318  0.00  0.00     0.165 C 
ATOM      2  N   UNL d   1      -1.332   0.274  -0.477  0.00  0.00    -0.303 N 
ATOM      3  C   UNL d   1      -0.556  -0.758  -1.040  0.00  0.00     0.180 C 
ATOM      4  C   UNL d   1       0.599   1.409   0.337  0.00  0.00     0.012 C 
ATOM      5  N   UNL d   1       0.798  -0.741  -0.833  0.00  0.00    -0.336 N 
ATOM      6  HN  UNL d   1       1.375  -1.511  -1.169  1.00  0.00     0.168 HD
ATOM      7  C   UNL d   1       1.343   0.249  -0.211  0.00  0.00     0.018 C 
ATOM      8  S   UNL d   1      -1.198  -2.040  -1.946  0.00  0.00    -0.040 SA
ATOM      9  C   UNL d   1       1.364   2.623   0.760  0.00  0.00     0.055 C 
ATOM     10  C   UNL d   1       2.842   0.182  -0.017  0.00  0.00     0.069 C 
ENDROOT
BRANCH   1  11
ATOM     11  O   UNL d   1      -1.655   2.136   0.947  0.00  0.00    -0.243 OA
BRANCH  11  12
ATOM     12  C   UNL d   1      -1.482   2.517   2.260  0.00  0.00     0.368 C 
ATOM     13  N   UNL d   1      -2.615   3.117   2.799  0.00  0.00    -0.336 N 
ATOM     14  C   UNL d   1      -2.514   3.820   4.062  0.00  0.00     0.154 C 
ATOM     15  C   UNL d   1      -3.957   2.804   2.338  0.00  0.00     0.154 C 
ATOM     16  O   UNL d   1      -0.446   2.376   2.897  0.00  0.00    -0.238 OA
ENDBRANCH  11  12
ENDBRANCH   1  11
BRANCH   2  17
ATOM     17  C   UNL d   1      -2.717   0.544  -0.947  0.00  0.00     0.135 C 
BRANCH  17  18
ATOM     18  C   UNL d   1      -2.744   1.736  -1.918  0.00  0.00     0.046 C 
BRANCH  18  19
ATOM     19  C   UNL d   1      -4.116   1.944  -2.545  0.00  0.00     0.168 C 
BRANCH  19  20
ATOM     20  O   UNL d   1      -4.212   3.209  -3.203  0.00  0.00    -0.396 OA
ATOM     21  C   UNL d   1      -3.460   3.290  -4.407  0.00  0.00     0.201 C 
ENDBRANCH  19  20
ENDBRANCH  18  19
ENDBRANCH  17  18
ENDBRANCH   2  17
TORSDOF 6
