REMARK  7 active torsions:
REMARK  status: ('A' for Active; 'I' for Inactive)
REMARK    1  A    between atoms: C_13  and  N_1 
REMARK    2  A    between atoms: C_6  and  C_3 
REMARK    3  A    between atoms: C_17  and  N_5 
REMARK    4  A    between atoms: C_18  and  C_10 
REMARK    5  A    between atoms: C_15  and  C_13 
REMARK    6  A    between atoms: O_20  and  C_15 
REMARK    7  A    between atoms: C_25  and  O_20 
ROOT
ATOM      1  N   UNL d   1      -0.721   1.145   0.035  0.00  0.00    -0.256 N 
ATOM      2  C   UNL d   1      -1.377  -0.065  -0.162  0.00  0.00     0.332 C 
ATOM      3  C   UNL d   1       1.462   0.054   0.061  0.00  0.00     0.082 C 
ATOM      4  C   UNL d   1       0.653   1.298   0.131  0.00  0.00     0.266 C 
ATOM      5  N   UNL d   1      -0.578  -1.205  -0.017  0.00  0.00    -0.304 N 
ATOM      6  C   UNL d   1       0.801  -1.112   0.015  0.00  0.00     0.116 C 
ATOM      7  O   UNL d   1      -2.575  -0.124  -0.424  0.00  0.00    -0.246 OA
ATOM      8  O   UNL d   1       1.172   2.409   0.241  0.00  0.00    -0.267 OA
ENDROOT
BRANCH   3   9
ATOM      9  C   UNL d   1       2.892   0.046  -0.003  0.00  0.00     0.091 A 
ATOM     10  N   UNL d   1       3.615  -0.865  -0.637  0.00  0.00    -0.349 N 
ATOM     11  C   UNL d   1       4.974  -0.619  -0.510  0.00  0.00     0.050 A 
ATOM     12  HN  UNL d   1       3.221  -1.650  -1.156  1.00  0.00     0.166 HD
ATOM     13  C   UNL d   1       5.286   0.504   0.225  0.00  0.00     0.082 A 
ATOM     14  S   UNL d   1       3.860   1.222   0.829  0.00  0.00    -0.081 SA
BRANCH  11  15
ATOM     15  C   UNL d   1       5.963  -1.505  -1.110  0.00  0.00    -0.009 A 
ATOM     16  C   UNL d   1       5.651  -2.202  -2.285  0.00  0.00     0.014 A 
ATOM     17  C   UNL d   1       6.570  -3.091  -2.850  0.00  0.00     0.001 A 
ATOM     18  C   UNL d   1       7.807  -3.296  -2.242  0.00  0.00     0.000 A 
ATOM     19  C   UNL d   1       8.131  -2.606  -1.077  0.00  0.00     0.001 A 
ATOM     20  C   UNL d   1       7.216  -1.713  -0.514  0.00  0.00     0.014 A 
ENDBRANCH  11  15
ENDBRANCH   3   9
BRANCH   1  21
ATOM     21  C   UNL d   1      -1.525   2.363   0.071  0.00  0.00     0.248 C 
BRANCH  21  22
ATOM     22  C   UNL d   1      -1.567   3.135  -1.237  0.00  0.00     0.277 C 
ATOM     23  O   UNL d   1      -2.242   4.152  -1.384  0.00  0.00    -0.263 OA
BRANCH  22  24
ATOM     24  O   UNL d   1      -0.808   2.561  -2.211  0.00  0.00    -0.321 OA
BRANCH  24  25
ATOM     25  C   UNL d   1      -0.995   3.083  -3.534  0.00  0.00     0.174 C 
ATOM     26  C   UNL d   1      -2.077   2.258  -4.203  0.00  0.00     0.034 C 
ENDBRANCH  24  25
ENDBRANCH  22  24
ENDBRANCH  21  22
ENDBRANCH   1  21
BRANCH   5  27
ATOM     27  C   UNL d   1      -1.240  -2.529  -0.061  0.00  0.00     0.086 C 
ATOM     28  C   UNL d   1      -1.176  -3.142  -1.460  0.00  0.00     0.032 C 
ATOM     29  C   UNL d   1      -0.730  -3.513   1.001  0.00  0.00     0.032 C 
ENDBRANCH   5  27
TORSDOF 7
