REMARK  3 active torsions:
REMARK  status: ('A' for Active; 'I' for Inactive)
REMARK    1  A    between atoms: C_9  and  C_3 
REMARK    2  A    between atoms: C_8  and  C_7 
REMARK    3  A    between atoms: C_15  and  C_9 
ROOT
ATOM      1  N   UNL d   1       1.291  -1.152  -0.009  0.00  0.00    -0.297 N 
ATOM      2  HN  UNL d   1       1.839  -2.012  -0.007  1.00  0.00     0.187 HD
ATOM      3  C   UNL d   1      -0.235   1.248   0.010  0.00  0.00     0.018 A 
ATOM      4  N   UNL d   1      -0.071  -1.173  -0.069  0.00  0.00    -0.266 N 
ATOM      5  C   UNL d   1      -0.896  -0.077  -0.104  0.00  0.00     0.266 A 
ATOM      6  C   UNL d   1       1.102   1.291   0.084  0.00  0.00     0.045 A 
ATOM      7  C   UNL d   1       1.858   0.015   0.047  0.00  0.00     0.059 A 
ATOM      8  O   UNL d   1      -2.114  -0.183  -0.219  0.00  0.00    -0.266 OA
ATOM      9  H   UNL d   1      -0.506  -2.086  -0.147  0.00  0.00     0.190 HD
ENDROOT
BRANCH   3  10
ATOM     10  C   UNL d   1      -1.085   2.481  -0.056  0.00  0.00     0.084 C 
BRANCH  10  11
ATOM     11  C   UNL d   1      -1.536   3.018   1.277  0.00  0.00    -0.038 A 
ATOM     12  C   UNL d   1      -1.102   4.260   1.734  0.00  0.00     0.095 A 
ATOM     13  N   UNL d   1      -1.529   4.846   2.876  0.00  0.00    -0.375 N 
ATOM     14  C   UNL d   1      -2.438   4.163   3.603  0.00  0.00     0.087 A 
ATOM     15  HN  UNL d   1      -1.181   5.758   3.173  1.00  0.00     0.164 HD
ATOM     16  C   UNL d   1      -2.920   2.914   3.252  0.00  0.00     0.018 A 
ATOM     17  C   UNL d   1      -2.458   2.334   2.073  0.00  0.00     0.010 A 
ENDBRANCH  10  11
ENDBRANCH   3  10
BRANCH   7  18
ATOM     18  C   UNL d   1       3.346   0.115   0.089  0.00  0.00    -0.008 A 
ATOM     19  C   UNL d   1       4.077  -0.923   0.675  0.00  0.00     0.014 A 
ATOM     20  C   UNL d   1       5.470  -0.845   0.756  0.00  0.00     0.007 A 
ATOM     21  C   UNL d   1       6.150   0.268   0.246  0.00  0.00    -0.062 A 
ATOM     22  C   UNL d   1       5.420   1.291  -0.365  0.00  0.00     0.007 A 
ATOM     23  C   UNL d   1       7.644   0.346   0.345  0.00  0.00     0.048 C 
ATOM     24  C   UNL d   1       4.029   1.212  -0.453  0.00  0.00     0.014 A 
ENDBRANCH   7  18
TORSDOF 3
