REMARK  9 active torsions:
REMARK  status: ('A' for Active; 'I' for Inactive)
REMARK    1  A    between atoms: N_3  and  C_1 
REMARK    2  A    between atoms: N_5  and  C_1 
REMARK       I    between atoms: C_2  and  N_4 
REMARK    3  A    between atoms: O_11  and  C_2 
REMARK    4  A    between atoms: N_4  and  N_3 
REMARK    5  A    between atoms: C_8  and  N_5 
REMARK    6  A    between atoms: O_9  and  C_10 
REMARK    7  A    between atoms: C_12  and  O_9 
REMARK    8  A    between atoms: C_18  and  O_11 
REMARK    9  A    between atoms: C_17  and  C_12 
ROOT
ATOM      1  C   UNL d   1      -1.143  -0.735   0.776  0.00  0.00     0.034 A 
ATOM      2  C   UNL d   1      -3.938  -0.999   0.824  0.00  0.00     0.069 A 
ATOM      3  C   UNL d   1      -1.859  -0.920  -0.408  0.00  0.00     0.032 A 
ATOM      4  C   UNL d   1      -1.825  -0.758   1.992  0.00  0.00     0.032 A 
ATOM      5  C   UNL d   1      -3.220  -0.876   2.016  0.00  0.00     0.039 A 
ATOM      6  C   UNL d   1      -3.247  -1.056  -0.384  0.00  0.00     0.039 A 
ENDROOT
BRANCH   1   7
ATOM      7  N   UNL d   1       0.257  -0.602   0.779  0.00  0.00    -0.332 N 
ATOM      8  H   UNL d   1       0.726  -0.732   1.669  0.00  0.00     0.168 HD
BRANCH   7   9
ATOM      9  C   UNL d   1       1.056   0.037  -0.147  0.00  0.00     0.191 C 
ATOM     10  S   UNL d   1       0.622   1.182  -1.283  0.00  0.00    -0.039 SA
BRANCH   9  11
ATOM     11  N   UNL d   1       2.385  -0.309  -0.054  0.00  0.00    -0.272 N 
ATOM     12  H   UNL d   1       3.044   0.113  -0.710  0.00  0.00     0.189 HD
BRANCH  11  13
ATOM     13  N   UNL d   1       2.772  -1.531   0.522  0.00  0.00    -0.243 N 
ATOM     14  C   UNL d   1       4.114  -1.817   0.549  0.00  0.00     0.379 C 
ATOM     15  O   UNL d   1       5.005  -1.001   0.353  0.00  0.00    -0.237 OA
ATOM     16  H   UNL d   1       2.148  -2.321   0.394  0.00  0.00     0.192 HD
BRANCH  14  17
ATOM     17  O   UNL d   1       4.293  -3.147   0.759  0.00  0.00    -0.303 OA
BRANCH  17  18
ATOM     18  C   UNL d   1       5.653  -3.593   0.702  0.00  0.00     0.176 C 
ATOM     19  C   UNL d   1       6.025  -3.922  -0.734  0.00  0.00     0.034 C 
ENDBRANCH  17  18
ENDBRANCH  14  17
ENDBRANCH  11  13
ENDBRANCH   9  11
ENDBRANCH   7   9
ENDBRANCH   1   7
BRANCH   2  20
ATOM     20  O   UNL d   1      -5.298  -1.094   0.949  0.00  0.00    -0.347 OA
BRANCH  20  21
ATOM     21  C   UNL d   1      -6.034  -0.600  -0.174  0.00  0.00     0.214 C 
BRANCH  21  22
ATOM     22  C   UNL d   1      -7.514  -0.705   0.097  0.00  0.00    -0.034 A 
ATOM     23  C   UNL d   1      -8.328   0.436   0.096  0.00  0.00     0.009 A 
ATOM     24  C   UNL d   1      -9.707   0.318   0.273  0.00  0.00     0.001 A 
ATOM     25  C   UNL d   1     -10.284  -0.938   0.452  0.00  0.00     0.000 A 
ATOM     26  C   UNL d   1      -9.483  -2.078   0.464  0.00  0.00     0.001 A 
ATOM     27  C   UNL d   1      -8.104  -1.962   0.289  0.00  0.00     0.009 A 
ENDBRANCH  21  22
ENDBRANCH  20  21
ENDBRANCH   2  20
TORSDOF 9
