REMARK  6 active torsions:
REMARK  status: ('A' for Active; 'I' for Inactive)
REMARK    1  A    between atoms: N_2  and  C_1 
REMARK    2  A    between atoms: N_6  and  C_1 
REMARK    3  A    between atoms: C_9  and  N_2 
REMARK    4  A    between atoms: N_3  and  N_6 
REMARK    5  A    between atoms: N_8  and  C_7 
REMARK    6  A    between atoms: C_13  and  C_12 
ROOT
ATOM      1  N   UNL d   1       3.121  -1.243  -0.294  0.00  0.00    -0.309 N 
ATOM      2  HN  UNL d   1       2.623  -2.038  -0.695  1.00  0.00     0.186 HD
ATOM      3  C   UNL d   1       4.401  -1.248  -0.090  0.00  0.00     0.118 C 
ENDROOT
BRANCH   1   4
ATOM      4  N   UNL d   1       2.494  -0.084   0.072  0.00  0.00    -0.277 N 
ATOM      5  H   UNL d   1       3.010   0.660   0.534  0.00  0.00     0.189 HD
BRANCH   4   6
ATOM      6  C   UNL d   1       1.157   0.144  -0.195  0.00  0.00     0.187 C 
ATOM      7  S   UNL d   1       0.493   1.595   0.285  0.00  0.00    -0.040 SA
BRANCH   6   8
ATOM      8  N   UNL d   1       0.562  -0.890  -0.867  0.00  0.00    -0.358 N 
ATOM      9  H   UNL d   1       1.245  -1.631  -1.012  0.00  0.00     0.162 HD
BRANCH   8  10
ATOM     10  C   UNL d   1      -0.719  -0.988  -1.597  0.00  0.00     0.021 C 
ATOM     11  C   UNL d   1      -0.817   0.099  -2.680  0.00  0.00     0.037 C 
ATOM     12  C   UNL d   1      -0.754  -2.361  -2.301  0.00  0.00     0.037 C 
ATOM     13  C   UNL d   1      -1.931  -0.918  -0.655  0.00  0.00     0.037 C 
ENDBRANCH   8  10
ENDBRANCH   6   8
ENDBRANCH   4   6
ENDBRANCH   1   4
BRANCH   3  14
ATOM     14  C   UNL d   1       5.232  -2.439  -0.358  0.00  0.00    -0.019 A 
ATOM     15  C   UNL d   1       4.654  -3.632  -0.780  0.00  0.00     0.015 A 
ATOM     16  C   UNL d   1       5.450  -4.770  -0.960  0.00  0.00     0.030 A 
ATOM     17  C   UNL d   1       6.836  -4.753  -0.731  0.00  0.00     0.029 A 
ATOM     18  C   UNL d   1       7.392  -3.523  -0.334  0.00  0.00     0.030 A 
ATOM     19  C   UNL d   1       6.608  -2.376  -0.147  0.00  0.00     0.015 A 
BRANCH  17  20
ATOM     20  N   UNL d   1       7.620  -5.896  -0.814  0.00  0.00    -0.390 N 
ATOM     21  C   UNL d   1       7.019  -7.224  -0.761  0.00  0.00     0.149 C 
ATOM     22  C   UNL d   1       8.946  -5.832  -1.424  0.00  0.00     0.149 C 
ENDBRANCH  17  20
ENDBRANCH   3  14
TORSDOF 6
