REMARK  5 active torsions:
REMARK  status: ('A' for Active; 'I' for Inactive)
REMARK    1  A    between atoms: C_7  and  C_2 
REMARK    2  A    between atoms: C_15  and  C_7 
REMARK    3  A    between atoms: C_9  and  N_14 
REMARK    4  A    between atoms: N_14  and  C_18 
REMARK    5  A    between atoms: C_18  and  C_15 
ROOT
ATOM      1  N   UNL d   1      -7.100   0.600   0.140  0.00  0.00    -0.388 N 
ATOM      2  H   UNL d   1      -6.912   1.592  -0.034  0.00  0.00     0.159 HD
ENDROOT
BRANCH   1   3
ATOM      3  C   UNL d   1      -8.338   0.202  -0.390  0.00  0.00     0.050 A 
ATOM      4  C   UNL d   1      -9.295   1.160  -0.792  0.00  0.00     0.062 A 
ATOM      5  C   UNL d   1     -10.536   0.781  -1.313  0.00  0.00     0.050 A 
ATOM      6 CL   UNL d   1      -8.943   2.853  -0.691  0.00  0.00    -0.082 Cl
ATOM      7  C   UNL d   1     -10.847  -0.569  -1.420  0.00  0.00     0.035 A 
ATOM      8  C   UNL d   1      -9.945  -1.535  -0.985  0.00  0.00     0.026 A 
ATOM      9 CL   UNL d   1     -12.356  -1.053  -2.088  0.00  0.00    -0.084 Cl
ATOM     10  C   UNL d   1      -8.709  -1.149  -0.458  0.00  0.00     0.032 A 
ENDBRANCH   1   3
BRANCH   1  11
ATOM     11  C   UNL d   1      -5.952  -0.293   0.023  0.00  0.00     0.127 C 
BRANCH  11  12
ATOM     12  C   UNL d   1      -4.638   0.472  -0.031  0.00  0.00     0.104 C 
BRANCH  12  13
ATOM     13  C   UNL d   1      -4.341   1.181   1.274  0.00  0.00     0.168 C 
ATOM     14  O   UNL d   1      -4.667   2.366   1.384  0.00  0.00    -0.292 OA
BRANCH  13  15
ATOM     15  C   UNL d   1      -3.663   0.427   2.325  0.00  0.00     0.052 A 
ATOM     16  S   UNL d   1      -3.339   1.207   3.827  0.00  0.00    -0.074 SA
ATOM     17  C   UNL d   1      -2.578  -0.167   4.446  0.00  0.00     0.075 A 
ATOM     18  C   UNL d   1      -2.555  -1.219   3.570  0.00  0.00     0.033 A 
ATOM     19 CL   UNL d   1      -1.925  -0.142   6.033  0.00  0.00    -0.076 Cl
ATOM     20  C   UNL d   1      -3.192  -0.877   2.336  0.00  0.00     0.025 A 
ENDBRANCH  13  15
ENDBRANCH  12  13
ENDBRANCH  11  12
ENDBRANCH   1  11
TORSDOF 5
