REMARK  9 active torsions:
REMARK  status: ('A' for Active; 'I' for Inactive)
REMARK    1  A    between atoms: C_2  and  C_1 
REMARK    2  A    between atoms: N_3  and  C_1 
REMARK    3  A    between atoms: C_4  and  C_1 
REMARK    4  A    between atoms: N_5  and  C_1 
REMARK       I    between atoms: C_6  and  N_3 
REMARK    5  A    between atoms: O_14  and  C_4 
REMARK    6  A    between atoms: C_12  and  N_5 
REMARK    7  A    between atoms: C_13  and  C_6 
REMARK    8  A    between atoms: C_19  and  C_13 
REMARK    9  A    between atoms: C_22  and  O_14 
ROOT
ATOM      1  C   UNL d   1       1.003  -0.114  -0.030  0.00  0.00     0.296 C 
ENDROOT
BRANCH   1   2
ATOM      2  C   UNL d   1       0.283   0.085  -1.420  0.00  0.00     0.442 C 
ATOM      3  F   UNL d   1      -0.411  -1.022  -1.799  0.00  0.00    -0.166 F 
ATOM      4  F   UNL d   1      -0.592   1.120  -1.450  0.00  0.00    -0.166 F 
ATOM      5  F   UNL d   1       1.168   0.322  -2.427  0.00  0.00    -0.166 F 
ENDBRANCH   1   2
BRANCH   1   6
ATOM      6  N   UNL d   1       0.613  -1.276   0.758  0.00  0.00    -0.319 N 
ATOM      7  C   UNL d   1      -0.701  -1.503   1.087  0.00  0.00     0.224 C 
ATOM      8  O   UNL d   1      -1.597  -0.788   0.671  0.00  0.00    -0.273 OA
ATOM      9  H   UNL d   1       1.351  -1.909   1.017  0.00  0.00     0.165 HD
BRANCH   7  10
ATOM     10  C   UNL d   1      -0.931  -2.693   2.005  0.00  0.00     0.141 C 
BRANCH  10  11
ATOM     11  C   UNL d   1      -1.376  -3.914   1.248  0.00  0.00    -0.050 A 
ATOM     12  C   UNL d   1      -0.632  -5.100   1.295  0.00  0.00     0.007 A 
ATOM     13  C   UNL d   1      -1.046  -6.218   0.566  0.00  0.00     0.001 A 
ATOM     14  C   UNL d   1      -2.203  -6.159  -0.208  0.00  0.00     0.000 A 
ATOM     15  C   UNL d   1      -2.959  -4.990  -0.246  0.00  0.00     0.001 A 
ATOM     16  C   UNL d   1      -2.551  -3.876   0.485  0.00  0.00     0.007 A 
ENDBRANCH  10  11
ENDBRANCH   7  10
ENDBRANCH   1   6
BRANCH   1  17
ATOM     17  C   UNL d   1       0.675   1.171   0.796  0.00  0.00     0.318 C 
ATOM     18  O   UNL d   1       0.215   1.185   1.933  0.00  0.00    -0.260 OA
BRANCH  17  19
ATOM     19  O   UNL d   1       1.105   2.299   0.148  0.00  0.00    -0.318 OA
BRANCH  19  20
ATOM     20  C   UNL d   1       0.748   3.537   0.786  0.00  0.00     0.174 C 
ATOM     21  C   UNL d   1       1.710   3.855   1.915  0.00  0.00     0.034 C 
ENDBRANCH  19  20
ENDBRANCH  17  19
ENDBRANCH   1  17
BRANCH   1  22
ATOM     22  N   UNL d   1       2.492  -0.278  -0.017  0.00  0.00    -0.348 N 
ATOM     23  H   UNL d   1       2.970   0.494   0.443  0.00  0.00     0.163 HD
BRANCH  22  24
ATOM     24  C   UNL d   1       3.273  -1.006  -0.893  0.00  0.00     0.030 A 
ATOM     25  C   UNL d   1       2.781  -2.009  -1.736  0.00  0.00     0.032 A 
ATOM     26  C   UNL d   1       3.631  -2.712  -2.599  0.00  0.00     0.044 A 
ATOM     27  C   UNL d   1       4.992  -2.443  -2.598  0.00  0.00     0.116 A 
ATOM     28  C   UNL d   1       5.520  -1.491  -1.741  0.00  0.00     0.044 A 
ATOM     29  F   UNL d   1       5.803  -3.115  -3.426  0.00  0.00    -0.206 F 
ATOM     30  C   UNL d   1       4.663  -0.785  -0.892  0.00  0.00     0.032 A 
ENDBRANCH  22  24
ENDBRANCH   1  22
TORSDOF 9
