REMARK  5 active torsions:
REMARK  status: ('A' for Active; 'I' for Inactive)
REMARK    1  A    between atoms: C_2  and  S_1 
REMARK    2  A    between atoms: N_4  and  S_1 
REMARK    3  A    between atoms: S_6  and  N_4 
REMARK    4  A    between atoms: C_15  and  S_6 
REMARK    5  A    between atoms: C_8  and  C_14 
ROOT
ATOM      1  N   UNL d   1       0.942  -1.661   1.217  0.00  0.00    -0.258 N 
ATOM      2  HN  UNL d   1       1.835  -1.185   1.348  1.00  0.00     0.186 HD
ENDROOT
BRANCH   1   3
ATOM      3  S   UNL d   1      -0.351  -1.312   2.266  0.00  0.00     0.270 S 
ATOM      4  O   UNL d   1      -1.618  -1.539   1.595  0.00  0.00    -0.200 OA
ATOM      5  O   UNL d   1      -0.091  -1.911   3.559  0.00  0.00    -0.200 OA
BRANCH   3   6
ATOM      6  C   UNL d   1      -0.176   0.423   2.441  0.00  0.00     0.111 A 
ATOM      7  C   UNL d   1       1.031   1.029   2.825  0.00  0.00     0.108 A 
ATOM      8  C   UNL d   1       1.165   2.483   2.868  0.00  0.00     0.086 A 
ATOM      9  N   UNL d   1       2.208   0.500   3.183  0.00  0.00    -0.238 N 
ATOM     10  N   UNL d   1       2.410   2.781   3.255  0.00  0.00    -0.239 N 
ATOM     11  C   UNL d   1       0.109   3.353   2.534  0.00  0.00     0.034 A 
ATOM     12  O   UNL d   1       3.044   1.569   3.455  0.00  0.00    -0.156 OA
ATOM     13  HN  UNL d   1       2.809   3.712   3.378  1.00  0.00     0.197 HD
ATOM     14  C   UNL d   1      -1.091   2.715   2.169  0.00  0.00     0.004 A 
ATOM     15  C   UNL d   1      -1.232   1.305   2.125  0.00  0.00     0.028 A 
ATOM     16  HN  UNL d   1       2.441  -0.491   3.244  1.00  0.00     0.197 HD
ENDBRANCH   3   6
ENDBRANCH   1   3
BRANCH   1  17
ATOM     17  S   UNL d   1       0.784  -2.722   0.028  0.00  0.00    -0.070 SA
ATOM     18  C   UNL d   1       0.054  -4.129   0.898  0.00  0.00     0.109 C 
BRANCH  17  19
ATOM     19  C   UNL d   1       2.507  -3.192   0.131  0.00  0.00     0.078 A 
ATOM     20  N   UNL d   1       3.119  -3.031  -1.060  0.00  0.00    -0.359 N 
ATOM     21  C   UNL d   1       4.447  -3.290  -1.102  0.00  0.00     0.105 A 
ATOM     22  HN  UNL d   1       2.606  -2.730  -1.888  1.00  0.00     0.166 HD
ATOM     23  C   UNL d   1       5.193  -3.711  -0.009  0.00  0.00     0.063 A 
ATOM     24  C   UNL d   1       4.522  -3.875   1.207  0.00  0.00     0.020 A 
ATOM     25  C   UNL d   1       3.160  -3.609   1.284  0.00  0.00     0.038 A 
BRANCH  23  26
ATOM     26  C   UNL d   1       6.662  -3.971  -0.132  0.00  0.00     0.418 C 
ATOM     27  F   UNL d   1       7.151  -3.771  -1.387  0.00  0.00    -0.166 F 
ATOM     28  F   UNL d   1       7.402  -3.175   0.688  0.00  0.00    -0.166 F 
ATOM     29  F   UNL d   1       6.991  -5.251   0.196  0.00  0.00    -0.166 F 
ENDBRANCH  23  26
ENDBRANCH  17  19
ENDBRANCH   1  17
TORSDOF 5
