REMARK  5 active torsions:
REMARK  status: ('A' for Active; 'I' for Inactive)
REMARK    1  A    between atoms: N_2  and  C_1 
REMARK    2  A    between atoms: N_6  and  C_1 
REMARK    3  A    between atoms: C_9  and  N_2 
REMARK    4  A    between atoms: N_3  and  N_6 
REMARK    5  A    between atoms: C_11  and  C_10 
ROOT
ATOM      1  N   UNL d   1       3.231   0.836   0.889  0.00  0.00    -0.309 N 
ATOM      2  HN  UNL d   1       2.722   1.453   1.522  1.00  0.00     0.186 HD
ATOM      3  C   UNL d   1       4.527   0.750   0.874  0.00  0.00     0.120 C 
ENDROOT
BRANCH   1   4
ATOM      4  N   UNL d   1       2.610   0.023  -0.020  0.00  0.00    -0.277 N 
ATOM      5  H   UNL d   1       3.151  -0.511  -0.694  0.00  0.00     0.189 HD
BRANCH   4   6
ATOM      6  C   UNL d   1       1.236  -0.102  -0.083  0.00  0.00     0.187 C 
ATOM      7  S   UNL d   1       0.591  -1.077  -1.269  0.00  0.00    -0.040 SA
BRANCH   6   8
ATOM      8  N   UNL d   1       0.588   0.597   0.900  0.00  0.00    -0.358 N 
ATOM      9  H   UNL d   1       1.270   1.099   1.464  0.00  0.00     0.162 HD
BRANCH   8  10
ATOM     10  C   UNL d   1      -0.798   0.523   1.407  0.00  0.00     0.021 C 
ATOM     11  C   UNL d   1      -1.153  -0.916   1.823  0.00  0.00     0.037 C 
ATOM     12  C   UNL d   1      -0.886   1.411   2.667  0.00  0.00     0.037 C 
ATOM     13  C   UNL d   1      -1.819   1.056   0.390  0.00  0.00     0.037 C 
ENDBRANCH   8  10
ENDBRANCH   6   8
ENDBRANCH   4   6
ENDBRANCH   1   4
BRANCH   3  14
ATOM     14  C   UNL d   1       5.372   1.600   1.725  0.00  0.00    -0.004 A 
ATOM     15  C   UNL d   1       6.752   1.460   1.678  0.00  0.00     0.100 A 
ATOM     16  N   UNL d   1       7.609   2.231   2.388  0.00  0.00    -0.374 N 
ATOM     17  C   UNL d   1       7.059   3.186   3.174  0.00  0.00     0.087 A 
ATOM     18  HN  UNL d   1       8.619   2.099   2.334  1.00  0.00     0.164 HD
ATOM     19  C   UNL d   1       5.693   3.393   3.290  0.00  0.00     0.018 A 
ATOM     20  C   UNL d   1       4.833   2.585   2.553  0.00  0.00     0.015 A 
ENDBRANCH   3  14
TORSDOF 5
