REMARK  5 active torsions:
REMARK  status: ('A' for Active; 'I' for Inactive)
REMARK    1  A    between atoms: N_13  and  C_3 
REMARK    2  A    between atoms: C_12  and  C_10 
REMARK    3  A    between atoms: C_14  and  C_11 
REMARK    4  A    between atoms: N_15  and  N_13 
REMARK    5  A    between atoms: C_21  and  C_20 
ROOT
ATOM      1  N   UNL d   1       0.247   0.642  -0.076  0.00  0.00    -0.222 N 
ATOM      2  C   UNL d   1       0.110  -0.745  -0.062  0.00  0.00     0.131 A 
ATOM      3  C   UNL d   1      -0.883   1.477   0.007  0.00  0.00     0.145 A 
ATOM      4  N   UNL d   1       1.557   1.021  -0.119  0.00  0.00    -0.294 N 
ATOM      5  HN  UNL d   1       1.928   1.970  -0.158  1.00  0.00     0.187 HD
ATOM      6  N   UNL d   1      -1.107  -1.364  -0.016  0.00  0.00    -0.337 N 
ATOM      7  HN  UNL d   1      -1.189  -2.380  -0.033  1.00  0.00     0.167 HD
ATOM      8  C   UNL d   1       1.388  -1.249  -0.063  0.00  0.00     0.077 A 
ATOM      9  C   UNL d   1      -2.099   0.907   0.079  0.00  0.00     0.086 A 
ATOM     10  C   UNL d   1      -2.163  -0.590   0.051  0.00  0.00     0.121 A 
ATOM     11  C   UNL d   1       2.250  -0.127  -0.101  0.00  0.00     0.037 A 
ENDROOT
BRANCH   3  12
ATOM     12  N   UNL d   1      -0.661   2.852   0.059  0.00  0.00    -0.284 N 
ATOM     13  H   UNL d   1       0.352   3.044   0.034  0.00  0.00     0.188 HD
BRANCH  12  14
ATOM     14  N   UNL d   1      -1.403   3.611   0.915  0.00  0.00    -0.309 N 
ATOM     15  C   UNL d   1      -1.112   4.873   0.922  0.00  0.00     0.118 C 
ATOM     16  HN  UNL d   1      -2.132   3.214   1.507  1.00  0.00     0.186 HD
BRANCH  15  17
ATOM     17  C   UNL d   1      -1.729   5.789   1.901  0.00  0.00    -0.019 A 
ATOM     18  C   UNL d   1      -2.461   5.278   2.979  0.00  0.00     0.013 A 
ATOM     19  C   UNL d   1      -2.981   6.147   3.938  0.00  0.00     0.001 A 
ATOM     20  C   UNL d   1      -2.778   7.520   3.817  0.00  0.00     0.000 A 
ATOM     21  C   UNL d   1      -2.056   8.030   2.736  0.00  0.00     0.001 A 
ATOM     22  C   UNL d   1      -1.525   7.165   1.776  0.00  0.00     0.013 A 
ENDBRANCH  15  17
ENDBRANCH  12  14
ENDBRANCH   3  12
BRANCH  10  23
ATOM     23  C   UNL d   1      -3.558  -1.216   0.119  0.00  0.00     0.432 C 
ATOM     24  F   UNL d   1      -4.558  -0.290   0.124  0.00  0.00    -0.165 F 
ATOM     25  F   UNL d   1      -3.809  -2.035  -0.938  0.00  0.00    -0.165 F 
ATOM     26  F   UNL d   1      -3.732  -1.965   1.243  0.00  0.00    -0.165 F 
ENDBRANCH  10  23
BRANCH  11  27
ATOM     27  C   UNL d   1       3.773  -0.122  -0.067  0.00  0.00    -0.007 C 
ATOM     28  C   UNL d   1       4.251  -0.140   1.399  0.00  0.00     0.021 C 
ATOM     29  C   UNL d   1       4.348  -1.359  -0.788  0.00  0.00     0.021 C 
ATOM     30  C   UNL d   1       4.354   1.130  -0.758  0.00  0.00     0.021 C 
ENDBRANCH  11  27
TORSDOF 5
