REMARK  6 active torsions:
REMARK  status: ('A' for Active; 'I' for Inactive)
REMARK       I    between atoms: C_2  and  N_1 
REMARK       I    between atoms: N_7  and  C_2 
REMARK    1  A    between atoms: C_16  and  N_7 
REMARK    2  A    between atoms: O_14  and  C_8 
REMARK    3  A    between atoms: O_21  and  C_10 
REMARK    4  A    between atoms: O_22  and  C_13 
REMARK    5  A    between atoms: C_23  and  O_14 
REMARK    6  A    between atoms: O_24  and  C_17 
ROOT
ATOM      1  N   UNL d   1      -2.436   0.596  -0.010  0.00  0.00    -0.325 N 
ATOM      2  C   UNL d   1      -3.325   1.019  -0.990  0.00  0.00     0.323 C 
ATOM      3  C   UNL d   1      -0.048   0.347   0.688  0.00  0.00    -0.026 A 
ATOM      4  C   UNL d   1      -1.232   1.298   0.469  0.00  0.00     0.118 C 
ATOM      5  C   UNL d   1      -0.198  -1.049   0.595  0.00  0.00    -0.045 A 
ATOM      6  C   UNL d   1       1.241   0.865   0.925  0.00  0.00     0.049 A 
ATOM      7  N   UNL d   1      -3.239   2.336  -1.371  0.00  0.00    -0.309 N 
ATOM      8  C   UNL d   1      -2.680  -0.709   0.605  0.00  0.00     0.133 C 
ATOM      9  C   UNL d   1       2.366   0.025   1.000  0.00  0.00     0.102 A 
ATOM     10  C   UNL d   1       0.924  -1.889   0.674  0.00  0.00     0.047 A 
ATOM     11  C   UNL d   1       2.206  -1.359   0.825  0.00  0.00     0.102 A 
ATOM     12  O   UNL d   1      -4.136   0.229  -1.464  0.00  0.00    -0.247 OA
ATOM     13  C   UNL d   1      -1.539  -1.670   0.310  0.00  0.00     0.059 C 
ATOM     14  C   UNL d   1      -1.560   2.101   1.733  0.00  0.00     0.037 C 
ATOM     15  H   UNL d   1      -2.722   2.936  -0.758  0.00  0.00     0.170 HD
ENDROOT
BRANCH   7  16
ATOM     16  C   UNL d   1      -4.017   2.986  -2.366  0.00  0.00     0.039 A 
ATOM     17  C   UNL d   1      -4.810   2.323  -3.318  0.00  0.00     0.069 A 
ATOM     18  C   UNL d   1      -5.540   3.026  -4.296  0.00  0.00     0.104 A 
ATOM     19  C   UNL d   1      -5.460   4.429  -4.327  0.00  0.00     0.101 A 
ATOM     20  C   UNL d   1      -4.695   5.090  -3.357  0.00  0.00     0.042 A 
ATOM     21  C   UNL d   1      -3.979   4.380  -2.389  0.00  0.00     0.032 A 
BRANCH  18  22
ATOM     22  O   UNL d   1      -6.378   2.418  -5.190  0.00  0.00    -0.343 OA
BRANCH  22  23
ATOM     23  C   UNL d   1      -6.248   1.032  -5.491  0.00  0.00     0.129 C 
ATOM     24  C   UNL d   1      -5.007   0.725  -6.326  0.00  0.00     0.032 C 
ATOM     25  C   UNL d   1      -5.362  -0.513  -7.143  0.00  0.00     0.002 C 
ATOM     26  C   UNL d   1      -6.886  -0.598  -7.160  0.00  0.00     0.002 C 
ATOM     27  C   UNL d   1      -7.380   0.651  -6.448  0.00  0.00     0.032 C 
ENDBRANCH  22  23
ENDBRANCH  18  22
BRANCH  19  28
ATOM     28  O   UNL d   1      -6.048   5.301  -5.206  0.00  0.00    -0.353 OA
ATOM     29  C   UNL d   1      -6.655   4.785  -6.382  0.00  0.00     0.210 C 
ENDBRANCH  19  28
ENDBRANCH   7  16
BRANCH   9  30
ATOM     30  O   UNL d   1       3.652   0.474   1.172  0.00  0.00    -0.353 OA
ATOM     31  C   UNL d   1       3.813   1.798   1.661  0.00  0.00     0.210 C 
ENDBRANCH   9  30
BRANCH  11  32
ATOM     32  O   UNL d   1       3.341  -2.138   0.833  0.00  0.00    -0.353 OA
ATOM     33  C   UNL d   1       3.264  -3.339   0.067  0.00  0.00     0.210 C 
ENDBRANCH  11  32
TORSDOF 6
