REMARK  4 active torsions:
REMARK  status: ('A' for Active; 'I' for Inactive)
REMARK    1  A    between atoms: C_2  and  C_1 
REMARK    2  A    between atoms: C_4  and  C_1 
REMARK    3  A    between atoms: S_3  and  C_4 
REMARK    4  A    between atoms: C_8  and  S_3 
ROOT
ATOM      1  C   UNL d   1       0.907  -0.030   0.113  0.00  0.00     0.169 C 
ATOM      2  O   UNL d   1       1.473  -1.114  -0.053  0.00  0.00    -0.291 OA
ENDROOT
BRANCH   1   3
ATOM      3  C   UNL d   1       1.003   1.008  -0.963  0.00  0.00     0.011 A 
ATOM      4  C   UNL d   1       0.415   2.277  -0.858  0.00  0.00     0.018 A 
ATOM      5  C   UNL d   1       0.528   3.192  -1.911  0.00  0.00     0.043 A 
ATOM      6  C   UNL d   1       1.224   2.842  -3.063  0.00  0.00     0.116 A 
ATOM      7  C   UNL d   1       1.822   1.595  -3.181  0.00  0.00     0.043 A 
ATOM      8  F   UNL d   1       1.314   3.718  -4.071  0.00  0.00    -0.206 F 
ATOM      9  C   UNL d   1       1.714   0.680  -2.132  0.00  0.00     0.018 A 
ENDBRANCH   1   3
BRANCH   1  10
ATOM     10  C   UNL d   1       0.135   0.251   1.385  0.00  0.00     0.163 C 
BRANCH  10  11
ATOM     11  S   UNL d   1      -1.626  -0.142   1.141  0.00  0.00    -0.122 SA
BRANCH  11  12
ATOM     12  C   UNL d   1      -2.272   0.361   2.725  0.00  0.00     0.001 A 
ATOM     13  C   UNL d   1      -3.310   1.298   2.767  0.00  0.00     0.020 A 
ATOM     14  C   UNL d   1      -3.817   1.738   3.993  0.00  0.00     0.025 A 
ATOM     15  C   UNL d   1      -3.294   1.232   5.180  0.00  0.00     0.034 A 
ATOM     16  C   UNL d   1      -2.282   0.274   5.151  0.00  0.00     0.025 A 
ATOM     17 CL   UNL d   1      -3.899   1.791   6.690  0.00  0.00    -0.084 Cl
ATOM     18  C   UNL d   1      -1.777  -0.166   3.923  0.00  0.00     0.020 A 
ENDBRANCH  11  12
ENDBRANCH  10  11
ENDBRANCH   1  10
TORSDOF 4
