REMARK  9 active torsions:
REMARK  status: ('A' for Active; 'I' for Inactive)
REMARK    1  A    between atoms: O_4  and  C_1 
REMARK    2  A    between atoms: C_2  and  O_4 
REMARK    3  A    between atoms: C_6  and  C_2 
REMARK    4  A    between atoms: C_3  and  C_14 
REMARK    5  A    between atoms: C_11  and  C_5 
REMARK    6  A    between atoms: O_27  and  C_7 
REMARK    7  A    between atoms: O_28  and  C_9 
REMARK    8  A    between atoms: O_29  and  C_10 
REMARK    9  A    between atoms: C_25  and  N_16 
ROOT
ATOM      1  C   UNL d   1      -1.107  -1.270   0.419  0.00  0.00     0.113 A 
ATOM      2  C   UNL d   1      -0.008  -2.068   0.044  0.00  0.00     0.017 A 
ATOM      3  C   UNL d   1      -0.894   0.072   0.753  0.00  0.00     0.070 A 
ATOM      4  C   UNL d   1       0.381   0.628   0.576  0.00  0.00     0.050 A 
ATOM      5  C   UNL d   1       1.256  -1.499  -0.146  0.00  0.00     0.039 A 
ATOM      6  C   UNL d   1       1.432  -0.141   0.090  0.00  0.00     0.036 A 
ATOM      7 CL   UNL d   1      -2.079   1.129   1.407  0.00  0.00    -0.081 Cl
ATOM      8 CL   UNL d   1       2.958   0.587  -0.216  0.00  0.00    -0.084 Cl
ENDROOT
BRANCH   1   9
ATOM      9  O   UNL d   1      -2.383  -1.882   0.171  0.00  0.00    -0.272 OA
BRANCH   9  10
ATOM     10  C   UNL d   1      -3.692  -1.418   0.261  0.00  0.00     0.298 C 
ATOM     11  O   UNL d   1      -4.187  -0.824   1.206  0.00  0.00    -0.259 OA
BRANCH  10  12
ATOM     12  C   UNL d   1      -4.443  -1.803  -0.971  0.00  0.00     0.045 A 
ATOM     13  C   UNL d   1      -3.797  -2.226  -2.139  0.00  0.00     0.057 A 
ATOM     14  C   UNL d   1      -4.517  -2.454  -3.326  0.00  0.00     0.105 A 
ATOM     15  C   UNL d   1      -5.918  -2.269  -3.344  0.00  0.00     0.135 A 
ATOM     16  C   UNL d   1      -6.574  -1.917  -2.143  0.00  0.00     0.105 A 
ATOM     17  C   UNL d   1      -5.831  -1.664  -0.979  0.00  0.00     0.057 A 
BRANCH  14  18
ATOM     18  O   UNL d   1      -3.904  -2.851  -4.487  0.00  0.00    -0.353 OA
ATOM     19  C   UNL d   1      -2.495  -3.034  -4.504  0.00  0.00     0.210 C 
ENDBRANCH  14  18
BRANCH  15  20
ATOM     20  O   UNL d   1      -6.728  -2.385  -4.444  0.00  0.00    -0.351 OA
ATOM     21  C   UNL d   1      -6.178  -2.445  -5.750  0.00  0.00     0.210 C 
ENDBRANCH  15  20
BRANCH  16  22
ATOM     22  O   UNL d   1      -7.921  -1.718  -1.952  0.00  0.00    -0.353 OA
ATOM     23  C   UNL d   1      -8.826  -2.382  -2.825  0.00  0.00     0.210 C 
ENDBRANCH  16  22
ENDBRANCH  10  12
ENDBRANCH   9  10
ENDBRANCH   1   9
BRANCH   2  24
ATOM     24  C   UNL d   1      -0.158  -3.530  -0.139  0.00  0.00     0.102 C 
ATOM     25  N   UNL d   1       0.784  -4.250  -0.648  0.00  0.00    -0.365 N 
ATOM     26  HN  UNL d   1       1.654  -3.817  -0.958  1.00  0.00     0.165 HD
BRANCH  25  27
ATOM     27  C   UNL d   1       0.598  -5.639  -0.772  0.00  0.00     0.032 A 
ATOM     28  C   UNL d   1      -0.617  -6.205  -1.172  0.00  0.00     0.045 A 
ATOM     29  C   UNL d   1      -0.769  -7.594  -1.306  0.00  0.00     0.050 A 
ATOM     30  C   UNL d   1       0.336  -8.424  -1.072  0.00  0.00     0.016 A 
ATOM     31  C   UNL d   1       1.560  -7.870  -0.697  0.00  0.00     0.003 A 
ATOM     32  C   UNL d   1       1.685  -6.487  -0.545  0.00  0.00     0.029 A 
BRANCH  29  33
ATOM     33  C   UNL d   1      -2.103  -8.176  -1.697  0.00  0.00     0.417 C 
ATOM     34  F   UNL d   1      -3.082  -7.235  -1.826  0.00  0.00    -0.166 F 
ATOM     35  F   UNL d   1      -2.060  -8.833  -2.887  0.00  0.00    -0.166 F 
ATOM     36  F   UNL d   1      -2.570  -9.071  -0.784  0.00  0.00    -0.166 F 
ENDBRANCH  29  33
ENDBRANCH  25  27
ENDBRANCH   2  24
TORSDOF 9
