REMARK  8 active torsions:
REMARK  status: ('A' for Active; 'I' for Inactive)
REMARK    1  A    between atoms: C_2  and  C_1 
REMARK    2  A    between atoms: C_5  and  N_11 
REMARK    3  A    between atoms: N_22  and  C_5 
REMARK    4  A    between atoms: N_11  and  N_6 
REMARK    5  A    between atoms: C_16  and  C_8 
REMARK    6  A    between atoms: C_13  and  C_15 
REMARK    7  A    between atoms: O_23  and  C_16 
REMARK    8  A    between atoms: C_25  and  O_23 
ROOT
ATOM      1  C   UNL d   1      -2.566  -9.225   8.169  0.00  0.00    -0.012 A 
ATOM      2  C   UNL d   1      -3.150 -10.183   9.006  0.00  0.00     0.016 A 
ATOM      3  C   UNL d   1      -1.196  -9.296   7.896  0.00  0.00     0.016 A 
ATOM      4  C   UNL d   1      -1.023 -11.303   9.248  0.00  0.00     0.069 A 
ATOM      5  C   UNL d   1      -2.380 -11.208   9.556  0.00  0.00     0.037 A 
ATOM      6  C   UNL d   1      -0.429 -10.333   8.440  0.00  0.00     0.037 A 
ENDROOT
BRANCH   4   7
ATOM      7  O   UNL d   1      -0.196 -12.298   9.698  0.00  0.00    -0.345 OA
BRANCH   7   8
ATOM      8  C   UNL d   1      -0.850 -13.552   9.923  0.00  0.00     0.234 C 
BRANCH   8   9
ATOM      9  C   UNL d   1       0.143 -14.691   9.903  0.00  0.00     0.055 A 
ATOM     10  N   UNL d   1       0.192 -15.458  11.031  0.00  0.00    -0.365 N 
ATOM     11  C   UNL d   1       1.036 -16.514  11.044  0.00  0.00     0.104 A 
ATOM     12  HN  UNL d   1      -0.391 -15.242  11.839  1.00  0.00     0.165 HD
ATOM     13  C   UNL d   1       1.849 -16.864   9.979  0.00  0.00     0.064 A 
ATOM     14  C   UNL d   1       1.780 -16.078   8.824  0.00  0.00     0.043 A 
ATOM     15  C   UNL d   1       0.915 -14.983   8.777  0.00  0.00     0.059 A 
ATOM     16 CL   UNL d   1       0.830 -14.082   7.310  0.00  0.00    -0.082 Cl
BRANCH  13  17
ATOM     17  C   UNL d   1       2.750 -18.052  10.093  0.00  0.00     0.418 C 
ATOM     18  F   UNL d   1       3.498 -18.275   8.978  0.00  0.00    -0.166 F 
ATOM     19  F   UNL d   1       2.064 -19.206  10.319  0.00  0.00    -0.166 F 
ATOM     20  F   UNL d   1       3.636 -17.936  11.120  0.00  0.00    -0.166 F 
ENDBRANCH  13  17
ENDBRANCH   8   9
ENDBRANCH   7   8
ENDBRANCH   4   7
BRANCH   1  21
ATOM     21  C   UNL d   1      -3.444  -8.160   7.589  0.00  0.00     0.032 C 
ATOM     22  N   UNL d   1      -4.690  -8.473   7.377  0.00  0.00    -0.302 N 
ATOM     23  HN  UNL d   1      -5.017  -9.416   7.584  1.00  0.00     0.186 HD
ATOM     24  C   UNL d   1      -2.799  -6.817   7.324  0.00  0.00     0.070 C 
BRANCH  22  25
ATOM     25  N   UNL d   1      -5.559  -7.551   6.881  0.00  0.00    -0.276 N 
ATOM     26  H   UNL d   1      -5.278  -6.601   6.685  0.00  0.00     0.189 HD
BRANCH  25  27
ATOM     27  C   UNL d   1      -6.872  -7.869   6.674  0.00  0.00     0.184 C 
ATOM     28  S   UNL d   1      -7.976  -6.765   6.115  0.00  0.00    -0.040 SA
BRANCH  27  29
ATOM     29  N   UNL d   1      -7.221  -9.148   6.959  0.00  0.00    -0.375 N 
ATOM     30  H   UNL d   1      -6.467  -9.778   7.208  0.00  0.00     0.158 HD
ATOM     31  H   UNL d   1      -8.151  -9.494   6.781  0.00  0.00     0.158 HD
ENDBRANCH  27  29
ENDBRANCH  25  27
ENDBRANCH  22  25
ENDBRANCH   1  21
TORSDOF 8
