REMARK  6 active torsions:
REMARK  status: ('A' for Active; 'I' for Inactive)
REMARK    1  A    between atoms: N_7  and  C_1 
REMARK    2  A    between atoms: O_27  and  C_2 
REMARK    3  A    between atoms: O_28  and  C_3 
REMARK    4  A    between atoms: C_4  and  C_8 
REMARK    5  A    between atoms: C_5  and  C_9 
REMARK       I    between atoms: C_6  and  N_7 
REMARK       I    between atoms: N_15  and  C_6 
REMARK    6  A    between atoms: C_14  and  N_15 
ROOT
ATOM      1  C   UNL d   1      -1.103  -4.483   0.397  0.00  0.00     0.325 C 
ATOM      2  N   UNL d   1      -0.415  -3.312   0.096  0.00  0.00    -0.304 N 
ATOM      3  N   UNL d   1      -2.419  -4.352  -0.017  0.00  0.00    -0.309 N 
ATOM      4  O   UNL d   1      -0.615  -5.452   0.968  0.00  0.00    -0.247 OA
ATOM      5  H   UNL d   1      -1.003  -2.514   0.276  0.00  0.00     0.171 HD
ATOM      6  H   UNL d   1      -2.547  -3.708  -0.786  0.00  0.00     0.170 HD
ENDROOT
BRANCH   2   7
ATOM      7  C   UNL d   1       0.948  -3.138   0.435  0.00  0.00     0.107 A 
ATOM      8  C   UNL d   1       1.906  -3.591  -0.504  0.00  0.00     0.119 A 
ATOM      9  C   UNL d   1       3.258  -3.240  -0.376  0.00  0.00     0.071 A 
ATOM     10 CL   UNL d   1       4.429  -3.680  -1.566  0.00  0.00    -0.081 Cl
ATOM     11  C   UNL d   1       3.680  -2.476   0.706  0.00  0.00     0.053 A 
ATOM     12  C   UNL d   1       2.751  -2.073   1.665  0.00  0.00     0.071 A 
ATOM     13  C   UNL d   1       1.377  -2.386   1.550  0.00  0.00     0.119 A 
ATOM     14 CL   UNL d   1       3.349  -1.115   2.984  0.00  0.00    -0.081 Cl
BRANCH   8  15
ATOM     15  O   UNL d   1       1.493  -4.232  -1.651  0.00  0.00    -0.352 OA
ATOM     16  C   UNL d   1       1.400  -5.645  -1.451  0.00  0.00     0.210 C 
ENDBRANCH   8  15
BRANCH  13  17
ATOM     17  O   UNL d   1       0.637  -1.970   2.625  0.00  0.00    -0.352 OA
ATOM     18  C   UNL d   1      -0.750  -1.726   2.534  0.00  0.00     0.210 C 
ENDBRANCH  13  17
ENDBRANCH   2   7
BRANCH   3  19
ATOM     19  C   UNL d   1      -3.526  -5.145   0.341  0.00  0.00     0.037 A 
ATOM     20  C   UNL d   1      -3.511  -6.053   1.401  0.00  0.00     0.045 A 
ATOM     21  C   UNL d   1      -4.673  -6.765   1.757  0.00  0.00     0.050 A 
ATOM     22  C   UNL d   1      -5.851  -6.565   1.020  0.00  0.00     0.032 A 
ATOM     23  C   UNL d   1      -5.889  -5.651  -0.041  0.00  0.00     0.050 A 
ATOM     24  C   UNL d   1      -4.717  -4.948  -0.371  0.00  0.00     0.045 A 
BRANCH  21  25
ATOM     25  C   UNL d   1      -4.646  -7.698   2.944  0.00  0.00     0.417 C 
ATOM     26  F   UNL d   1      -5.825  -8.354   3.138  0.00  0.00    -0.166 F 
ATOM     27  F   UNL d   1      -3.695  -8.664   2.839  0.00  0.00    -0.166 F 
ATOM     28  F   UNL d   1      -4.395  -7.040   4.109  0.00  0.00    -0.166 F 
ENDBRANCH  21  25
BRANCH  23  29
ATOM     29  C   UNL d   1      -7.159  -5.418  -0.825  0.00  0.00     0.417 C 
ATOM     30  F   UNL d   1      -8.267  -5.939  -0.230  0.00  0.00    -0.166 F 
ATOM     31  F   UNL d   1      -7.422  -4.093  -1.005  0.00  0.00    -0.166 F 
ATOM     32  F   UNL d   1      -7.108  -5.962  -2.071  0.00  0.00    -0.166 F 
ENDBRANCH  23  29
ENDBRANCH   3  19
TORSDOF 6
