REMARK  7 active torsions:
REMARK  status: ('A' for Active; 'I' for Inactive)
REMARK    1  A    between atoms: C_14  and  C_1 
REMARK    2  A    between atoms: C_2  and  N_12 
REMARK    3  A    between atoms: N_5  and  C_2 
REMARK    4  A    between atoms: O_17  and  C_4 
REMARK    5  A    between atoms: C_13  and  N_5 
REMARK    6  A    between atoms: N_12  and  N_7 
REMARK    7  A    between atoms: C_15  and  C_13 
ROOT
ATOM      1  N   UNL d   1       0.539   5.758  -0.258  0.00  0.00    -0.277 N 
ATOM      2  H   UNL d   1       0.672   5.260  -1.131  0.00  0.00     0.189 HD
ENDROOT
BRANCH   1   3
ATOM      3  C   UNL d   1       1.578   6.501   0.248  0.00  0.00     0.187 C 
ATOM      4  S   UNL d   1       1.438   7.846   1.233  0.00  0.00    -0.040 SA
BRANCH   3   5
ATOM      5  N   UNL d   1       2.841   6.095  -0.091  0.00  0.00    -0.358 N 
ATOM      6  H   UNL d   1       3.544   6.723   0.279  0.00  0.00     0.162 HD
BRANCH   5   7
ATOM      7  C   UNL d   1       3.262   4.701  -0.225  0.00  0.00     0.113 C 
ATOM      8  C   UNL d   1       4.567   4.471   0.552  0.00  0.00     0.037 C 
BRANCH   7   9
ATOM      9  C   UNL d   1       3.460   4.299  -1.672  0.00  0.00    -0.036 A 
ATOM     10  C   UNL d   1       4.265   5.060  -2.534  0.00  0.00     0.009 A 
ATOM     11  C   UNL d   1       4.544   4.617  -3.826  0.00  0.00     0.001 A 
ATOM     12  C   UNL d   1       4.010   3.413  -4.280  0.00  0.00     0.000 A 
ATOM     13  C   UNL d   1       3.190   2.658  -3.445  0.00  0.00     0.001 A 
ATOM     14  C   UNL d   1       2.916   3.095  -2.148  0.00  0.00     0.009 A 
ENDBRANCH   7   9
ENDBRANCH   5   7
ENDBRANCH   3   5
ENDBRANCH   1   3
BRANCH   1  15
ATOM     15  N   UNL d   1      -0.699   5.807   0.310  0.00  0.00    -0.309 N 
ATOM     16  C   UNL d   1      -1.711   5.575  -0.467  0.00  0.00     0.121 C 
ATOM     17  HN  UNL d   1      -0.823   6.017   1.301  1.00  0.00     0.186 HD
BRANCH  16  18
ATOM     18  C   UNL d   1      -3.074   5.449   0.100  0.00  0.00     0.017 A 
ATOM     19  C   UNL d   1      -4.200   5.404  -0.728  0.00  0.00     0.099 A 
ATOM     20  C   UNL d   1      -5.468   5.203  -0.160  0.00  0.00     0.069 A 
ATOM     21 CL   UNL d   1      -6.869   5.135  -1.167  0.00  0.00    -0.081 Cl
ATOM     22  C   UNL d   1      -5.615   5.039   1.214  0.00  0.00     0.050 A 
ATOM     23  C   UNL d   1      -4.490   5.098   2.033  0.00  0.00     0.036 A 
ATOM     24  C   UNL d   1      -3.226   5.315   1.487  0.00  0.00     0.039 A 
ATOM     25 CL   UNL d   1      -4.660   4.870   3.730  0.00  0.00    -0.084 Cl
BRANCH  19  26
ATOM     26  O   UNL d   1      -4.062   5.548  -2.087  0.00  0.00    -0.358 OA
ATOM     27  H   UNL d   1      -4.958   5.539  -2.477  0.00  0.00     0.217 HD
ENDBRANCH  19  26
ENDBRANCH  16  18
ENDBRANCH   1  15
TORSDOF 7
