REMARK  3 active torsions:
REMARK  status: ('A' for Active; 'I' for Inactive)
REMARK       I    between atoms: N_3  and  C_1 
REMARK    1  A    between atoms: C_9  and  C_1 
REMARK    2  A    between atoms: N_2  and  C_6 
REMARK       I    between atoms: C_7  and  N_2 
REMARK    3  A    between atoms: C_11  and  N_3 
ROOT
ATOM      1  N   UNL d   1       1.291  -4.867  -0.773  0.00  0.00    -0.350 N 
ATOM      2  HN  UNL d   1       1.051  -5.607  -1.433  1.00  0.00     0.166 HD
ATOM      3  C   UNL d   1       2.239  -5.058   0.148  0.00  0.00     0.107 A 
ATOM      4  C   UNL d   1       0.921  -2.609   0.039  0.00  0.00     0.050 A 
ATOM      5  C   UNL d   1       0.654  -3.673  -0.814  0.00  0.00     0.119 A 
ATOM      6  C   UNL d   1       2.540  -4.077   1.089  0.00  0.00     0.051 A 
ATOM      7  C   UNL d   1       1.879  -2.839   1.027  0.00  0.00     0.035 A 
ENDROOT
BRANCH   4   8
ATOM      8  N   UNL d   1       0.331  -1.324  -0.074  0.00  0.00    -0.322 N 
ATOM      9  C   UNL d   1      -0.654  -0.990  -0.991  0.00  0.00     0.256 C 
ATOM     10  O   UNL d   1      -1.257  -1.794  -1.699  0.00  0.00    -0.267 OA
ATOM     11  H   UNL d   1       0.724  -0.599   0.508  0.00  0.00     0.169 HD
BRANCH   9  12
ATOM     12  C   UNL d   1      -1.017   0.448  -1.146  0.00  0.00     0.032 A 
ATOM     13  C   UNL d   1      -1.637   0.814  -2.354  0.00  0.00     0.017 A 
ATOM     14  C   UNL d   1      -2.066   2.122  -2.574  0.00  0.00     0.001 A 
ATOM     15  C   UNL d   1      -1.876   3.081  -1.585  0.00  0.00     0.000 A 
ATOM     16  C   UNL d   1      -1.250   2.735  -0.386  0.00  0.00     0.001 A 
ATOM     17  C   UNL d   1      -0.819   1.421  -0.161  0.00  0.00     0.017 A 
ENDBRANCH   9  12
ENDBRANCH   4   8
BRANCH   3  18
ATOM     18  N   UNL d   1       2.982  -6.247   0.147  0.00  0.00    -0.314 N 
ATOM     19  C   UNL d   1       2.848  -7.249  -0.799  0.00  0.00     0.219 C 
ATOM     20  O   UNL d   1       2.042  -7.312  -1.721  0.00  0.00    -0.274 OA
ATOM     21  C   UNL d   1       3.862  -8.353  -0.638  0.00  0.00     0.117 C 
ATOM     22  H   UNL d   1       3.701  -6.338   0.847  0.00  0.00     0.170 HD
ENDBRANCH   3  18
TORSDOF 3
