REMARK  1 active torsions:
REMARK  status: ('A' for Active; 'I' for Inactive)
REMARK    1  A    between atoms: C_18  and  N_9 
ROOT
ATOM      1  N   UNL d   1      -9.628  -0.692   2.093  0.00  0.00    -0.195 NA
ATOM      2  C   UNL d   1      -8.957  -0.257   1.252  0.00  0.00     0.089 C 
ATOM      3  C   UNL d   1      -8.061   0.317   0.218  0.00  0.00     0.395 C 
ENDROOT
BRANCH   3   4
ATOM      4  N   UNL d   1      -7.176  -0.674  -0.436  0.00  0.00     0.104 N 
ATOM      5  C   UNL d   1      -6.319  -0.030  -1.466  0.00  0.00     0.293 C 
ATOM      6  C   UNL d   1      -5.172   0.868  -0.929  0.00  0.00     0.155 C 
ATOM      7  N   UNL d   1      -4.413   0.164   0.111  0.00  0.00    -0.358 N 
ATOM      8  C   UNL d   1      -3.051   0.191   0.100  0.00  0.00     0.148 A 
ATOM      9  C   UNL d   1      -5.204  -0.471   1.164  0.00  0.00     0.155 C 
ATOM     10  N   UNL d   1      -2.347   0.846  -0.800  0.00  0.00    -0.336 N 
ATOM     11  S   UNL d   1      -2.074  -0.660   1.250  0.00  0.00    -0.052 SA
ATOM     12  C   UNL d   1      -0.989   0.681  -0.598  0.00  0.00     0.051 A 
ATOM     13  HN  UNL d   1      -2.753   1.405  -1.550  1.00  0.00     0.168 HD
ATOM     14  C   UNL d   1       0.043   1.244  -1.377  0.00  0.00     0.032 A 
ATOM     15  C   UNL d   1      -0.643  -0.123   0.484  0.00  0.00     0.036 A 
ATOM     16  C   UNL d   1       1.380   0.988  -1.048  0.00  0.00     0.026 A 
ATOM     17  C   UNL d   1       1.691   0.178   0.040  0.00  0.00     0.035 A 
ATOM     18  C   UNL d   1       0.690  -0.396   0.825  0.00  0.00     0.045 A 
ATOM     19 CL   UNL d   1       3.340  -0.122   0.434  0.00  0.00    -0.084 Cl
ATOM     20  C   UNL d   1      -6.288  -1.368   0.529  0.00  0.00     0.293 C 
ENDBRANCH   3   4
TORSDOF 1
