REMARK  6 active torsions:
REMARK  status: ('A' for Active; 'I' for Inactive)
REMARK    1  A    between atoms: N_3  and  C_1 
REMARK    2  A    between atoms: N_4  and  C_1 
REMARK    3  A    between atoms: N_5  and  N_3 
REMARK    4  A    between atoms: C_6  and  N_4 
REMARK    5  A    between atoms: C_8  and  C_6 
REMARK    6  A    between atoms: C_7  and  C_8 
ROOT
ATOM      1  N   UNL d   1       2.344   0.025  -0.146  0.00  0.00    -0.366 N 
ATOM      2  H   UNL d   1       2.789  -0.728   0.360  0.00  0.00     0.161 HD
ENDROOT
BRANCH   1   3
ATOM      3  C   UNL d   1       0.959   0.013  -0.124  0.00  0.00     0.181 C 
ATOM      4  S   UNL d   1      -0.028   1.334  -0.421  0.00  0.00    -0.040 SA
BRANCH   3   5
ATOM      5  N   UNL d   1       0.484  -1.260   0.197  0.00  0.00    -0.300 N 
ATOM      6  H   UNL d   1       1.108  -2.045   0.027  0.00  0.00     0.183 HD
BRANCH   5   7
ATOM      7  N   UNL d   1      -0.898  -1.551   0.248  0.00  0.00    -0.248 NA
ATOM      8  H   UNL d   1      -1.388  -0.797  -0.251  0.00  0.00     0.143 HD
ATOM      9  H   UNL d   1      -1.201  -1.441   1.219  0.00  0.00     0.143 HD
ENDBRANCH   5   7
ENDBRANCH   3   5
ENDBRANCH   1   3
BRANCH   1  10
ATOM     10  C   UNL d   1       3.158   1.215  -0.388  0.00  0.00     0.126 C 
BRANCH  10  11
ATOM     11  C   UNL d   1       4.655   0.909  -0.367  0.00  0.00     0.058 C 
BRANCH  11  12
ATOM     12  C   UNL d   1       5.470   2.145  -0.657  0.00  0.00    -0.057 A 
ATOM     13  C   UNL d   1       5.825   3.024   0.376  0.00  0.00     0.007 A 
ATOM     14  C   UNL d   1       6.538   4.191   0.097  0.00  0.00     0.001 A 
ATOM     15  C   UNL d   1       6.900   4.492  -1.215  0.00  0.00     0.000 A 
ATOM     16  C   UNL d   1       6.550   3.625  -2.249  0.00  0.00     0.001 A 
ATOM     17  C   UNL d   1       5.837   2.458  -1.972  0.00  0.00     0.007 A 
ENDBRANCH  11  12
ENDBRANCH  10  11
ENDBRANCH   1  10
TORSDOF 6
