REMARK  6 active torsions:
REMARK  status: ('A' for Active; 'I' for Inactive)
REMARK    1  A    between atoms: C_10  and  C_3 
REMARK    2  A    between atoms: C_12  and  C_4 
REMARK    3  A    between atoms: C_7  and  C_11 
REMARK    4  A    between atoms: O_15  and  C_9 
REMARK    5  A    between atoms: C_22  and  O_15 
REMARK    6  A    between atoms: O_23  and  C_16 
ROOT
ATOM      1  N   UNL d   1       0.568   0.258  -0.827  0.00  0.00    -0.319 N 
ATOM      2  HN  UNL d   1       1.197   0.460  -1.604  1.00  0.00     0.169 HD
ATOM      3  C   UNL d   1       0.091   1.121   0.134  0.00  0.00     0.138 A 
ATOM      4  C   UNL d   1       0.022  -0.881  -0.501  0.00  0.00     0.182 A 
ATOM      5  N   UNL d   1      -0.712   0.537   1.039  0.00  0.00    -0.242 N 
ATOM      6  HN  UNL d   1      -1.172   0.964   1.843  1.00  0.00     0.196 HD
ATOM      7  O   UNL d   1      -0.766  -0.799   0.615  0.00  0.00    -0.217 OA
ENDROOT
BRANCH   3   8
ATOM      8  C   UNL d   1       0.473   2.526   0.110  0.00  0.00     0.013 A 
ATOM      9  C   UNL d   1       1.246   2.989  -0.968  0.00  0.00     0.055 A 
ATOM     10  C   UNL d   1       1.701   4.308  -1.042  0.00  0.00     0.103 A 
ATOM     11  C   UNL d   1       1.306   5.210  -0.044  0.00  0.00     0.101 A 
ATOM     12  C   UNL d   1       0.533   4.752   1.036  0.00  0.00     0.040 A 
ATOM     13  C   UNL d   1       0.119   3.420   1.118  0.00  0.00     0.018 A 
BRANCH  10  14
ATOM     14  O   UNL d   1       2.514   4.732  -2.062  0.00  0.00    -0.343 OA
BRANCH  14  15
ATOM     15  C   UNL d   1       3.414   3.778  -2.640  0.00  0.00     0.129 C 
ATOM     16  C   UNL d   1       4.471   3.286  -1.650  0.00  0.00     0.032 C 
ATOM     17  C   UNL d   1       5.749   3.068  -2.448  0.00  0.00     0.002 C 
ATOM     18  C   UNL d   1       5.527   3.688  -3.820  0.00  0.00     0.002 C 
ATOM     19  C   UNL d   1       4.227   4.471  -3.729  0.00  0.00     0.032 C 
ENDBRANCH  14  15
ENDBRANCH  10  14
BRANCH  11  20
ATOM     20  O   UNL d   1       1.643   6.535   0.059  0.00  0.00    -0.353 OA
ATOM     21  C   UNL d   1       1.819   7.242  -1.162  0.00  0.00     0.210 C 
ENDBRANCH  11  20
ENDBRANCH   3   8
BRANCH   4  22
ATOM     22  C   UNL d   1       0.146  -2.165  -1.174  0.00  0.00     0.018 A 
ATOM     23  C   UNL d   1       1.026  -2.267  -2.268  0.00  0.00     0.032 A 
ATOM     24  C   UNL d   1       1.178  -3.464  -2.982  0.00  0.00     0.048 A 
ATOM     25  C   UNL d   1       0.428  -4.580  -2.586  0.00  0.00     0.016 A 
ATOM     26  C   UNL d   1      -0.446  -4.496  -1.501  0.00  0.00     0.002 A 
ATOM     27  C   UNL d   1      -0.588  -3.299  -0.798  0.00  0.00     0.016 A 
BRANCH  24  28
ATOM     28  C   UNL d   1       2.120  -3.555  -4.159  0.00  0.00     0.417 C 
ATOM     29  F   UNL d   1       2.770  -2.387  -4.428  0.00  0.00    -0.166 F 
ATOM     30  F   UNL d   1       3.094  -4.489  -3.977  0.00  0.00    -0.166 F 
ATOM     31  F   UNL d   1       1.481  -3.898  -5.311  0.00  0.00    -0.166 F 
ENDBRANCH  24  28
ENDBRANCH   4  22
TORSDOF 6
