REMARK  4 active torsions:
REMARK  status: ('A' for Active; 'I' for Inactive)
REMARK    1  A    between atoms: C_5  and  C_16 
REMARK    2  A    between atoms: C_15  and  C_6 
REMARK       I    between atoms: C_17  and  N_20 
REMARK       I    between atoms: C_18  and  N_19 
REMARK    3  A    between atoms: N_19  and  C_22 
REMARK    4  A    between atoms: N_20  and  C_21 
ROOT
ATOM      1  C   UNL d   1      -3.749   0.100  -0.014  0.00  0.00     0.008 A 
ATOM      2  C   UNL d   1      -6.570   0.012   0.143  0.00  0.00     0.008 A 
ATOM      3  C   UNL d   1      -5.790  -0.608   1.123  0.00  0.00     0.016 A 
ATOM      4  C   UNL d   1      -5.931   0.663  -0.916  0.00  0.00     0.016 A 
ATOM      5  C   UNL d   1      -4.394  -0.563   1.041  0.00  0.00     0.016 A 
ATOM      6  C   UNL d   1      -4.536   0.714  -0.995  0.00  0.00     0.016 A 
ENDROOT
BRANCH   1   7
ATOM      7  C   UNL d   1      -2.284   0.115  -0.062  0.00  0.00     0.116 A 
ATOM      8  N   UNL d   1      -1.478  -0.475   0.804  0.00  0.00    -0.340 N 
ATOM      9  C   UNL d   1      -0.201  -0.224   0.374  0.00  0.00     0.062 A 
ATOM     10  HN  UNL d   1      -1.752  -1.010   1.628  1.00  0.00     0.167 HD
ATOM     11  C   UNL d   1      -0.209   0.547  -0.778  0.00  0.00     0.060 A 
ATOM     12  C   UNL d   1       1.024  -0.631   0.923  0.00  0.00     0.061 A 
ATOM     13  C   UNL d   1       0.949   0.953  -1.436  0.00  0.00     0.034 A 
ATOM     14  N   UNL d   1      -1.539   0.753  -1.030  0.00  0.00    -0.340 N 
ATOM     15  C   UNL d   1       2.164   0.534  -0.871  0.00  0.00     0.032 A 
ATOM     16  C   UNL d   1       2.215  -0.249   0.294  0.00  0.00     0.036 A 
ATOM     17  H   UNL d   1      -1.912   1.280  -1.803  0.00  0.00     0.167 HD
BRANCH  16  18
ATOM     18  N   UNL d   1       3.494  -0.612   0.772  0.00  0.00    -0.327 N 
ATOM     19  C   UNL d   1       3.781  -1.371   1.894  0.00  0.00     0.218 C 
ATOM     20  O   UNL d   1       2.977  -1.863   2.676  0.00  0.00    -0.274 OA
ATOM     21  C   UNL d   1       5.259  -1.569   2.116  0.00  0.00     0.117 C 
ATOM     22  H   UNL d   1       4.281  -0.277   0.229  0.00  0.00     0.169 HD
ENDBRANCH  16  18
ENDBRANCH   1   7
BRANCH   2  23
ATOM     23  C   UNL d   1      -8.029  -0.023   0.172  0.00  0.00     0.116 A 
ATOM     24  N   UNL d   1      -8.815   0.027  -0.885  0.00  0.00    -0.340 N 
ATOM     25  C   UNL d   1     -10.097  -0.038  -0.410  0.00  0.00     0.062 A 
ATOM     26  HN  UNL d   1      -8.526   0.098  -1.861  1.00  0.00     0.167 HD
ATOM     27  C   UNL d   1     -11.307  -0.051  -1.117  0.00  0.00     0.061 A 
ATOM     28  C   UNL d   1     -10.110  -0.092   0.976  0.00  0.00     0.060 A 
ATOM     29  C   UNL d   1     -12.511  -0.115  -0.409  0.00  0.00     0.036 A 
ATOM     30  C   UNL d   1     -12.486  -0.158   0.996  0.00  0.00     0.032 A 
ATOM     31  C   UNL d   1     -11.285  -0.147   1.724  0.00  0.00     0.034 A 
ATOM     32  N   UNL d   1      -8.783  -0.077   1.322  0.00  0.00    -0.340 N 
ATOM     33  H   UNL d   1      -8.415  -0.080   2.261  0.00  0.00     0.167 HD
BRANCH  29  34
ATOM     34  N   UNL d   1     -13.776  -0.139  -1.038  0.00  0.00    -0.327 N 
ATOM     35  C   UNL d   1     -14.029  -0.112  -2.399  0.00  0.00     0.218 C 
ATOM     36  O   UNL d   1     -13.202  -0.062  -3.303  0.00  0.00    -0.274 OA
ATOM     37  C   UNL d   1     -15.499  -0.148  -2.735  0.00  0.00     0.117 C 
ATOM     38  H   UNL d   1     -14.576  -0.187  -0.421  0.00  0.00     0.169 HD
ENDBRANCH  29  34
ENDBRANCH   2  23
TORSDOF 4
