REMARK  3 active torsions:
REMARK  status: ('A' for Active; 'I' for Inactive)
REMARK    1  A    between atoms: C_2  and  C_1 
REMARK       I    between atoms: N_12  and  C_2 
REMARK    2  A    between atoms: C_18  and  C_5 
REMARK    3  A    between atoms: C_16  and  N_12 
ROOT
ATOM      1  C   UNL d   1       0.135  -2.033   0.778  0.00  0.00     0.261 C 
ATOM      2  N   UNL d   1      -0.631  -3.142   0.457  0.00  0.00    -0.323 N 
ATOM      3  O   UNL d   1       1.129  -2.051   1.496  0.00  0.00    -0.267 OA
ATOM      4  H   UNL d   1      -1.514  -2.987  -0.014  0.00  0.00     0.169 HD
ENDROOT
BRANCH   1   5
ATOM      5  C   UNL d   1      -0.283  -0.788   0.171  0.00  0.00     0.093 A 
ATOM      6  C   UNL d   1      -1.538  -0.113   0.068  0.00  0.00     0.083 A 
ATOM      7  N   UNL d   1      -1.387   1.017  -0.650  0.00  0.00    -0.259 N 
ATOM      8  O   UNL d   1      -0.048   1.144  -0.922  0.00  0.00    -0.241 OA
ATOM      9  HN  UNL d   1      -2.128   1.657  -0.936  1.00  0.00     0.195 HD
ATOM     10  C   UNL d   1       0.617   0.085  -0.403  0.00  0.00     0.090 A 
ATOM     11  C   UNL d   1       2.086   0.091  -0.565  0.00  0.00     0.080 C 
BRANCH   6  12
ATOM     12  C   UNL d   1      -2.854  -0.420   0.648  0.00  0.00    -0.006 A 
ATOM     13  C   UNL d   1      -4.012   0.168   0.106  0.00  0.00     0.014 A 
ATOM     14  C   UNL d   1      -5.265  -0.028   0.692  0.00  0.00     0.001 A 
ATOM     15  C   UNL d   1      -5.383  -0.825   1.826  0.00  0.00     0.000 A 
ATOM     16  C   UNL d   1      -4.249  -1.421   2.374  0.00  0.00     0.001 A 
ATOM     17  C   UNL d   1      -2.990  -1.213   1.795  0.00  0.00     0.014 A 
ENDBRANCH   6  12
ENDBRANCH   1   5
BRANCH   2  18
ATOM     18  C   UNL d   1      -0.313  -4.476   0.818  0.00  0.00     0.037 A 
ATOM     19  C   UNL d   1       0.975  -4.858   1.226  0.00  0.00     0.062 A 
ATOM     20  C   UNL d   1       1.200  -6.177   1.642  0.00  0.00     0.076 A 
ATOM     21  N   UNL d   1       2.332  -6.791   2.104  0.00  0.00    -0.282 N 
ATOM     22  C   UNL d   1       0.152  -7.085   1.624  0.00  0.00     0.074 A 
ATOM     23  N   UNL d   1       2.026  -8.047   2.405  0.00  0.00    -0.022 NA
ATOM     24  HN  UNL d   1       3.251  -6.359   2.201  1.00  0.00     0.184 HD
ATOM     25  N   UNL d   1       0.724  -8.219   2.129  0.00  0.00    -0.282 N 
ATOM     26  H   UNL d   1       0.304  -9.120   2.318  0.00  0.00     0.184 HD
ATOM     27  C   UNL d   1      -1.128  -6.765   1.173  0.00  0.00     0.035 A 
ATOM     28  C   UNL d   1      -1.333  -5.436   0.756  0.00  0.00     0.032 A 
ENDBRANCH   2  18
TORSDOF 3
