REMARK  4 active torsions:
REMARK  status: ('A' for Active; 'I' for Inactive)
REMARK    1  A    between atoms: S_10  and  C_3 
REMARK    2  A    between atoms: O_18  and  C_4 
REMARK    3  A    between atoms: C_6  and  C_11 
REMARK    4  A    between atoms: C_11  and  S_10 
ROOT
ATOM      1  N   UNL d   1      -0.340  -1.097   0.130  0.00  0.00    -0.318 N 
ATOM      2  HN  UNL d   1      -0.947  -1.915   0.182  1.00  0.00     0.170 HD
ATOM      3  C   UNL d   1       0.999  -1.193   0.143  0.00  0.00     0.146 A 
ATOM      4  C   UNL d   1      -0.822   0.144   0.046  0.00  0.00     0.142 A 
ATOM      5  N   UNL d   1       1.843  -0.150   0.067  0.00  0.00    -0.347 N 
ATOM      6  HN  UNL d   1       2.856  -0.276   0.070  1.00  0.00     0.167 HD
ATOM      7  C   UNL d   1      -0.073   1.285  -0.026  0.00  0.00     0.073 A 
ATOM      8  C   UNL d   1       1.281   1.074  -0.013  0.00  0.00     0.094 A 
ENDROOT
BRANCH   3   9
ATOM      9  S   UNL d   1       1.649  -2.834   0.308  0.00  0.00    -0.089 SA
BRANCH   9  10
ATOM     10  C   UNL d   1       3.427  -2.526   0.031  0.00  0.00     0.122 C 
BRANCH  10  11
ATOM     11  C   UNL d   1       4.275  -3.789   0.078  0.00  0.00    -0.027 A 
ATOM     12  C   UNL d   1       5.550  -3.807   0.675  0.00  0.00     0.042 A 
ATOM     13  C   UNL d   1       6.320  -4.977   0.700  0.00  0.00     0.048 A 
ATOM     14 CL   UNL d   1       6.256  -2.399   1.390  0.00  0.00    -0.084 Cl
ATOM     15  C   UNL d   1       5.835  -6.139   0.112  0.00  0.00     0.035 A 
ATOM     16  C   UNL d   1       4.598  -6.140  -0.522  0.00  0.00     0.024 A 
ATOM     17 CL   UNL d   1       6.775  -7.579   0.155  0.00  0.00    -0.084 Cl
ATOM     18  C   UNL d   1       3.834  -4.971  -0.552  0.00  0.00     0.011 A 
ENDBRANCH  10  11
ENDBRANCH   9  10
ENDBRANCH   3   9
BRANCH   4  19
ATOM     19  O   UNL d   1      -2.176   0.214   0.039  0.00  0.00    -0.346 OA
ATOM     20  H   UNL d   1      -2.406  -0.731   0.106  0.00  0.00     0.219 HD
ENDBRANCH   4  19
TORSDOF 4
