REMARK  3 active torsions:
REMARK  status: ('A' for Active; 'I' for Inactive)
REMARK    1  A    between atoms: N_9  and  C_1 
REMARK       I    between atoms: C_3  and  N_4 
REMARK    2  A    between atoms: N_4  and  C_5 
REMARK    3  A    between atoms: C_13  and  N_9 
ROOT
ATOM      1  C   UNL d   1       0.394   1.219   0.088  0.00  0.00     0.016 A 
ATOM      2  C   UNL d   1      -1.014   1.310   0.015  0.00  0.00     0.053 A 
ATOM      3  C   UNL d   1      -1.844   0.188  -0.022  0.00  0.00     0.036 A 
ATOM      4  C   UNL d   1       0.973  -0.065   0.017  0.00  0.00    -0.041 A 
ATOM      5  C   UNL d   1       0.135  -1.197  -0.029  0.00  0.00     0.011 A 
ATOM      6  C   UNL d   1      -1.254  -1.074  -0.036  0.00  0.00     0.030 A 
ATOM      7  C   UNL d   1       2.454  -0.333   0.002  0.00  0.00     0.050 C 
ENDROOT
BRANCH   3   8
ATOM      8  N   UNL d   1      -3.254   0.251  -0.049  0.00  0.00    -0.327 N 
ATOM      9  C   UNL d   1      -4.044   1.388  -0.006  0.00  0.00     0.218 C 
ATOM     10  O   UNL d   1      -3.666   2.550   0.070  0.00  0.00    -0.274 OA
ATOM     11  C   UNL d   1      -5.524   1.082  -0.058  0.00  0.00     0.117 C 
ATOM     12  H   UNL d   1      -3.731  -0.640  -0.086  0.00  0.00     0.169 HD
ENDBRANCH   3   8
BRANCH   1  13
ATOM     13  N   UNL d   1       1.180   2.387   0.122  0.00  0.00    -0.293 NA
ATOM     14  H   UNL d   1       2.142   2.217   0.386  0.00  0.00     0.127 HD
BRANCH  13  15
ATOM     15  C   UNL d   1       0.608   3.563   0.786  0.00  0.00     0.088 C 
ATOM     16  C   UNL d   1       1.712   4.452   1.332  0.00  0.00     0.021 C 
ENDBRANCH  13  15
ENDBRANCH   1  13
TORSDOF 3
