REMARK  5 active torsions:
REMARK  status: ('A' for Active; 'I' for Inactive)
REMARK    1  A    between atoms: C_3  and  C_4 
REMARK    2  A    between atoms: C_5  and  N_14 
REMARK    3  A    between atoms: N_8  and  C_5 
REMARK    4  A    between atoms: C_7  and  N_8 
REMARK    5  A    between atoms: N_14  and  C_16 
ROOT
ATOM      1  C   UNL d   1      -3.032   3.383   0.396  0.00  0.00     0.176 C 
ATOM      2  S   UNL d   1      -4.321   4.393   0.707  0.00  0.00    -0.041 SA
ENDROOT
BRANCH   1   3
ATOM      3  N   UNL d   1      -3.000   2.007   0.296  0.00  0.00    -0.333 N 
ATOM      4  H   UNL d   1      -2.062   1.652   0.443  0.00  0.00     0.168 HD
BRANCH   3   5
ATOM      5  C   UNL d   1      -4.013   1.026   0.298  0.00  0.00     0.035 A 
ATOM      6  C   UNL d   1      -5.353   1.247  -0.012  0.00  0.00     0.054 A 
ATOM      7  C   UNL d   1      -6.213   0.158   0.058  0.00  0.00     0.075 A 
ATOM      8  S   UNL d   1      -7.940   0.175  -0.218  0.00  0.00     0.197 S 
ATOM      9  C   UNL d   1      -5.811  -1.135   0.383  0.00  0.00    -0.014 A 
ATOM     10  C   UNL d   1      -8.080  -1.543   0.054  0.00  0.00     0.115 A 
ATOM     11  O   UNL d   1      -8.172   0.473  -1.615  0.00  0.00    -0.218 OA
ATOM     12  O   UNL d   1      -8.567   0.898   0.863  0.00  0.00    -0.218 OA
ATOM     13  C   UNL d   1      -6.900  -2.105   0.362  0.00  0.00     0.025 A 
ATOM     14  C   UNL d   1      -4.482  -1.368   0.675  0.00  0.00     0.015 A 
ATOM     15  C   UNL d   1      -3.591  -0.287   0.631  0.00  0.00     0.030 A 
ENDBRANCH   3   5
ENDBRANCH   1   3
BRANCH   1  16
ATOM     16  N   UNL d   1      -1.766   3.945   0.396  0.00  0.00    -0.332 N 
ATOM     17  H   UNL d   1      -1.710   4.818   0.919  0.00  0.00     0.168 HD
BRANCH  16  18
ATOM     18  C   UNL d   1      -0.740   3.755  -0.565  0.00  0.00     0.049 A 
ATOM     19  C   UNL d   1       0.552   4.265  -0.337  0.00  0.00     0.074 A 
ATOM     20  C   UNL d   1       1.494   4.236  -1.389  0.00  0.00     0.018 A 
ATOM     21  C   UNL d   1       1.162   3.721  -2.639  0.00  0.00     0.001 A 
ATOM     22  C   UNL d   1      -0.102   3.183  -2.845  0.00  0.00     0.002 A 
ATOM     23  C   UNL d   1      -1.042   3.186  -1.812  0.00  0.00     0.030 A 
BRANCH  19  24
ATOM     24  C   UNL d   1       1.030   4.787   0.996  0.00  0.00     0.419 C 
ATOM     25  F   UNL d   1       0.048   4.958   1.925  0.00  0.00    -0.166 F 
ATOM     26  F   UNL d   1       1.946   3.959   1.571  0.00  0.00    -0.166 F 
ATOM     27  F   UNL d   1       1.644   5.999   0.890  0.00  0.00    -0.166 F 
ENDBRANCH  19  24
ENDBRANCH  16  18
ENDBRANCH   1  16
TORSDOF 5
