REMARK  2 active torsions:
REMARK  status: ('A' for Active; 'I' for Inactive)
REMARK    1  A    between atoms: C_8  and  C_3 
REMARK    2  A    between atoms: C_7  and  C_4 
ROOT
ATOM      1  N   UNL d   1       1.278  -0.586   0.514  0.00  0.00    -0.347 N 
ATOM      2  HN  UNL d   1       2.027  -1.085   0.993  1.00  0.00     0.167 HD
ATOM      3  C   UNL d   1       1.224   0.797   0.351  0.00  0.00     0.085 A 
ATOM      4  C   UNL d   1       0.225  -1.162  -0.036  0.00  0.00     0.085 A 
ATOM      5  S   UNL d   1      -0.918  -0.065  -0.718  0.00  0.00    -0.081 SA
ATOM      6  C   UNL d   1       0.088   1.248  -0.295  0.00  0.00     0.085 A 
ENDROOT
BRANCH   4   7
ATOM      7  C   UNL d   1      -0.015  -2.615  -0.053  0.00  0.00     0.001 A 
ATOM      8  C   UNL d   1      -0.717  -3.245  -1.091  0.00  0.00     0.057 A 
ATOM      9  C   UNL d   1      -0.921  -4.623  -1.068  0.00  0.00     0.123 A 
ATOM     10  F   UNL d   1      -1.596  -5.190  -2.078  0.00  0.00    -0.206 F 
ATOM     11  C   UNL d   1      -0.439  -5.416  -0.027  0.00  0.00    -0.023 A 
ATOM     12  C   UNL d   1       0.274  -4.800   1.005  0.00  0.00     0.011 A 
ATOM     13  C   UNL d   1      -0.687  -6.893  -0.038  0.00  0.00     0.051 C 
ATOM     14  C   UNL d   1       0.486  -3.415   0.988  0.00  0.00     0.015 A 
ENDBRANCH   4   7
BRANCH   3  15
ATOM     15  C   UNL d   1       2.285   1.691   0.824  0.00  0.00     0.172 C 
ATOM     16  O   UNL d   1       2.210   2.912   0.668  0.00  0.00    -0.291 OA
ATOM     17  C   UNL d   1       3.491   1.095   1.504  0.00  0.00     0.098 C 
ENDBRANCH   3  15
TORSDOF 2
