REMARK  4 active torsions:
REMARK  status: ('A' for Active; 'I' for Inactive)
REMARK    1  A    between atoms: C_21  and  N_1 
REMARK    2  A    between atoms: N_2  and  C_22 
REMARK    3  A    between atoms: C_31  and  C_33 
REMARK    4  A    between atoms: C_33  and  C_32 
ROOT
ATOM      1  C   UNL d   1      -8.009   0.298  -0.817  0.00  0.00     0.077 C 
ENDROOT
BRANCH   1   2
ATOM      2  C   UNL d   1      -8.891  -0.521   0.092  0.00  0.00    -0.054 A 
ATOM      3  C   UNL d   1      -9.350  -0.015   1.308  0.00  0.00     0.010 A 
ATOM      4  C   UNL d   1     -10.255  -0.747   2.097  0.00  0.00     0.031 A 
ATOM      5  C   UNL d   1     -10.730  -2.010   1.705  0.00  0.00     0.045 A 
ATOM      6  C   UNL d   1     -10.198  -2.530   0.515  0.00  0.00     0.031 A 
ATOM      7  C   UNL d   1      -9.302  -1.801  -0.280  0.00  0.00     0.010 A 
BRANCH   5   8
ATOM      8  N   UNL d   1     -11.713  -2.735   2.475  0.00  0.00    -0.252 N 
ATOM      9  C   UNL d   1     -12.279  -3.938   2.084  0.00  0.00     0.236 C 
ATOM     10  C   UNL d   1     -13.182  -4.449   3.176  0.00  0.00     0.100 C 
ATOM     11  O   UNL d   1     -12.179  -4.538   1.021  0.00  0.00    -0.272 OA
ATOM     12  C   UNL d   1     -14.631  -4.665   2.691  0.00  0.00     0.022 C 
ATOM     13  C   UNL d   1     -13.308  -3.259   4.131  0.00  0.00     0.100 C 
ATOM     14  C   UNL d   1     -15.492  -5.014   3.889  0.00  0.00    -0.025 C 
ATOM     15  C   UNL d   1     -15.104  -3.216   2.507  0.00  0.00     0.018 C 
ATOM     16  C   UNL d   1     -15.607  -3.903   4.636  0.00  0.00    -0.025 C 
ATOM     17  C   UNL d   1     -14.784  -2.828   3.958  0.00  0.00     0.022 C 
ATOM     18  C   UNL d   1     -12.296  -2.267   3.639  0.00  0.00     0.236 C 
ATOM     19  O   UNL d   1     -12.106  -1.222   4.248  0.00  0.00    -0.272 OA
ENDBRANCH   5   8
ENDBRANCH   1   2
BRANCH   1  20
ATOM     20  C   UNL d   1      -6.525   0.107  -0.619  0.00  0.00    -0.054 A 
ATOM     21  C   UNL d   1      -5.826  -0.865  -1.343  0.00  0.00     0.010 A 
ATOM     22  C   UNL d   1      -4.435  -0.984  -1.216  0.00  0.00     0.031 A 
ATOM     23  C   UNL d   1      -3.719  -0.168  -0.338  0.00  0.00     0.045 A 
ATOM     24  C   UNL d   1      -4.431   0.773   0.423  0.00  0.00     0.031 A 
ATOM     25  C   UNL d   1      -5.815   0.921   0.271  0.00  0.00     0.010 A 
BRANCH  23  26
ATOM     26  N   UNL d   1      -2.306  -0.243  -0.259  0.00  0.00    -0.252 N 
ATOM     27  C   UNL d   1      -1.544   0.165   0.855  0.00  0.00     0.236 C 
ATOM     28  C   UNL d   1      -0.213   0.446   0.247  0.00  0.00     0.100 C 
ATOM     29  O   UNL d   1      -1.867   0.387   2.008  0.00  0.00    -0.272 OA
ATOM     30  C   UNL d   1       1.236   0.616   0.675  0.00  0.00     0.022 C 
ATOM     31  C   UNL d   1      -0.129  -0.718  -0.743  0.00  0.00     0.100 C 
ATOM     32  C   UNL d   1       1.998  -0.674   0.929  0.00  0.00    -0.025 C 
ATOM     33  C   UNL d   1       1.764   0.835  -0.775  0.00  0.00     0.018 C 
ATOM     34  C   UNL d   1       2.111  -1.333  -0.241  0.00  0.00    -0.025 C 
ATOM     35  C   UNL d   1       1.302  -0.556  -1.271  0.00  0.00     0.022 C 
ATOM     36  C   UNL d   1      -1.483  -0.579  -1.351  0.00  0.00     0.236 C 
ATOM     37  O   UNL d   1      -1.750  -0.773  -2.523  0.00  0.00    -0.272 OA
ENDBRANCH  23  26
ENDBRANCH   1  20
TORSDOF 4
