REMARK  5 active torsions:
REMARK  status: ('A' for Active; 'I' for Inactive)
REMARK    1  A    between atoms: C_7  and  C_1 
REMARK    2  A    between atoms: C_10  and  N_5 
REMARK       I    between atoms: N_8  and  C_7 
REMARK       I    between atoms: C_9  and  N_8 
REMARK    3  A    between atoms: O_18  and  C_9 
REMARK    4  A    between atoms: C_17  and  C_10 
REMARK    5  A    between atoms: C_20  and  O_18 
ROOT
ATOM      1  C   UNL d   1      -0.585  -1.285  -0.000  0.00  0.00     0.116 C 
ATOM      2  N   UNL d   1      -0.835   1.116  -0.206  0.00  0.00    -0.274 N 
ATOM      3  C   UNL d   1       0.518   1.327  -0.207  0.00  0.00     0.329 C 
ATOM      4  C   UNL d   1      -1.445  -0.104  -0.232  0.00  0.00     0.266 C 
ATOM      5  N   UNL d   1       1.294   0.194  -0.037  0.00  0.00    -0.303 N 
ATOM      6  C   UNL d   1       0.737  -1.070   0.078  0.00  0.00     0.118 C 
ATOM      7  O   UNL d   1       0.966   2.460  -0.368  0.00  0.00    -0.246 OA
ATOM      8  O   UNL d   1      -2.645  -0.222  -0.463  0.00  0.00    -0.267 OA
ATOM      9  H   UNL d   1      -1.411   1.925  -0.382  0.00  0.00     0.173 HD
ENDROOT
BRANCH   1  10
ATOM     10  C   UNL d   1      -1.108  -2.682   0.128  0.00  0.00     0.266 C 
ATOM     11  N   UNL d   1      -2.410  -2.837  -0.302  0.00  0.00    -0.269 N 
ATOM     12  C   UNL d   1      -3.246  -3.916  -0.160  0.00  0.00     0.367 C 
ATOM     13  H   UNL d   1      -2.889  -2.041  -0.711  0.00  0.00     0.174 HD
ATOM     14  O   UNL d   1      -4.357  -3.921  -0.681  0.00  0.00    -0.238 OA
ATOM     15  O   UNL d   1      -0.379  -3.583   0.528  0.00  0.00    -0.267 OA
BRANCH  12  16
ATOM     16  O   UNL d   1      -2.758  -4.903   0.628  0.00  0.00    -0.304 OA
BRANCH  16  17
ATOM     17  C   UNL d   1      -3.657  -5.984   0.910  0.00  0.00     0.176 C 
ATOM     18  C   UNL d   1      -4.671  -5.572   1.965  0.00  0.00     0.034 C 
ENDBRANCH  16  17
ENDBRANCH  12  16
ENDBRANCH   1  10
BRANCH   5  19
ATOM     19  C   UNL d   1       2.754   0.337  -0.050  0.00  0.00     0.190 C 
BRANCH  19  20
ATOM     20  C   UNL d   1       3.353   0.103  -1.421  0.00  0.00     0.027 A 
ATOM     21  N   UNL d   1       3.776  -1.157  -1.703  0.00  0.00    -0.368 N 
ATOM     22  C   UNL d   1       4.324  -1.371  -2.920  0.00  0.00     0.088 A 
ATOM     23  HN  UNL d   1       3.684  -1.912  -1.023  1.00  0.00     0.165 HD
ATOM     24  C   UNL d   1       4.469  -0.389  -3.884  0.00  0.00     0.017 A 
ATOM     25  C   UNL d   1       4.015   0.891  -3.589  0.00  0.00     0.003 A 
ATOM     26  C   UNL d   1       3.444   1.143  -2.344  0.00  0.00     0.027 A 
ENDBRANCH  19  20
ENDBRANCH   5  19
TORSDOF 5
