REMARK  5 active torsions:
REMARK  status: ('A' for Active; 'I' for Inactive)
REMARK    1  A    between atoms: N_9  and  C_3 
REMARK    2  A    between atoms: C_7  and  C_4 
REMARK    3  A    between atoms: C_11  and  N_10 
REMARK    4  A    between atoms: C_20  and  C_11 
REMARK    5  A    between atoms: C_21  and  C_11 
ROOT
ATOM      1  N   UNL d   1       3.626  -1.298   0.043  0.00  0.00    -0.377 N 
ATOM      2  N   UNL d   1       5.248  -3.658   0.878  0.00  0.00     0.105 N 
ATOM      3  C   UNL d   1       3.817  -2.438  -0.869  0.00  0.00     0.153 C 
ATOM      4  C   UNL d   1       4.647  -1.175   1.107  0.00  0.00     0.153 C 
ATOM      5  C   UNL d   1       4.144  -3.739  -0.108  0.00  0.00     0.293 C 
ATOM      6  C   UNL d   1       4.898  -2.541   1.799  0.00  0.00     0.293 C 
ENDROOT
BRANCH   1   7
ATOM      7  C   UNL d   1       2.545  -0.421  -0.056  0.00  0.00     0.045 A 
ATOM      8  C   UNL d   1       1.932  -0.007  -1.290  0.00  0.00     0.019 A 
ATOM      9  C   UNL d   1       0.782   0.826  -1.225  0.00  0.00     0.067 A 
ATOM     10  C   UNL d   1       2.405  -0.343  -2.590  0.00  0.00     0.016 A 
ATOM     11  N   UNL d   1       0.293   1.279  -0.054  0.00  0.00    -0.350 N 
ATOM     12  C   UNL d   1       0.140   1.193  -2.420  0.00  0.00     0.061 A 
ATOM     13  C   UNL d   1       0.881   0.921   1.108  0.00  0.00     0.119 A 
ATOM     14  HN  UNL d   1      -0.523   1.892  -0.045  1.00  0.00     0.166 HD
ATOM     15  C   UNL d   1       1.978   0.072   1.130  0.00  0.00     0.064 A 
ATOM     16 CL   UNL d   1      -1.267   2.213  -2.398  0.00  0.00    -0.082 Cl
ATOM     17  C   UNL d   1       0.585   0.772  -3.674  0.00  0.00     0.026 A 
ATOM     18  C   UNL d   1       1.730   0.007  -3.760  0.00  0.00     0.003 A 
BRANCH  13  19
ATOM     19  C   UNL d   1       0.330   1.444   2.427  0.00  0.00     0.432 C 
ATOM     20  F   UNL d   1      -0.737   2.282   2.306  0.00  0.00    -0.165 F 
ATOM     21  F   UNL d   1      -0.078   0.438   3.255  0.00  0.00    -0.165 F 
ATOM     22  F   UNL d   1       1.267   2.139   3.140  0.00  0.00    -0.165 F 
ENDBRANCH  13  19
ENDBRANCH   1   7
BRANCH   2  23
ATOM     23  C   UNL d   1       6.596  -3.461   0.263  0.00  0.00     0.289 C 
BRANCH  23  24
ATOM     24  C   UNL d   1       7.700  -3.438   1.328  0.00  0.00    -0.021 A 
ATOM     25  C   UNL d   1       7.900  -4.535   2.184  0.00  0.00     0.010 A 
ATOM     26  C   UNL d   1       8.916  -4.519   3.140  0.00  0.00     0.001 A 
ATOM     27  C   UNL d   1       9.740  -3.403   3.261  0.00  0.00     0.000 A 
ATOM     28  C   UNL d   1       9.545  -2.299   2.433  0.00  0.00     0.001 A 
ATOM     29  C   UNL d   1       8.533  -2.315   1.470  0.00  0.00     0.010 A 
ENDBRANCH  23  24
BRANCH  23  30
ATOM     30  C   UNL d   1       6.973  -4.464  -0.840  0.00  0.00    -0.021 A 
ATOM     31  C   UNL d   1       7.777  -4.037  -1.912  0.00  0.00     0.010 A 
ATOM     32  C   UNL d   1       8.143  -4.919  -2.932  0.00  0.00     0.001 A 
ATOM     33  C   UNL d   1       7.715  -6.246  -2.893  0.00  0.00     0.000 A 
ATOM     34  C   UNL d   1       6.942  -6.691  -1.824  0.00  0.00     0.001 A 
ATOM     35  C   UNL d   1       6.588  -5.813  -0.797  0.00  0.00     0.010 A 
ENDBRANCH  23  30
ENDBRANCH   2  23
TORSDOF 5
