REMARK  7 active torsions:
REMARK  status: ('A' for Active; 'I' for Inactive)
REMARK    1  A    between atoms: N_6  and  S_1 
REMARK    2  A    between atoms: O_10  and  N_2 
REMARK    3  A    between atoms: C_4  and  O_10 
REMARK       I    between atoms: N_9  and  C_4 
REMARK    4  A    between atoms: C_5  and  C_11 
REMARK    5  A    between atoms: N_15  and  C_5 
REMARK    6  A    between atoms: C_16  and  N_6 
REMARK    7  A    between atoms: C_17  and  N_9 
ROOT
ATOM      1  N   UNL d   1       0.926  -2.936  -7.034  0.00  0.00    -0.244 N 
ATOM      2  HN  UNL d   1       1.126  -2.890  -8.033  1.00  0.00     0.196 HD
ATOM      3  C   UNL d   1       1.761  -2.657  -6.065  0.00  0.00     0.109 C 
ENDROOT
BRANCH   3   4
ATOM      4  C   UNL d   1       3.166  -2.227  -6.366  0.00  0.00     0.004 A 
ATOM      5  C   UNL d   1       3.509  -1.670  -7.602  0.00  0.00     0.016 A 
ATOM      6  C   UNL d   1       4.814  -1.209  -7.825  0.00  0.00     0.025 A 
ATOM      7  C   UNL d   1       5.773  -1.302  -6.813  0.00  0.00     0.022 A 
ATOM      8  C   UNL d   1       5.451  -1.897  -5.597  0.00  0.00     0.025 A 
ATOM      9  C   UNL d   1       4.152  -2.355  -5.373  0.00  0.00     0.016 A 
BRANCH   7  10
ATOM     10  N   UNL d   1       7.099  -0.828  -7.022  0.00  0.00    -0.186 NA
ATOM     11  H   UNL d   1       7.171   0.065  -7.512  0.00  0.00     0.145 HD
BRANCH  10  12
ATOM     12  S   UNL d   1       8.223  -1.902  -7.688  0.00  0.00     0.210 S 
ATOM     13  O   UNL d   1       9.203  -1.062  -8.345  0.00  0.00    -0.211 OA
ATOM     14  O   UNL d   1       7.538  -2.955  -8.405  0.00  0.00    -0.211 OA
ATOM     15  C   UNL d   1       8.986  -2.581  -6.230  0.00  0.00     0.180 C 
ENDBRANCH  10  12
ENDBRANCH   7  10
ENDBRANCH   3   4
BRANCH   3  16
ATOM     16  N   UNL d   1       1.392  -2.729  -4.735  0.00  0.00    -0.286 NA
ATOM     17  H   UNL d   1       0.388  -2.846  -4.624  0.00  0.00     0.125 HD
ATOM     18  H   UNL d   1       1.749  -1.990  -4.140  0.00  0.00     0.125 HD
ENDBRANCH   3  16
BRANCH   1  19
ATOM     19  O   UNL d   1      -0.310  -3.314  -6.442  0.00  0.00    -0.179 OA
BRANCH  19  20
ATOM     20  C   UNL d   1      -1.276  -3.764  -7.318  0.00  0.00     0.387 C 
ATOM     21  N   UNL d   1      -0.941  -3.652  -8.645  0.00  0.00    -0.301 N 
ATOM     22  H   UNL d   1      -0.019  -3.253  -8.779  0.00  0.00     0.171 HD
ATOM     23  O   UNL d   1      -2.331  -4.192  -6.861  0.00  0.00    -0.236 OA
BRANCH  21  24
ATOM     24  C   UNL d   1      -1.707  -4.049  -9.759  0.00  0.00     0.036 A 
ATOM     25  C   UNL d   1      -2.953  -4.674  -9.655  0.00  0.00     0.030 A 
ATOM     26  C   UNL d   1      -3.645  -5.094 -10.797  0.00  0.00     0.009 A 
ATOM     27  C   UNL d   1      -3.113  -4.882 -12.070  0.00  0.00    -0.062 A 
ATOM     28  C   UNL d   1      -1.874  -4.242 -12.180  0.00  0.00     0.009 A 
ATOM     29  C   UNL d   1      -3.820  -5.405 -13.285  0.00  0.00     0.048 C 
ATOM     30  C   UNL d   1      -1.180  -3.826 -11.034  0.00  0.00     0.030 A 
ENDBRANCH  21  24
ENDBRANCH  19  20
ENDBRANCH   1  19
TORSDOF 7
