REMARK  4 active torsions:
REMARK  status: ('A' for Active; 'I' for Inactive)
REMARK    1  A    between atoms: C_3  and  C_1 
REMARK    2  A    between atoms: O_7  and  C_1 
REMARK    3  A    between atoms: C_2  and  C_3 
REMARK    4  A    between atoms: O_8  and  C_3 
ROOT
ATOM      1  C   UNL d   1      -0.412   1.874  -0.267  0.00  0.00    -0.018 A 
ATOM      2  C   UNL d   1      -0.140   3.244  -0.419  0.00  0.00     0.034 A 
ATOM      3  C   UNL d   1      -0.947   4.198   0.208  0.00  0.00     0.034 A 
ATOM      4 CL   UNL d   1      -0.600   5.871   0.012  0.00  0.00    -0.084 Cl
ATOM      5  C   UNL d   1      -1.514   1.493   0.520  0.00  0.00     0.010 A 
ATOM      6  C   UNL d   1      -2.311   2.451   1.148  0.00  0.00     0.002 A 
ATOM      7  C   UNL d   1      -2.028   3.805   0.995  0.00  0.00     0.024 A 
ENDROOT
BRANCH   1   8
ATOM      8  C   UNL d   1       0.456   0.809  -0.902  0.00  0.00     0.248 C 
BRANCH   8   9
ATOM      9  C   UNL d   1       1.924   0.847  -0.446  0.00  0.00     0.174 C 
ATOM     10  O   UNL d   1       2.332   1.170   0.658  0.00  0.00    -0.648 OA
BRANCH   9  11
ATOM     11  O   UNL d   1       2.754   0.422  -1.442  0.00  0.00    -0.774 OA
ATOM     12  H   UNL d   1       2.209   0.243  -2.244  0.00  0.00     0.167 HD
ENDBRANCH   9  11
ENDBRANCH   8   9
BRANCH   8  13
ATOM     13  O   UNL d   1       0.434   0.894  -2.337  0.00  0.00    -0.380 OA
ATOM     14  H   UNL d   1       0.182   1.805  -2.575  0.00  0.00     0.211 HD
ENDBRANCH   8  13
ENDBRANCH   1   8
TORSDOF 4
