REMARK  1 active torsions:
REMARK  status: ('A' for Active; 'I' for Inactive)
REMARK    1  A    between atoms: C_8  and  N_4 
ROOT
ATOM      1  C   UNL d   1      -2.057  -1.668   0.417  0.00  0.00     0.137 C 
ATOM      2  N   UNL d   1      -2.211  -0.525   1.129  0.00  0.00    -0.362 N 
ATOM      3  S   UNL d   1      -3.373  -2.769   0.739  0.00  0.00    -0.092 SA
ATOM      4  N   UNL d   1      -1.056  -1.857  -0.356  0.00  0.00    -0.366 N 
ATOM      5  HN  UNL d   1      -0.314  -1.156  -0.374  1.00  0.00     0.162 HD
ATOM      6  C   UNL d   1      -3.163  -0.493   2.221  0.00  0.00     0.033 C 
ATOM      7  C   UNL d   1      -3.953  -1.821   2.183  0.00  0.00     0.112 C 
ATOM      8  C   UNL d   1      -2.388  -0.343   3.532  0.00  0.00     0.039 C 
ATOM      9  C   UNL d   1      -4.106   0.701   2.037  0.00  0.00     0.039 C 
ATOM     10  H   UNL d   1      -1.435   0.128   1.102  0.00  0.00     0.162 HD
ENDROOT
BRANCH   4  11
ATOM     11  C   UNL d   1      -0.928  -3.036  -1.216  0.00  0.00     0.083 C 
ATOM     12  C   UNL d   1      -0.336  -4.241  -0.476  0.00  0.00     0.025 C 
ATOM     13  C   UNL d   1       1.140  -4.103  -0.109  0.00  0.00     0.002 C 
ATOM     14  C   UNL d   1       2.015  -3.584  -1.246  0.00  0.00     0.000 C 
ATOM     15  C   UNL d   1       1.413  -2.374  -1.949  0.00  0.00     0.002 C 
ATOM     16  C   UNL d   1      -0.025  -2.640  -2.392  0.00  0.00     0.025 C 
ENDBRANCH   4  11
TORSDOF 1
