REMARK  7 active torsions:
REMARK  status: ('A' for Active; 'I' for Inactive)
REMARK    1  A    between atoms: C_10  and  S_1 
REMARK    2  A    between atoms: N_13  and  S_1 
REMARK    3  A    between atoms: C_4  and  C_5 
REMARK    4  A    between atoms: C_6  and  S_19 
REMARK    5  A    between atoms: C_20  and  N_13 
REMARK    6  A    between atoms: S_19  and  C_26 
REMARK    7  A    between atoms: C_26  and  C_20 
ROOT
ATOM      1  N   UNL d   1       9.906  -0.589   3.054  0.00  0.00    -0.352 N 
ATOM      2  HN  UNL d   1      10.922  -0.678   3.036  1.00  0.00     0.166 HD
ATOM      3  C   UNL d   1       9.121  -1.686   2.893  0.00  0.00     0.118 A 
ATOM      4  C   UNL d   1       7.134  -0.347   3.083  0.00  0.00     0.015 A 
ATOM      5  C   UNL d   1       7.734  -1.595   2.898  0.00  0.00     0.053 A 
ATOM      6  C   UNL d   1       9.338   0.611   3.236  0.00  0.00     0.044 A 
ATOM      7  C   UNL d   1       7.942   0.807   3.255  0.00  0.00     0.007 A 
ATOM      8  C   UNL d   1       7.451   2.120   3.464  0.00  0.00     0.015 A 
ATOM      9  C   UNL d   1      10.180   1.699   3.435  0.00  0.00     0.030 A 
ATOM     10  C   UNL d   1       8.316   3.199   3.653  0.00  0.00     0.001 A 
ATOM     11  C   UNL d   1       9.686   2.986   3.644  0.00  0.00     0.002 A 
ENDROOT
BRANCH   4  12
ATOM     12  S   UNL d   1       5.351  -0.330   3.292  0.00  0.00    -0.128 SA
BRANCH  12  13
ATOM     13  C   UNL d   1       4.783  -0.152   1.556  0.00  0.00     0.095 C 
BRANCH  13  14
ATOM     14  C   UNL d   1       3.247  -0.138   1.531  0.00  0.00     0.115 C 
BRANCH  14  15
ATOM     15  N   UNL d   1       2.719   0.998   2.321  0.00  0.00    -0.215 NA
ATOM     16  H   UNL d   1       3.149   1.098   3.244  0.00  0.00     0.140 HD
BRANCH  15  17
ATOM     17  S   UNL d   1       1.038   1.158   2.413  0.00  0.00     0.241 S 
ATOM     18  O   UNL d   1       0.762   2.348   3.182  0.00  0.00    -0.206 OA
ATOM     19  O   UNL d   1       0.509   0.959   1.080  0.00  0.00    -0.206 OA
BRANCH  17  20
ATOM     20  C   UNL d   1       0.573  -0.238   3.414  0.00  0.00     0.074 A 
ATOM     21  C   UNL d   1       1.043  -0.330   4.728  0.00  0.00     0.025 A 
ATOM     22  C   UNL d   1       0.703  -1.441   5.502  0.00  0.00     0.008 A 
ATOM     23  C   UNL d   1      -0.109  -2.455   4.974  0.00  0.00    -0.062 A 
ATOM     24  C   UNL d   1      -0.589  -2.337   3.663  0.00  0.00     0.008 A 
ATOM     25  C   UNL d   1      -0.465  -3.647   5.816  0.00  0.00     0.048 C 
ATOM     26  C   UNL d   1      -0.253  -1.230   2.882  0.00  0.00     0.025 A 
ENDBRANCH  17  20
ENDBRANCH  15  17
ENDBRANCH  14  15
ENDBRANCH  13  14
ENDBRANCH  12  13
ENDBRANCH   4  12
BRANCH   3  27
ATOM     27  C   UNL d   1       9.778  -3.053   2.750  0.00  0.00     0.432 C 
ATOM     28  F   UNL d   1      11.141  -3.029   2.781  0.00  0.00    -0.165 F 
ATOM     29  F   UNL d   1       9.400  -3.918   3.737  0.00  0.00    -0.165 F 
ATOM     30  F   UNL d   1       9.443  -3.670   1.579  0.00  0.00    -0.165 F 
ENDBRANCH   3  27
TORSDOF 7
