REMARK  6 active torsions:
REMARK  status: ('A' for Active; 'I' for Inactive)
REMARK    1  A    between atoms: C_11  and  N_1 
REMARK    2  A    between atoms: N_4  and  C_16 
REMARK    3  A    between atoms: C_17  and  N_6 
REMARK    4  A    between atoms: C_8  and  C_11 
REMARK    5  A    between atoms: C_9  and  C_8 
REMARK    6  A    between atoms: O_20  and  C_9 
ROOT
ATOM      1  N   UNL d   1       1.419   1.157  -0.148  0.00  0.00    -0.380 N 
ATOM      2  C   UNL d   1       0.131   0.666  -0.068  0.00  0.00     0.036 A 
ATOM      3  C   UNL d   1       0.107  -0.733  -0.013  0.00  0.00    -0.028 A 
ATOM      4  C   UNL d   1      -1.064   1.357  -0.058  0.00  0.00     0.032 A 
ATOM      5  C   UNL d   1       2.327   0.037   0.102  0.00  0.00     0.128 C 
ATOM      6  C   UNL d   1      -1.080  -1.460   0.040  0.00  0.00     0.040 A 
ATOM      7  C   UNL d   1       1.506  -1.256  -0.088  0.00  0.00     0.060 C 
ATOM      8  C   UNL d   1      -2.298  -0.769   0.056  0.00  0.00     0.048 A 
ATOM      9  C   UNL d   1      -2.269   0.640   0.022  0.00  0.00     0.033 A 
ENDROOT
BRANCH   8  10
ATOM     10  N   UNL d   1      -3.500  -1.509   0.157  0.00  0.00    -0.300 N 
ATOM     11  N   UNL d   1      -4.438  -0.962  -0.463  0.00  0.00    -0.300 N 
ATOM     12  HN  UNL d   1      -4.322  -0.123  -1.031  1.00  0.00     0.187 HD
ATOM     13  HN  UNL d   1      -3.590  -2.384   0.674  1.00  0.00     0.187 HD
BRANCH  11  14
ATOM     14  C   UNL d   1      -5.676  -1.624  -0.298  0.00  0.00     0.048 A 
ATOM     15  C   UNL d   1      -6.841  -0.847  -0.321  0.00  0.00     0.032 A 
ATOM     16  C   UNL d   1      -8.107  -1.437  -0.197  0.00  0.00     0.021 A 
ATOM     17  C   UNL d   1      -8.208  -2.819  -0.054  0.00  0.00     0.011 A 
ATOM     18  C   UNL d   1      -7.064  -3.611  -0.038  0.00  0.00     0.021 A 
ATOM     19 BR   UNL d   1      -9.911  -3.623   0.110  0.00  0.00    -0.051 Br
ATOM     20  C   UNL d   1      -5.803  -3.013  -0.164  0.00  0.00     0.032 A 
ENDBRANCH  11  14
ENDBRANCH   8  10
BRANCH   1  21
ATOM     21  C   UNL d   1       1.869   2.543  -0.135  0.00  0.00     0.133 C 
BRANCH  21  22
ATOM     22  C   UNL d   1       1.575   3.239   1.186  0.00  0.00     0.131 C 
BRANCH  22  23
ATOM     23  C   UNL d   1       2.106   4.654   1.206  0.00  0.00     0.259 C 
ATOM     24  O   UNL d   1       2.744   5.199   0.319  0.00  0.00    -0.265 OA
BRANCH  23  25
ATOM     25  O   UNL d   1       1.755   5.226   2.398  0.00  0.00    -0.326 OA
ATOM     26  C   UNL d   1       2.189   6.575   2.578  0.00  0.00     0.213 C 
ENDBRANCH  23  25
ENDBRANCH  22  23
ENDBRANCH  21  22
ENDBRANCH   1  21
TORSDOF 6
