REMARK  3 active torsions:
REMARK  status: ('A' for Active; 'I' for Inactive)
REMARK       I    between atoms: C_3  and  N_1 
REMARK    1  A    between atoms: C_2  and  C_7 
REMARK       I    between atoms: N_5  and  C_2 
REMARK    2  A    between atoms: N_4  and  C_6 
REMARK    3  A    between atoms: C_17  and  N_5 
ROOT
ATOM      1  C   UNL d   1      -1.540  -0.129  -1.687  0.00  0.00     0.226 C 
ATOM      2  N   UNL d   1      -1.147  -1.174  -2.502  0.00  0.00    -0.327 N 
ATOM      3  O   UNL d   1      -1.587  -0.179  -0.456  0.00  0.00    -0.273 OA
ATOM      4  H   UNL d   1      -1.093  -1.009  -3.499  0.00  0.00     0.169 HD
ENDROOT
BRANCH   2   5
ATOM      5  C   UNL d   1      -0.893  -2.503  -2.079  0.00  0.00     0.034 A 
ATOM      6  C   UNL d   1      -1.059  -2.933  -0.767  0.00  0.00     0.032 A 
ATOM      7  C   UNL d   1      -0.911  -4.280  -0.428  0.00  0.00     0.031 A 
ATOM      8  C   UNL d   1      -0.594  -5.262  -1.372  0.00  0.00     0.030 A 
ATOM      9  C   UNL d   1      -0.351  -4.807  -2.674  0.00  0.00     0.031 A 
ATOM     10  C   UNL d   1      -0.504  -3.450  -3.029  0.00  0.00     0.032 A 
BRANCH   8  11
ATOM     11  N   UNL d   1      -0.504  -6.583  -0.991  0.00  0.00    -0.377 N 
ATOM     12  C   UNL d   1       0.234  -7.611  -1.734  0.00  0.00     0.149 C 
ATOM     13  C   UNL d   1       0.948  -8.530  -0.720  0.00  0.00     0.187 C 
ATOM     14  O   UNL d   1       0.038  -9.094   0.244  0.00  0.00    -0.388 OA
ATOM     15  C   UNL d   1      -0.645  -8.049   0.960  0.00  0.00     0.187 C 
ATOM     16  C   UNL d   1      -1.439  -7.156  -0.003  0.00  0.00     0.149 C 
ENDBRANCH   8  11
ENDBRANCH   2   5
BRANCH   1  17
ATOM     17  C   UNL d   1      -2.025   1.129  -2.417  0.00  0.00     0.081 C 
ATOM     18  C   UNL d   1      -2.418   2.204  -1.389  0.00  0.00     0.034 C 
ATOM     19  C   UNL d   1      -1.184   2.774  -0.692  0.00  0.00     0.126 C 
ATOM     20  N   UNL d   1      -0.269   3.339  -1.675  0.00  0.00    -0.352 N 
ATOM     21  C   UNL d   1       0.453   4.511  -1.501  0.00  0.00     0.215 C 
ATOM     22  C   UNL d   1       0.154   2.420  -2.734  0.00  0.00     0.126 C 
ATOM     23  O   UNL d   1       1.351   4.843  -2.281  0.00  0.00    -0.274 OA
ATOM     24  C   UNL d   1       0.110   5.450  -0.365  0.00  0.00     0.117 C 
ATOM     25  C   UNL d   1      -1.033   1.735  -3.414  0.00  0.00     0.034 C 
ENDBRANCH   1  17
TORSDOF 3
