REMARK  4 active torsions:
REMARK  status: ('A' for Active; 'I' for Inactive)
REMARK    1  A    between atoms: C_2  and  S_1 
REMARK    2  A    between atoms: C_11  and  S_1 
REMARK    3  A    between atoms: C_6  and  C_3 
REMARK    4  A    between atoms: C_4  and  C_5 
ROOT
ATOM      1  C   UNL d   1       0.417  -1.549   0.373  0.00  0.00     0.146 C 
ATOM      2  C   UNL d   1      -0.582  -1.725   1.266  0.00  0.00     0.066 C 
ATOM      3  C   UNL d   1       0.927  -2.679  -0.307  0.00  0.00     0.112 C 
ATOM      4  N   UNL d   1       1.322  -3.626  -0.851  0.00  0.00    -0.191 NA
ENDROOT
BRANCH   1   5
ATOM      5  S   UNL d   1       1.143  -0.010   0.037  0.00  0.00     0.216 S 
ATOM      6  O   UNL d   1       1.739   0.522   1.250  0.00  0.00    -0.216 OA
ATOM      7  O   UNL d   1       0.260   0.804  -0.781  0.00  0.00    -0.216 OA
BRANCH   5   8
ATOM      8  C   UNL d   1       2.539  -0.380  -1.047  0.00  0.00     0.065 A 
ATOM      9  C   UNL d   1       2.349  -0.377  -2.436  0.00  0.00     0.025 A 
ATOM     10  C   UNL d   1       3.426  -0.652  -3.281  0.00  0.00     0.025 A 
ATOM     11  C   UNL d   1       4.685  -0.912  -2.740  0.00  0.00     0.034 A 
ATOM     12  C   UNL d   1       4.881  -0.887  -1.358  0.00  0.00     0.025 A 
ATOM     13 CL   UNL d   1       6.008  -1.256  -3.785  0.00  0.00    -0.084 Cl
ATOM     14  C   UNL d   1       3.807  -0.614  -0.503  0.00  0.00     0.025 A 
ENDBRANCH   5   8
ENDBRANCH   1   5
BRANCH   2  15
ATOM     15  C   UNL d   1      -1.368  -0.761   2.057  0.00  0.00     0.056 A 
ATOM     16  N   UNL d   1      -1.427   0.489   1.552  0.00  0.00    -0.364 N 
ATOM     17  C   UNL d   1      -2.284   1.375   2.116  0.00  0.00     0.104 A 
ATOM     18  HN  UNL d   1      -0.839   0.761   0.764  1.00  0.00     0.165 HD
ATOM     19  C   UNL d   1      -3.125   1.071   3.175  0.00  0.00     0.065 A 
ATOM     20  C   UNL d   1      -3.022  -0.210   3.724  0.00  0.00     0.043 A 
ATOM     21  C   UNL d   1      -2.138  -1.137   3.166  0.00  0.00     0.061 A 
ATOM     22 CL   UNL d   1      -2.075  -2.711   3.874  0.00  0.00    -0.082 Cl
BRANCH  19  23
ATOM     23  C   UNL d   1      -4.116   2.083   3.661  0.00  0.00     0.418 C 
ATOM     24  F   UNL d   1      -4.937   1.606   4.637  0.00  0.00    -0.166 F 
ATOM     25  F   UNL d   1      -3.527   3.195   4.175  0.00  0.00    -0.166 F 
ATOM     26  F   UNL d   1      -4.939   2.517   2.667  0.00  0.00    -0.166 F 
ENDBRANCH  19  23
ENDBRANCH   2  15
TORSDOF 4
