REMARK  7 active torsions:
REMARK  status: ('A' for Active; 'I' for Inactive)
REMARK    1  A    between atoms: C_7  and  C_1 
REMARK    2  A    between atoms: S_2  and  C_9 
REMARK    3  A    between atoms: C_3  and  C_6 
REMARK    4  A    between atoms: O_14  and  C_7 
REMARK    5  A    between atoms: C_9  and  C_10 
REMARK    6  A    between atoms: N_22  and  C_10 
REMARK    7  A    between atoms: N_12  and  O_14 
ROOT
ATOM      1  C   UNL d   1      -1.632   1.366  -0.096  0.00  0.00     0.333 C 
ATOM      2  O   UNL d   1      -0.818   1.215   0.809  0.00  0.00    -0.256 OA
ENDROOT
BRANCH   1   3
ATOM      3  C   UNL d   1      -1.882   0.331  -1.159  0.00  0.00     0.132 A 
ATOM      4  N   UNL d   1      -1.151  -0.812  -0.960  0.00  0.00    -0.359 N 
ATOM      5  C   UNL d   1      -1.190  -1.788  -1.893  0.00  0.00     0.105 A 
ATOM      6  HN  UNL d   1      -0.585  -0.923  -0.119  1.00  0.00     0.165 HD
ATOM      7  C   UNL d   1      -1.940  -1.706  -3.050  0.00  0.00     0.065 A 
ATOM      8  C   UNL d   1      -2.701  -0.548  -3.240  0.00  0.00     0.044 A 
ATOM      9  C   UNL d   1      -2.682   0.488  -2.294  0.00  0.00     0.067 A 
ATOM     10 CL   UNL d   1      -3.661   1.857  -2.675  0.00  0.00    -0.082 Cl
BRANCH   7  11
ATOM     11  C   UNL d   1      -1.905  -2.828  -4.042  0.00  0.00     0.418 C 
ATOM     12  F   UNL d   1      -2.698  -2.611  -5.126  0.00  0.00    -0.166 F 
ATOM     13  F   UNL d   1      -0.655  -3.049  -4.530  0.00  0.00    -0.166 F 
ATOM     14  F   UNL d   1      -2.316  -4.008  -3.506  0.00  0.00    -0.166 F 
ENDBRANCH   7  11
ENDBRANCH   1   3
BRANCH   1  15
ATOM     15  O   UNL d   1      -2.381   2.486  -0.288  0.00  0.00    -0.192 OA
BRANCH  15  16
ATOM     16  N   UNL d   1      -1.587   3.621  -0.027  0.00  0.00    -0.245 N 
ATOM     17  C   UNL d   1      -2.295   4.708  -0.039  0.00  0.00     0.109 C 
ATOM     18  HN  UNL d   1      -0.583   3.592   0.150  1.00  0.00     0.196 HD
BRANCH  17  19
ATOM     19  C   UNL d   1      -1.530   6.001   0.049  0.00  0.00     0.217 C 
BRANCH  19  20
ATOM     20  S   UNL d   1      -1.169   6.608  -1.586  0.00  0.00     0.147 S 
ATOM     21  O   UNL d   1      -2.426   6.902  -2.251  0.00  0.00    -0.228 OA
ATOM     22  O   UNL d   1      -0.172   7.653  -1.442  0.00  0.00    -0.228 OA
ATOM     23  C   UNL d   1      -0.394   5.253  -2.444  0.00  0.00     0.161 C 
ENDBRANCH  19  20
ENDBRANCH  17  19
BRANCH  17  24
ATOM     24  N   UNL d   1      -3.661   4.750  -0.135  0.00  0.00    -0.387 N 
ATOM     25  H   UNL d   1      -4.161   5.604   0.088  0.00  0.00     0.157 HD
ATOM     26  H   UNL d   1      -4.157   3.890   0.069  0.00  0.00     0.157 HD
ENDBRANCH  17  24
ENDBRANCH  15  16
ENDBRANCH   1  15
TORSDOF 7
