REMARK  4 active torsions:
REMARK  status: ('A' for Active; 'I' for Inactive)
REMARK    1  A    between atoms: N_2  and  C_1 
REMARK    2  A    between atoms: S_5  and  C_3 
REMARK    3  A    between atoms: C_8  and  S_5 
REMARK    4  A    between atoms: C_10  and  C_6 
ROOT
ATOM      1  C   UNL d   1       1.444  -0.132  -0.086  0.00  0.00     0.120 A 
ATOM      2  C   UNL d   1       0.688  -1.311  -0.058  0.00  0.00     0.040 A 
ATOM      3  C   UNL d   1       0.840   1.135  -0.004  0.00  0.00     0.052 A 
ATOM      4  C   UNL d   1      -0.553   1.246   0.097  0.00  0.00     0.012 A 
ATOM      5  C   UNL d   1      -0.706  -1.181   0.045  0.00  0.00     0.022 A 
ATOM      6  C   UNL d   1      -1.321   0.079   0.127  0.00  0.00     0.016 A 
ENDROOT
BRANCH   2   7
ATOM      7  S   UNL d   1       1.329  -2.977  -0.160  0.00  0.00    -0.070 SA
BRANCH   7   8
ATOM      8  C   UNL d   1       2.104  -3.202   1.432  0.00  0.00     0.074 A 
ATOM      9  N   UNL d   1       2.229  -2.129   2.245  0.00  0.00    -0.360 N 
ATOM     10  C   UNL d   1       2.855  -2.320   3.428  0.00  0.00     0.089 A 
ATOM     11  HN  UNL d   1       1.867  -1.214   1.977  1.00  0.00     0.166 HD
ATOM     12  C   UNL d   1       3.346  -3.542   3.853  0.00  0.00     0.017 A 
ATOM     13  C   UNL d   1       3.194  -4.637   3.012  0.00  0.00     0.004 A 
ATOM     14  C   UNL d   1       2.568  -4.466   1.780  0.00  0.00     0.037 A 
ENDBRANCH   7   8
ENDBRANCH   2   7
BRANCH   1  15
ATOM     15  N   UNL d   1       2.888  -0.161  -0.236  0.00  0.00    -0.114 N 
ATOM     16  O   UNL d   1       3.344  -0.724  -1.242  0.00  0.00    -0.532 OA
ATOM     17  O   UNL d   1       3.558   0.457   0.604  0.00  0.00    -0.532 OA
ENDBRANCH   1  15
BRANCH   4  18
ATOM     18  C   UNL d   1      -1.141   2.621   0.154  0.00  0.00     0.155 C 
ATOM     19  O   UNL d   1      -0.389   3.593   0.099  0.00  0.00    -0.293 OA
ATOM     20  C   UNL d   1      -2.627   2.822   0.309  0.00  0.00     0.096 C 
ENDBRANCH   4  18
TORSDOF 4
