REMARK  6 active torsions:
REMARK  status: ('A' for Active; 'I' for Inactive)
REMARK    1  A    between atoms: C_22  and  N_2 
REMARK    2  A    between atoms: C_18  and  C_10 
REMARK    3  A    between atoms: C_23  and  C_13 
REMARK    4  A    between atoms: C_14  and  C_16 
REMARK    5  A    between atoms: C_15  and  C_17 
REMARK    6  A    between atoms: C_30  and  C_22 
ROOT
ATOM      1  C   UNL d   1      -0.542  -1.223   0.049  0.00  0.00     0.105 A 
ATOM      2  N   UNL d   1       0.753  -0.776   0.091  0.00  0.00    -0.284 N 
ATOM      3  C   UNL d   1      -0.992  -2.574   0.029  0.00  0.00     0.193 A 
ATOM      4  N   UNL d   1       0.836   0.580   0.136  0.00  0.00    -0.301 N 
ATOM      5  HN  UNL d   1       1.677   1.148   0.230  1.00  0.00     0.187 HD
ATOM      6  C   UNL d   1      -1.321  -0.088  -0.004  0.00  0.00     0.063 A 
ATOM      7  O   UNL d   1      -2.245  -2.906  -0.421  0.00  0.00    -0.271 OA
ATOM      8  N   UNL d   1      -0.332  -3.631   0.455  0.00  0.00    -0.276 N 
ATOM      9  HN  UNL d   1       0.614  -3.645   0.835  1.00  0.00     0.189 HD
ATOM     10  C   UNL d   1      -2.281  -4.261  -0.247  0.00  0.00     0.174 A 
ATOM     11  N   UNL d   1      -1.171  -4.725   0.287  0.00  0.00    -0.277 N 
ATOM     12  HN  UNL d   1      -0.967  -5.695   0.528  1.00  0.00     0.189 HD
ATOM     13  C   UNL d   1      -0.429   1.006   0.029  0.00  0.00     0.036 A 
ENDROOT
BRANCH   2  14
ATOM     14  C   UNL d   1       1.997  -1.540   0.056  0.00  0.00     0.187 C 
BRANCH  14  15
ATOM     15  C   UNL d   1       2.450  -1.824  -1.361  0.00  0.00    -0.038 A 
ATOM     16  C   UNL d   1       2.753  -0.770  -2.244  0.00  0.00     0.012 A 
ATOM     17  C   UNL d   1       3.174  -1.032  -3.548  0.00  0.00     0.043 A 
ATOM     18  C   UNL d   1       3.308  -2.348  -3.971  0.00  0.00     0.116 A 
ATOM     19  C   UNL d   1       3.034  -3.406  -3.112  0.00  0.00     0.043 A 
ATOM     20  F   UNL d   1       3.709  -2.602  -5.224  0.00  0.00    -0.206 F 
ATOM     21  C   UNL d   1       2.606  -3.145  -1.807  0.00  0.00     0.012 A 
ENDBRANCH  14  15
ENDBRANCH   2  14
BRANCH  10  22
ATOM     22  C   UNL d   1      -3.492  -4.940  -0.698  0.00  0.00     0.018 A 
ATOM     23  C   UNL d   1      -4.489  -4.245  -1.404  0.00  0.00     0.032 A 
ATOM     24  C   UNL d   1      -5.636  -4.894  -1.893  0.00  0.00     0.049 A 
ATOM     25  C   UNL d   1      -5.792  -6.265  -1.647  0.00  0.00     0.032 A 
ATOM     26  C   UNL d   1      -4.817  -6.987  -0.937  0.00  0.00     0.049 A 
ATOM     27  C   UNL d   1      -3.672  -6.312  -0.470  0.00  0.00     0.032 A 
BRANCH  24  28
ATOM     28  C   UNL d   1      -6.658  -4.111  -2.685  0.00  0.00     0.417 C 
ATOM     29  F   UNL d   1      -7.686  -4.872  -3.148  0.00  0.00    -0.166 F 
ATOM     30  F   UNL d   1      -7.224  -3.112  -1.956  0.00  0.00    -0.166 F 
ATOM     31  F   UNL d   1      -6.110  -3.514  -3.779  0.00  0.00    -0.166 F 
ENDBRANCH  24  28
BRANCH  26  32
ATOM     32  C   UNL d   1      -4.976  -8.470  -0.692  0.00  0.00     0.417 C 
ATOM     33  F   UNL d   1      -6.136  -8.979  -1.188  0.00  0.00    -0.166 F 
ATOM     34  F   UNL d   1      -3.976  -9.198  -1.260  0.00  0.00    -0.166 F 
ATOM     35  F   UNL d   1      -4.968  -8.782   0.632  0.00  0.00    -0.166 F 
ENDBRANCH  26  32
ENDBRANCH  10  22
BRANCH  13  36
ATOM     36  C   UNL d   1      -0.761   2.490   0.008  0.00  0.00    -0.007 C 
ATOM     37  C   UNL d   1      -0.888   3.007   1.454  0.00  0.00     0.021 C 
ATOM     38  C   UNL d   1       0.332   3.300  -0.719  0.00  0.00     0.021 C 
ATOM     39  C   UNL d   1      -2.095   2.753  -0.725  0.00  0.00     0.021 C 
ENDBRANCH  13  36
TORSDOF 6
