REMARK  5 active torsions:
REMARK  status: ('A' for Active; 'I' for Inactive)
REMARK    1  A    between atoms: N_4  and  C_1 
REMARK    2  A    between atoms: N_7  and  C_1 
REMARK    3  A    between atoms: N_2  and  N_7 
REMARK    4  A    between atoms: C_10  and  N_4 
REMARK    5  A    between atoms: C_5  and  C_9 
ROOT
ATOM      1  N   UNL d   1       2.534  -0.153  -0.061  0.00  0.00    -0.276 N 
ATOM      2  H   UNL d   1       2.972   0.573   0.499  0.00  0.00     0.189 HD
ENDROOT
BRANCH   1   3
ATOM      3  N   UNL d   1       3.257  -0.715  -1.071  0.00  0.00    -0.309 N 
ATOM      4  C   UNL d   1       4.539  -0.573  -1.047  0.00  0.00     0.120 C 
ATOM      5  HN  UNL d   1       2.799  -1.231  -1.822  1.00  0.00     0.186 HD
BRANCH   4   6
ATOM      6  C   UNL d   1       5.357  -1.129  -2.151  0.00  0.00     0.002 A 
ATOM      7  C   UNL d   1       6.754  -1.107  -2.132  0.00  0.00     0.045 A 
ATOM      8 CL   UNL d   1       7.663  -0.464  -0.812  0.00  0.00    -0.083 Cl
ATOM      9  C   UNL d   1       7.471  -1.632  -3.215  0.00  0.00     0.024 A 
ATOM     10  C   UNL d   1       6.802  -2.175  -4.313  0.00  0.00     0.002 A 
ATOM     11  C   UNL d   1       5.411  -2.202  -4.335  0.00  0.00     0.001 A 
ATOM     12  C   UNL d   1       4.691  -1.683  -3.260  0.00  0.00     0.014 A 
ENDBRANCH   4   6
ENDBRANCH   1   3
BRANCH   1  13
ATOM     13  C   UNL d   1       1.166  -0.122  -0.156  0.00  0.00     0.191 C 
ATOM     14  S   UNL d   1       0.307   1.103   0.588  0.00  0.00    -0.039 SA
BRANCH  13  15
ATOM     15  N   UNL d   1       0.521  -1.028  -0.951  0.00  0.00    -0.332 N 
ATOM     16  H   UNL d   1      -0.362  -0.712  -1.331  0.00  0.00     0.168 HD
BRANCH  15  17
ATOM     17  C   UNL d   1       0.816  -2.397  -1.122  0.00  0.00     0.034 A 
ATOM     18  C   UNL d   1       1.571  -3.122  -0.190  0.00  0.00     0.032 A 
ATOM     19  C   UNL d   1       1.761  -4.496  -0.349  0.00  0.00     0.044 A 
ATOM     20  C   UNL d   1       1.208  -5.139  -1.449  0.00  0.00     0.116 A 
ATOM     21  C   UNL d   1       0.467  -4.434  -2.390  0.00  0.00     0.044 A 
ATOM     22  F   UNL d   1       1.384  -6.458  -1.599  0.00  0.00    -0.206 F 
ATOM     23  C   UNL d   1       0.255  -3.063  -2.217  0.00  0.00     0.032 A 
ENDBRANCH  15  17
ENDBRANCH  13  15
ENDBRANCH   1  13
TORSDOF 5
