REMARK  8 active torsions:
REMARK  status: ('A' for Active; 'I' for Inactive)
REMARK    1  A    between atoms: C_11  and  C_1 
REMARK    2  A    between atoms: C_7  and  C_2 
REMARK    3  A    between atoms: S_10  and  C_5 
REMARK       I    between atoms: C_9  and  N_12 
REMARK       I    between atoms: N_17  and  C_9 
REMARK    4  A    between atoms: C_15  and  S_10 
REMARK    5  A    between atoms: O_24  and  C_11 
REMARK    6  A    between atoms: N_12  and  C_16 
REMARK    7  A    between atoms: C_23  and  N_17 
REMARK    8  A    between atoms: C_33  and  O_24 
ROOT
ATOM      1  C   UNL d   1      -2.147  -4.326  -2.022  0.00  0.00     0.072 C 
ATOM      2  C   UNL d   1      -2.567  -3.490  -1.005  0.00  0.00     0.134 C 
ATOM      3  N   UNL d   1      -1.714  -3.151   0.017  0.00  0.00    -0.345 N 
ATOM      4  HN  UNL d   1      -1.997  -2.441   0.692  1.00  0.00     0.166 HD
ATOM      5  C   UNL d   1      -0.491  -3.751   0.141  0.00  0.00     0.096 C 
ATOM      6  C   UNL d   1      -0.141  -4.782  -0.724  0.00  0.00     0.079 C 
ATOM      7  C   UNL d   1      -0.938  -5.019  -1.849  0.00  0.00     0.045 C 
ATOM      8  C   UNL d   1       0.955  -5.659  -0.485  0.00  0.00     0.102 C 
ATOM      9  N   UNL d   1       1.849  -6.387  -0.339  0.00  0.00    -0.191 NA
ENDROOT
BRANCH   5  10
ATOM     10  S   UNL d   1       0.351  -3.233   1.602  0.00  0.00    -0.069 SA
BRANCH  10  11
ATOM     11  C   UNL d   1       2.053  -2.712   1.331  0.00  0.00     0.034 A 
ATOM     12  C   UNL d   1       2.665  -1.978   2.386  0.00  0.00     0.053 A 
ATOM     13  C   UNL d   1       4.065  -1.851   2.442  0.00  0.00     0.031 A 
ATOM     14  C   UNL d   1       4.863  -2.366   1.420  0.00  0.00     0.002 A 
ATOM     15  C   UNL d   1       4.263  -2.982   0.327  0.00  0.00     0.002 A 
ATOM     16  C   UNL d   1       2.871  -3.146   0.280  0.00  0.00     0.021 A 
BRANCH  12  17
ATOM     17  N   UNL d   1       1.823  -1.269   3.305  0.00  0.00    -0.312 N 
ATOM     18  C   UNL d   1       2.297  -0.588   4.406  0.00  0.00     0.303 C 
ATOM     19  N   UNL d   1       2.708  -1.464   5.392  0.00  0.00    -0.210 NA
ATOM     20  O   UNL d   1       2.248   0.630   4.489  0.00  0.00    -0.253 OA
ATOM     21  H   UNL d   1       1.882  -1.974   5.691  0.00  0.00     0.138 HD
ATOM     22  H   UNL d   1       1.086  -0.776   2.812  0.00  0.00     0.170 HD
BRANCH  19  23
ATOM     23  C   UNL d   1       3.511  -1.098   6.481  0.00  0.00     0.016 A 
ATOM     24  C   UNL d   1       3.289   0.028   7.271  0.00  0.00     0.025 A 
ATOM     25  C   UNL d   1       4.168   0.313   8.321  0.00  0.00     0.025 A 
ATOM     26  C   UNL d   1       5.255  -0.527   8.570  0.00  0.00     0.034 A 
ATOM     27  C   UNL d   1       5.459  -1.668   7.798  0.00  0.00     0.025 A 
ATOM     28 CL   UNL d   1       6.359  -0.152   9.835  0.00  0.00    -0.084 Cl
ATOM     29  C   UNL d   1       4.576  -1.959   6.761  0.00  0.00     0.025 A 
ENDBRANCH  19  23
ENDBRANCH  12  17
ENDBRANCH  10  11
ENDBRANCH   5  10
BRANCH   1  30
ATOM     30  C   UNL d   1      -2.832  -4.460  -3.320  0.00  0.00     0.295 C 
ATOM     31  O   UNL d   1      -2.895  -5.498  -3.950  0.00  0.00    -0.259 OA
BRANCH  30  32
ATOM     32  O   UNL d   1      -3.068  -3.201  -3.759  0.00  0.00    -0.318 OA
BRANCH  32  33
ATOM     33  C   UNL d   1      -3.153  -3.035  -5.183  0.00  0.00     0.174 C 
ATOM     34  C   UNL d   1      -4.590  -3.017  -5.660  0.00  0.00     0.034 C 
ENDBRANCH  32  33
ENDBRANCH  30  32
ENDBRANCH   1  30
BRANCH   2  35
ATOM     35  C   UNL d   1      -4.031  -3.075  -0.884  0.00  0.00     0.433 C 
ATOM     36  F   UNL d   1      -4.855  -3.611  -1.829  0.00  0.00    -0.165 F 
ATOM     37  F   UNL d   1      -4.571  -3.485   0.304  0.00  0.00    -0.165 F 
ATOM     38  F   UNL d   1      -4.222  -1.730  -0.936  0.00  0.00    -0.165 F 
ENDBRANCH   2  35
TORSDOF 8
