REMARK  4 active torsions:
REMARK  status: ('A' for Active; 'I' for Inactive)
REMARK    1  A    between atoms: N_4  and  C_1 
REMARK       I    between atoms: C_2  and  N_3 
REMARK    2  A    between atoms: C_5  and  C_2 
REMARK    3  A    between atoms: N_3  and  N_4 
REMARK    4  A    between atoms: N_8  and  C_7 
ROOT
ATOM      1  C   UNL d   1       0.180  -2.081  -2.885  0.00  0.00     0.270 C 
ATOM      2  N   UNL d   1       0.897  -0.891  -2.943  0.00  0.00    -0.264 N 
ATOM      3  O   UNL d   1       0.716  -3.167  -2.686  0.00  0.00    -0.266 OA
ATOM      4  H   UNL d   1       0.562  -0.137  -3.530  0.00  0.00     0.190 HD
ENDROOT
BRANCH   1   5
ATOM      5  C   UNL d   1      -1.294  -1.985  -3.088  0.00  0.00     0.033 A 
ATOM      6  C   UNL d   1      -1.999  -0.797  -2.881  0.00  0.00     0.019 A 
ATOM      7  C   UNL d   1      -3.396  -0.774  -3.009  0.00  0.00     0.030 A 
ATOM      8  C   UNL d   1      -4.138  -1.917  -3.348  0.00  0.00     0.029 A 
ATOM      9  C   UNL d   1      -3.401  -3.088  -3.566  0.00  0.00     0.030 A 
ATOM     10  C   UNL d   1      -2.003  -3.135  -3.428  0.00  0.00     0.019 A 
BRANCH   8  11
ATOM     11  N   UNL d   1      -5.521  -1.895  -3.507  0.00  0.00    -0.390 N 
ATOM     12  C   UNL d   1      -6.326  -3.051  -3.105  0.00  0.00     0.149 C 
ATOM     13  C   UNL d   1      -6.267  -0.641  -3.577  0.00  0.00     0.149 C 
ENDBRANCH   8  11
ENDBRANCH   1   5
BRANCH   2  14
ATOM     14  N   UNL d   1       2.276  -0.988  -2.777  0.00  0.00    -0.274 N 
ATOM     15  H   UNL d   1       2.644  -1.942  -2.778  0.00  0.00     0.189 HD
BRANCH  14  16
ATOM     16  C   UNL d   1       3.129   0.009  -2.467  0.00  0.00     0.186 C 
ATOM     17  S   UNL d   1       4.754  -0.354  -2.297  0.00  0.00    -0.040 SA
ATOM     18  N   UNL d   1       2.763   1.294  -2.300  0.00  0.00    -0.370 N 
ATOM     19  C   UNL d   1       1.481   1.955  -2.227  0.00  0.00     0.148 C 
ATOM     20  H   UNL d   1       3.562   1.892  -2.124  0.00  0.00     0.161 HD
ENDBRANCH  14  16
ENDBRANCH   2  14
TORSDOF 4
