REMARK  1 active torsions:
REMARK  status: ('A' for Active; 'I' for Inactive)
REMARK    1  A    between atoms: O_9  and  C_3 
ROOT
ATOM      1  N   UNL d   1       1.250  -1.351   0.007  0.00  0.00    -0.335 N 
ATOM      2  HN  UNL d   1       1.273  -2.370   0.009  1.00  0.00     0.168 HD
ATOM      3  C   UNL d   1       2.378  -0.625   0.006  0.00  0.00     0.163 A 
ATOM      4  C   UNL d   1       2.444   0.759   0.018  0.00  0.00     0.091 A 
ATOM      5  C   UNL d   1       1.234   1.475   0.032  0.00  0.00    -0.024 A 
ATOM      6  C   UNL d   1       0.010   0.740   0.009  0.00  0.00    -0.002 A 
ATOM      7  C   UNL d   1       0.090  -0.678   0.004  0.00  0.00     0.044 A 
ATOM      8 CL   UNL d   1       3.980   1.554   0.002  0.00  0.00    -0.079 Cl
ATOM      9  C   UNL d   1       1.281   2.983   0.052  0.00  0.00     0.051 C 
ATOM     10  C   UNL d   1      -1.282   1.325  -0.017  0.00  0.00     0.014 A 
ATOM     11  C   UNL d   1      -1.076  -1.429  -0.009  0.00  0.00     0.030 A 
ATOM     12  C   UNL d   1      -2.441   0.545  -0.039  0.00  0.00     0.001 A 
ATOM     13  C   UNL d   1      -2.338  -0.836  -0.031  0.00  0.00     0.002 A 
ENDROOT
BRANCH   3  14
ATOM     14  O   UNL d   1       3.491  -1.404  -0.014  0.00  0.00    -0.345 OA
ATOM     15  H   UNL d   1       3.082  -2.287  -0.029  0.00  0.00     0.219 HD
ENDBRANCH   3  14
TORSDOF 1
