REMARK  6 active torsions:
REMARK  status: ('A' for Active; 'I' for Inactive)
REMARK    1  A    between atoms: N_2  and  S_1 
REMARK    2  A    between atoms: C_6  and  S_1 
REMARK    3  A    between atoms: C_11  and  N_5 
REMARK    4  A    between atoms: C_14  and  C_11 
REMARK    5  A    between atoms: O_12  and  C_14 
REMARK    6  A    between atoms: C_13  and  O_12 
ROOT
ATOM      1  N   UNL d   1       0.634  -0.595  -1.174  0.00  0.00    -0.203 NA
ATOM      2  N   UNL d   1       2.881  -1.497  -2.907  0.00  0.00     0.092 N 
ATOM      3  C   UNL d   1       0.944  -2.048  -1.313  0.00  0.00     0.138 C 
ATOM      4  C   UNL d   1       0.982   0.133  -2.423  0.00  0.00     0.138 C 
ATOM      5  C   UNL d   1       2.463  -0.081  -2.783  0.00  0.00     0.288 C 
ATOM      6  C   UNL d   1       2.419  -2.269  -1.730  0.00  0.00     0.288 C 
ENDROOT
BRANCH   1   7
ATOM      7  S   UNL d   1       1.095   0.149   0.291  0.00  0.00     0.243 S 
ATOM      8  O   UNL d   1       1.281   1.565   0.054  0.00  0.00    -0.206 OA
ATOM      9  O   UNL d   1       2.118  -0.650   0.933  0.00  0.00    -0.206 OA
BRANCH   7  10
ATOM     10  C   UNL d   1      -0.396  -0.020   1.252  0.00  0.00     0.074 A 
ATOM     11  C   UNL d   1      -0.572  -1.130   2.082  0.00  0.00     0.025 A 
ATOM     12  C   UNL d   1      -1.742  -1.244   2.834  0.00  0.00     0.002 A 
ATOM     13  C   UNL d   1      -2.717  -0.245   2.769  0.00  0.00     0.000 A 
ATOM     14  C   UNL d   1      -2.519   0.879   1.966  0.00  0.00     0.002 A 
ATOM     15  C   UNL d   1      -1.354   0.998   1.209  0.00  0.00     0.025 A 
ENDBRANCH   7  10
ENDBRANCH   1   7
BRANCH   2  16
ATOM     16  C   UNL d   1       2.505  -2.136  -4.180  0.00  0.00     0.299 C 
BRANCH  16  17
ATOM     17  C   UNL d   1       3.244  -1.519  -5.381  0.00  0.00     0.206 C 
BRANCH  17  18
ATOM     18  O   UNL d   1       2.939  -2.236  -6.580  0.00  0.00    -0.349 OA
BRANCH  18  19
ATOM     19  C   UNL d   1       3.487  -1.717  -7.727  0.00  0.00     0.068 A 
ATOM     20  C   UNL d   1       4.312  -0.588  -7.803  0.00  0.00     0.037 A 
ATOM     21  C   UNL d   1       4.803  -0.150  -9.034  0.00  0.00     0.003 A 
ATOM     22  C   UNL d   1       4.478  -0.840 -10.201  0.00  0.00     0.000 A 
ATOM     23  C   UNL d   1       3.662  -1.965 -10.134  0.00  0.00     0.003 A 
ATOM     24  C   UNL d   1       3.168  -2.401  -8.903  0.00  0.00     0.037 A 
ENDBRANCH  18  19
ENDBRANCH  17  18
ENDBRANCH  16  17
ENDBRANCH   2  16
TORSDOF 6
