REMARK  6 active torsions:
REMARK  status: ('A' for Active; 'I' for Inactive)
REMARK    1  A    between atoms: C_8  and  C_3 
REMARK    2  A    between atoms: C_18  and  C_6 
REMARK    3  A    between atoms: C_9  and  C_20 
REMARK    4  A    between atoms: O_14  and  C_9 
REMARK    5  A    between atoms: C_19  and  C_18 
REMARK    6  A    between atoms: C_20  and  C_19 
ROOT
ATOM      1  N   UNL d   1       1.277   0.193  -0.103  0.00  0.00    -0.323 N 
ATOM      2  HN  UNL d   1       2.276   0.348  -0.244  1.00  0.00     0.169 HD
ATOM      3  C   UNL d   1       0.266   1.125   0.006  0.00  0.00     0.137 A 
ATOM      4  N   UNL d   1      -0.954   0.586   0.167  0.00  0.00    -0.242 N 
ATOM      5  HN  UNL d   1      -1.848   1.068   0.259  1.00  0.00     0.196 HD
ATOM      6  C   UNL d   1       0.631  -0.942   0.020  0.00  0.00     0.148 A 
ATOM      7  O   UNL d   1      -0.712  -0.787   0.177  0.00  0.00    -0.223 OA
ENDROOT
BRANCH   3   8
ATOM      8  C   UNL d   1       0.531   2.559  -0.056  0.00  0.00     0.010 A 
ATOM      9  C   UNL d   1       1.846   3.024  -0.222  0.00  0.00     0.017 A 
ATOM     10  C   UNL d   1       2.117   4.394  -0.279  0.00  0.00     0.025 A 
ATOM     11  C   UNL d   1       1.074   5.310  -0.168  0.00  0.00     0.034 A 
ATOM     12  C   UNL d   1      -0.236   4.868  -0.001  0.00  0.00     0.025 A 
ATOM     13 CL   UNL d   1       1.407   6.996  -0.236  0.00  0.00    -0.084 Cl
ATOM     14  C   UNL d   1      -0.508   3.497   0.054  0.00  0.00     0.017 A 
ENDBRANCH   3   8
BRANCH   6  15
ATOM     15  C   UNL d   1       1.160  -2.324  -0.022  0.00  0.00     0.087 C 
BRANCH  15  16
ATOM     16  C   UNL d   1       1.169  -2.903  -1.436  0.00  0.00     0.018 C 
BRANCH  16  17
ATOM     17  C   UNL d   1       2.055  -2.121  -2.411  0.00  0.00     0.110 C 
BRANCH  17  18
ATOM     18  C   UNL d   1       2.064  -2.754  -3.783  0.00  0.00     0.139 C 
ATOM     19  O   UNL d   1       1.469  -3.774  -4.092  0.00  0.00    -0.650 OA
BRANCH  18  20
ATOM     20  O   UNL d   1       2.820  -2.060  -4.665  0.00  0.00    -0.776 OA
ATOM     21  H   UNL d   1       3.230  -1.258  -4.289  0.00  0.00     0.167 HD
ENDBRANCH  18  20
ENDBRANCH  17  18
ENDBRANCH  16  17
ENDBRANCH  15  16
ENDBRANCH   6  15
TORSDOF 6
