REMARK  5 active torsions:
REMARK  status: ('A' for Active; 'I' for Inactive)
REMARK    1  A    between atoms: C_11  and  C_3 
REMARK    2  A    between atoms: C_12  and  C_8 
REMARK    3  A    between atoms: O_16  and  N_13 
REMARK    4  A    between atoms: C_15  and  O_16 
REMARK    5  A    between atoms: C_18  and  C_15 
ROOT
ATOM      1  C   UNL d   1       6.701   0.975   0.251  0.00  0.00     0.172 A 
ATOM      2  N   UNL d   1       7.071  -0.144  -0.435  0.00  0.00    -0.235 N 
ATOM      3  C   UNL d   1       8.712   1.165  -0.290  0.00  0.00     0.207 A 
ATOM      4  N   UNL d   1       7.676   1.830   0.372  0.00  0.00    -0.316 N 
ATOM      5  HN  UNL d   1       7.683   2.741   0.830  1.00  0.00     0.169 HD
ATOM      6  N   UNL d   1       8.361  -0.044  -0.798  0.00  0.00    -0.273 N 
ATOM      7  HN  UNL d   1       8.932  -0.707  -1.322  1.00  0.00     0.189 HD
ATOM      8  C   UNL d   1       4.922  -0.682  -0.024  0.00  0.00     0.057 A 
ATOM      9  C   UNL d   1       6.075  -1.091  -0.599  0.00  0.00     0.052 A 
ATOM     10  S   UNL d   1       5.040   0.907   0.743  0.00  0.00    -0.048 SA
ATOM     11  C   UNL d   1       6.356  -2.360  -1.328  0.00  0.00     0.072 C 
ENDROOT
BRANCH   8  12
ATOM     12  C   UNL d   1       3.655  -1.472   0.007  0.00  0.00     0.048 C 
ATOM     13  N   UNL d   1       3.753  -2.771   0.020  0.00  0.00    -0.261 N 
ATOM     14  HN  UNL d   1       4.647  -3.262   0.028  1.00  0.00     0.194 HD
ATOM     15  C   UNL d   1       2.320  -0.760   0.001  0.00  0.00     0.072 C 
BRANCH  13  16
ATOM     16  O   UNL d   1       2.513  -3.433   0.023  0.00  0.00    -0.195 OA
BRANCH  16  17
ATOM     17  C   UNL d   1       2.731  -4.786  -0.037  0.00  0.00     0.315 C 
ATOM     18  O   UNL d   1       3.811  -5.356  -0.124  0.00  0.00    -0.257 OA
BRANCH  17  19
ATOM     19  C   UNL d   1       1.443  -5.532   0.028  0.00  0.00     0.041 A 
ATOM     20  C   UNL d   1       1.497  -6.935   0.030  0.00  0.00     0.017 A 
ATOM     21  C   UNL d   1       0.325  -7.689   0.113  0.00  0.00     0.001 A 
ATOM     22  C   UNL d   1      -0.909  -7.047   0.191  0.00  0.00     0.000 A 
ATOM     23  C   UNL d   1      -0.974  -5.654   0.179  0.00  0.00     0.001 A 
ATOM     24  C   UNL d   1       0.198  -4.894   0.097  0.00  0.00     0.017 A 
ENDBRANCH  17  19
ENDBRANCH  16  17
ENDBRANCH  13  16
ENDBRANCH   8  12
BRANCH   3  25
ATOM     25  C   UNL d   1      10.107   1.739  -0.436  0.00  0.00     0.450 C 
ATOM     26  F   UNL d   1      10.237   2.969   0.132  0.00  0.00    -0.163 F 
ATOM     27  F   UNL d   1      11.051   0.947   0.143  0.00  0.00    -0.163 F 
ATOM     28  F   UNL d   1      10.468   1.881  -1.742  0.00  0.00    -0.163 F 
ENDBRANCH   3  25
TORSDOF 5
