REMARK  0 active torsions:
REMARK  status: ('A' for Active; 'I' for Inactive)
REMARK       I    between atoms: C_3  and  N_1 
ROOT
ATOM      1  N   UNL d   1       3.503  -0.807  -0.005  0.00  0.00    -0.318 N 
ATOM      2  C   UNL d   1       2.094  -0.746   0.033  0.00  0.00     0.043 A 
ATOM      3  C   UNL d   1       4.426  -1.833  -0.048  0.00  0.00     0.220 C 
ATOM      4  C   UNL d   1       1.693   0.597   0.002  0.00  0.00    -0.028 A 
ATOM      5  C   UNL d   1       4.031   0.568   0.001  0.00  0.00     0.137 A 
ATOM      6  C   UNL d   1       1.132  -1.738   0.111  0.00  0.00     0.031 A 
ATOM      7  C   UNL d   1       2.851   1.534  -0.035  0.00  0.00     0.061 A 
ATOM      8  C   UNL d   1       0.347   0.973  -0.009  0.00  0.00     0.028 A 
ATOM      9  O   UNL d   1       5.641  -1.585  -0.015  0.00  0.00    -0.273 OA
ATOM     10  C   UNL d   1      -0.610  -0.033   0.033  0.00  0.00     0.011 A 
ATOM     11  C   UNL d   1      -0.230  -1.375   0.093  0.00  0.00     0.021 A 
ATOM     12 BR   UNL d   1      -2.444   0.424   0.014  0.00  0.00    -0.051 Br
ATOM     13  C   UNL d   1       4.022  -3.276  -0.150  0.00  0.00     0.117 C 
ENDROOT
TORSDOF 0
