REMARK  2 active torsions:
REMARK  status: ('A' for Active; 'I' for Inactive)
REMARK    1  A    between atoms: C_2  and  C_1 
REMARK    2  A    between atoms: N_8  and  C_2 
ROOT
ATOM      1  C   UNL d   1      -1.841   0.069  -0.004  0.00  0.00     0.017 A 
ATOM      2  N   UNL d   1       0.339   1.142  -0.018  0.00  0.00    -0.369 N 
ATOM      3  HN  UNL d   1       0.898   1.995  -0.029  1.00  0.00     0.165 HD
ATOM      4  C   UNL d   1      -1.018   1.190  -0.009  0.00  0.00     0.102 A 
ATOM      5  C   UNL d   1      -1.214  -1.180   0.002  0.00  0.00     0.018 A 
ATOM      6  C   UNL d   1       0.922  -0.079  -0.012  0.00  0.00     0.005 A 
ATOM      7  C   UNL d   1       0.180  -1.256  -0.003  0.00  0.00     0.025 A 
ATOM      8  C   UNL d   1       2.420  -0.107  -0.006  0.00  0.00     0.068 C 
ENDROOT
BRANCH   1   9
ATOM      9  C   UNL d   1      -3.322   0.187   0.005  0.00  0.00     0.105 C 
ATOM     10  S   UNL d   1      -4.194   1.440   0.688  0.00  0.00    -0.060 SA
BRANCH   9  11
ATOM     11  N   UNL d   1      -4.030  -0.821  -0.602  0.00  0.00    -0.389 N 
ATOM     12  H   UNL d   1      -3.606  -1.567  -1.140  0.00  0.00     0.157 HD
ATOM     13  H   UNL d   1      -5.040  -0.741  -0.642  0.00  0.00     0.157 HD
ENDBRANCH   9  11
ENDBRANCH   1   9
TORSDOF 2
