REMARK  3 active torsions:
REMARK  status: ('A' for Active; 'I' for Inactive)
REMARK    1  A    between atoms: S_8  and  C_1 
REMARK    2  A    between atoms: C_14  and  N_2 
REMARK    3  A    between atoms: C_5  and  S_8 
ROOT
ATOM      1  C   UNL d   1      -0.189  -1.315  -0.139  0.00  0.00     0.182 A 
ATOM      2  N   UNL d   1       1.054  -0.695  -0.068  0.00  0.00    -0.219 N 
ATOM      3  N   UNL d   1      -1.132  -0.407   0.012  0.00  0.00    -0.264 N 
ATOM      4  HN  UNL d   1      -2.139  -0.569   0.024  1.00  0.00     0.186 HD
ATOM      5  N   UNL d   1      -0.500   0.789   0.149  0.00  0.00    -0.006 NA
ATOM      6  N   UNL d   1       0.812   0.637   0.121  0.00  0.00     0.001 NA
ENDROOT
BRANCH   1   7
ATOM      7  S   UNL d   1      -0.544  -3.002  -0.102  0.00  0.00    -0.048 SA
BRANCH   7   8
ATOM      8  C   UNL d   1      -0.471  -3.450  -1.793  0.00  0.00     0.055 A 
ATOM      9  C   UNL d   1      -0.751  -2.765  -2.958  0.00  0.00     0.041 A 
ATOM     10  N   UNL d   1      -0.551  -3.671  -3.967  0.00  0.00    -0.304 N 
ATOM     11  C   UNL d   1      -1.206  -1.396  -3.305  0.00  0.00     0.071 C 
ATOM     12  N   UNL d   1      -0.132  -4.872  -3.553  0.00  0.00    -0.304 N 
ATOM     13  H   UNL d   1      -0.686  -3.533  -4.964  0.00  0.00     0.186 HD
ATOM     14  C   UNL d   1      -0.103  -4.761  -2.221  0.00  0.00     0.041 A 
ATOM     15  HN  UNL d   1       0.109  -5.684  -4.122  1.00  0.00     0.186 HD
ATOM     16  C   UNL d   1       0.304  -5.932  -1.400  0.00  0.00     0.071 C 
ENDBRANCH   7   8
ENDBRANCH   1   7
BRANCH   2  17
ATOM     17  C   UNL d   1       2.406  -1.150  -0.138  0.00  0.00     0.056 A 
ATOM     18  C   UNL d   1       2.757  -2.446  -0.523  0.00  0.00     0.031 A 
ATOM     19  C   UNL d   1       4.100  -2.839  -0.569  0.00  0.00     0.002 A 
ATOM     20  C   UNL d   1       5.109  -1.939  -0.233  0.00  0.00     0.000 A 
ATOM     21  C   UNL d   1       4.779  -0.641   0.140  0.00  0.00     0.002 A 
ATOM     22  C   UNL d   1       3.439  -0.246   0.182  0.00  0.00     0.031 A 
ENDBRANCH   2  17
TORSDOF 3
