REMARK  6 active torsions:
REMARK  status: ('A' for Active; 'I' for Inactive)
REMARK    1  A    between atoms: C_3  and  N_1 
REMARK       I    between atoms: C_4  and  N_1 
REMARK    2  A    between atoms: C_2  and  C_5 
REMARK    3  A    between atoms: C_9  and  C_3 
REMARK    4  A    between atoms: C_10  and  C_4 
REMARK    5  A    between atoms: C_6  and  O_14 
REMARK    6  A    between atoms: O_14  and  C_26 
ROOT
ATOM      1  N   UNL d   1       1.202  -0.034  -0.110  0.00  0.00    -0.307 N 
ATOM      2  C   UNL d   1       2.562   0.224  -0.141  0.00  0.00     0.257 C 
ATOM      3  O   UNL d   1       3.276  -0.059  -1.104  0.00  0.00    -0.267 OA
ATOM      4  H   UNL d   1       0.638   0.282   0.671  0.00  0.00     0.170 HD
ENDROOT
BRANCH   1   5
ATOM      5  C   UNL d   1       0.488  -0.641  -1.130  0.00  0.00     0.129 C 
ATOM      6  N   UNL d   1       1.051  -1.070  -2.212  0.00  0.00    -0.384 N 
ATOM      7  H   UNL d   1       2.067  -0.867  -2.152  0.00  0.00     0.157 HD
ATOM      8  HN  UNL d   1       0.578  -1.528  -2.991  1.00  0.00     0.157 HD
BRANCH   5   9
ATOM      9  C   UNL d   1      -0.984  -0.771  -0.918  0.00  0.00     0.076 A 
ATOM     10  N   UNL d   1      -1.475  -0.294   0.259  0.00  0.00    -0.362 N 
ATOM     11  C   UNL d   1      -2.820  -0.396   0.423  0.00  0.00     0.104 A 
ATOM     12  HN  UNL d   1      -0.871   0.113   0.972  1.00  0.00     0.165 HD
ATOM     13  C   UNL d   1      -3.691  -0.939  -0.518  0.00  0.00     0.063 A 
ATOM     14  C   UNL d   1      -3.141  -1.421  -1.710  0.00  0.00     0.020 A 
ATOM     15  C   UNL d   1      -1.768  -1.337  -1.916  0.00  0.00     0.034 A 
BRANCH  13  16
ATOM     16  C   UNL d   1      -5.169  -0.995  -0.272  0.00  0.00     0.418 C 
ATOM     17  F   UNL d   1      -5.537  -0.504   0.943  0.00  0.00    -0.166 F 
ATOM     18  F   UNL d   1      -5.875  -0.283  -1.192  0.00  0.00    -0.166 F 
ATOM     19  F   UNL d   1      -5.658  -2.264  -0.326  0.00  0.00    -0.166 F 
ENDBRANCH  13  16
ENDBRANCH   5   9
ENDBRANCH   1   5
BRANCH   2  20
ATOM     20  C   UNL d   1       3.185   0.898   1.029  0.00  0.00     0.032 A 
ATOM     21  C   UNL d   1       2.700   0.784   2.336  0.00  0.00     0.020 A 
ATOM     22  C   UNL d   1       3.386   1.400   3.398  0.00  0.00     0.038 A 
ATOM     23  C   UNL d   1       4.539   2.149   3.157  0.00  0.00     0.078 A 
ATOM     24  C   UNL d   1       5.035   2.236   1.856  0.00  0.00     0.038 A 
ATOM     25  C   UNL d   1       4.365   1.619   0.800  0.00  0.00     0.020 A 
BRANCH  23  26
ATOM     26  O   UNL d   1       5.312   2.767   4.089  0.00  0.00    -0.255 OA
BRANCH  26  27
ATOM     27  C   UNL d   1       4.704   3.333   5.240  0.00  0.00     0.530 C 
ATOM     28  F   UNL d   1       3.358   3.350   5.202  0.00  0.00    -0.144 F 
ATOM     29  F   UNL d   1       5.103   2.653   6.337  0.00  0.00    -0.144 F 
ATOM     30  F   UNL d   1       5.131   4.611   5.362  0.00  0.00    -0.144 F 
ENDBRANCH  26  27
ENDBRANCH  23  26
ENDBRANCH   2  20
TORSDOF 6
