REMARK  8 active torsions:
REMARK  status: ('A' for Active; 'I' for Inactive)
REMARK    1  A    between atoms: C_2  and  C_1 
REMARK       I    between atoms: N_4  and  C_1 
REMARK    2  A    between atoms: O_16  and  C_3 
REMARK    3  A    between atoms: C_11  and  N_4 
REMARK    4  A    between atoms: C_20  and  N_4 
REMARK    5  A    between atoms: O_19  and  C_5 
REMARK    6  A    between atoms: O_18  and  C_6 
REMARK    7  A    between atoms: C_15  and  C_11 
REMARK    8  A    between atoms: C_17  and  C_20 
ROOT
ATOM      1  N   UNL d   1      -4.254   1.327  -2.342  0.00  0.00    -0.197 NA
ATOM      2  C   UNL d   1      -3.099   1.337  -2.409  0.00  0.00     0.060 C 
ATOM      3  C   UNL d   1      -1.630   1.307  -2.455  0.00  0.00     0.143 C 
ENDROOT
BRANCH   3   4
ATOM      4  C   UNL d   1      -1.112   0.381  -1.353  0.00  0.00     0.140 C 
BRANCH   4   5
ATOM      5  N   UNL d   1       0.346   0.285  -1.138  0.00  0.00    -0.343 N 
ATOM      6  C   UNL d   1       0.950  -0.101   0.079  0.00  0.00     0.254 C 
ATOM      7  O   UNL d   1       2.171  -0.162   0.213  0.00  0.00    -0.267 OA
BRANCH   6   8
ATOM      8  C   UNL d   1       0.133  -0.404   1.290  0.00  0.00     0.037 C 
ATOM      9  C   UNL d   1      -1.041  -1.153   1.231  0.00  0.00     0.057 C 
ATOM     10  C   UNL d   1      -1.857  -1.320   2.355  0.00  0.00     0.105 C 
ATOM     11  C   UNL d   1      -1.405  -0.850   3.602  0.00  0.00     0.135 C 
ATOM     12  C   UNL d   1      -0.154  -0.194   3.690  0.00  0.00     0.105 C 
ATOM     13  C   UNL d   1       0.598   0.038   2.533  0.00  0.00     0.057 C 
BRANCH  10  14
ATOM     14  O   UNL d   1      -3.062  -1.970   2.281  0.00  0.00    -0.353 OA
ATOM     15  C   UNL d   1      -3.656  -2.107   0.992  0.00  0.00     0.210 C 
ENDBRANCH  10  14
BRANCH  11  16
ATOM     16  O   UNL d   1      -2.050  -1.037   4.804  0.00  0.00    -0.351 OA
ATOM     17  C   UNL d   1      -3.469  -0.968   4.802  0.00  0.00     0.210 C 
ENDBRANCH  11  16
BRANCH  12  18
ATOM     18  O   UNL d   1       0.250   0.177   4.951  0.00  0.00    -0.353 OA
ATOM     19  C   UNL d   1       1.329   1.097   5.049  0.00  0.00     0.210 C 
ENDBRANCH  12  18
ENDBRANCH   6   8
BRANCH   5  20
ATOM     20  C   UNL d   1       1.260   0.507  -2.267  0.00  0.00     0.166 C 
BRANCH  20  21
ATOM     21  C   UNL d   1       1.518  -0.668  -3.175  0.00  0.00    -0.025 A 
ATOM     22  C   UNL d   1       2.263  -0.448  -4.335  0.00  0.00     0.096 A 
ATOM     23  N   UNL d   1       2.596  -1.402  -5.233  0.00  0.00    -0.375 N 
ATOM     24  C   UNL d   1       2.191  -2.657  -4.957  0.00  0.00     0.087 A 
ATOM     25  HN  UNL d   1       3.127  -1.183  -6.077  1.00  0.00     0.164 HD
ATOM     26  C   UNL d   1       1.464  -2.994  -3.828  0.00  0.00     0.018 A 
ATOM     27  C   UNL d   1       1.126  -1.985  -2.924  0.00  0.00     0.011 A 
ENDBRANCH  20  21
ENDBRANCH   5  20
ENDBRANCH   4   5
ENDBRANCH   3   4
TORSDOF 8
