REMARK  2 active torsions:
REMARK  status: ('A' for Active; 'I' for Inactive)
REMARK    1  A    between atoms: C_4  and  C_2 
REMARK    2  A    between atoms: C_8  and  C_7 
ROOT
ATOM      1  N   UNL d   1       0.011   0.460   0.134  0.00  0.00    -0.364 N 
ATOM      2  C   UNL d   1      -1.440  -1.229   0.033  0.00  0.00    -0.008 A 
ATOM      3  C   UNL d   1      -0.105  -0.902   0.158  0.00  0.00     0.100 A 
ATOM      4  C   UNL d   1      -2.164   0.006  -0.068  0.00  0.00     0.002 A 
ATOM      5  C   UNL d   1      -1.226   1.040  -0.006  0.00  0.00     0.043 A 
ATOM      6  C   UNL d   1      -3.525   0.358  -0.210  0.00  0.00     0.014 A 
ATOM      7  C   UNL d   1      -1.571   2.395  -0.085  0.00  0.00     0.030 A 
ATOM      8  C   UNL d   1      -3.888   1.710  -0.288  0.00  0.00     0.001 A 
ATOM      9  C   UNL d   1      -2.923   2.711  -0.228  0.00  0.00     0.002 A 
ATOM     10  H   UNL d   1       0.879   0.973   0.203  0.00  0.00     0.165 HD
ENDROOT
BRANCH   2  11
ATOM     11  C   UNL d   1      -1.968  -2.562  -0.007  0.00  0.00     0.014 C 
ATOM     12  C   UNL d   1      -1.231  -3.681   0.111  0.00  0.00     0.012 C 
BRANCH  12  13
ATOM     13  C   UNL d   1      -1.700  -5.074   0.038  0.00  0.00    -0.036 A 
ATOM     14  C   UNL d   1      -2.808  -5.473  -0.719  0.00  0.00     0.011 A 
ATOM     15  C   UNL d   1      -3.143  -6.827  -0.830  0.00  0.00     0.001 A 
ATOM     16  C   UNL d   1      -2.371  -7.797  -0.192  0.00  0.00     0.000 A 
ATOM     17  C   UNL d   1      -1.266  -7.415   0.563  0.00  0.00     0.001 A 
ATOM     18  C   UNL d   1      -0.933  -6.063   0.675  0.00  0.00     0.011 A 
ENDBRANCH  12  13
ENDBRANCH   2  11
TORSDOF 2
