REMARK  1 active torsions:
REMARK  status: ('A' for Active; 'I' for Inactive)
REMARK       I    between atoms: C_6  and  N_7 
REMARK    1  A    between atoms: C_11  and  C_6 
ROOT
ATOM      1  C   UNL d   1      -3.134   0.161   0.185  0.00  0.00     0.148 A 
ATOM      2  N   UNL d   1      -2.411   0.805  -0.706  0.00  0.00    -0.336 N 
ATOM      3  HN  UNL d   1      -2.801   1.385  -1.450  1.00  0.00     0.168 HD
ATOM      4  S   UNL d   1      -2.184  -0.753   1.308  0.00  0.00    -0.052 SA
ATOM      5  N   UNL d   1      -4.495   0.201   0.199  0.00  0.00    -0.358 N 
ATOM      6  C   UNL d   1      -8.501  -0.598  -0.432  0.00  0.00     0.227 C 
ATOM      7  N   UNL d   1      -7.122  -0.670  -0.515  0.00  0.00    -0.348 N 
ATOM      8  C   UNL d   1      -0.735  -0.244   0.547  0.00  0.00     0.036 A 
ATOM      9  C   UNL d   1      -1.059   0.601  -0.511  0.00  0.00     0.051 A 
ATOM     10  C   UNL d   1       0.595  -0.567   0.865  0.00  0.00     0.045 A 
ATOM     11  C   UNL d   1      -5.343  -0.411   1.228  0.00  0.00     0.145 C 
ATOM     12  C   UNL d   1      -5.220   0.881  -0.881  0.00  0.00     0.145 C 
ATOM     13  C   UNL d   1      -6.386  -1.342   0.575  0.00  0.00     0.145 C 
ATOM     14  C   UNL d   1      -6.226  -0.094  -1.527  0.00  0.00     0.145 C 
ATOM     15  O   UNL d   1      -9.060  -1.054   0.579  0.00  0.00    -0.273 OA
ATOM     16  C   UNL d   1      -0.017   1.160  -1.278  0.00  0.00     0.032 A 
ATOM     17  C   UNL d   1       1.605  -0.001   0.088  0.00  0.00     0.035 A 
ATOM     18  C   UNL d   1       1.313   0.856  -0.969  0.00  0.00     0.026 A 
ATOM     19 CL   UNL d   1       3.248  -0.368   0.450  0.00  0.00    -0.084 Cl
ENDROOT
BRANCH   6  20
ATOM     20  C   UNL d   1      -9.381   0.031  -1.547  0.00  0.00     0.030 C 
ATOM     21  C   UNL d   1      -9.208  -0.681  -2.897  0.00  0.00     0.025 C 
ATOM     22  C   UNL d   1     -10.868  -0.169  -1.135  0.00  0.00     0.025 C 
ATOM     23  C   UNL d   1      -9.174   1.546  -1.682  0.00  0.00     0.025 C 
ENDBRANCH   6  20
TORSDOF 1
