REMARK  4 active torsions:
REMARK  status: ('A' for Active; 'I' for Inactive)
REMARK    1  A    between atoms: C_4  and  C_1 
REMARK    2  A    between atoms: C_2  and  C_3 
REMARK    3  A    between atoms: C_6  and  C_5 
REMARK    4  A    between atoms: O_17  and  C_6 
ROOT
ATOM      1  C   UNL d   1       0.003  -0.361   3.571  0.00  0.00     0.049 A 
ATOM      2  C   UNL d   1       0.705  -0.610   1.241  0.00  0.00     0.049 A 
ATOM      3  C   UNL d   1       0.588  -2.560   2.695  0.00  0.00     0.039 A 
ATOM      4  C   UNL d   1       0.280   0.195   2.311  0.00  0.00     0.032 A 
ATOM      5  C   UNL d   1       0.159  -1.744   3.750  0.00  0.00     0.034 A 
ATOM      6  C   UNL d   1       0.840  -1.996   1.438  0.00  0.00     0.034 A 
ENDROOT
BRANCH   1   7
ATOM      7  C   UNL d   1      -0.440   0.503   4.731  0.00  0.00     0.417 C 
ATOM      8  F   UNL d   1      -0.519   1.825   4.418  0.00  0.00    -0.166 F 
ATOM      9  F   UNL d   1      -1.667   0.154   5.203  0.00  0.00    -0.166 F 
ATOM     10  F   UNL d   1       0.412   0.419   5.788  0.00  0.00    -0.166 F 
ENDBRANCH   1   7
BRANCH   2  11
ATOM     11  C   UNL d   1       1.032  -0.007  -0.107  0.00  0.00     0.417 C 
ATOM     12  F   UNL d   1       0.905   1.346  -0.147  0.00  0.00    -0.166 F 
ATOM     13  F   UNL d   1       0.237  -0.493  -1.098  0.00  0.00    -0.166 F 
ATOM     14  F   UNL d   1       2.312  -0.279  -0.485  0.00  0.00    -0.166 F 
ENDBRANCH   2  11
BRANCH   3  15
ATOM     15  C   UNL d   1       0.726  -4.017   2.955  0.00  0.00     0.176 C 
ATOM     16  O   UNL d   1       0.048  -4.600   3.782  0.00  0.00    -0.646 OA
BRANCH  15  17
ATOM     17  O   UNL d   1       1.690  -4.620   2.231  0.00  0.00    -0.773 OA
ATOM     18  H   UNL d   1       2.297  -4.032   1.748  0.00  0.00     0.167 HD
ENDBRANCH  15  17
ENDBRANCH   3  15
TORSDOF 4
