REMARK  5 active torsions:
REMARK  status: ('A' for Active; 'I' for Inactive)
REMARK    1  A    between atoms: N_3  and  C_1 
REMARK    2  A    between atoms: N_6  and  C_1 
REMARK    3  A    between atoms: C_2  and  N_3 
REMARK    4  A    between atoms: C_12  and  N_6 
REMARK    5  A    between atoms: C_15  and  C_12 
ROOT
ATOM      1  C   UNL d   1       1.179  -0.017  -0.191  0.00  0.00     0.172 C 
ATOM      2  S   UNL d   1       0.494   1.273   0.620  0.00  0.00    -0.041 SA
ENDROOT
BRANCH   1   3
ATOM      3  N   UNL d   1       0.516  -1.054  -0.795  0.00  0.00    -0.333 N 
ATOM      4  H   UNL d   1       0.897  -1.966  -0.583  0.00  0.00     0.168 HD
BRANCH   3   5
ATOM      5  C   UNL d   1      -0.731  -1.025  -1.459  0.00  0.00     0.041 A 
ATOM      6  C   UNL d   1      -1.104   0.110  -2.192  0.00  0.00     0.053 A 
ATOM      7  C   UNL d   1      -2.260   0.099  -2.969  0.00  0.00     0.036 A 
ATOM      8 CL   UNL d   1      -2.678   1.487  -3.897  0.00  0.00    -0.084 Cl
ATOM      9  C   UNL d   1      -3.058  -1.036  -3.029  0.00  0.00     0.024 A 
ATOM     10  C   UNL d   1      -2.702  -2.167  -2.294  0.00  0.00     0.011 A 
ATOM     11  C   UNL d   1      -1.544  -2.175  -1.495  0.00  0.00    -0.035 A 
ATOM     12  C   UNL d   1      -1.246  -3.427  -0.714  0.00  0.00     0.050 C 
ENDBRANCH   3   5
ENDBRANCH   1   3
BRANCH   1  13
ATOM     13  N   UNL d   1       2.542  -0.114  -0.204  0.00  0.00    -0.363 N 
ATOM     14  H   UNL d   1       3.009   0.646   0.280  0.00  0.00     0.162 HD
BRANCH  13  15
ATOM     15  C   UNL d   1       3.332  -0.797  -1.214  0.00  0.00     0.160 C 
BRANCH  15  16
ATOM     16  C   UNL d   1       4.343  -1.738  -0.619  0.00  0.00    -0.038 A 
ATOM     17  C   UNL d   1       4.051  -2.520   0.501  0.00  0.00     0.025 A 
ATOM     18  C   UNL d   1       5.008  -3.409   0.964  0.00  0.00     0.088 A 
ATOM     19  N   UNL d   1       6.216  -3.578   0.385  0.00  0.00    -0.375 N 
ATOM     20  C   UNL d   1       6.478  -2.824  -0.701  0.00  0.00     0.088 A 
ATOM     21  HN  UNL d   1       6.897  -4.244   0.752  1.00  0.00     0.164 HD
ATOM     22  C   UNL d   1       5.587  -1.907  -1.237  0.00  0.00     0.025 A 
ENDBRANCH  15  16
ENDBRANCH  13  15
ENDBRANCH   1  13
TORSDOF 5
