REMARK  6 active torsions:
REMARK  status: ('A' for Active; 'I' for Inactive)
REMARK    1  A    between atoms: N_2  and  C_1 
REMARK    2  A    between atoms: C_3  and  C_1 
REMARK    3  A    between atoms: C_4  and  C_1 
REMARK    4  A    between atoms: N_5  and  C_1 
REMARK       I    between atoms: C_6  and  N_2 
REMARK    5  A    between atoms: C_7  and  N_5 
REMARK    6  A    between atoms: C_10  and  C_6 
ROOT
ATOM      1  C   UNL d   1       0.929   0.054  -0.035  0.00  0.00     0.291 C 
ENDROOT
BRANCH   1   2
ATOM      2  N   UNL d   1       0.595   1.504  -0.364  0.00  0.00    -0.320 N 
ATOM      3  C   UNL d   1       0.896   2.582   0.434  0.00  0.00     0.253 C 
ATOM      4  O   UNL d   1       1.636   2.461   1.408  0.00  0.00    -0.268 OA
ATOM      5  H   UNL d   1      -0.146   1.608  -1.053  0.00  0.00     0.165 HD
BRANCH   3   6
ATOM      6  C   UNL d   1       0.277   3.901   0.090  0.00  0.00     0.032 A 
ATOM      7  C   UNL d   1      -0.204   4.197  -1.194  0.00  0.00     0.017 A 
ATOM      8  C   UNL d   1      -0.723   5.467  -1.485  0.00  0.00     0.007 A 
ATOM      9  C   UNL d   1      -0.774   6.467  -0.506  0.00  0.00    -0.062 A 
ATOM     10  C   UNL d   1      -0.311   6.169   0.782  0.00  0.00     0.007 A 
ATOM     11  C   UNL d   1      -1.274   7.836  -0.861  0.00  0.00     0.048 C 
ATOM     12  C   UNL d   1       0.208   4.899   1.075  0.00  0.00     0.017 A 
ENDBRANCH   3   6
ENDBRANCH   1   2
BRANCH   1  13
ATOM     13  C   UNL d   1       0.087  -0.842  -1.019  0.00  0.00     0.435 C 
ATOM     14  F   UNL d   1      -0.837  -0.037  -1.650  0.00  0.00    -0.167 F 
ATOM     15  F   UNL d   1       0.819  -1.365  -2.036  0.00  0.00    -0.167 F 
ATOM     16  F   UNL d   1      -0.634  -1.841  -0.479  0.00  0.00    -0.167 F 
ENDBRANCH   1  13
BRANCH   1  17
ATOM     17  C   UNL d   1       0.514  -0.325   1.440  0.00  0.00     0.435 C 
ATOM     18  F   UNL d   1      -0.482   0.490   1.886  0.00  0.00    -0.167 F 
ATOM     19  F   UNL d   1       0.057  -1.582   1.622  0.00  0.00    -0.167 F 
ATOM     20  F   UNL d   1       1.548  -0.169   2.312  0.00  0.00    -0.167 F 
ENDBRANCH   1  17
BRANCH   1  21
ATOM     21  N   UNL d   1       2.408   0.034  -0.305  0.00  0.00    -0.237 NA
ATOM     22  H   UNL d   1       2.844   0.751   0.279  0.00  0.00     0.132 HD
BRANCH  21  23
ATOM     23  C   UNL d   1       3.025  -1.195  -0.022  0.00  0.00     0.082 A 
ATOM     24  N   UNL d   1       2.261  -2.256   0.285  0.00  0.00    -0.351 N 
ATOM     25  C   UNL d   1       2.870  -3.423   0.612  0.00  0.00     0.006 A 
ATOM     26  HN  UNL d   1       1.244  -2.185   0.274  1.00  0.00     0.167 HD
ATOM     27  C   UNL d   1       1.988  -4.579   0.985  0.00  0.00     0.068 C 
ATOM     28  C   UNL d   1       4.251  -3.574   0.614  0.00  0.00     0.024 A 
ATOM     29  C   UNL d   1       5.031  -2.490   0.247  0.00  0.00     0.005 A 
ATOM     30  C   UNL d   1       4.412  -1.285  -0.083  0.00  0.00     0.042 A 
ENDBRANCH  21  23
ENDBRANCH   1  21
TORSDOF 6
