REMARK  3 active torsions:
REMARK  status: ('A' for Active; 'I' for Inactive)
REMARK    1  A    between atoms: N_3  and  S_1 
REMARK    2  A    between atoms: C_7  and  S_1 
REMARK    3  A    between atoms: C_6  and  N_3 
ROOT
ATOM      1  N   UNL d   1      -0.524   0.857  -0.522  0.00  0.00    -0.310 N 
ATOM      2  H   UNL d   1      -0.190  -0.103  -0.576  0.00  0.00     0.172 HD
ENDROOT
BRANCH   1   3
ATOM      3  S   UNL d   1      -2.138   0.952  -0.137  0.00  0.00     0.259 S 
ATOM      4  O   UNL d   1      -2.342   2.043   0.787  0.00  0.00    -0.201 OA
ATOM      5  O   UNL d   1      -2.514  -0.404   0.190  0.00  0.00    -0.201 OA
BRANCH   3   6
ATOM      6  C   UNL d   1      -3.018   1.359  -1.623  0.00  0.00     0.079 A 
ATOM      7  C   UNL d   1      -2.383   1.651  -2.832  0.00  0.00     0.028 A 
ATOM      8  C   UNL d   1      -3.154   1.991  -3.947  0.00  0.00     0.044 A 
ATOM      9  C   UNL d   1      -4.543   2.006  -3.851  0.00  0.00     0.116 A 
ATOM     10  C   UNL d   1      -5.183   1.683  -2.661  0.00  0.00     0.044 A 
ATOM     11  F   UNL d   1      -5.274   2.333  -4.925  0.00  0.00    -0.206 F 
ATOM     12  C   UNL d   1      -4.420   1.359  -1.540  0.00  0.00     0.028 A 
ENDBRANCH   3   6
ENDBRANCH   1   3
BRANCH   1  13
ATOM     13  C   UNL d   1       0.405   1.978  -0.746  0.00  0.00     0.097 C 
ATOM     14  C   UNL d   1       1.680   1.394  -1.389  0.00  0.00     0.061 C 
ATOM     15  C   UNL d   1       2.754   0.975  -0.365  0.00  0.00     0.225 C 
ATOM     16  C   UNL d   1       2.259   0.015   0.727  0.00  0.00     0.038 C 
ATOM     17  N   UNL d   1       3.086   2.212   0.359  0.00  0.00     0.093 N 
ATOM     18  C   UNL d   1       1.755   0.921   1.850  0.00  0.00     0.038 C 
ATOM     19  C   UNL d   1       1.962   2.334   1.307  0.00  0.00     0.225 C 
ATOM     20  C   UNL d   1       0.729   2.809   0.512  0.00  0.00     0.061 C 
ATOM     21  C   UNL d   1       4.389   2.131   1.020  0.00  0.00     0.310 C 
ENDBRANCH   1  13
TORSDOF 3
