REMARK  10 active torsions:
REMARK  status: ('A' for Active; 'I' for Inactive)
REMARK    1  A    between atoms: C_4  and  C_1 
REMARK    2  A    between atoms: C_2  and  C_3 
REMARK       I    between atoms: C_3  and  N_9 
REMARK       I    between atoms: N_8  and  C_4 
REMARK    3  A    between atoms: C_6  and  C_12 
REMARK    4  A    between atoms: C_13  and  C_7 
REMARK    5  A    between atoms: C_16  and  N_8 
REMARK    6  A    between atoms: N_9  and  C_15 
REMARK    7  A    between atoms: C_12  and  S_17 
REMARK    8  A    between atoms: S_18  and  C_13 
REMARK    9  A    between atoms: S_17  and  C_19 
REMARK   10  A    between atoms: C_20  and  S_18 
ROOT
ATOM      1  C   UNL d   1       0.388   1.676   2.209  0.00  0.00    -0.047 C 
ATOM      2  C   UNL d   1      -0.157   2.101   0.964  0.00  0.00    -0.036 C 
ATOM      3  C   UNL d   1       0.339   2.530   3.360  0.00  0.00    -0.036 C 
ATOM      4  C   UNL d   1       0.050   3.905   3.163  0.00  0.00    -0.054 C 
ATOM      5  C   UNL d   1      -0.408   3.493   0.803  0.00  0.00    -0.054 C 
ATOM      6  C   UNL d   1      -0.307   4.362   1.894  0.00  0.00     0.014 C 
ATOM      7  C   UNL d   1       1.151   0.377   2.304  0.00  0.00     0.049 C 
ATOM      8  C   UNL d   1       0.153   4.934   4.262  0.00  0.00     0.049 C 
ATOM      9  C   UNL d   1      -0.746   4.144  -0.521  0.00  0.00     0.049 C 
ENDROOT
BRANCH   2  10
ATOM     10  C   UNL d   1      -0.382   1.238  -0.270  0.00  0.00     0.119 C 
BRANCH  10  11
ATOM     11  S   UNL d   1      -0.631  -0.558  -0.306  0.00  0.00    -0.123 SA
BRANCH  11  12
ATOM     12  C   UNL d   1      -1.697  -1.002   1.060  0.00  0.00     0.027 A 
ATOM     13  C   UNL d   1      -2.870  -0.347   1.472  0.00  0.00     0.051 A 
ATOM     14  C   UNL d   1      -3.559  -0.831   2.594  0.00  0.00     0.031 A 
ATOM     15  C   UNL d   1      -3.118  -1.963   3.283  0.00  0.00     0.002 A 
ATOM     16  C   UNL d   1      -1.980  -2.633   2.861  0.00  0.00     0.002 A 
ATOM     17  C   UNL d   1      -1.285  -2.160   1.752  0.00  0.00     0.021 A 
BRANCH  13  18
ATOM     18  N   UNL d   1      -3.413   0.704   0.701  0.00  0.00    -0.318 N 
ATOM     19  C   UNL d   1      -4.268   1.703   1.168  0.00  0.00     0.330 C 
ATOM     20  O   UNL d   1      -4.500   1.920   2.358  0.00  0.00    -0.263 OA
ATOM     21  H   UNL d   1      -3.101   0.752  -0.263  0.00  0.00     0.169 HD
BRANCH  19  22
ATOM     22  C   UNL d   1      -4.864   2.580   0.062  0.00  0.00     0.472 C 
ATOM     23  F   UNL d   1      -5.051   1.876  -1.099  0.00  0.00    -0.162 F 
ATOM     24  F   UNL d   1      -4.050   3.618  -0.273  0.00  0.00    -0.162 F 
ATOM     25  F   UNL d   1      -6.072   3.112   0.386  0.00  0.00    -0.162 F 
ENDBRANCH  19  22
ENDBRANCH  13  18
ENDBRANCH  11  12
ENDBRANCH  10  11
ENDBRANCH   2  10
BRANCH   3  26
ATOM     26  C   UNL d   1       0.693   2.073   4.777  0.00  0.00     0.119 C 
BRANCH  26  27
ATOM     27  S   UNL d   1       0.132   0.428   5.359  0.00  0.00    -0.123 SA
BRANCH  27  28
ATOM     28  C   UNL d   1      -1.635   0.577   5.686  0.00  0.00     0.027 A 
ATOM     29  C   UNL d   1      -2.274  -0.426   6.465  0.00  0.00     0.051 A 
ATOM     30  C   UNL d   1      -3.661  -0.374   6.662  0.00  0.00     0.031 A 
ATOM     31  C   UNL d   1      -4.418   0.658   6.115  0.00  0.00     0.002 A 
ATOM     32  C   UNL d   1      -3.794   1.655   5.379  0.00  0.00     0.002 A 
ATOM     33  C   UNL d   1      -2.416   1.611   5.158  0.00  0.00     0.021 A 
BRANCH  29  34
ATOM     34  N   UNL d   1      -1.488  -1.482   6.994  0.00  0.00    -0.318 N 
ATOM     35  C   UNL d   1      -1.877  -2.474   7.895  0.00  0.00     0.330 C 
ATOM     36  O   UNL d   1      -2.974  -2.533   8.451  0.00  0.00    -0.263 OA
ATOM     37  H   UNL d   1      -0.513  -1.471   6.694  0.00  0.00     0.169 HD
BRANCH  35  38
ATOM     38  C   UNL d   1      -0.767  -3.501   8.188  0.00  0.00     0.472 C 
ATOM     39  F   UNL d   1       0.174  -3.536   7.199  0.00  0.00    -0.162 F 
ATOM     40  F   UNL d   1      -0.094  -3.220   9.338  0.00  0.00    -0.162 F 
ATOM     41  F   UNL d   1      -1.239  -4.772   8.312  0.00  0.00    -0.162 F 
ENDBRANCH  35  38
ENDBRANCH  29  34
ENDBRANCH  27  28
ENDBRANCH  26  27
ENDBRANCH   3  26
TORSDOF 10
