REMARK  5 active torsions:
REMARK  status: ('A' for Active; 'I' for Inactive)
REMARK    1  A    between atoms: C_18  and  N_1 
REMARK    2  A    between atoms: C_15  and  C_2 
REMARK    3  A    between atoms: C_6  and  C_8 
REMARK    4  A    between atoms: O_27  and  C_15 
REMARK    5  A    between atoms: C_16  and  C_18 
ROOT
ATOM      1  C   UNL d   1       6.979   4.495  -0.590  0.00  0.00     0.054 C 
ATOM      2  C   UNL d   1       5.021   5.472  -1.843  0.00  0.00     0.025 C 
ATOM      3  C   UNL d   1       5.739   4.182  -1.455  0.00  0.00     0.122 C 
ATOM      4  C   UNL d   1       5.075   6.545  -1.030  0.00  0.00     0.021 C 
ATOM      5  C   UNL d   1       6.960   5.599   0.203  0.00  0.00     0.018 C 
ATOM      6  N   UNL d   1       5.914   6.516   0.071  0.00  0.00    -0.362 N 
ATOM      7  C   UNL d   1       4.326   5.576  -3.152  0.00  0.00     0.159 C 
ATOM      8  C   UNL d   1       4.289   7.811  -1.264  0.00  0.00     0.067 C 
ATOM      9  C   UNL d   1       3.167   7.672  -2.314  0.00  0.00    -0.036 C 
ATOM     10  C   UNL d   1       3.711   6.913  -3.535  0.00  0.00     0.092 C 
ATOM     11  O   UNL d   1       4.338   4.638  -3.946  0.00  0.00    -0.293 OA
ATOM     12  C   UNL d   1       7.958   5.953   1.274  0.00  0.00     0.069 C 
ATOM     13  C   UNL d   1       2.706   9.080  -2.733  0.00  0.00     0.015 C 
ATOM     14  C   UNL d   1       1.946   6.926  -1.735  0.00  0.00     0.015 C 
ATOM     15  H   UNL d   1       5.984   7.369   0.624  0.00  0.00     0.165 HD
ENDROOT
BRANCH   3  16
ATOM     16  C   UNL d   1       4.838   3.264  -0.638  0.00  0.00     0.067 A 
ATOM     17  O   UNL d   1       4.536   2.022  -1.120  0.00  0.00    -0.317 OA
ATOM     18  C   UNL d   1       3.816   1.387  -0.142  0.00  0.00     0.071 A 
ATOM     19  C   UNL d   1       3.680   2.204   0.960  0.00  0.00     0.037 A 
ATOM     20  C   UNL d   1       4.308   3.418   0.630  0.00  0.00     0.036 A 
BRANCH  18  21
ATOM     21  C   UNL d   1       3.307   0.019  -0.423  0.00  0.00     0.200 C 
BRANCH  21  22
ATOM     22  N   UNL d   1       4.264  -0.973   0.011  0.00  0.00    -0.274 N 
ATOM     23  C   UNL d   1       5.102  -1.629  -0.846  0.00  0.00     0.262 A 
ATOM     24  C   UNL d   1       5.847  -2.591  -0.040  0.00  0.00     0.048 A 
ATOM     25  O   UNL d   1       5.224  -1.520  -2.050  0.00  0.00    -0.267 OA
ATOM     26  C   UNL d   1       6.816  -3.500  -0.417  0.00  0.00     0.018 A 
ATOM     27  C   UNL d   1       5.393  -2.492   1.262  0.00  0.00     0.048 A 
ATOM     28  C   UNL d   1       7.341  -4.324   0.582  0.00  0.00     0.001 A 
ATOM     29  C   UNL d   1       6.882  -4.226   1.912  0.00  0.00     0.001 A 
ATOM     30  C   UNL d   1       5.890  -3.303   2.265  0.00  0.00     0.018 A 
ATOM     31  C   UNL d   1       4.354  -1.458   1.288  0.00  0.00     0.262 A 
ATOM     32  O   UNL d   1       3.710  -1.158   2.272  0.00  0.00    -0.267 OA
ENDBRANCH  21  22
ENDBRANCH  18  21
ENDBRANCH   3  16
BRANCH   1  33
ATOM     33  C   UNL d   1       8.039   3.453  -0.558  0.00  0.00     0.292 C 
ATOM     34  O   UNL d   1       8.732   3.181   0.409  0.00  0.00    -0.260 OA
BRANCH  33  35
ATOM     35  O   UNL d   1       8.127   2.850  -1.771  0.00  0.00    -0.323 OA
ATOM     36  C   UNL d   1       9.059   1.768  -1.831  0.00  0.00     0.213 C 
ENDBRANCH  33  35
ENDBRANCH   1  33
TORSDOF 5
