REMARK  4 active torsions:
REMARK  status: ('A' for Active; 'I' for Inactive)
REMARK    1  A    between atoms: C_4  and  C_1 
REMARK    2  A    between atoms: O_7  and  C_4 
REMARK    3  A    between atoms: C_9  and  O_7 
REMARK    4  A    between atoms: N_8  and  C_10 
ROOT
ATOM      1  O   UNL d   1       4.343  -1.101   0.018  0.00  0.00    -0.272 OA
ENDROOT
BRANCH   1   2
ATOM      2  C   UNL d   1       4.664  -0.332  -1.093  0.00  0.00     0.307 C 
ATOM      3  O   UNL d   1       5.326  -0.751  -2.034  0.00  0.00    -0.258 OA
BRANCH   2   4
ATOM      4  C   UNL d   1       4.034   0.974  -0.990  0.00  0.00     0.103 C 
ATOM      5  S   UNL d   1       4.294   2.104  -2.260  0.00  0.00    -0.082 SA
ATOM      6  C   UNL d   1       3.098   3.189  -1.672  0.00  0.00     0.018 A 
ATOM      7  C   UNL d   1       2.691   4.409  -2.249  0.00  0.00     0.020 A 
ATOM      8  C   UNL d   1       2.515   2.706  -0.499  0.00  0.00     0.004 A 
ATOM      9  C   UNL d   1       1.629   5.112  -1.673  0.00  0.00     0.001 A 
ATOM     10  C   UNL d   1       0.984   4.618  -0.550  0.00  0.00     0.001 A 
ATOM     11  C   UNL d   1       1.429   3.439   0.051  0.00  0.00     0.014 A 
ATOM     12  C   UNL d   1       3.166   1.500  -0.053  0.00  0.00     0.068 C 
ATOM     13 CL   UNL d   1       2.763   0.816   1.477  0.00  0.00    -0.082 Cl
ENDBRANCH   2   4
ENDBRANCH   1   2
BRANCH   1  14
ATOM     14  C   UNL d   1       3.967  -2.451  -0.173  0.00  0.00     0.106 A 
ATOM     15  C   UNL d   1       4.408  -3.427   0.749  0.00  0.00     0.064 A 
ATOM     16  C   UNL d   1       3.745  -4.667   0.682  0.00  0.00     0.032 A 
ATOM     17  C   UNL d   1       2.711  -4.924  -0.228  0.00  0.00     0.002 A 
ATOM     18  C   UNL d   1       2.323  -3.951  -1.138  0.00  0.00     0.003 A 
ATOM     19  C   UNL d   1       2.950  -2.710  -1.116  0.00  0.00     0.040 A 
BRANCH  15  20
ATOM     20  N   UNL d   1       5.391  -3.198   1.697  0.00  0.00    -0.379 N 
ATOM     21  C   UNL d   1       6.559  -2.356   1.429  0.00  0.00     0.123 C 
ATOM     22  C   UNL d   1       6.641  -1.276   2.507  0.00  0.00     0.020 C 
ATOM     23  C   UNL d   1       6.667  -1.899   3.905  0.00  0.00     0.003 C 
ATOM     24  C   UNL d   1       5.508  -2.875   4.104  0.00  0.00     0.020 C 
ATOM     25  C   UNL d   1       5.433  -3.907   2.978  0.00  0.00     0.123 C 
ENDBRANCH  15  20
ENDBRANCH   1  14
TORSDOF 4
