REMARK  4 active torsions:
REMARK  status: ('A' for Active; 'I' for Inactive)
REMARK    1  A    between atoms: C_2  and  C_1 
REMARK       I    between atoms: N_6  and  C_2 
REMARK    2  A    between atoms: N_10  and  N_6 
REMARK    3  A    between atoms: C_8  and  C_9 
REMARK    4  A    between atoms: C_15  and  N_10 
ROOT
ATOM      1  N   UNL d   1       0.541   3.541  -0.346  0.00  0.00    -0.203 NA
ATOM      2  H   UNL d   1       1.122   2.802  -0.765  0.00  0.00     0.153 HD
ENDROOT
BRANCH   1   3
ATOM      3  N   UNL d   1      -0.154   3.038   0.774  0.00  0.00    -0.281 N 
ATOM      4  C   UNL d   1      -0.217   1.656   0.912  0.00  0.00     0.291 C 
ATOM      5  O   UNL d   1       0.433   0.904   0.183  0.00  0.00    -0.264 OA
ATOM      6  H   UNL d   1      -0.896   3.617   1.154  0.00  0.00     0.184 HD
BRANCH   4   7
ATOM      7  C   UNL d   1      -1.092   1.183   1.955  0.00  0.00     0.168 A 
ATOM      8  O   UNL d   1      -1.696   2.079   2.790  0.00  0.00    -0.233 OA
ATOM      9  N   UNL d   1      -2.446   1.399   3.736  0.00  0.00    -0.272 N 
ATOM     10  C   UNL d   1      -2.285   0.103   3.452  0.00  0.00     0.117 A 
ATOM     11  HN  UNL d   1      -3.003   1.803   4.489  1.00  0.00     0.194 HD
ATOM     12  C   UNL d   1      -1.456  -0.090   2.335  0.00  0.00     0.064 A 
ENDBRANCH   4   7
ENDBRANCH   1   3
BRANCH   1  13
ATOM     13  C   UNL d   1       1.308   4.706  -0.091  0.00  0.00     0.027 A 
ATOM     14  C   UNL d   1       2.456   4.947  -0.856  0.00  0.00     0.026 A 
ATOM     15  C   UNL d   1       3.173   6.147  -0.736  0.00  0.00     0.010 A 
ATOM     16  C   UNL d   1       2.753   7.173   0.128  0.00  0.00    -0.051 A 
ATOM     17  C   UNL d   1       1.597   6.928   0.884  0.00  0.00     0.010 A 
ATOM     18  C   UNL d   1       0.883   5.724   0.767  0.00  0.00     0.026 A 
BRANCH  16  19
ATOM     19  C   UNL d   1       3.530   8.501   0.202  0.00  0.00    -0.024 C 
ATOM     20  C   UNL d   1       2.886   9.543   1.145  0.00  0.00     0.019 C 
ATOM     21  C   UNL d   1       4.963   8.242   0.712  0.00  0.00     0.019 C 
ATOM     22  C   UNL d   1       3.605   9.148  -1.199  0.00  0.00     0.019 C 
ENDBRANCH  16  19
ENDBRANCH   1  13
TORSDOF 4
