REMARK  6 active torsions:
REMARK  status: ('A' for Active; 'I' for Inactive)
REMARK    1  A    between atoms: C_9  and  N_1 
REMARK    2  A    between atoms: C_12  and  N_2 
REMARK    3  A    between atoms: C_22  and  C_12 
REMARK    4  A    between atoms: C_13  and  C_17 
REMARK    5  A    between atoms: O_23  and  C_13 
REMARK    6  A    between atoms: S_24  and  C_21 
ROOT
ATOM      1  N   UNL d   1       0.925  -1.416   0.084  0.00  0.00    -0.247 N 
ATOM      2  N   UNL d   1       2.121   0.670  -0.059  0.00  0.00    -0.260 N 
ATOM      3  C   UNL d   1       2.160  -0.737   0.057  0.00  0.00     0.338 A 
ATOM      4  C   UNL d   1      -0.251  -0.689   0.039  0.00  0.00     0.150 A 
ATOM      5  C   UNL d   1      -0.224   0.670  -0.076  0.00  0.00     0.147 A 
ATOM      6  C   UNL d   1       0.962   1.444  -0.135  0.00  0.00     0.282 A 
ATOM      7  N   UNL d   1      -1.542  -1.145   0.043  0.00  0.00    -0.336 N 
ATOM      8  HN  UNL d   1      -1.857  -2.113   0.105  1.00  0.00     0.168 HD
ATOM      9  N   UNL d   1      -1.528   1.071  -0.118  0.00  0.00    -0.345 N 
ATOM     10  C   UNL d   1      -2.291  -0.064  -0.051  0.00  0.00     0.182 A 
ATOM     11  O   UNL d   1       3.244  -1.316   0.196  0.00  0.00    -0.246 OA
ATOM     12  O   UNL d   1       0.938   2.667  -0.219  0.00  0.00    -0.265 OA
ATOM     13  H   UNL d   1      -1.859   2.024  -0.196  0.00  0.00     0.167 HD
ENDROOT
BRANCH   2  14
ATOM     14  C   UNL d   1       3.386   1.380   0.052  0.00  0.00     0.175 C 
BRANCH  14  15
ATOM     15  C   UNL d   1       4.154   1.510  -1.248  0.00  0.00    -0.040 A 
ATOM     16  C   UNL d   1       3.851   2.532  -2.158  0.00  0.00     0.010 A 
ATOM     17  C   UNL d   1       4.648   2.732  -3.290  0.00  0.00     0.018 A 
ATOM     18  C   UNL d   1       5.762   1.915  -3.525  0.00  0.00     0.039 A 
ATOM     19  C   UNL d   1       6.037   0.858  -2.651  0.00  0.00     0.018 A 
ATOM     20  C   UNL d   1       5.232   0.654  -1.526  0.00  0.00     0.010 A 
BRANCH  18  21
ATOM     21  C   UNL d   1       6.631   2.226  -4.689  0.00  0.00     0.292 C 
ATOM     22  O   UNL d   1       6.259   2.877  -5.654  0.00  0.00    -0.259 OA
BRANCH  21  23
ATOM     23  O   UNL d   1       7.888   1.764  -4.473  0.00  0.00    -0.323 OA
ATOM     24  C   UNL d   1       8.825   2.134  -5.487  0.00  0.00     0.213 C 
ENDBRANCH  21  23
ENDBRANCH  18  21
ENDBRANCH  14  15
ENDBRANCH   2  14
BRANCH   1  25
ATOM     25  C   UNL d   1       0.853  -2.841   0.162  0.00  0.00     0.047 A 
ATOM     26  C   UNL d   1      -0.054  -3.493   1.019  0.00  0.00     0.048 A 
ATOM     27  C   UNL d   1      -0.059  -4.890   1.144  0.00  0.00     0.002 A 
ATOM     28  C   UNL d   1       0.840  -5.642   0.378  0.00  0.00     0.018 A 
ATOM     29  C   UNL d   1       1.727  -5.016  -0.493  0.00  0.00     0.004 A 
ATOM     30  C   UNL d   1       1.741  -3.626  -0.589  0.00  0.00     0.030 A 
BRANCH  27  31
ATOM     31  S   UNL d   1      -1.076  -5.788   2.311  0.00  0.00    -0.134 SA
ATOM     32  C   UNL d   1      -2.560  -4.756   2.412  0.00  0.00     0.095 C 
ENDBRANCH  27  31
ENDBRANCH   1  25
TORSDOF 6
