REMARK  5 active torsions:
REMARK  status: ('A' for Active; 'I' for Inactive)
REMARK       I    between atoms: N_2  and  C_1 
REMARK    1  A    between atoms: C_5  and  C_1 
REMARK    2  A    between atoms: C_4  and  N_2 
REMARK    3  A    between atoms: C_6  and  C_4 
REMARK    4  A    between atoms: C_7  and  C_6 
REMARK    5  A    between atoms: O_8  and  C_6 
ROOT
ATOM      1  C   UNL d   1       0.833   2.073   1.424  0.00  0.00     0.159 C 
ENDROOT
BRANCH   1   2
ATOM      2  N   UNL d   1       0.221   1.178   0.457  0.00  0.00    -0.358 N 
ATOM      3  C   UNL d   1      -0.642   1.628  -0.522  0.00  0.00     0.221 C 
ATOM      4  O   UNL d   1      -1.001   2.805  -0.558  0.00  0.00    -0.273 OA
ATOM      5  H   UNL d   1       0.554   0.226   0.426  0.00  0.00     0.162 HD
BRANCH   3   6
ATOM      6  C   UNL d   1      -1.095   0.572  -1.556  0.00  0.00     0.078 C 
ATOM      7  C   UNL d   1      -2.614   0.249  -1.587  0.00  0.00     0.014 C 
ATOM      8  C   UNL d   1      -2.241  -1.187  -1.994  0.00  0.00     0.002 C 
ATOM      9  C   UNL d   1      -0.875  -0.948  -1.325  0.00  0.00     0.014 C 
ENDBRANCH   3   6
ENDBRANCH   1   2
BRANCH   1  10
ATOM     10  C   UNL d   1      -0.123   2.799   2.395  0.00  0.00     0.169 C 
BRANCH  10  11
ATOM     11  C   UNL d   1      -1.019   1.873   3.200  0.00  0.00    -0.028 A 
ATOM     12  C   UNL d   1      -0.486   0.972   4.133  0.00  0.00     0.010 A 
ATOM     13  C   UNL d   1      -1.326   0.164   4.902  0.00  0.00     0.001 A 
ATOM     14  C   UNL d   1      -2.709   0.244   4.745  0.00  0.00     0.000 A 
ATOM     15  C   UNL d   1      -3.252   1.129   3.816  0.00  0.00     0.001 A 
ATOM     16  C   UNL d   1      -2.414   1.940   3.048  0.00  0.00     0.010 A 
ENDBRANCH  10  11
BRANCH  10  17
ATOM     17  O   UNL d   1       0.682   3.576   3.296  0.00  0.00    -0.389 OA
ATOM     18  H   UNL d   1       0.278   3.517   4.178  0.00  0.00     0.210 HD
ENDBRANCH  10  17
ENDBRANCH   1  10
TORSDOF 5
