REMARK  6 active torsions:
REMARK  status: ('A' for Active; 'I' for Inactive)
REMARK    1  A    between atoms: C_6  and  C_1 
REMARK    2  A    between atoms: S_11  and  C_5 
REMARK    3  A    between atoms: C_9  and  C_10 
REMARK    4  A    between atoms: C_21  and  S_11 
REMARK    5  A    between atoms: C_12  and  C_21 
REMARK       I    between atoms: N_13  and  C_12 
REMARK    6  A    between atoms: C_23  and  N_13 
ROOT
ATOM      1  C   UNL d   1       0.120   1.045  -0.057  0.00  0.00     0.136 A 
ATOM      2  N   UNL d   1       1.040   0.102   0.376  0.00  0.00    -0.315 N 
ATOM      3  N   UNL d   1      -1.044   0.435  -0.211  0.00  0.00    -0.283 N 
ATOM      4  HN  UNL d   1      -1.901   0.869  -0.555  1.00  0.00     0.188 HD
ATOM      5  C   UNL d   1       0.338  -1.062   0.533  0.00  0.00     0.163 A 
ATOM      6  N   UNL d   1      -0.907  -0.877   0.168  0.00  0.00    -0.278 N 
ATOM      7  HN  UNL d   1      -1.644  -1.582   0.165  1.00  0.00     0.189 HD
ATOM      8  C   UNL d   1       2.450   0.297   0.610  0.00  0.00     0.160 C 
ENDROOT
BRANCH   5   9
ATOM      9  S   UNL d   1       1.010  -2.546   1.129  0.00  0.00    -0.083 SA
BRANCH   9  10
ATOM     10  C   UNL d   1      -0.508  -3.540   1.249  0.00  0.00     0.185 C 
BRANCH  10  11
ATOM     11  C   UNL d   1      -0.321  -4.972   1.737  0.00  0.00     0.231 C 
ATOM     12  N   UNL d   1       0.923  -5.304   2.240  0.00  0.00    -0.327 N 
ATOM     13  H   UNL d   1       1.587  -4.541   2.320  0.00  0.00     0.169 HD
ATOM     14  O   UNL d   1      -1.285  -5.738   1.690  0.00  0.00    -0.272 OA
BRANCH  12  15
ATOM     15  C   UNL d   1       1.361  -6.579   2.663  0.00  0.00     0.034 A 
ATOM     16  C   UNL d   1       0.611  -7.750   2.508  0.00  0.00     0.031 A 
ATOM     17  C   UNL d   1       1.116  -8.986   2.925  0.00  0.00     0.026 A 
ATOM     18  C   UNL d   1       2.378  -9.062   3.503  0.00  0.00     0.034 A 
ATOM     19  C   UNL d   1       3.138  -7.908   3.667  0.00  0.00     0.026 A 
ATOM     20 CL   UNL d   1       3.001 -10.583   4.008  0.00  0.00    -0.084 Cl
ATOM     21  C   UNL d   1       2.633  -6.671   3.245  0.00  0.00     0.031 A 
ENDBRANCH  12  15
ENDBRANCH  10  11
ENDBRANCH   9  10
ENDBRANCH   5   9
BRANCH   1  22
ATOM     22  C   UNL d   1       0.352   2.468  -0.308  0.00  0.00     0.040 A 
ATOM     23  C   UNL d   1      -0.493   3.488   0.167  0.00  0.00     0.064 A 
ATOM     24  C   UNL d   1      -0.175   4.827  -0.146  0.00  0.00     0.034 A 
ATOM     25  C   UNL d   1       0.953   5.104  -0.893  0.00  0.00     0.088 A 
ATOM     26  N   UNL d   1       1.769   4.150  -1.372  0.00  0.00    -0.374 N 
ATOM     27  C   UNL d   1       1.438   2.867  -1.090  0.00  0.00     0.103 A 
ATOM     28  HN  UNL d   1       2.598   4.380  -1.920  1.00  0.00     0.164 HD
BRANCH  23  29
ATOM     29  C   UNL d   1      -1.753   3.259   0.969  0.00  0.00     0.418 C 
ATOM     30  F   UNL d   1      -1.816   2.095   1.661  0.00  0.00    -0.166 F 
ATOM     31  F   UNL d   1      -1.913   4.230   1.921  0.00  0.00    -0.166 F 
ATOM     32  F   UNL d   1      -2.873   3.331   0.199  0.00  0.00    -0.166 F 
ENDBRANCH  23  29
ENDBRANCH   1  22
TORSDOF 6
