REMARK  8 active torsions:
REMARK  status: ('A' for Active; 'I' for Inactive)
REMARK    1  A    between atoms: C_20  and  N_1 
REMARK    2  A    between atoms: N_3  and  C_19 
REMARK    3  A    between atoms: C_5  and  C_9 
REMARK    4  A    between atoms: C_6  and  C_10 
REMARK    5  A    between atoms: O_11  and  C_7 
REMARK    6  A    between atoms: O_12  and  C_8 
REMARK    7  A    between atoms: C_19  and  C_17 
REMARK    8  A    between atoms: C_18  and  C_20 
ROOT
ATOM      1  C   UNL d   1       1.908   0.587   2.281  0.00  0.00     0.007 C 
ATOM      2  C   UNL d   1       2.641   2.900   0.598  0.00  0.00     0.007 C 
ATOM      3  C   UNL d   1       0.899   1.714   2.056  0.00  0.00     0.007 C 
ATOM      4  C   UNL d   1       3.640   1.808   0.961  0.00  0.00     0.007 C 
ATOM      5  C   UNL d   1       1.537   3.055   1.659  0.00  0.00     0.003 C 
ATOM      6  C   UNL d   1       2.955   0.452   1.164  0.00  0.00     0.003 C 
ENDROOT
BRANCH   5   7
ATOM      7  C   UNL d   1       0.449   4.033   1.168  0.00  0.00     0.123 C 
BRANCH   7   8
ATOM      8  N   UNL d   1       1.081   5.334   0.955  0.00  0.00    -0.398 N 
ATOM      9  C   UNL d   1       0.321   6.252   0.465  0.00  0.00     0.097 C 
ATOM     10  HN  UNL d   1       2.061   5.505   1.181  1.00  0.00     0.158 HD
BRANCH   9  11
ATOM     11  C   UNL d   1       0.870   7.594   0.196  0.00  0.00     0.012 A 
ATOM     12  C   UNL d   1       2.232   7.874   0.388  0.00  0.00     0.077 A 
ATOM     13  C   UNL d   1       2.729   9.150   0.144  0.00  0.00     0.037 A 
ATOM     14  C   UNL d   1       1.866  10.158  -0.280  0.00  0.00     0.003 A 
ATOM     15  C   UNL d   1       0.510   9.885  -0.476  0.00  0.00     0.001 A 
ATOM     16  C   UNL d   1       0.009   8.601  -0.247  0.00  0.00     0.015 A 
BRANCH  12  17
ATOM     17  O   UNL d   1       3.129   6.936   0.821  0.00  0.00    -0.360 OA
ATOM     18  H   UNL d   1       2.611   6.114   0.996  0.00  0.00     0.217 HD
ENDBRANCH  12  17
ENDBRANCH   9  11
ENDBRANCH   7   8
ENDBRANCH   5   7
BRANCH   6  19
ATOM     19  C   UNL d   1       2.392  -0.094  -0.167  0.00  0.00     0.123 C 
BRANCH  19  20
ATOM     20  N   UNL d   1       1.933  -1.467   0.042  0.00  0.00    -0.398 N 
ATOM     21  C   UNL d   1       1.993  -2.235  -0.996  0.00  0.00     0.097 C 
ATOM     22  HN  UNL d   1       1.588  -1.796   0.944  1.00  0.00     0.158 HD
BRANCH  21  23
ATOM     23  C   UNL d   1       1.655  -3.669  -0.887  0.00  0.00     0.012 A 
ATOM     24  C   UNL d   1       1.216  -4.220   0.325  0.00  0.00     0.077 A 
ATOM     25  C   UNL d   1       1.006  -5.590   0.440  0.00  0.00     0.037 A 
ATOM     26  C   UNL d   1       1.223  -6.420  -0.659  0.00  0.00     0.003 A 
ATOM     27  C   UNL d   1       1.628  -5.873  -1.879  0.00  0.00     0.001 A 
ATOM     28  C   UNL d   1       1.843  -4.497  -1.998  0.00  0.00     0.015 A 
BRANCH  24  29
ATOM     29  O   UNL d   1       0.984  -3.462   1.442  0.00  0.00    -0.360 OA
ATOM     30  H   UNL d   1       1.238  -2.538   1.211  0.00  0.00     0.217 HD
ENDBRANCH  24  29
ENDBRANCH  21  23
ENDBRANCH  19  20
ENDBRANCH   6  19
TORSDOF 8
