REMARK  3 active torsions:
REMARK  status: ('A' for Active; 'I' for Inactive)
REMARK    1  A    between atoms: N_5  and  C_1 
REMARK    2  A    between atoms: O_11  and  C_2 
REMARK    3  A    between atoms: C_16  and  O_11 
ROOT
ATOM      1  C   UNL d   1       0.667  -1.502  -0.111  0.00  0.00     0.123 A 
ATOM      2  C   UNL d   1       0.204  -0.284  -0.550  0.00  0.00     0.154 A 
ATOM      3  C   UNL d   1      -0.601  -1.804   0.586  0.00  0.00     0.254 A 
ATOM      4  C   UNL d   1      -1.088  -0.474   0.146  0.00  0.00     0.259 A 
ATOM      5  O   UNL d   1      -1.094  -2.692   1.233  0.00  0.00    -0.281 OA
ATOM      6  O   UNL d   1      -2.129   0.109   0.323  0.00  0.00    -0.281 OA
ENDROOT
BRANCH   1   7
ATOM      7  N   UNL d   1       1.784  -2.204  -0.219  0.00  0.00    -0.370 N 
ATOM      8  C   UNL d   1       2.665  -2.347   0.968  0.00  0.00     0.154 C 
ATOM      9  C   UNL d   1       4.096  -2.673   0.487  0.00  0.00     0.136 C 
ATOM     10  C   UNL d   1       5.040  -2.878   1.661  0.00  0.00     0.041 C 
ATOM     11  O   UNL d   1       4.110  -3.875  -0.310  0.00  0.00    -0.378 OA
ATOM     12  C   UNL d   1       3.242  -3.742  -1.454  0.00  0.00     0.136 C 
ATOM     13  C   UNL d   1       1.790  -3.459  -1.009  0.00  0.00     0.154 C 
ATOM     14  C   UNL d   1       3.333  -5.025  -2.265  0.00  0.00     0.041 C 
ENDBRANCH   1   7
BRANCH   2  15
ATOM     15  O   UNL d   1       0.668   0.685  -1.261  0.00  0.00    -0.345 OA
BRANCH  15  16
ATOM     16  C   UNL d   1       1.847   0.353  -1.993  0.00  0.00     0.171 C 
ATOM     17  C   UNL d   1       2.305   1.579  -2.762  0.00  0.00     0.034 C 
ENDBRANCH  15  16
ENDBRANCH   2  15
TORSDOF 3
