REMARK  5 active torsions:
REMARK  status: ('A' for Active; 'I' for Inactive)
REMARK    1  A    between atoms: S_12  and  C_2 
REMARK    2  A    between atoms: C_8  and  C_3 
REMARK    3  A    between atoms: C_22  and  S_12 
REMARK    4  A    between atoms: C_15  and  C_22 
REMARK       I    between atoms: N_16  and  C_15 
REMARK    5  A    between atoms: C_20  and  N_16 
ROOT
ATOM      1  C   UNL d   1       2.340   0.706  -0.355  0.00  0.00     0.090 A 
ATOM      2  C   UNL d   1       2.253  -0.689  -0.457  0.00  0.00     0.092 A 
ATOM      3  C   UNL d   1       1.160   1.459  -0.126  0.00  0.00     0.013 A 
ATOM      4  N   UNL d   1       1.094  -1.360  -0.307  0.00  0.00    -0.352 N 
ATOM      5  HN  UNL d   1       1.073  -2.379  -0.343  1.00  0.00     0.166 HD
ATOM      6  C   UNL d   1      -0.073   0.750  -0.059  0.00  0.00    -0.022 A 
ATOM      7  C   UNL d   1      -0.041  -0.653  -0.107  0.00  0.00     0.017 A 
ATOM      8  C   UNL d   1       3.619   1.339  -0.508  0.00  0.00     0.103 C 
ATOM      9  N   UNL d   1       4.641   1.869  -0.668  0.00  0.00    -0.191 NA
ATOM     10  C   UNL d   1      -1.414   1.448   0.065  0.00  0.00     0.041 C 
ATOM     11  C   UNL d   1      -1.286  -1.502  -0.033  0.00  0.00     0.057 C 
ATOM     12  C   UNL d   1      -2.603   0.581  -0.344  0.00  0.00     0.005 C 
ATOM     13  C   UNL d   1      -2.538  -0.747   0.390  0.00  0.00     0.006 C 
ENDROOT
BRANCH   2  14
ATOM     14  S   UNL d   1       3.686  -1.696  -0.815  0.00  0.00    -0.101 SA
BRANCH  14  15
ATOM     15  C   UNL d   1       2.970  -3.373  -1.022  0.00  0.00     0.184 C 
BRANCH  15  16
ATOM     16  C   UNL d   1       4.009  -4.303  -1.651  0.00  0.00     0.231 C 
ATOM     17  N   UNL d   1       3.623  -5.645  -1.664  0.00  0.00    -0.326 N 
ATOM     18  H   UNL d   1       2.667  -5.860  -1.416  0.00  0.00     0.169 HD
ATOM     19  O   UNL d   1       5.051  -3.882  -2.147  0.00  0.00    -0.272 OA
BRANCH  17  20
ATOM     20  C   UNL d   1       4.389  -6.700  -2.226  0.00  0.00     0.036 A 
ATOM     21  C   UNL d   1       5.747  -6.584  -2.526  0.00  0.00     0.050 A 
ATOM     22  C   UNL d   1       6.429  -7.599  -3.199  0.00  0.00     0.019 A 
ATOM     23  C   UNL d   1       7.788  -7.393  -3.598  0.00  0.00    -0.078 C 
ATOM     24  C   UNL d   1       5.764  -8.781  -3.530  0.00  0.00     0.021 A 
ATOM     25  C   UNL d   1       8.908  -7.148  -3.959  0.00  0.00     0.018 C 
ATOM     26  C   UNL d   1       4.424  -8.935  -3.179  0.00  0.00     0.004 A 
ATOM     27  C   UNL d   1       3.736  -7.904  -2.529  0.00  0.00     0.029 A 
ENDBRANCH  17  20
ENDBRANCH  15  16
ENDBRANCH  14  15
ENDBRANCH   2  14
BRANCH   3  28
ATOM     28  C   UNL d   1       1.225   2.948  -0.001  0.00  0.00     0.017 C 
ATOM     29  S   UNL d   1       0.445   3.764   1.308  0.00  0.00    -0.101 SA
ATOM     30  C   UNL d   1       0.872   5.307   0.719  0.00  0.00     0.050 C 
ATOM     31  C   UNL d   1       1.732   5.221  -0.348  0.00  0.00     0.008 C 
ATOM     32  C   UNL d   1       1.919   3.872  -0.771  0.00  0.00     0.020 C 
ENDBRANCH   3  28
TORSDOF 5
