REMARK  10 active torsions:
REMARK  status: ('A' for Active; 'I' for Inactive)
REMARK    1  A    between atoms: C_3  and  C_1 
REMARK    2  A    between atoms: C_2  and  O_11 
REMARK    3  A    between atoms: O_22  and  C_3 
REMARK    4  A    between atoms: C_4  and  O_21 
REMARK       I    between atoms: N_7  and  C_4 
REMARK    5  A    between atoms: C_5  and  C_14 
REMARK    6  A    between atoms: C_27  and  C_6 
REMARK    7  A    between atoms: C_19  and  N_7 
REMARK    8  A    between atoms: O_11  and  C_20 
REMARK    9  A    between atoms: O_21  and  C_27 
REMARK   10  A    between atoms: C_29  and  O_22 
ROOT
ATOM      1  O   UNL d   1      -4.699   1.438  -0.024  0.00  0.00    -0.292 OA
ENDROOT
BRANCH   1   2
ATOM      2  C   UNL d   1      -5.735   1.756  -0.835  0.00  0.00     0.366 C 
ATOM      3  N   UNL d   1      -6.474   2.850  -0.462  0.00  0.00    -0.303 N 
ATOM      4  H   UNL d   1      -7.225   3.019  -1.119  0.00  0.00     0.171 HD
ATOM      5  O   UNL d   1      -6.053   1.121  -1.836  0.00  0.00    -0.238 OA
BRANCH   3   6
ATOM      6  C   UNL d   1      -6.472   3.629   0.710  0.00  0.00     0.037 A 
ATOM      7  C   UNL d   1      -5.561   3.494   1.756  0.00  0.00     0.032 A 
ATOM      8  C   UNL d   1      -5.700   4.235   2.940  0.00  0.00     0.039 A 
ATOM      9  C   UNL d   1      -6.724   5.165   3.075  0.00  0.00     0.078 A 
ATOM     10  C   UNL d   1      -7.627   5.322   2.021  0.00  0.00     0.039 A 
ATOM     11  C   UNL d   1      -7.500   4.569   0.848  0.00  0.00     0.032 A 
BRANCH   9  12
ATOM     12  O   UNL d   1      -6.974   5.959   4.150  0.00  0.00    -0.255 OA
BRANCH  12  13
ATOM     13  C   UNL d   1      -5.971   6.179   5.129  0.00  0.00     0.530 C 
ATOM     14  F   UNL d   1      -4.715   5.995   4.671  0.00  0.00    -0.144 F 
ATOM     15  F   UNL d   1      -6.066   7.462   5.547  0.00  0.00    -0.144 F 
ATOM     16  F   UNL d   1      -6.178   5.373   6.191  0.00  0.00    -0.144 F 
ENDBRANCH  12  13
ENDBRANCH   9  12
ENDBRANCH   3   6
ENDBRANCH   1   2
BRANCH   1  17
ATOM     17  C   UNL d   1      -4.067   0.176  -0.262  0.00  0.00     0.274 C 
BRANCH  17  18
ATOM     18  C   UNL d   1      -2.607   0.323  -0.285  0.00  0.00    -0.074 C 
ATOM     19  C   UNL d   1      -1.400   0.341  -0.280  0.00  0.00    -0.063 C 
BRANCH  19  20
ATOM     20  C   UNL d   1       0.021   0.278  -0.227  0.00  0.00     0.034 A 
ATOM     21  C   UNL d   1       0.792   1.438  -0.194  0.00  0.00     0.041 A 
ATOM     22  C   UNL d   1       2.183   1.331  -0.069  0.00  0.00     0.056 A 
ATOM     23  C   UNL d   1       2.742   0.062   0.008  0.00  0.00     0.105 A 
ATOM     24  N   UNL d   1       2.019  -1.083  -0.041  0.00  0.00    -0.373 N 
ATOM     25  C   UNL d   1       0.676  -0.946  -0.152  0.00  0.00     0.108 A 
ATOM     26  HN  UNL d   1       2.462  -2.000   0.004  1.00  0.00     0.164 HD
BRANCH  22  27
ATOM     27  C   UNL d   1       3.074   2.499   0.085  0.00  0.00     0.294 C 
ATOM     28  O   UNL d   1       4.272   2.413   0.296  0.00  0.00    -0.259 OA
BRANCH  27  29
ATOM     29  O   UNL d   1       2.336   3.635   0.076  0.00  0.00    -0.318 OA
BRANCH  29  30
ATOM     30  C   UNL d   1       2.957   4.779   0.675  0.00  0.00     0.174 C 
ATOM     31  C   UNL d   1       2.658   4.743   2.163  0.00  0.00     0.034 C 
ENDBRANCH  29  30
ENDBRANCH  27  29
ENDBRANCH  22  27
ENDBRANCH  19  20
ENDBRANCH  17  18
ENDBRANCH   1  17
TORSDOF 10
