REMARK  6 active torsions:
REMARK  status: ('A' for Active; 'I' for Inactive)
REMARK    1  A    between atoms: C_3  and  C_1 
REMARK    2  A    between atoms: N_6  and  C_2 
REMARK       I    between atoms: C_8  and  N_6 
REMARK       I    between atoms: N_14  and  C_8 
REMARK    3  A    between atoms: N_9  and  C_16 
REMARK    4  A    between atoms: C_21  and  N_14 
REMARK    5  A    between atoms: C_16  and  C_17 
REMARK    6  A    between atoms: C_17  and  C_21 
ROOT
ATOM      1  N   UNL d   1      -0.485  -4.340   0.913  0.00  0.00    -0.306 N 
ATOM      2  C   UNL d   1       0.795  -4.829   1.080  0.00  0.00     0.320 C 
ATOM      3  O   UNL d   1       1.235  -5.293   2.116  0.00  0.00    -0.247 OA
ATOM      4  N   UNL d   1       1.537  -4.715  -0.078  0.00  0.00    -0.343 N 
ATOM      5  H   UNL d   1      -0.598  -3.635   0.207  0.00  0.00     0.170 HD
ATOM      6  H   UNL d   1       1.212  -4.081  -0.789  0.00  0.00     0.164 HD
ENDROOT
BRANCH   1   7
ATOM      7  C   UNL d   1      -1.499  -4.420   1.861  0.00  0.00     0.077 A 
ATOM      8  C   UNL d   1      -1.744  -5.337   2.874  0.00  0.00     0.186 A 
ATOM      9  O   UNL d   1      -2.879  -4.956   3.555  0.00  0.00    -0.308 OA
ATOM     10  C   UNL d   1      -3.374  -3.841   2.967  0.00  0.00     0.052 A 
ATOM     11  C   UNL d   1      -4.603  -3.274   3.556  0.00  0.00     0.077 C 
ATOM     12  C   UNL d   1      -2.577  -3.485   1.906  0.00  0.00     0.064 A 
BRANCH   8  13
ATOM     13  C   UNL d   1      -1.163  -6.618   3.362  0.00  0.00     0.441 C 
ATOM     14  F   UNL d   1      -0.296  -7.220   2.509  0.00  0.00    -0.164 F 
ATOM     15  F   UNL d   1      -0.539  -6.479   4.562  0.00  0.00    -0.164 F 
ATOM     16  F   UNL d   1      -2.150  -7.545   3.562  0.00  0.00    -0.164 F 
ENDBRANCH   8  13
ENDBRANCH   1   7
BRANCH   4  17
ATOM     17  C   UNL d   1       2.949  -5.074  -0.110  0.00  0.00     0.126 C 
BRANCH  17  18
ATOM     18  C   UNL d   1       3.186  -6.586  -0.167  0.00  0.00     0.050 C 
BRANCH  18  19
ATOM     19  C   UNL d   1       4.678  -6.942  -0.327  0.00  0.00     0.274 C 
BRANCH  19  20
ATOM     20  N   UNL d   1       5.524  -6.444   0.767  0.00  0.00     0.092 N 
ATOM     21  C   UNL d   1       5.281  -7.138   2.052  0.00  0.00     0.298 C 
ATOM     22  C   UNL d   1       5.863  -8.558   2.090  0.00  0.00     0.198 C 
ATOM     23  O   UNL d   1       7.285  -8.509   1.931  0.00  0.00    -0.388 OA
ATOM     24  C   UNL d   1       7.633  -7.908   0.679  0.00  0.00     0.198 C 
ATOM     25  C   UNL d   1       6.971  -6.531   0.463  0.00  0.00     0.298 C 
ENDBRANCH  19  20
ENDBRANCH  18  19
ENDBRANCH  17  18
ENDBRANCH   4  17
TORSDOF 6
