REMARK  5 active torsions:
REMARK  status: ('A' for Active; 'I' for Inactive)
REMARK       I    between atoms: N_2  and  C_1 
REMARK       I    between atoms: N_3  and  C_1 
REMARK    1  A    between atoms: C_5  and  N_2 
REMARK    2  A    between atoms: C_8  and  N_3 
REMARK    3  A    between atoms: C_16  and  N_3 
REMARK    4  A    between atoms: C_15  and  C_8 
REMARK    5  A    between atoms: C_14  and  C_16 
ROOT
ATOM      1  N   UNL d   1      -4.402  -1.830   0.170  0.00  0.00    -0.197 NA
ATOM      2  C   UNL d   1      -3.257  -1.839  -0.013  0.00  0.00     0.060 C 
ATOM      3  C   UNL d   1      -1.807  -1.838  -0.237  0.00  0.00     0.144 C 
ENDROOT
BRANCH   3   4
ATOM      4  C   UNL d   1      -1.103  -0.992   0.828  0.00  0.00     0.142 C 
BRANCH   4   5
ATOM      5  N   UNL d   1       0.354  -0.964   0.635  0.00  0.00    -0.329 N 
ATOM      6  C   UNL d   1       1.005  -0.272  -0.388  0.00  0.00     0.323 C 
ATOM      7  N   UNL d   1       0.245   0.699  -1.010  0.00  0.00    -0.309 N 
ATOM      8  O   UNL d   1       2.167  -0.533  -0.690  0.00  0.00    -0.247 OA
ATOM      9  H   UNL d   1      -0.451   1.147  -0.436  0.00  0.00     0.170 HD
BRANCH   7  10
ATOM     10  C   UNL d   1       0.603   1.404  -2.187  0.00  0.00     0.037 A 
ATOM     11  C   UNL d   1       1.575   0.946  -3.081  0.00  0.00     0.036 A 
ATOM     12  C   UNL d   1       1.907   1.678  -4.228  0.00  0.00    -0.059 A 
ATOM     13  C   UNL d   1       2.973   1.187  -5.164  0.00  0.00     0.048 C 
ATOM     14  C   UNL d   1       1.249   2.884  -4.484  0.00  0.00     0.013 A 
ATOM     15  C   UNL d   1       0.254   3.351  -3.616  0.00  0.00    -0.059 A 
ATOM     16  C   UNL d   1      -0.069   2.600  -2.474  0.00  0.00     0.036 A 
ATOM     17  C   UNL d   1      -0.434   4.651  -3.920  0.00  0.00     0.048 C 
ENDBRANCH   7  10
BRANCH   5  18
ATOM     18  C   UNL d   1       1.135  -1.967   1.373  0.00  0.00     0.166 C 
BRANCH  18  19
ATOM     19  C   UNL d   1       1.422  -1.560   2.802  0.00  0.00    -0.040 A 
ATOM     20  C   UNL d   1       1.002  -2.365   3.872  0.00  0.00     0.009 A 
ATOM     21  C   UNL d   1       1.308  -2.015   5.189  0.00  0.00     0.001 A 
ATOM     22  C   UNL d   1       2.042  -0.861   5.454  0.00  0.00     0.000 A 
ATOM     23  C   UNL d   1       2.477  -0.059   4.400  0.00  0.00     0.001 A 
ATOM     24  C   UNL d   1       2.171  -0.407   3.082  0.00  0.00     0.009 A 
ENDBRANCH  18  19
ENDBRANCH   5  18
ENDBRANCH   4   5
ENDBRANCH   3   4
TORSDOF 5
