REMARK  10 active torsions:
REMARK  status: ('A' for Active; 'I' for Inactive)
REMARK    1  A    between atoms: C_15  and  C_1 
REMARK    2  A    between atoms: N_10  and  C_2 
REMARK    3  A    between atoms: C_16  and  C_6 
REMARK    4  A    between atoms: C_11  and  C_9 
REMARK       I    between atoms: C_14  and  N_10 
REMARK    5  A    between atoms: C_13  and  C_17 
REMARK    6  A    between atoms: C_18  and  C_14 
REMARK    7  A    between atoms: O_29  and  C_15 
REMARK    8  A    between atoms: O_30  and  C_16 
REMARK    9  A    between atoms: C_35  and  O_29 
REMARK   10  A    between atoms: C_34  and  O_30 
ROOT
ATOM      1  C   UNL d   1      -1.992   0.847   0.132  0.00  0.00     0.110 A 
ATOM      2  C   UNL d   1      -0.837   1.602   0.303  0.00  0.00     0.071 A 
ATOM      3  C   UNL d   1       0.341   0.775   0.433  0.00  0.00     0.027 A 
ATOM      4  C   UNL d   1       0.016  -0.561   0.270  0.00  0.00     0.088 A 
ATOM      5  S   UNL d   1      -1.642  -0.827   0.041  0.00  0.00    -0.063 SA
ATOM      6  C   UNL d   1       2.616  -0.025   0.761  0.00  0.00     0.072 A 
ATOM      7  N   UNL d   1       0.856  -1.613   0.297  0.00  0.00    -0.345 N 
ATOM      8  HN  UNL d   1       0.532  -2.567   0.142  1.00  0.00     0.166 HD
ATOM      9  C   UNL d   1       2.164  -1.326   0.544  0.00  0.00     0.134 A 
ATOM     10  C   UNL d   1       1.698   1.040   0.721  0.00  0.00     0.036 A 
ENDROOT
BRANCH   2  11
ATOM     11  N   UNL d   1      -0.889   2.998   0.357  0.00  0.00    -0.321 N 
ATOM     12  C   UNL d   1      -0.068   3.813  -0.404  0.00  0.00     0.256 C 
ATOM     13  O   UNL d   1       0.850   3.447  -1.125  0.00  0.00    -0.267 OA
ATOM     14  H   UNL d   1      -1.823   3.377   0.513  0.00  0.00     0.169 HD
BRANCH  12  15
ATOM     15  C   UNL d   1      -0.485   5.246  -0.390  0.00  0.00     0.033 A 
ATOM     16  C   UNL d   1      -0.914   5.845   0.802  0.00  0.00     0.033 A 
ATOM     17  C   UNL d   1      -1.365   7.174   0.812  0.00  0.00     0.048 A 
ATOM     18  C   UNL d   1      -1.366   7.899  -0.389  0.00  0.00     0.016 A 
ATOM     19  C   UNL d   1      -0.928   7.306  -1.578  0.00  0.00     0.002 A 
ATOM     20  C   UNL d   1      -0.485   5.981  -1.579  0.00  0.00     0.017 A 
BRANCH  17  21
ATOM     21  C   UNL d   1      -1.847   7.815   2.091  0.00  0.00     0.417 C 
ATOM     22  F   UNL d   1      -1.855   6.960   3.151  0.00  0.00    -0.166 F 
ATOM     23  F   UNL d   1      -1.081   8.876   2.472  0.00  0.00    -0.166 F 
ATOM     24  F   UNL d   1      -3.120   8.285   1.987  0.00  0.00    -0.166 F 
ENDBRANCH  17  21
ENDBRANCH  12  15
ENDBRANCH   2  11
BRANCH   1  25
ATOM     25  C   UNL d   1      -3.371   1.255  -0.083  0.00  0.00     0.302 C 
ATOM     26  O   UNL d   1      -4.314   0.523  -0.345  0.00  0.00    -0.259 OA
BRANCH  25  27
ATOM     27  O   UNL d   1      -3.467   2.622  -0.017  0.00  0.00    -0.317 OA
BRANCH  27  28
ATOM     28  C   UNL d   1      -4.669   3.185  -0.563  0.00  0.00     0.174 C 
ATOM     29  C   UNL d   1      -4.468   3.397  -2.053  0.00  0.00     0.034 C 
ENDBRANCH  27  28
ENDBRANCH  25  27
ENDBRANCH   1  25
BRANCH   6  30
ATOM     30  C   UNL d   1       4.010   0.323   1.089  0.00  0.00     0.295 C 
ATOM     31  O   UNL d   1       4.307   1.075   2.001  0.00  0.00    -0.259 OA
BRANCH  30  32
ATOM     32  O   UNL d   1       4.843  -0.231   0.179  0.00  0.00    -0.318 OA
BRANCH  32  33
ATOM     33  C   UNL d   1       6.232   0.113   0.324  0.00  0.00     0.174 C 
ATOM     34  C   UNL d   1       6.900  -0.700   1.419  0.00  0.00     0.034 C 
ENDBRANCH  32  33
ENDBRANCH  30  32
ENDBRANCH   6  30
BRANCH   9  35
ATOM     35  C   UNL d   1       3.092  -2.531   0.555  0.00  0.00     0.433 C 
ATOM     36  F   UNL d   1       4.216  -2.392   1.311  0.00  0.00    -0.165 F 
ATOM     37  F   UNL d   1       2.486  -3.651   1.056  0.00  0.00    -0.165 F 
ATOM     38  F   UNL d   1       3.513  -2.878  -0.696  0.00  0.00    -0.165 F 
ENDBRANCH   9  35
TORSDOF 10
