REMARK  9 active torsions:
REMARK  status: ('A' for Active; 'I' for Inactive)
REMARK    1  A    between atoms: C_6  and  C_1 
REMARK    2  A    between atoms: C_11  and  C_2 
REMARK    3  A    between atoms: S_13  and  C_5 
REMARK    4  A    between atoms: O_19  and  C_6 
REMARK    5  A    between atoms: C_10  and  C_18 
REMARK       I    between atoms: N_12  and  C_10 
REMARK    6  A    between atoms: O_22  and  C_11 
REMARK    7  A    between atoms: O_23  and  C_11 
REMARK    8  A    between atoms: C_14  and  N_12 
REMARK    9  A    between atoms: C_18  and  S_13 
ROOT
ATOM      1  C   UNL d   1      -0.236  -1.482  -0.027  0.00  0.00     0.080 A 
ATOM      2  C   UNL d   1       0.945  -0.780   0.125  0.00  0.00     0.085 A 
ATOM      3  N   UNL d   1       0.945   0.578   0.286  0.00  0.00    -0.335 N 
ATOM      4  HN  UNL d   1       1.824   1.093   0.348  1.00  0.00     0.168 HD
ATOM      5  C   UNL d   1      -0.225   1.220   0.361  0.00  0.00     0.144 A 
ATOM      6  N   UNL d   1      -1.411   0.619   0.209  0.00  0.00    -0.346 N 
ATOM      7  HN  UNL d   1      -2.286   1.143   0.237  1.00  0.00     0.167 HD
ATOM      8  C   UNL d   1      -1.389  -0.721   0.015  0.00  0.00     0.110 A 
ENDROOT
BRANCH   5   9
ATOM      9  S   UNL d   1      -0.149   2.915   0.897  0.00  0.00    -0.085 SA
BRANCH   9  10
ATOM     10  C   UNL d   1      -1.873   3.380   0.625  0.00  0.00     0.185 C 
BRANCH  10  11
ATOM     11  C   UNL d   1      -2.273   4.759   1.120  0.00  0.00     0.231 C 
ATOM     12  N   UNL d   1      -1.356   5.467   1.871  0.00  0.00    -0.326 N 
ATOM     13  H   UNL d   1      -0.417   5.080   1.913  0.00  0.00     0.169 HD
ATOM     14  O   UNL d   1      -3.401   5.170   0.821  0.00  0.00    -0.272 OA
BRANCH  12  15
ATOM     15  C   UNL d   1      -1.546   6.767   2.404  0.00  0.00     0.036 A 
ATOM     16  C   UNL d   1      -2.803   7.369   2.525  0.00  0.00     0.053 A 
ATOM     17  C   UNL d   1      -2.916   8.687   2.968  0.00  0.00     0.036 A 
ATOM     18 CL   UNL d   1      -4.471   9.421   3.078  0.00  0.00    -0.084 Cl
ATOM     19  C   UNL d   1      -1.785   9.418   3.315  0.00  0.00     0.024 A 
ATOM     20  C   UNL d   1      -0.532   8.810   3.249  0.00  0.00     0.004 A 
ATOM     21  C   UNL d   1      -0.414   7.486   2.811  0.00  0.00     0.029 A 
ENDBRANCH  12  15
ENDBRANCH  10  11
ENDBRANCH   9  10
ENDBRANCH   5   9
BRANCH   2  22
ATOM     22  C   UNL d   1       2.313  -1.460   0.162  0.00  0.00     0.310 C 
BRANCH  22  23
ATOM     23  O   UNL d   1       2.664  -1.679  -1.217  0.00  0.00    -0.360 OA
ATOM     24  C   UNL d   1       4.018  -2.094  -1.392  0.00  0.00     0.205 C 
ENDBRANCH  22  23
BRANCH  22  25
ATOM     25  O   UNL d   1       3.290  -0.659   0.834  0.00  0.00    -0.360 OA
ATOM     26  C   UNL d   1       3.055  -0.554   2.233  0.00  0.00     0.205 C 
ENDBRANCH  22  25
ENDBRANCH   2  22
BRANCH   1  27
ATOM     27  C   UNL d   1      -0.389  -2.947  -0.077  0.00  0.00     0.179 C 
ATOM     28  O   UNL d   1      -1.306  -3.513   0.494  0.00  0.00    -0.646 OA
BRANCH  27  29
ATOM     29  O   UNL d   1       0.544  -3.603  -0.787  0.00  0.00    -0.773 OA
ATOM     30  H   UNL d   1       1.142  -3.075  -1.359  0.00  0.00     0.167 HD
ENDBRANCH  27  29
ENDBRANCH   1  27
TORSDOF 9
