REMARK  3 active torsions:
REMARK  status: ('A' for Active; 'I' for Inactive)
REMARK    1  A    between atoms: C_2  and  C_1 
REMARK       I    between atoms: N_6  and  C_2 
REMARK    2  A    between atoms: N_9  and  N_6 
REMARK    3  A    between atoms: C_14  and  N_9 
ROOT
ATOM      1  C   UNL d   1      -0.811   2.097   0.919  0.00  0.00     0.291 C 
ATOM      2  N   UNL d   1      -0.559   3.403   0.515  0.00  0.00    -0.281 N 
ATOM      3  O   UNL d   1      -0.012   1.186   0.705  0.00  0.00    -0.264 OA
ATOM      4  H   UNL d   1      -1.333   4.057   0.431  0.00  0.00     0.184 HD
ENDROOT
BRANCH   2   5
ATOM      5  N   UNL d   1       0.519   3.614  -0.356  0.00  0.00    -0.203 NA
ATOM      6  H   UNL d   1       1.126   2.788  -0.428  0.00  0.00     0.153 HD
BRANCH   5   7
ATOM      7  C   UNL d   1       1.277   4.789  -0.127  0.00  0.00     0.028 A 
ATOM      8  C   UNL d   1       0.864   5.838   0.704  0.00  0.00     0.032 A 
ATOM      9  C   UNL d   1       1.596   7.037   0.807  0.00  0.00    -0.054 A 
ATOM     10  C   UNL d   1       1.109   8.118   1.734  0.00  0.00     0.049 C 
ATOM     11  C   UNL d   1       2.756   7.208   0.030  0.00  0.00    -0.056 A 
ATOM     12  C   UNL d   1       3.171   6.166  -0.808  0.00  0.00     0.009 A 
ATOM     13  C   UNL d   1       3.545   8.488   0.065  0.00  0.00     0.049 C 
ATOM     14  C   UNL d   1       2.439   4.977  -0.886  0.00  0.00     0.026 A 
ENDBRANCH   5   7
ENDBRANCH   2   5
BRANCH   1  15
ATOM     15  C   UNL d   1      -2.075   1.907   1.586  0.00  0.00     0.168 A 
ATOM     16  O   UNL d   1      -2.868   2.986   1.846  0.00  0.00    -0.233 OA
ATOM     17  N   UNL d   1      -4.011   2.574   2.514  0.00  0.00    -0.272 N 
ATOM     18  C   UNL d   1      -3.887   1.250   2.640  0.00  0.00     0.117 A 
ATOM     19  HN  UNL d   1      -4.783   3.157   2.839  1.00  0.00     0.194 HD
ATOM     20  C   UNL d   1      -2.696   0.776   2.067  0.00  0.00     0.064 A 
ENDBRANCH   1  15
TORSDOF 3
