REMARK  3 active torsions:
REMARK  status: ('A' for Active; 'I' for Inactive)
REMARK    1  A    between atoms: C_7  and  C_1 
REMARK    2  A    between atoms: C_6  and  C_2 
REMARK    3  A    between atoms: O_14  and  C_7 
ROOT
ATOM      1  C   UNL d   1      -0.767  -1.323  -0.062  0.00  0.00     0.076 A 
ATOM      2  C   UNL d   1       0.670  -1.306  -0.022  0.00  0.00     0.040 A 
ATOM      3  C   UNL d   1      -1.171   0.013  -0.032  0.00  0.00     0.022 A 
ATOM      4  C   UNL d   1       1.086   0.012   0.053  0.00  0.00     0.019 A 
ATOM      5  N   UNL d   1      -0.042   0.792   0.042  0.00  0.00    -0.362 N 
ATOM      6  C   UNL d   1      -2.508   0.669  -0.015  0.00  0.00     0.069 C 
ATOM      7  C   UNL d   1       2.431   0.648   0.069  0.00  0.00     0.069 C 
ATOM      8  H   UNL d   1      -0.041   1.804   0.084  0.00  0.00     0.165 HD
ENDROOT
BRANCH   2   9
ATOM      9  C   UNL d   1       1.613  -2.464  -0.075  0.00  0.00     0.113 A 
ATOM     10  O   UNL d   1       2.877  -2.460   0.450  0.00  0.00    -0.237 OA
ATOM     11  N   UNL d   1       3.481  -3.690   0.246  0.00  0.00    -0.272 N 
ATOM     12  C   UNL d   1       2.586  -4.407  -0.436  0.00  0.00     0.117 A 
ATOM     13  HN  UNL d   1       4.409  -3.985   0.552  1.00  0.00     0.194 HD
ATOM     14  C   UNL d   1       1.406  -3.686  -0.673  0.00  0.00     0.059 A 
ENDBRANCH   2   9
BRANCH   1  15
ATOM     15  C   UNL d   1      -1.634  -2.503  -0.049  0.00  0.00     0.295 C 
ATOM     16  O   UNL d   1      -1.312  -3.568   0.470  0.00  0.00    -0.259 OA
BRANCH  15  17
ATOM     17  O   UNL d   1      -2.819  -2.317  -0.697  0.00  0.00    -0.322 OA
ATOM     18  C   UNL d   1      -3.646  -3.482  -0.717  0.00  0.00     0.213 C 
ENDBRANCH  15  17
ENDBRANCH   1  15
TORSDOF 3
