REMARK  6 active torsions:
REMARK  status: ('A' for Active; 'I' for Inactive)
REMARK    1  A    between atoms: C_11  and  C_1 
REMARK    2  A    between atoms: C_3  and  C_7 
REMARK    3  A    between atoms: C_6  and  C_4 
REMARK    4  A    between atoms: C_7  and  O_18 
REMARK    5  A    between atoms: C_19  and  C_9 
REMARK    6  A    between atoms: O_18  and  C_19 
ROOT
ATOM      1  C   UNL d   1      -0.359  -1.208   0.008  0.00  0.00     0.033 A 
ATOM      2  S   UNL d   1       1.329  -0.896  -0.048  0.00  0.00    -0.079 SA
ATOM      3  C   UNL d   1       1.105   0.791  -0.079  0.00  0.00     0.059 A 
ATOM      4  C   UNL d   1      -1.072  -0.021  -0.037  0.00  0.00     0.023 A 
ATOM      5  C   UNL d   1      -0.230   1.133  -0.076  0.00  0.00     0.029 A 
ENDROOT
BRANCH   3   6
ATOM      6  C   UNL d   1       2.207   1.691  -0.101  0.00  0.00    -0.057 C 
ATOM      7  C   UNL d   1       3.196   2.372  -0.100  0.00  0.00    -0.074 C 
BRANCH   7   8
ATOM      8  C   UNL d   1       4.435   3.155  -0.079  0.00  0.00     0.273 C 
BRANCH   8   9
ATOM      9  O   UNL d   1       5.404   2.528  -0.929  0.00  0.00    -0.305 OA
BRANCH   9  10
ATOM     10  C   UNL d   1       5.983   3.333  -1.864  0.00  0.00     0.301 C 
ATOM     11  O   UNL d   1       5.713   4.519  -2.013  0.00  0.00    -0.259 OA
BRANCH  10  12
ATOM     12  C   UNL d   1       6.958   2.575  -2.631  0.00  0.00     0.080 A 
ATOM     13  S   UNL d   1       7.793   3.355  -3.914  0.00  0.00    -0.096 SA
ATOM     14  C   UNL d   1       8.690   1.950  -4.285  0.00  0.00     0.050 A 
ATOM     15  C   UNL d   1       8.370   0.900  -3.455  0.00  0.00     0.009 A 
ATOM     16  C   UNL d   1       7.368   1.258  -2.503  0.00  0.00     0.025 A 
ENDBRANCH  10  12
ENDBRANCH   9  10
ENDBRANCH   8   9
ENDBRANCH   7   8
ENDBRANCH   3   6
BRANCH   1  17
ATOM     17  C   UNL d   1      -0.861  -2.587   0.055  0.00  0.00     0.049 A 
ATOM     18  N   UNL d   1      -2.074  -2.763  -0.524  0.00  0.00    -0.365 N 
ATOM     19  C   UNL d   1      -2.572  -4.020  -0.543  0.00  0.00     0.088 A 
ATOM     20  HN  UNL d   1      -2.589  -1.981  -0.928  1.00  0.00     0.165 HD
ATOM     21  C   UNL d   1      -1.927  -5.117   0.004  0.00  0.00     0.017 A 
ATOM     22  C   UNL d   1      -0.697  -4.916   0.614  0.00  0.00     0.004 A 
ATOM     23  C   UNL d   1      -0.154  -3.635   0.644  0.00  0.00     0.031 A 
ENDBRANCH   1  17
TORSDOF 6
