REMARK  5 active torsions:
REMARK  status: ('A' for Active; 'I' for Inactive)
REMARK    1  A    between atoms: C_2  and  S_1 
REMARK    2  A    between atoms: C_15  and  S_1 
REMARK    3  A    between atoms: C_9  and  N_16 
REMARK    4  A    between atoms: S_19  and  C_10 
REMARK    5  A    between atoms: N_16  and  C_12 
ROOT
ATOM      1  C   UNL d   1       0.423  -1.448   0.752  0.00  0.00     0.160 C 
ATOM      2  C   UNL d   1      -0.380  -1.357   1.828  0.00  0.00     0.141 C 
ATOM      3  C   UNL d   1       0.984  -0.320   0.117  0.00  0.00     0.113 C 
ATOM      4  N   UNL d   1       1.417   0.637  -0.373  0.00  0.00    -0.191 NA
ENDROOT
BRANCH   1   5
ATOM      5  S   UNL d   1       0.848  -3.036   0.201  0.00  0.00     0.218 S 
ATOM      6  O   UNL d   1      -0.330  -3.887   0.231  0.00  0.00    -0.216 OA
ATOM      7  O   UNL d   1       2.052  -3.461   0.892  0.00  0.00    -0.216 OA
BRANCH   5   8
ATOM      8  C   UNL d   1       1.282  -2.868  -1.522  0.00  0.00     0.065 A 
ATOM      9  C   UNL d   1       2.620  -2.688  -1.882  0.00  0.00     0.024 A 
ATOM     10  C   UNL d   1       2.969  -2.630  -3.233  0.00  0.00     0.008 A 
ATOM     11  C   UNL d   1       1.991  -2.759  -4.228  0.00  0.00    -0.062 A 
ATOM     12  C   UNL d   1       0.658  -2.980  -3.854  0.00  0.00     0.008 A 
ATOM     13  C   UNL d   1       2.387  -2.701  -5.675  0.00  0.00     0.048 C 
ATOM     14  C   UNL d   1       0.301  -3.037  -2.504  0.00  0.00     0.024 A 
ENDBRANCH   5   8
ENDBRANCH   1   5
BRANCH   2  15
ATOM     15  N   UNL d   1      -0.839  -0.239   2.486  0.00  0.00    -0.199 N 
ATOM     16  H   UNL d   1      -0.579   0.690   2.175  0.00  0.00     0.183 HD
BRANCH  15  17
ATOM     17  C   UNL d   1      -1.738  -0.195   3.553  0.00  0.00     0.685 A 
ATOM     18  N   UNL d   1      -2.201  -1.320   4.080  0.00  0.00    -0.170 N 
ATOM     19  C   UNL d   1      -3.065  -1.178   5.083  0.00  0.00     0.160 A 
ATOM     20  HN  UNL d   1      -1.913  -2.237   3.739  1.00  0.00     0.186 HD
ATOM     21  N   UNL d   1      -3.482  -0.014   5.569  0.00  0.00    -0.326 N 
ATOM     22  C   UNL d   1      -2.965   1.057   4.975  0.00  0.00     0.095 A 
ATOM     23  HN  UNL d   1      -4.148   0.053   6.339  1.00  0.00     0.169 HD
ATOM     24  N   UNL d   1      -2.088   1.017   3.970  0.00  0.00    -0.181 N 
ATOM     25  C   UNL d   1      -3.392   2.408   5.460  0.00  0.00     0.089 C 
ATOM     26  HN  UNL d   1      -1.711   1.865   3.547  1.00  0.00     0.185 HD
BRANCH  19  27
ATOM     27  S   UNL d   1      -3.682  -2.691   5.785  0.00  0.00    -0.098 SA
ATOM     28  C   UNL d   1      -4.774  -2.045   7.075  0.00  0.00     0.099 C 
ENDBRANCH  19  27
ENDBRANCH  15  17
ENDBRANCH   2  15
TORSDOF 5
