REMARK  5 active torsions:
REMARK  status: ('A' for Active; 'I' for Inactive)
REMARK    1  A    between atoms: C_4  and  C_1 
REMARK    2  A    between atoms: O_14  and  C_1 
REMARK    3  A    between atoms: N_2  and  C_12 
REMARK    4  A    between atoms: C_13  and  C_5 
REMARK    5  A    between atoms: C_15  and  C_6 
ROOT
ATOM      1  N   UNL d   1      -1.093   1.278  -5.618  0.00  0.00    -0.365 N 
ATOM      2  HN  UNL d   1      -1.028   0.954  -6.583  1.00  0.00     0.165 HD
ATOM      3  C   UNL d   1      -1.524   2.474  -5.371  0.00  0.00     0.099 C 
ENDROOT
BRANCH   1   4
ATOM      4  C   UNL d   1      -0.716   0.424  -4.572  0.00  0.00     0.031 A 
ATOM      5  C   UNL d   1      -0.970  -0.942  -4.754  0.00  0.00     0.030 A 
ATOM      6  C   UNL d   1      -0.672  -1.878  -3.758  0.00  0.00     0.020 A 
ATOM      7  C   UNL d   1      -0.084  -1.450  -2.564  0.00  0.00     0.037 A 
ATOM      8  C   UNL d   1       0.196  -0.092  -2.379  0.00  0.00     0.020 A 
ATOM      9  C   UNL d   1      -0.105   0.837  -3.385  0.00  0.00     0.030 A 
BRANCH   7  10
ATOM     10  C   UNL d   1       0.205  -2.387  -1.450  0.00  0.00     0.176 C 
ATOM     11  O   UNL d   1       0.153  -2.055  -0.276  0.00  0.00    -0.646 OA
BRANCH  10  12
ATOM     12  O   UNL d   1       0.568  -3.622  -1.854  0.00  0.00    -0.773 OA
ATOM     13  H   UNL d   1       0.749  -3.706  -2.808  0.00  0.00     0.167 HD
ENDBRANCH  10  12
ENDBRANCH   7  10
ENDBRANCH   1   4
BRANCH   3  14
ATOM     14  C   UNL d   1      -2.022   3.346  -6.455  0.00  0.00    -0.021 A 
ATOM     15  C   UNL d   1      -2.199   2.834  -7.741  0.00  0.00     0.013 A 
ATOM     16  C   UNL d   1      -2.697   3.652  -8.755  0.00  0.00     0.008 A 
ATOM     17  C   UNL d   1      -3.016   4.996  -8.504  0.00  0.00    -0.055 A 
ATOM     18  C   UNL d   1      -2.843   5.495  -7.203  0.00  0.00     0.008 A 
ATOM     19  C   UNL d   1      -2.351   4.675  -6.180  0.00  0.00     0.013 A 
BRANCH  17  20
ATOM     20  C   UNL d   1      -3.524   5.900  -9.616  0.00  0.00     0.010 C 
ATOM     21  C   UNL d   1      -2.500   6.013 -10.750  0.00  0.00     0.015 C 
ATOM     22  C   UNL d   1      -4.876   5.429 -10.159  0.00  0.00     0.015 C 
ENDBRANCH  17  20
ENDBRANCH   3  14
TORSDOF 5
