REMARK  5 active torsions:
REMARK  status: ('A' for Active; 'I' for Inactive)
REMARK    1  A    between atoms: C_6  and  N_1 
REMARK    2  A    between atoms: C_4  and  C_2 
REMARK    3  A    between atoms: C_3  and  S_5 
REMARK    4  A    between atoms: O_13  and  C_4 
REMARK    5  A    between atoms: S_5  and  C_12 
ROOT
ATOM      1  C   UNL d   1      -0.927  -6.082  -2.183  0.00  0.00     0.056 A 
ATOM      2  C   UNL d   1      -0.902  -5.364  -3.395  0.00  0.00     0.021 A 
ATOM      3  C   UNL d   1      -0.305  -7.347  -2.118  0.00  0.00     0.019 A 
ATOM      4  C   UNL d   1      -0.264  -5.947  -4.509  0.00  0.00     0.020 A 
ATOM      5  C   UNL d   1       0.328  -7.902  -3.229  0.00  0.00     0.001 A 
ATOM      6  C   UNL d   1       0.350  -7.199  -4.426  0.00  0.00     0.001 A 
ENDROOT
BRANCH   2   7
ATOM      7  S   UNL d   1      -1.653  -3.763  -3.685  0.00  0.00    -0.090 SA
BRANCH   7   8
ATOM      8  C   UNL d   1      -0.292  -2.661  -3.359  0.00  0.00     0.005 A 
ATOM      9  C   UNL d   1       0.597  -2.317  -4.384  0.00  0.00     0.021 A 
ATOM     10  C   UNL d   1       1.625  -1.398  -4.154  0.00  0.00     0.037 A 
ATOM     11  C   UNL d   1       1.757  -0.814  -2.888  0.00  0.00     0.102 A 
ATOM     12  C   UNL d   1       0.870  -1.146  -1.856  0.00  0.00     0.037 A 
ATOM     13  C   UNL d   1      -0.153  -2.069  -2.098  0.00  0.00     0.021 A 
BRANCH  11  14
ATOM     14  N   UNL d   1       2.826   0.162  -2.645  0.00  0.00    -0.116 N 
ATOM     15  O   UNL d   1       2.909   0.658  -1.512  0.00  0.00    -0.532 OA
ATOM     16  O   UNL d   1       3.584   0.436  -3.588  0.00  0.00    -0.532 OA
ENDBRANCH  11  14
ENDBRANCH   7   8
ENDBRANCH   2   7
BRANCH   1  17
ATOM     17  C   UNL d   1      -1.525  -5.617  -0.900  0.00  0.00     0.294 C 
ATOM     18  O   UNL d   1      -1.129  -6.016   0.187  0.00  0.00    -0.259 OA
BRANCH  17  19
ATOM     19  O   UNL d   1      -2.564  -4.775  -1.085  0.00  0.00    -0.322 OA
ATOM     20  C   UNL d   1      -3.152  -4.264   0.114  0.00  0.00     0.213 C 
ENDBRANCH  17  19
ENDBRANCH   1  17
TORSDOF 5
