REMARK  5 active torsions:
REMARK  status: ('A' for Active; 'I' for Inactive)
REMARK    1  A    between atoms: C_5  and  N_1 
REMARK    2  A    between atoms: C_6  and  N_3 
REMARK    3  A    between atoms: O_11  and  C_7 
REMARK    4  A    between atoms: O_12  and  C_8 
REMARK    5  A    between atoms: C_9  and  C_10 
ROOT
ATOM      1  N   UNL d   1       4.363  -1.004  -0.942  0.00  0.00    -0.362 N 
ATOM      2  HN  UNL d   1       4.895  -0.299  -0.431  1.00  0.00     0.165 HD
ATOM      3  C   UNL d   1       3.072  -1.029  -0.913  0.00  0.00     0.105 C 
ENDROOT
BRANCH   3   4
ATOM      4  C   UNL d   1       2.348  -0.066  -0.029  0.00  0.00     0.105 C 
ATOM      5  N   UNL d   1       1.138  -0.348   0.322  0.00  0.00    -0.362 N 
ATOM      6  HN  UNL d   1       0.664  -1.174  -0.044  1.00  0.00     0.165 HD
BRANCH   5   7
ATOM      7  C   UNL d   1       0.491   0.520   1.227  0.00  0.00     0.065 A 
ATOM      8  C   UNL d   1      -0.867   0.807   1.018  0.00  0.00     0.092 A 
ATOM      9  C   UNL d   1      -1.593   1.609   1.891  0.00  0.00     0.039 A 
ATOM     10  C   UNL d   1      -0.961   2.138   3.014  0.00  0.00     0.003 A 
ATOM     11  C   UNL d   1       0.385   1.854   3.255  0.00  0.00     0.002 A 
ATOM     12  C   UNL d   1       1.105   1.042   2.373  0.00  0.00     0.032 A 
BRANCH   8  13
ATOM     13  O   UNL d   1      -1.511   0.270  -0.064  0.00  0.00    -0.358 OA
ATOM     14  H   UNL d   1      -0.840  -0.313  -0.473  0.00  0.00     0.217 HD
ENDBRANCH   8  13
ENDBRANCH   5   7
ENDBRANCH   3   4
BRANCH   1  15
ATOM     15  C   UNL d   1       5.005  -1.998  -1.715  0.00  0.00     0.065 A 
ATOM     16  C   UNL d   1       6.073  -1.625  -2.542  0.00  0.00     0.092 A 
ATOM     17  C   UNL d   1       6.769  -2.556  -3.306  0.00  0.00     0.039 A 
ATOM     18  C   UNL d   1       6.407  -3.900  -3.240  0.00  0.00     0.003 A 
ATOM     19  C   UNL d   1       5.362  -4.300  -2.405  0.00  0.00     0.002 A 
ATOM     20  C   UNL d   1       4.672  -3.355  -1.639  0.00  0.00     0.032 A 
BRANCH  16  21
ATOM     21  O   UNL d   1       6.462  -0.313  -2.597  0.00  0.00    -0.358 OA
ATOM     22  H   UNL d   1       5.906   0.128  -1.924  0.00  0.00     0.217 HD
ENDBRANCH  16  21
ENDBRANCH   1  15
TORSDOF 5
