REMARK  4 active torsions:
REMARK  status: ('A' for Active; 'I' for Inactive)
REMARK    1  A    between atoms: C_2  and  S_1 
REMARK    2  A    between atoms: N_3  and  S_1 
REMARK    3  A    between atoms: O_14  and  C_7 
REMARK    4  A    between atoms: O_15  and  C_12 
ROOT
ATOM      1  C   UNL d   1       0.729  -1.284  -0.993  0.00  0.00     0.110 A 
ATOM      2  C   UNL d   1       1.381  -2.506  -0.685  0.00  0.00     0.064 A 
ATOM      3  C   UNL d   1      -0.355  -1.286  -1.879  0.00  0.00     0.091 A 
ATOM      4  C   UNL d   1      -0.744  -2.514  -2.449  0.00  0.00     0.041 A 
ATOM      5  C   UNL d   1       0.964  -3.714  -1.238  0.00  0.00     0.069 A 
ATOM      6  C   UNL d   1      -0.095  -3.711  -2.136  0.00  0.00     0.039 A 
ENDROOT
BRANCH   1   7
ATOM      7  S   UNL d   1       1.265   0.117  -0.033  0.00  0.00     0.246 S 
ATOM      8  O   UNL d   1       2.390  -0.298   0.785  0.00  0.00    -0.206 OA
ATOM      9  O   UNL d   1       0.103   0.705   0.586  0.00  0.00    -0.206 OA
BRANCH   7  10
ATOM     10  N   UNL d   1       1.898   1.230  -1.153  0.00  0.00    -0.202 NA
ATOM     11  C   UNL d   1       3.002   0.790  -2.057  0.00  0.00     0.134 C 
ATOM     12  C   UNL d   1       4.383   0.976  -1.427  0.00  0.00     0.183 C 
ATOM     13  O   UNL d   1       4.579   2.331  -1.005  0.00  0.00    -0.389 OA
ATOM     14  C   UNL d   1       3.601   2.688  -0.017  0.00  0.00     0.183 C 
ATOM     15  C   UNL d   1       2.182   2.590  -0.586  0.00  0.00     0.134 C 
ENDBRANCH   7  10
ENDBRANCH   1   7
BRANCH   3  16
ATOM     16  O   UNL d   1      -1.226  -0.292  -2.220  0.00  0.00    -0.354 OA
ATOM     17  C   UNL d   1      -0.736   1.003  -2.513  0.00  0.00     0.210 C 
ENDBRANCH   3  16
BRANCH   5  18
ATOM     18  O   UNL d   1       1.485  -4.948  -0.966  0.00  0.00    -0.356 OA
ATOM     19  C   UNL d   1       2.491  -5.020   0.038  0.00  0.00     0.210 C 
ENDBRANCH   5  18
TORSDOF 4
