REMARK  4 active torsions:
REMARK  status: ('A' for Active; 'I' for Inactive)
REMARK    1  A    between atoms: N_5  and  C_1 
REMARK    2  A    between atoms: N_6  and  C_2 
REMARK    3  A    between atoms: C_9  and  N_5 
REMARK    4  A    between atoms: C_10  and  N_6 
ROOT
ATOM      1  C   UNL d   1       0.580  -1.404   0.067  0.00  0.00     0.109 A 
ATOM      2  C   UNL d   1      -0.774  -1.621   0.147  0.00  0.00     0.094 A 
ATOM      3  C   UNL d   1       0.396   0.068  -0.024  0.00  0.00     0.251 A 
ATOM      4  C   UNL d   1      -1.058  -0.160   0.165  0.00  0.00     0.247 A 
ATOM      5  O   UNL d   1       1.062   1.071  -0.094  0.00  0.00    -0.281 OA
ATOM      6  O   UNL d   1      -1.995   0.591   0.308  0.00  0.00    -0.282 OA
ENDROOT
BRANCH   1   7
ATOM      7  N   UNL d   1       1.689  -2.118   0.144  0.00  0.00    -0.380 N 
ATOM      8  H   UNL d   1       1.711  -2.822   0.883  0.00  0.00     0.160 HD
BRANCH   7   9
ATOM      9  C   UNL d   1       2.309  -2.704  -1.060  0.00  0.00     0.082 C 
ATOM     10  C   UNL d   1       1.716  -4.093  -1.360  0.00  0.00     0.025 C 
ATOM     11  C   UNL d   1       2.115  -5.165  -0.344  0.00  0.00     0.002 C 
ATOM     12  C   UNL d   1       3.623  -5.222  -0.116  0.00  0.00     0.000 C 
ATOM     13  C   UNL d   1       4.219  -3.853   0.193  0.00  0.00     0.002 C 
ATOM     14  C   UNL d   1       3.826  -2.804  -0.848  0.00  0.00     0.025 C 
ENDBRANCH   7   9
ENDBRANCH   1   7
BRANCH   2  15
ATOM     15  N   UNL d   1      -1.594  -2.652   0.285  0.00  0.00    -0.283 NA
ATOM     16  H   UNL d   1      -1.338  -3.495  -0.234  0.00  0.00     0.128 HD
BRANCH  15  17
ATOM     17  C   UNL d   1      -1.955  -3.058   1.654  0.00  0.00     0.060 C 
ATOM     18  C   UNL d   1      -3.367  -3.644   1.693  0.00  0.00     0.020 C 
ATOM     19  C   UNL d   1      -3.727  -4.039   3.127  0.00  0.00     0.002 C 
ATOM     20  C   UNL d   1      -2.709  -5.002   3.739  0.00  0.00     0.000 C 
ATOM     21  C   UNL d   1      -1.269  -4.517   3.589  0.00  0.00     0.002 C 
ATOM     22  C   UNL d   1      -0.954  -4.108   2.157  0.00  0.00     0.020 C 
ENDBRANCH  15  17
ENDBRANCH   2  15
TORSDOF 4
