REMARK  1 active torsions:
REMARK  status: ('A' for Active; 'I' for Inactive)
REMARK    1  A    between atoms: C_8  and  N_2 
ROOT
ATOM      1  C   UNL d   1       1.292  -1.452   0.006  0.00  0.00     0.266 A 
ATOM      2  N   UNL d   1       2.441  -0.644  -0.038  0.00  0.00    -0.268 N 
ATOM      3  C   UNL d   1       2.345   0.736  -0.016  0.00  0.00     0.087 A 
ATOM      4  C   UNL d   1       0.002  -0.740   0.048  0.00  0.00     0.060 A 
ATOM      5  N   UNL d   1       1.219   1.375   0.040  0.00  0.00    -0.345 N 
ATOM      6  HN  UNL d   1       1.204   2.395   0.081  1.00  0.00     0.167 HD
ATOM      7  C   UNL d   1       0.026   0.649   0.044  0.00  0.00     0.049 A 
ATOM      8  O   UNL d   1       1.284  -2.677   0.021  0.00  0.00    -0.267 OA
ATOM      9  C   UNL d   1      -1.212  -1.443   0.057  0.00  0.00     0.026 A 
ATOM     10  C   UNL d   1      -1.185   1.342  -0.001  0.00  0.00     0.031 A 
ATOM     11  C   UNL d   1       3.583   1.603  -0.136  0.00  0.00     0.089 C 
ATOM     12  C   UNL d   1      -2.425  -0.746   0.022  0.00  0.00    -0.061 A 
ATOM     13  C   UNL d   1      -2.402   0.652  -0.029  0.00  0.00     0.009 A 
ATOM     14  C   UNL d   1      -3.732  -1.482   0.014  0.00  0.00     0.048 C 
ENDROOT
BRANCH   2  15
ATOM     15  C   UNL d   1       3.694  -1.322  -0.085  0.00  0.00     0.044 A 
ATOM     16  C   UNL d   1       3.981  -2.173  -1.163  0.00  0.00     0.033 A 
ATOM     17  C   UNL d   1       5.156  -2.923  -1.175  0.00  0.00     0.044 A 
ATOM     18  C   UNL d   1       6.040  -2.824  -0.108  0.00  0.00     0.116 A 
ATOM     19  C   UNL d   1       5.789  -1.960   0.953  0.00  0.00     0.044 A 
ATOM     20  F   UNL d   1       7.146  -3.579  -0.096  0.00  0.00    -0.206 F 
ATOM     21  C   UNL d   1       4.616  -1.201   0.967  0.00  0.00     0.033 A 
ENDBRANCH   2  15
TORSDOF 1
