REMARK  4 active torsions:
REMARK  status: ('A' for Active; 'I' for Inactive)
REMARK    1  A    between atoms: C_9  and  C_3 
REMARK    2  A    between atoms: S_6  and  C_17 
REMARK    3  A    between atoms: N_21  and  S_6 
REMARK    4  A    between atoms: C_20  and  C_13 
ROOT
ATOM      1  N   UNL d   1       0.600   0.795   0.003  0.00  0.00    -0.302 N 
ATOM      2  C   UNL d   1      -0.111  -0.379  -0.010  0.00  0.00     0.123 A 
ATOM      3  C   UNL d   1      -0.052   2.104  -0.080  0.00  0.00     0.249 C 
ATOM      4  N   UNL d   1       0.700  -1.418  -0.019  0.00  0.00    -0.340 N 
ATOM      5  HN  UNL d   1       0.441  -2.404  -0.052  1.00  0.00     0.167 HD
ATOM      6  N   UNL d   1      -1.508   2.095   0.184  0.00  0.00    -0.362 N 
ATOM      7  C   UNL d   1      -1.564  -0.357  -0.014  0.00  0.00     0.035 A 
ATOM      8  C   UNL d   1       1.938   0.500   0.055  0.00  0.00     0.065 A 
ATOM      9  C   UNL d   1      -2.216   0.891   0.035  0.00  0.00     0.044 A 
ATOM     10  C   UNL d   1       1.969  -0.892   0.027  0.00  0.00     0.061 A 
ATOM     11  C   UNL d   1      -2.300  -1.549  -0.051  0.00  0.00     0.017 A 
ATOM     12  C   UNL d   1       3.096   1.286   0.101  0.00  0.00     0.032 A 
ATOM     13  C   UNL d   1      -3.615   0.904   0.103  0.00  0.00     0.030 A 
ATOM     14  C   UNL d   1       3.205  -1.553   0.045  0.00  0.00     0.032 A 
ATOM     15  C   UNL d   1      -3.692  -1.513  -0.007  0.00  0.00     0.001 A 
ATOM     16  C   UNL d   1       4.319   0.607   0.124  0.00  0.00     0.002 A 
ATOM     17  C   UNL d   1       4.377  -0.788   0.096  0.00  0.00     0.002 A 
ATOM     18  C   UNL d   1      -4.348  -0.287   0.075  0.00  0.00     0.002 A 
ATOM     19  H   UNL d   1      -1.987   2.902  -0.202  0.00  0.00     0.162 HD
ENDROOT
BRANCH   3  20
ATOM     20  C   UNL d   1       0.308   2.735  -1.399  0.00  0.00     0.096 A 
ATOM     21  O   UNL d   1       0.955   3.944  -1.369  0.00  0.00    -0.310 OA
ATOM     22  C   UNL d   1       1.240   4.287  -2.666  0.00  0.00     0.086 A 
ATOM     23  C   UNL d   1       0.755   3.309  -3.512  0.00  0.00     0.041 A 
ATOM     24  C   UNL d   1       0.149   2.322  -2.706  0.00  0.00     0.040 A 
BRANCH  22  25
ATOM     25  C   UNL d   1       1.983   5.528  -2.893  0.00  0.00    -0.002 A 
ATOM     26  C   UNL d   1       2.351   6.388  -1.846  0.00  0.00     0.016 A 
ATOM     27  C   UNL d   1       3.097   7.548  -2.097  0.00  0.00     0.026 A 
ATOM     28  C   UNL d   1       3.488   7.848  -3.404  0.00  0.00     0.074 A 
ATOM     29  C   UNL d   1       3.106   7.029  -4.464  0.00  0.00     0.026 A 
ATOM     30  C   UNL d   1       2.363   5.875  -4.203  0.00  0.00     0.016 A 
BRANCH  28  31
ATOM     31  S   UNL d   1       4.490   9.266  -3.733  0.00  0.00     0.239 S 
ATOM     32  O   UNL d   1       4.331   9.658  -5.114  0.00  0.00    -0.206 OA
ATOM     33  O   UNL d   1       4.368  10.200  -2.636  0.00  0.00    -0.206 OA
BRANCH  31  34
ATOM     34  N   UNL d   1       6.029   8.607  -3.607  0.00  0.00    -0.225 NA
ATOM     35  H   UNL d   1       6.512   8.663  -4.504  0.00  0.00     0.136 HD
ATOM     36  H   UNL d   1       6.534   9.027  -2.829  0.00  0.00     0.136 HD
ENDBRANCH  31  34
ENDBRANCH  28  31
ENDBRANCH  22  25
ENDBRANCH   3  20
TORSDOF 4
