REMARK  3 active torsions:
REMARK  status: ('A' for Active; 'I' for Inactive)
REMARK    1  A    between atoms: N_2  and  S_1 
REMARK    2  A    between atoms: C_3  and  S_1 
REMARK    3  A    between atoms: C_10  and  N_2 
ROOT
ATOM      1  N   UNL d   1      -6.199  -0.530  -2.693  0.00  0.00    -0.191 NA
ATOM      2  C   UNL d   1      -5.059  -0.449  -2.506  0.00  0.00     0.099 C 
ATOM      3  C   UNL d   1      -0.888  -0.194  -1.838  0.00  0.00     0.042 A 
ATOM      4  C   UNL d   1      -3.645  -0.360  -2.276  0.00  0.00     0.044 A 
ATOM      5  C   UNL d   1      -1.642   0.970  -1.976  0.00  0.00     0.031 A 
ATOM      6  C   UNL d   1      -1.509  -1.442  -1.909  0.00  0.00     0.031 A 
ATOM      7  C   UNL d   1      -3.017   0.889  -2.210  0.00  0.00     0.025 A 
ATOM      8  C   UNL d   1      -2.888  -1.525  -2.117  0.00  0.00     0.025 A 
ENDROOT
BRANCH   3   9
ATOM      9  N   UNL d   1       0.505  -0.100  -1.572  0.00  0.00    -0.281 N 
ATOM     10  H   UNL d   1       1.124  -0.736  -2.070  0.00  0.00     0.179 HD
BRANCH   9  11
ATOM     11  S   UNL d   1       1.006   0.126   0.034  0.00  0.00     0.263 S 
ATOM     12  O   UNL d   1       0.353   1.302   0.566  0.00  0.00    -0.200 OA
ATOM     13  O   UNL d   1       2.446  -0.012   0.036  0.00  0.00    -0.200 OA
BRANCH  11  14
ATOM     14  C   UNL d   1       0.344  -1.308   0.853  0.00  0.00     0.079 A 
ATOM     15  C   UNL d   1       0.857  -2.568   0.527  0.00  0.00     0.026 A 
ATOM     16  C   UNL d   1       0.271  -3.709   1.074  0.00  0.00     0.008 A 
ATOM     17  C   UNL d   1      -0.805  -3.595   1.965  0.00  0.00    -0.062 A 
ATOM     18  C   UNL d   1      -1.272  -2.322   2.322  0.00  0.00     0.008 A 
ATOM     19  C   UNL d   1      -1.453  -4.834   2.512  0.00  0.00     0.048 C 
ATOM     20  C   UNL d   1      -0.700  -1.175   1.768  0.00  0.00     0.026 A 
ENDBRANCH  11  14
ENDBRANCH   9  11
ENDBRANCH   3   9
TORSDOF 3
