REMARK  4 active torsions:
REMARK  status: ('A' for Active; 'I' for Inactive)
REMARK    1  A    between atoms: S_7  and  C_1 
REMARK    2  A    between atoms: C_10  and  S_7 
REMARK    3  A    between atoms: C_8  and  C_10 
REMARK    4  A    between atoms: O_11  and  C_8 
ROOT
ATOM      1  C   UNL d   1      -2.341   0.004  -0.012  0.00  0.00     0.145 A 
ATOM      2  N   UNL d   1      -1.624   1.099  -0.060  0.00  0.00    -0.335 N 
ATOM      3  HN  UNL d   1      -1.958   2.062  -0.101  1.00  0.00     0.168 HD
ATOM      4  N   UNL d   1      -1.567  -1.120   0.024  0.00  0.00    -0.335 N 
ATOM      5  C   UNL d   1      -0.319   0.663  -0.042  0.00  0.00     0.061 A 
ATOM      6  C   UNL d   1      -0.255  -0.728  -0.011  0.00  0.00     0.061 A 
ATOM      7  C   UNL d   1       0.877   1.399  -0.043  0.00  0.00     0.032 A 
ATOM      8  C   UNL d   1       0.944  -1.444  -0.001  0.00  0.00     0.032 A 
ATOM      9  C   UNL d   1       2.095   0.706  -0.022  0.00  0.00     0.002 A 
ATOM     10  C   UNL d   1       2.124  -0.692  -0.007  0.00  0.00     0.002 A 
ATOM     11  H   UNL d   1      -1.921  -2.069   0.066  0.00  0.00     0.168 HD
ENDROOT
BRANCH   1  12
ATOM     12  S   UNL d   1      -4.060  -0.088   0.119  0.00  0.00    -0.083 SA
BRANCH  12  13
ATOM     13  C   UNL d   1      -4.526  -0.867  -1.448  0.00  0.00     0.192 C 
BRANCH  13  14
ATOM     14  C   UNL d   1      -4.136  -2.331  -1.529  0.00  0.00     0.149 C 
ATOM     15  O   UNL d   1      -3.443  -2.939  -0.726  0.00  0.00    -0.649 OA
BRANCH  14  16
ATOM     16  O   UNL d   1      -4.608  -2.938  -2.647  0.00  0.00    -0.776 OA
ATOM     17  H   UNL d   1      -5.138  -2.368  -3.237  0.00  0.00     0.167 HD
ENDBRANCH  14  16
ENDBRANCH  13  14
ENDBRANCH  12  13
ENDBRANCH   1  12
TORSDOF 4
