REMARK  1 active torsions:
REMARK  status: ('A' for Active; 'I' for Inactive)
REMARK       I    between atoms: N_2  and  C_1 
REMARK    1  A    between atoms: C_3  and  C_1 
REMARK       I    between atoms: C_5  and  N_2 
ROOT
ATOM      1  C   UNL d   1       0.317   0.371  -1.156  0.00  0.00     0.044 A 
ATOM      2  C   UNL d   1       0.709  -0.226  -2.410  0.00  0.00     0.006 A 
ATOM      3  C   UNL d   1       1.757  -1.171  -2.694  0.00  0.00     0.018 A 
ATOM      4  C   UNL d   1      -0.061   0.179  -3.542  0.00  0.00    -0.024 A 
ATOM      5  I   UNL d   1       2.802  -2.291  -1.226  0.00  0.00    -0.044 I 
ATOM      6  C   UNL d   1      -0.809   1.215  -1.053  0.00  0.00     0.018 A 
ATOM      7  C   UNL d   1      -1.568   1.514  -2.170  0.00  0.00     0.002 A 
ATOM      8  C   UNL d   1       1.349  -1.075  -5.081  0.00  0.00     0.002 A 
ATOM      9  C   UNL d   1       2.080  -1.557  -4.009  0.00  0.00     0.019 A 
ATOM     10  C   UNL d   1       0.271  -0.235  -4.842  0.00  0.00     0.012 A 
ATOM     11  C   UNL d   1      -1.179   1.016  -3.405  0.00  0.00     0.012 A 
ENDROOT
BRANCH   1  12
ATOM     12  C   UNL d   1       1.173   0.368   0.060  0.00  0.00     0.259 C 
ATOM     13  N   UNL d   1       0.528   0.013   1.235  0.00  0.00    -0.294 N 
ATOM     14  C   UNL d   1       1.068   0.172   2.499  0.00  0.00     0.220 C 
ATOM     15  H   UNL d   1      -0.450  -0.224   1.173  0.00  0.00     0.172 HD
ATOM     16  O   UNL d   1       2.256   0.326   2.764  0.00  0.00    -0.274 OA
ATOM     17  C   UNL d   1       0.049   0.097   3.610  0.00  0.00     0.117 C 
ATOM     18  O   UNL d   1       2.327   0.764  -0.046  0.00  0.00    -0.267 OA
ENDBRANCH   1  12
TORSDOF 1
