REMARK  7 active torsions:
REMARK  status: ('A' for Active; 'I' for Inactive)
REMARK    1  A    between atoms: N_3  and  C_1 
REMARK    2  A    between atoms: N_13  and  C_1 
REMARK    3  A    between atoms: C_2  and  N_4 
REMARK    4  A    between atoms: N_9  and  C_2 
REMARK    5  A    between atoms: N_4  and  N_3 
REMARK    6  A    between atoms: C_6  and  C_14 
REMARK    7  A    between atoms: C_14  and  N_9 
ROOT
ATOM      1  C   UNL d   1      -1.894  -0.180  -0.067  0.00  0.00     0.186 C 
ATOM      2  S   UNL d   1      -1.609  -1.638  -0.844  0.00  0.00    -0.040 SA
ENDROOT
BRANCH   1   3
ATOM      3  N   UNL d   1      -0.980   0.511   0.735  0.00  0.00    -0.272 N 
ATOM      4  H   UNL d   1      -1.166   1.469   0.999  0.00  0.00     0.189 HD
BRANCH   3   5
ATOM      5  N   UNL d   1       0.325   0.069   0.995  0.00  0.00    -0.270 N 
ATOM      6  C   UNL d   1       1.218   0.214  -0.160  0.00  0.00     0.180 C 
BRANCH   5   7
ATOM      7  C   UNL d   1       0.712  -0.438   2.217  0.00  0.00     0.188 C 
ATOM      8  S   UNL d   1       2.208  -1.158   2.507  0.00  0.00    -0.039 SA
BRANCH   7   9
ATOM      9  N   UNL d   1      -0.093  -0.365   3.310  0.00  0.00    -0.370 N 
ATOM     10  C   UNL d   1      -1.305   0.374   3.581  0.00  0.00     0.148 C 
ATOM     11  H   UNL d   1       0.367  -0.745   4.129  0.00  0.00     0.161 HD
ENDBRANCH   7   9
ENDBRANCH   5   7
ENDBRANCH   3   5
ENDBRANCH   1   3
BRANCH   1  12
ATOM     12  N   UNL d   1      -3.091   0.507  -0.138  0.00  0.00    -0.361 N 
ATOM     13  H   UNL d   1      -3.223   1.301   0.476  0.00  0.00     0.162 HD
BRANCH  12  14
ATOM     14  C   UNL d   1      -4.174   0.252  -1.075  0.00  0.00     0.168 C 
BRANCH  14  15
ATOM     15  C   UNL d   1      -5.406   1.026  -0.704  0.00  0.00     0.000 A 
ATOM     16  S   UNL d   1      -5.324   2.619  -0.067  0.00  0.00    -0.105 SA
ATOM     17  C   UNL d   1      -7.025   2.734   0.050  0.00  0.00     0.050 A 
ATOM     18  C   UNL d   1      -7.653   1.603  -0.417  0.00  0.00     0.008 A 
ATOM     19  C   UNL d   1      -6.720   0.620  -0.854  0.00  0.00     0.017 A 
ENDBRANCH  14  15
ENDBRANCH  12  14
ENDBRANCH   1  12
TORSDOF 7
