REMARK  5 active torsions:
REMARK  status: ('A' for Active; 'I' for Inactive)
REMARK    1  A    between atoms: C_16  and  C_3 
REMARK    2  A    between atoms: C_4  and  C_8 
REMARK    3  A    between atoms: C_15  and  C_5 
REMARK    4  A    between atoms: C_9  and  N_7 
REMARK    5  A    between atoms: N_13  and  C_15 
ROOT
ATOM      1  N   UNL d   1      -3.687   0.048   0.032  0.00  0.00    -0.364 N 
ATOM      2  N   UNL d   1      -2.198  -2.510   0.004  0.00  0.00     0.097 N 
ATOM      3  C   UNL d   1      -2.989  -0.400   1.251  0.00  0.00     0.154 C 
ATOM      4  C   UNL d   1      -2.994  -0.359  -1.198  0.00  0.00     0.154 C 
ATOM      5  C   UNL d   1      -2.842  -1.942   1.217  0.00  0.00     0.292 C 
ATOM      6  C   UNL d   1      -2.837  -1.907  -1.197  0.00  0.00     0.292 C 
ENDROOT
BRANCH   2   7
ATOM      7  C   UNL d   1      -0.740  -2.297  -0.021  0.00  0.00     0.330 C 
BRANCH   7   8
ATOM      8  C   UNL d   1      -0.042  -3.053   1.075  0.00  0.00     0.054 A 
ATOM      9  N   UNL d   1       0.337  -2.408   2.234  0.00  0.00    -0.343 N 
ATOM     10  C   UNL d   1       0.970  -3.297   2.984  0.00  0.00     0.115 A 
ATOM     11  HN  UNL d   1       0.163  -1.430   2.469  1.00  0.00     0.167 HD
ATOM     12  N   UNL d   1       0.993  -4.511   2.332  0.00  0.00    -0.350 N 
ATOM     13  C   UNL d   1       0.364  -4.369   1.124  0.00  0.00     0.116 A 
ATOM     14  H   UNL d   1       1.411  -5.357   2.683  0.00  0.00     0.166 HD
BRANCH  10  15
ATOM     15  C   UNL d   1       1.560  -3.028   4.302  0.00  0.00     0.008 A 
ATOM     16  C   UNL d   1       1.350  -1.766   4.882  0.00  0.00     0.015 A 
ATOM     17  C   UNL d   1       1.893  -1.441   6.126  0.00  0.00     0.001 A 
ATOM     18  C   UNL d   1       2.660  -2.377   6.813  0.00  0.00     0.000 A 
ATOM     19  C   UNL d   1       2.882  -3.635   6.255  0.00  0.00     0.001 A 
ATOM     20  C   UNL d   1       2.334  -3.961   5.008  0.00  0.00     0.015 A 
ENDBRANCH  10  15
ENDBRANCH   7   8
ENDBRANCH   2   7
BRANCH   1  21
ATOM     21  C   UNL d   1      -4.224   1.334   0.062  0.00  0.00     0.103 A 
ATOM     22  N   UNL d   1      -3.901   2.242  -0.885  0.00  0.00    -0.352 N 
ATOM     23  C   UNL d   1      -4.517   3.456  -0.858  0.00  0.00     0.106 A 
ATOM     24  HN  UNL d   1      -3.212   2.024  -1.605  1.00  0.00     0.166 HD
ATOM     25  C   UNL d   1      -5.480   3.825   0.068  0.00  0.00     0.063 A 
ATOM     26  C   UNL d   1      -5.814   2.883   1.035  0.00  0.00     0.021 A 
ATOM     27  C   UNL d   1      -5.183   1.641   1.030  0.00  0.00     0.049 A 
BRANCH  25  28
ATOM     28  C   UNL d   1      -6.154   5.160   0.022  0.00  0.00     0.418 C 
ATOM     29  F   UNL d   1      -5.688   5.981  -0.959  0.00  0.00    -0.166 F 
ATOM     30  F   UNL d   1      -7.497   5.057  -0.186  0.00  0.00    -0.166 F 
ATOM     31  F   UNL d   1      -6.016   5.855   1.186  0.00  0.00    -0.166 F 
ENDBRANCH  25  28
ENDBRANCH   1  21
TORSDOF 5
