REMARK  2 active torsions:
REMARK  status: ('A' for Active; 'I' for Inactive)
REMARK    1  A    between atoms: C_2  and  C_1 
REMARK    2  A    between atoms: N_13  and  C_6 
ROOT
ATOM      1  C   UNL d   1       1.278   1.361   0.003  0.00  0.00     0.127 A 
ATOM      2  N   UNL d   1       2.446   0.667  -0.072  0.00  0.00    -0.328 N 
ATOM      3  HN  UNL d   1       3.347   1.146  -0.059  1.00  0.00     0.168 HD
ATOM      4  C   UNL d   1       0.040   0.720  -0.016  0.00  0.00    -0.004 A 
ATOM      5  C   UNL d   1       2.375  -0.657  -0.162  0.00  0.00     0.155 A 
ATOM      6  N   UNL d   1       1.243  -1.356  -0.131  0.00  0.00    -0.336 N 
ATOM      7  HN  UNL d   1       1.251  -2.376  -0.165  1.00  0.00     0.168 HD
ATOM      8  C   UNL d   1       0.086  -0.668  -0.054  0.00  0.00     0.020 A 
ATOM      9  C   UNL d   1      -1.266   1.462   0.072  0.00  0.00     0.043 C 
ATOM     10  C   UNL d   1      -1.168  -1.504  -0.076  0.00  0.00     0.057 C 
ATOM     11  C   UNL d   1      -2.473   0.612  -0.323  0.00  0.00     0.005 C 
ATOM     12  C   UNL d   1      -2.414  -0.743   0.368  0.00  0.00     0.006 C 
ENDROOT
BRANCH   1  13
ATOM     13  C   UNL d   1       1.369   2.876   0.115  0.00  0.00     0.433 C 
ATOM     14  F   UNL d   1       2.643   3.357   0.204  0.00  0.00    -0.165 F 
ATOM     15  F   UNL d   1       0.809   3.520  -0.951  0.00  0.00    -0.165 F 
ATOM     16  F   UNL d   1       0.721   3.359   1.216  0.00  0.00    -0.165 F 
ENDBRANCH   1  13
BRANCH   5  17
ATOM     17  N   UNL d   1       3.558  -1.356  -0.251  0.00  0.00    -0.274 NA
ATOM     18  H   UNL d   1       4.314  -0.815   0.143  0.00  0.00     0.127 HD
ATOM     19  H   UNL d   1       3.427  -2.297   0.092  0.00  0.00     0.127 HD
ENDBRANCH   5  17
TORSDOF 2
