REMARK  5 active torsions:
REMARK  status: ('A' for Active; 'I' for Inactive)
REMARK    1  A    between atoms: C_10  and  C_2 
REMARK    2  A    between atoms: S_8  and  C_5 
REMARK    3  A    between atoms: C_13  and  S_8 
REMARK    4  A    between atoms: C_9  and  C_13 
REMARK       I    between atoms: N_12  and  C_9 
REMARK    5  A    between atoms: N_15  and  N_12 
ROOT
ATOM      1  N   UNL d   1       0.877  -0.012   0.009  0.00  0.00    -0.315 N 
ATOM      2  C   UNL d   1       0.013   1.060  -0.121  0.00  0.00     0.134 A 
ATOM      3  N   UNL d   1      -1.222   0.581  -0.162  0.00  0.00    -0.283 N 
ATOM      4  HN  UNL d   1      -2.073   1.141  -0.208  1.00  0.00     0.188 HD
ATOM      5  C   UNL d   1       0.090  -1.129  -0.026  0.00  0.00     0.163 A 
ATOM      6  N   UNL d   1      -1.171  -0.791  -0.130  0.00  0.00    -0.278 N 
ATOM      7  HN  UNL d   1      -1.966  -1.428  -0.178  1.00  0.00     0.189 HD
ATOM      8  C   UNL d   1       2.308   0.005   0.170  0.00  0.00     0.160 C 
ENDROOT
BRANCH   5   9
ATOM      9  S   UNL d   1       0.701  -2.745   0.043  0.00  0.00    -0.083 SA
BRANCH   9  10
ATOM     10  C   UNL d   1      -0.144  -3.459  -1.394  0.00  0.00     0.186 C 
BRANCH  10  11
ATOM     11  C   UNL d   1       0.304  -2.822  -2.701  0.00  0.00     0.241 C 
ATOM     12  O   UNL d   1       1.365  -2.218  -2.865  0.00  0.00    -0.271 OA
ATOM     13  N   UNL d   1      -0.603  -3.027  -3.740  0.00  0.00    -0.293 N 
ATOM     14  H   UNL d   1      -1.416  -3.628  -3.618  0.00  0.00     0.183 HD
BRANCH  13  15
ATOM     15  N   UNL d   1      -0.294  -2.558  -5.035  0.00  0.00    -0.247 NA
ATOM     16  H   UNL d   1       0.703  -2.298  -5.031  0.00  0.00     0.143 HD
ATOM     17  H   UNL d   1      -0.776  -1.663  -5.165  0.00  0.00     0.143 HD
ENDBRANCH  13  15
ENDBRANCH  10  11
ENDBRANCH   9  10
ENDBRANCH   5   9
BRANCH   2  18
ATOM     18  C   UNL d   1       0.354   2.488  -0.168  0.00  0.00     0.009 A 
ATOM     19  C   UNL d   1       1.464   2.973  -0.873  0.00  0.00     0.015 A 
ATOM     20  C   UNL d   1       1.765   4.339  -0.884  0.00  0.00     0.001 A 
ATOM     21  C   UNL d   1       0.940   5.243  -0.220  0.00  0.00     0.000 A 
ATOM     22  C   UNL d   1      -0.191   4.782   0.450  0.00  0.00     0.001 A 
ATOM     23  C   UNL d   1      -0.481   3.415   0.475  0.00  0.00     0.015 A 
ENDBRANCH   2  18
TORSDOF 5
