REMARK  4 active torsions:
REMARK  status: ('A' for Active; 'I' for Inactive)
REMARK    1  A    between atoms: O_10  and  C_3 
REMARK    2  A    between atoms: C_11  and  C_8 
REMARK    3  A    between atoms: O_12  and  C_11 
REMARK    4  A    between atoms: C_13  and  O_12 
ROOT
ATOM      1  N   UNL d   1       0.230   0.581  -1.143  0.00  0.00    -0.323 N 
ATOM      2  HN  UNL d   1       0.449   1.010  -2.043  1.00  0.00     0.169 HD
ATOM      3  C   UNL d   1      -0.427  -0.585  -1.046  0.00  0.00     0.165 A 
ATOM      4  C   UNL d   1      -0.754  -1.229   0.129  0.00  0.00     0.106 A 
ATOM      5  N   UNL d   1       0.316   0.609   1.240  0.00  0.00    -0.346 N 
ATOM      6  HN  UNL d   1       0.609   1.076   2.098  1.00  0.00     0.167 HD
ATOM      7  C   UNL d   1      -0.353  -0.573   1.278  0.00  0.00     0.033 A 
ATOM      8  C   UNL d   1       0.581   1.147   0.028  0.00  0.00     0.108 A 
ATOM      9 CL   UNL d   1      -1.585  -2.734   0.148  0.00  0.00    -0.078 Cl
ATOM     10  C   UNL d   1      -0.619  -1.130   2.645  0.00  0.00     0.070 C 
ENDROOT
BRANCH   8  11
ATOM     11  C   UNL d   1       1.375   2.436  -0.013  0.00  0.00     0.252 C 
BRANCH  11  12
ATOM     12  O   UNL d   1       0.502   3.568   0.012  0.00  0.00    -0.344 OA
BRANCH  12  13
ATOM     13  C   UNL d   1       1.104   4.796  -0.056  0.00  0.00     0.069 A 
ATOM     14  C   UNL d   1       2.481   5.034  -0.089  0.00  0.00     0.037 A 
ATOM     15  C   UNL d   1       2.969   6.342  -0.169  0.00  0.00     0.003 A 
ATOM     16  C   UNL d   1       2.087   7.419  -0.214  0.00  0.00     0.000 A 
ATOM     17  C   UNL d   1       0.714   7.190  -0.175  0.00  0.00     0.003 A 
ATOM     18  C   UNL d   1       0.227   5.884  -0.095  0.00  0.00     0.037 A 
ENDBRANCH  12  13
ENDBRANCH  11  12
ENDBRANCH   8  11
BRANCH   3  19
ATOM     19  O   UNL d   1      -0.743  -1.108  -2.262  0.00  0.00    -0.345 OA
ATOM     20  H   UNL d   1      -0.389  -0.420  -2.854  0.00  0.00     0.219 HD
ENDBRANCH   3  19
TORSDOF 4
