REMARK  6 active torsions:
REMARK  status: ('A' for Active; 'I' for Inactive)
REMARK    1  A    between atoms: C_5  and  S_1 
REMARK    2  A    between atoms: N_7  and  S_1 
REMARK    3  A    between atoms: N_3  and  C_2 
REMARK    4  A    between atoms: S_9  and  C_6 
REMARK    5  A    between atoms: C_10  and  N_7 
REMARK    6  A    between atoms: C_18  and  S_9 
ROOT
ATOM      1  C   UNL d   1      -0.279   2.252  -2.082  0.00  0.00    -0.085 C 
ATOM      2  C   UNL d   1       0.069   0.859  -2.442  0.00  0.00     0.103 C 
ATOM      3  C   UNL d   1      -0.538   3.406  -1.884  0.00  0.00     0.015 C 
ATOM      4  C   UNL d   1      -1.190  -0.025  -2.442  0.00  0.00     0.045 C 
ATOM      5  C   UNL d   1       0.630   0.925  -3.894  0.00  0.00     0.045 C 
ATOM      6  C   UNL d   1      -0.944  -1.405  -3.050  0.00  0.00     0.004 C 
ATOM      7  C   UNL d   1       0.830  -0.436  -4.556  0.00  0.00     0.004 C 
ATOM      8  C   UNL d   1      -0.425  -1.295  -4.480  0.00  0.00     0.000 C 
ENDROOT
BRANCH   2   9
ATOM      9  N   UNL d   1       1.137   0.349  -1.562  0.00  0.00    -0.294 N 
ATOM     10  H   UNL d   1       2.001   0.018  -1.987  0.00  0.00     0.174 HD
BRANCH   9  11
ATOM     11  S   UNL d   1       1.022  -0.015   0.067  0.00  0.00     0.260 S 
ATOM     12  O   UNL d   1      -0.137  -0.847   0.287  0.00  0.00    -0.200 OA
ATOM     13  O   UNL d   1       2.341  -0.453   0.466  0.00  0.00    -0.200 OA
BRANCH  11  14
ATOM     14  C   UNL d   1       0.753   1.553   0.858  0.00  0.00     0.082 A 
ATOM     15  C   UNL d   1       1.650   2.592   0.617  0.00  0.00     0.062 A 
ATOM     16  C   UNL d   1       1.268   3.893   0.971  0.00  0.00     0.121 A 
ATOM     17  C   UNL d   1       0.054   4.174   1.622  0.00  0.00     0.038 A 
ATOM     18  C   UNL d   1      -0.756   3.082   1.979  0.00  0.00     0.023 A 
ATOM     19  C   UNL d   1      -0.416   1.778   1.591  0.00  0.00     0.027 A 
BRANCH  16  20
ATOM     20  N   UNL d   1       2.131   4.960   0.508  0.00  0.00    -0.114 N 
ATOM     21  O   UNL d   1       3.253   5.028   1.024  0.00  0.00    -0.532 OA
ATOM     22  O   UNL d   1       1.714   5.671  -0.416  0.00  0.00    -0.532 OA
ENDBRANCH  16  20
BRANCH  17  23
ATOM     23  S   UNL d   1      -0.642   5.813   1.782  0.00  0.00    -0.088 SA
BRANCH  23  24
ATOM     24  C   UNL d   1      -0.375   6.283   3.475  0.00  0.00     0.005 A 
ATOM     25  C   UNL d   1       0.819   6.033   4.154  0.00  0.00     0.019 A 
ATOM     26  C   UNL d   1       0.998   6.497   5.460  0.00  0.00     0.001 A 
ATOM     27  C   UNL d   1      -0.009   7.223   6.093  0.00  0.00     0.000 A 
ATOM     28  C   UNL d   1      -1.197   7.493   5.419  0.00  0.00     0.001 A 
ATOM     29  C   UNL d   1      -1.377   7.028   4.115  0.00  0.00     0.019 A 
ENDBRANCH  23  24
ENDBRANCH  17  23
ENDBRANCH  11  14
ENDBRANCH   9  11
ENDBRANCH   2   9
TORSDOF 6
