REMARK  4 active torsions:
REMARK  status: ('A' for Active; 'I' for Inactive)
REMARK    1  A    between atoms: C_2  and  S_1 
REMARK    2  A    between atoms: N_8  and  S_1 
REMARK    3  A    between atoms: S_5  and  C_11 
REMARK    4  A    between atoms: C_16  and  N_8 
ROOT
ATOM      1  S   UNL d   1       1.123  -0.253   0.035  0.00  0.00     0.253 S 
ATOM      2  O   UNL d   1       0.405  -0.453   1.275  0.00  0.00    -0.205 OA
ATOM      3  O   UNL d   1       2.566  -0.151   0.013  0.00  0.00    -0.205 OA
ENDROOT
BRANCH   1   4
ATOM      4  C   UNL d   1       0.503   1.312  -0.605  0.00  0.00     0.122 A 
ATOM      5  S   UNL d   1      -1.204   1.388  -0.725  0.00  0.00    -0.076 SA
ATOM      6  C   UNL d   1      -1.191   3.010  -1.280  0.00  0.00     0.017 A 
ATOM      7  C   UNL d   1      -2.311   3.803  -1.604  0.00  0.00     0.021 A 
ATOM      8  C   UNL d   1       0.111   3.503  -1.373  0.00  0.00    -0.009 A 
ATOM      9  C   UNL d   1      -2.114   5.127  -2.006  0.00  0.00     0.025 A 
ATOM     10  C   UNL d   1      -0.832   5.646  -2.085  0.00  0.00     0.035 A 
ATOM     11  C   UNL d   1       0.278   4.854  -1.781  0.00  0.00     0.037 A 
ATOM     12 CL   UNL d   1      -0.600   7.285  -2.557  0.00  0.00    -0.084 Cl
ATOM     13  C   UNL d   1       1.100   2.498  -1.018  0.00  0.00    -0.021 A 
ATOM     14  C   UNL d   1       2.570   2.773  -1.067  0.00  0.00     0.051 C 
ENDBRANCH   1   4
BRANCH   1  15
ATOM     15  N   UNL d   1       0.641  -1.503  -1.008  0.00  0.00    -0.181 NA
ATOM     16  H   UNL d   1      -0.358  -1.682  -0.906  0.00  0.00     0.146 HD
BRANCH  15  17
ATOM     17  C   UNL d   1       1.133  -1.457  -2.343  0.00  0.00     0.022 A 
ATOM     18  C   UNL d   1       2.392  -1.988  -2.635  0.00  0.00     0.026 A 
ATOM     19  C   UNL d   1       2.904  -1.898  -3.932  0.00  0.00     0.025 A 
ATOM     20  C   UNL d   1       2.165  -1.236  -4.918  0.00  0.00     0.059 A 
ATOM     21  C   UNL d   1       0.902  -0.709  -4.632  0.00  0.00     0.025 A 
ATOM     22  C   UNL d   1       0.385  -0.830  -3.340  0.00  0.00     0.026 A 
BRANCH  20  23
ATOM     23  S   UNL d   1       2.842  -1.059  -6.551  0.00  0.00     0.171 S 
ATOM     24  O   UNL d   1       3.174  -2.391  -7.015  0.00  0.00    -0.223 OA
ATOM     25  O   UNL d   1       1.947  -0.203  -7.308  0.00  0.00    -0.223 OA
ATOM     26  C   UNL d   1       4.347  -0.154  -6.300  0.00  0.00     0.167 C 
ENDBRANCH  20  23
ENDBRANCH  15  17
ENDBRANCH   1  15
TORSDOF 4
