REMARK  6 active torsions:
REMARK  status: ('A' for Active; 'I' for Inactive)
REMARK    1  A    between atoms: C_7  and  C_1 
REMARK    2  A    between atoms: C_9  and  C_6 
REMARK    3  A    between atoms: C_10  and  C_9 
REMARK       I    between atoms: N_15  and  C_10 
REMARK    4  A    between atoms: N_11  and  N_15 
REMARK    5  A    between atoms: C_22  and  C_19 
REMARK    6  A    between atoms: O_24  and  C_23 
ROOT
ATOM      1  C   UNL d   1       2.830  -3.295  -0.276  0.00  0.00     0.191 C 
ENDROOT
BRANCH   1   2
ATOM      2  C   UNL d   1       4.236  -3.504  -0.665  0.00  0.00     0.157 A 
ATOM      3  N   UNL d   1       5.333  -2.921  -0.233  0.00  0.00    -0.321 N 
ATOM      4  C   UNL d   1       6.324  -3.753  -0.731  0.00  0.00     0.156 A 
ATOM      5  HN  UNL d   1       5.429  -2.073   0.326  1.00  0.00     0.169 HD
ATOM      6  N   UNL d   1       5.859  -4.727  -1.530  0.00  0.00    -0.241 N 
ATOM      7  O   UNL d   1       4.479  -4.566  -1.484  0.00  0.00    -0.222 OA
ATOM      8  HN  UNL d   1       6.394  -5.423  -2.050  1.00  0.00     0.196 HD
BRANCH   4   9
ATOM      9  C   UNL d   1       7.707  -3.636  -0.294  0.00  0.00     0.094 A 
ATOM     10  N   UNL d   1       8.392  -4.787  -0.048  0.00  0.00    -0.360 N 
ATOM     11  C   UNL d   1       9.612  -4.636   0.514  0.00  0.00     0.105 A 
ATOM     12  HN  UNL d   1       8.009  -5.705  -0.274  1.00  0.00     0.165 HD
ATOM     13  C   UNL d   1      10.144  -3.393   0.811  0.00  0.00     0.104 A 
ATOM     14  N   UNL d   1       9.486  -2.241   0.547  0.00  0.00    -0.372 N 
ATOM     15  C   UNL d   1       8.254  -2.393  -0.004  0.00  0.00     0.121 A 
ATOM     16  HN  UNL d   1       9.886  -1.325   0.747  1.00  0.00     0.164 HD
ENDBRANCH   4   9
ENDBRANCH   1   2
BRANCH   1  17
ATOM     17  C   UNL d   1       2.414  -1.860  -0.024  0.00  0.00     0.243 C 
ATOM     18  N   UNL d   1       3.397  -0.887  -0.051  0.00  0.00    -0.270 N 
ATOM     19  H   UNL d   1       4.374  -1.178  -0.022  0.00  0.00     0.190 HD
ATOM     20  O   UNL d   1       1.224  -1.651   0.204  0.00  0.00    -0.271 OA
BRANCH  18  21
ATOM     21  N   UNL d   1       3.244   0.479  -0.007  0.00  0.00    -0.308 N 
ATOM     22  C   UNL d   1       2.074   1.004  -0.194  0.00  0.00     0.118 C 
ATOM     23  HN  UNL d   1       4.050   1.078   0.172  1.00  0.00     0.186 HD
BRANCH  22  24
ATOM     24  C   UNL d   1       1.864   2.463  -0.274  0.00  0.00    -0.017 A 
ATOM     25  C   UNL d   1       0.650   2.911  -0.805  0.00  0.00     0.049 A 
ATOM     26  C   UNL d   1       0.428   4.273  -1.004  0.00  0.00     0.069 A 
ATOM     27  C   UNL d   1       1.427   5.189  -0.669  0.00  0.00     0.037 A 
ATOM     28  C   UNL d   1       2.635   4.741  -0.119  0.00  0.00     0.004 A 
ATOM     29  C   UNL d   1       2.857   3.376   0.078  0.00  0.00     0.013 A 
BRANCH  26  30
ATOM     30  O   UNL d   1      -0.764   4.578  -1.598  0.00  0.00    -0.356 OA
ATOM     31  C   UNL d   1      -1.300   5.861  -1.300  0.00  0.00     0.210 C 
ENDBRANCH  26  30
ENDBRANCH  22  24
ENDBRANCH  18  21
ENDBRANCH   1  17
TORSDOF 6
