REMARK  0 active torsions:
REMARK  status: ('A' for Active; 'I' for Inactive)
ROOT
ATOM      1  S   UNL d   1      -1.761  -1.459  -0.004  0.00  0.00     0.198 S 
ATOM      2  C   UNL d   1      -0.174  -0.730  -0.003  0.00  0.00     0.074 A 
ATOM      3  C   UNL d   1      -2.556   0.084   0.001  0.00  0.00     0.122 A 
ATOM      4  C   UNL d   1      -0.288   0.661  -0.001  0.00  0.00    -0.006 A 
ATOM      5  C   UNL d   1      -1.688   1.112   0.002  0.00  0.00    -0.039 A 
ATOM      6  O   UNL d   1      -1.946  -2.125   1.269  0.00  0.00    -0.218 OA
ATOM      7  O   UNL d   1      -1.949  -2.120  -1.277  0.00  0.00    -0.218 OA
ATOM      8  C   UNL d   1       1.031  -1.411  -0.005  0.00  0.00     0.026 A 
ATOM      9  C   UNL d   1       0.874   1.421  -0.001  0.00  0.00     0.037 A 
ATOM     10  C   UNL d   1       2.111   0.761  -0.004  0.00  0.00     0.035 A 
ATOM     11  C   UNL d   1       2.193  -0.642  -0.005  0.00  0.00     0.025 A 
ATOM     12 CL   UNL d   1       3.563   1.687  -0.004  0.00  0.00    -0.084 Cl
ATOM     13  C   UNL d   1      -2.065   2.553   0.007  0.00  0.00     0.050 C 
ENDROOT
TORSDOF 0
