REMARK  3 active torsions:
REMARK  status: ('A' for Active; 'I' for Inactive)
REMARK    1  A    between atoms: N_2  and  S_1 
REMARK    2  A    between atoms: C_4  and  S_1 
REMARK       I    between atoms: C_3  and  N_2 
REMARK       I    between atoms: N_5  and  C_3 
REMARK    3  A    between atoms: C_8  and  N_5 
ROOT
ATOM      1  N   UNL d   1       0.544   1.439   0.416  0.00  0.00    -0.232 N 
ATOM      2  C   UNL d   1       0.701   2.071   1.644  0.00  0.00     0.330 C 
ATOM      3  N   UNL d   1       0.958   1.277   2.712  0.00  0.00    -0.337 N 
ATOM      4  O   UNL d   1       0.618   3.286   1.696  0.00  0.00    -0.246 OA
ATOM      5  H   UNL d   1       0.204   2.038  -0.330  0.00  0.00     0.183 HD
ATOM      6  H   UNL d   1       0.809   0.279   2.579  0.00  0.00     0.164 HD
ENDROOT
BRANCH   1   7
ATOM      7  S   UNL d   1       0.521  -0.172   0.042  0.00  0.00     0.266 S 
ATOM      8  O   UNL d   1      -0.326  -0.308  -1.124  0.00  0.00    -0.200 OA
ATOM      9  O   UNL d   1       0.271  -0.913   1.260  0.00  0.00    -0.200 OA
BRANCH   7  10
ATOM     10  C   UNL d   1       2.170  -0.585  -0.475  0.00  0.00     0.080 A 
ATOM     11  C   UNL d   1       3.168   0.376  -0.633  0.00  0.00     0.026 A 
ATOM     12  C   UNL d   1       4.448  -0.023  -1.038  0.00  0.00     0.008 A 
ATOM     13  C   UNL d   1       4.736  -1.374  -1.285  0.00  0.00    -0.062 A 
ATOM     14  C   UNL d   1       3.723  -2.327  -1.129  0.00  0.00     0.008 A 
ATOM     15  C   UNL d   1       6.119  -1.786  -1.704  0.00  0.00     0.048 C 
ATOM     16  C   UNL d   1       2.445  -1.936  -0.725  0.00  0.00     0.026 A 
ENDBRANCH   7  10
ENDBRANCH   1   7
BRANCH   3  17
ATOM     17  C   UNL d   1       1.276   1.711   4.053  0.00  0.00     0.094 C 
ATOM     18  C   UNL d   1       0.140   2.314   4.909  0.00  0.00     0.064 C 
ATOM     19  C   UNL d   1       0.971   2.815   6.062  0.00  0.00    -0.050 A 
ATOM     20  C   UNL d   1       0.606   2.995   7.384  0.00  0.00     0.007 A 
ATOM     21  C   UNL d   1       2.296   3.033   5.646  0.00  0.00    -0.050 A 
ATOM     22  C   UNL d   1       1.599   3.364   8.298  0.00  0.00     0.001 A 
ATOM     23  C   UNL d   1       2.924   3.574   7.878  0.00  0.00     0.001 A 
ATOM     24  C   UNL d   1       3.278   3.425   6.536  0.00  0.00     0.007 A 
ATOM     25  C   UNL d   1       2.442   2.713   4.187  0.00  0.00     0.064 C 
ENDBRANCH   3  17
TORSDOF 3
