REMARK  0 active torsions:
REMARK  status: ('A' for Active; 'I' for Inactive)
ROOT
ATOM      1  C   UNL d   1      -1.906   1.252   0.085  0.00  0.00     0.043 A 
ATOM      2  C   UNL d   1      -1.824  -0.100  -0.221  0.00  0.00     0.058 A 
ATOM      3  C   UNL d   1      -0.677   2.064   0.169  0.00  0.00     0.195 A 
ATOM      4  N   UNL d   1      -2.934  -0.863  -0.412  0.00  0.00    -0.354 N 
ATOM      5  HN  UNL d   1      -2.852  -1.840  -0.694  1.00  0.00     0.166 HD
ATOM      6  C   UNL d   1      -0.517  -0.779  -0.284  0.00  0.00     0.004 A 
ATOM      7  C   UNL d   1       0.632   1.382   0.016  0.00  0.00     0.027 A 
ATOM      8  C   UNL d   1       0.668  -0.015  -0.159  0.00  0.00     0.001 A 
ATOM      9  C   UNL d   1      -3.154   1.822   0.325  0.00  0.00     0.031 A 
ATOM     10  C   UNL d   1      -4.146  -0.304  -0.221  0.00  0.00     0.043 A 
ATOM     11  C   UNL d   1      -4.301   1.033   0.202  0.00  0.00    -0.009 A 
ATOM     12  O   UNL d   1      -0.743   3.270   0.364  0.00  0.00    -0.287 OA
ATOM     13  C   UNL d   1       1.933  -0.654  -0.192  0.00  0.00    -0.024 A 
ATOM     14  C   UNL d   1      -0.411  -2.175  -0.414  0.00  0.00     0.014 A 
ATOM     15  C   UNL d   1       1.807   2.140   0.093  0.00  0.00     0.016 A 
ATOM     16  C   UNL d   1       3.043   1.505   0.029  0.00  0.00     0.002 A 
ATOM     17  C   UNL d   1       0.832  -2.805  -0.412  0.00  0.00     0.002 A 
ATOM     18  C   UNL d   1      -5.293  -1.060  -0.427  0.00  0.00     0.030 A 
ATOM     19  C   UNL d   1      -5.578   1.546   0.485  0.00  0.00     0.014 A 
ATOM     20  C   UNL d   1       1.996  -2.048  -0.306  0.00  0.00     0.012 A 
ATOM     21  C   UNL d   1       3.104   0.117  -0.098  0.00  0.00     0.012 A 
ATOM     22  C   UNL d   1      -6.568  -0.545  -0.171  0.00  0.00     0.002 A 
ATOM     23  C   UNL d   1      -6.708   0.753   0.309  0.00  0.00     0.001 A 
ENDROOT
TORSDOF 0
