REMARK  2 active torsions:
REMARK  status: ('A' for Active; 'I' for Inactive)
REMARK    1  A    between atoms: C_2  and  C_1 
REMARK       I    between atoms: N_3  and  C_2 
REMARK    2  A    between atoms: C_10  and  N_5 
ROOT
ATOM      1  N   UNL d   1      11.456   2.972  -0.493  0.00  0.00    -0.191 NA
ATOM      2  C   UNL d   1      10.444   2.398  -0.475  0.00  0.00     0.099 C 
ATOM      3  C   UNL d   1       6.731   0.305  -0.396  0.00  0.00     0.030 A 
ATOM      4  C   UNL d   1       7.160   0.967  -1.553  0.00  0.00     0.031 A 
ATOM      5  C   UNL d   1       7.573   0.348   0.729  0.00  0.00     0.031 A 
ATOM      6  C   UNL d   1       9.197   1.693  -0.448  0.00  0.00     0.044 A 
ATOM      7  C   UNL d   1       8.378   1.660  -1.579  0.00  0.00     0.025 A 
ATOM      8  C   UNL d   1       8.794   1.031   0.709  0.00  0.00     0.025 A 
ENDROOT
BRANCH   3   9
ATOM      9  N   UNL d   1       5.537  -0.407  -0.306  0.00  0.00    -0.378 N 
ATOM     10  C   UNL d   1       4.916  -0.950  -1.530  0.00  0.00     0.143 C 
ATOM     11  C   UNL d   1       3.909  -2.050  -1.142  0.00  0.00     0.146 C 
ATOM     12  N   UNL d   1       2.937  -1.634  -0.115  0.00  0.00    -0.345 N 
ATOM     13  C   UNL d   1       1.749  -2.375  -0.047  0.00  0.00     0.255 C 
ATOM     14  C   UNL d   1       3.495  -0.849   1.001  0.00  0.00     0.146 C 
ATOM     15  O   UNL d   1       1.435  -3.203  -0.899  0.00  0.00    -0.267 OA
ATOM     16  C   UNL d   1       4.532   0.207   0.583  0.00  0.00     0.143 C 
BRANCH  13  17
ATOM     17  C   UNL d   1       0.823  -2.193   1.099  0.00  0.00     0.054 A 
ATOM     18  C   UNL d   1      -0.524  -1.850   0.899  0.00  0.00     0.052 A 
ATOM     19  C   UNL d   1      -1.380  -1.711   1.996  0.00  0.00     0.067 A 
ATOM     20 CL   UNL d   1      -1.195  -1.547  -0.664  0.00  0.00    -0.083 Cl
ATOM     21  C   UNL d   1      -0.888  -1.905   3.281  0.00  0.00     0.118 A 
ATOM     22  C   UNL d   1       0.434  -2.273   3.496  0.00  0.00     0.043 A 
ATOM     23  F   UNL d   1      -1.703  -1.741   4.331  0.00  0.00    -0.206 F 
ATOM     24  C   UNL d   1       1.282  -2.450   2.403  0.00  0.00     0.022 A 
ENDBRANCH  13  17
ENDBRANCH   3   9
TORSDOF 2
