REMARK  6 active torsions:
REMARK  status: ('A' for Active; 'I' for Inactive)
REMARK    1  A    between atoms: O_5  and  C_1 
REMARK    2  A    between atoms: C_2  and  C_3 
REMARK    3  A    between atoms: N_11  and  C_2 
REMARK    4  A    between atoms: C_13  and  O_5 
REMARK    5  A    between atoms: O_12  and  N_6 
REMARK    6  A    between atoms: O_14  and  C_8 
ROOT
ATOM      1  C   UNL d   1       0.684  -4.953  -0.022  0.00  0.00     0.103 A 
ATOM      2  C   UNL d   1      -1.321  -3.564   0.120  0.00  0.00     0.006 A 
ATOM      3  C   UNL d   1       0.073  -3.695   0.046  0.00  0.00     0.054 A 
ATOM      4  C   UNL d   1      -0.118  -6.102   0.057  0.00  0.00     0.101 A 
ATOM      5  C   UNL d   1      -2.116  -4.712   0.139  0.00  0.00     0.018 A 
ATOM      6  C   UNL d   1      -1.512  -5.971   0.115  0.00  0.00     0.040 A 
ENDROOT
BRANCH   2   7
ATOM      7  C   UNL d   1      -1.928  -2.191   0.150  0.00  0.00     0.108 C 
ATOM      8  N   UNL d   1      -1.133  -1.157   0.089  0.00  0.00    -0.258 N 
ATOM      9  HN  UNL d   1      -0.119  -1.214   0.000  1.00  0.00     0.195 HD
BRANCH   8  10
ATOM     10  O   UNL d   1      -1.857   0.045   0.163  0.00  0.00    -0.289 OA
ATOM     11  H   UNL d   1      -1.150   0.710   0.065  0.00  0.00     0.244 HD
ENDBRANCH   8  10
BRANCH   7  12
ATOM     12  N   UNL d   1      -3.291  -2.042   0.246  0.00  0.00    -0.287 NA
ATOM     13  H   UNL d   1      -3.746  -2.630   0.932  0.00  0.00     0.125 HD
ATOM     14  H   UNL d   1      -3.502  -1.057   0.402  0.00  0.00     0.125 HD
ENDBRANCH   7  12
ENDBRANCH   2   7
BRANCH   1  15
ATOM     15  O   UNL d   1       2.041  -5.105  -0.165  0.00  0.00    -0.343 OA
BRANCH  15  16
ATOM     16  C   UNL d   1       2.755  -4.083  -0.858  0.00  0.00     0.129 C 
ATOM     17  C   UNL d   1       2.402  -4.000  -2.344  0.00  0.00     0.032 C 
ATOM     18  C   UNL d   1       3.656  -3.477  -3.039  0.00  0.00     0.002 C 
ATOM     19  C   UNL d   1       4.793  -3.604  -2.029  0.00  0.00     0.002 C 
ATOM     20  C   UNL d   1       4.237  -4.449  -0.895  0.00  0.00     0.032 C 
ENDBRANCH  15  16
ENDBRANCH   1  15
BRANCH   4  21
ATOM     21  O   UNL d   1       0.302  -7.408   0.013  0.00  0.00    -0.353 OA
ATOM     22  C   UNL d   1       1.545  -7.691   0.643  0.00  0.00     0.210 C 
ENDBRANCH   4  21
TORSDOF 6
