REMARK  4 active torsions:
REMARK  status: ('A' for Active; 'I' for Inactive)
REMARK    1  A    between atoms: N_2  and  S_1 
REMARK    2  A    between atoms: C_8  and  S_1 
REMARK       I    between atoms: N_5  and  C_4 
REMARK       I    between atoms: N_9  and  C_4 
REMARK    3  A    between atoms: C_10  and  N_5 
REMARK    4  A    between atoms: N_13  and  N_9 
ROOT
ATOM      1  N   UNL d   1       0.070  -0.703  -1.494  0.00  0.00    -0.255 N 
ATOM      2  HN  UNL d   1       0.173  -0.132  -0.655  1.00  0.00     0.181 HD
ATOM      3  C   UNL d   1       0.527  -0.256  -2.623  0.00  0.00     0.182 C 
ATOM      4  N   UNL d   1       1.159   0.978  -2.680  0.00  0.00    -0.229 NA
ATOM      5  N   UNL d   1       0.512  -0.900  -3.857  0.00  0.00    -0.299 N 
ATOM      6  H   UNL d   1       1.688   1.085  -3.538  0.00  0.00     0.136 HD
ATOM      7  H   UNL d   1       0.195  -1.875  -3.859  0.00  0.00     0.183 HD
ENDROOT
BRANCH   1   8
ATOM      8  S   UNL d   1      -0.655  -2.133  -1.380  0.00  0.00     0.265 S 
ATOM      9  O   UNL d   1       0.241  -3.163  -1.856  0.00  0.00    -0.200 OA
ATOM     10  O   UNL d   1      -1.987  -2.030  -1.954  0.00  0.00    -0.200 OA
BRANCH   8  11
ATOM     11  C   UNL d   1      -0.858  -2.362   0.377  0.00  0.00     0.079 A 
ATOM     12  C   UNL d   1      -2.026  -1.917   1.005  0.00  0.00     0.025 A 
ATOM     13  C   UNL d   1      -2.192  -2.121   2.376  0.00  0.00     0.002 A 
ATOM     14  C   UNL d   1      -1.199  -2.770   3.112  0.00  0.00     0.000 A 
ATOM     15  C   UNL d   1      -0.037  -3.220   2.482  0.00  0.00     0.002 A 
ATOM     16  C   UNL d   1       0.138  -3.019   1.108  0.00  0.00     0.025 A 
ENDBRANCH   8  11
ENDBRANCH   1   8
BRANCH   4  17
ATOM     17  C   UNL d   1       1.911   1.515  -1.599  0.00  0.00     0.016 A 
ATOM     18  C   UNL d   1       2.619   0.713  -0.690  0.00  0.00     0.047 A 
ATOM     19  C   UNL d   1       3.386   1.296   0.321  0.00  0.00     0.035 A 
ATOM     20 CL   UNL d   1       4.231   0.294   1.440  0.00  0.00    -0.084 Cl
ATOM     21  C   UNL d   1       3.483   2.680   0.430  0.00  0.00     0.024 A 
ATOM     22  C   UNL d   1       2.816   3.487  -0.489  0.00  0.00     0.003 A 
ATOM     23  C   UNL d   1       2.048   2.906  -1.503  0.00  0.00     0.024 A 
ENDBRANCH   4  17
BRANCH   5  24
ATOM     24  N   UNL d   1       0.317  -0.188  -5.071  0.00  0.00    -0.247 NA
ATOM     25  H   UNL d   1       0.493   0.814  -4.993  0.00  0.00     0.143 HD
ATOM     26  H   UNL d   1      -0.664  -0.254  -5.365  0.00  0.00     0.143 HD
ENDBRANCH   5  24
TORSDOF 4
