REMARK  13 active torsions:
REMARK  status: ('A' for Active; 'I' for Inactive)
REMARK    1  A    between atoms: C_8  and  C_1 
REMARK    2  A    between atoms: C_7  and  N_2 
REMARK    3  A    between atoms: C_10  and  C_7 
REMARK    4  A    between atoms: C_11  and  C_8 
REMARK    5  A    between atoms: O_9  and  C_10 
REMARK    6  A    between atoms: C_18  and  C_11 
REMARK    7  A    between atoms: C_12  and  C_13 
REMARK    8  A    between atoms: C_13  and  C_17 
REMARK    9  A    between atoms: C_14  and  C_19 
REMARK   10  A    between atoms: C_15  and  C_14 
REMARK   11  A    between atoms: C_16  and  C_15 
REMARK   12  A    between atoms: C_17  and  C_16 
REMARK   13  A    between atoms: C_19  and  C_18 
ROOT
ATOM      1  C   UNL d   1       1.249  -2.943  -1.298  0.00  0.00     0.076 C 
ENDROOT
BRANCH   1   2
ATOM      2  C   UNL d   1       1.577  -1.469  -1.253  0.00  0.00     0.075 C 
ATOM      3  N   UNL d   1       2.696  -0.926  -1.828  0.00  0.00    -0.367 N 
ATOM      4  C   UNL d   1       2.777   0.472  -1.489  0.00  0.00     0.143 C 
ATOM      5  C   UNL d   1       1.402   0.711  -0.855  0.00  0.00     0.141 C 
ATOM      6  N   UNL d   1       0.778  -0.626  -0.648  0.00  0.00    -0.378 N 
ATOM      7  HN  UNL d   1      -0.083  -0.838  -0.145  1.00  0.00     0.160 HD
BRANCH   3   8
ATOM      8  C   UNL d   1       3.626  -1.508  -2.780  0.00  0.00     0.150 C 
BRANCH   8   9
ATOM      9  C   UNL d   1       3.168  -1.313  -4.232  0.00  0.00     0.183 C 
BRANCH   9  10
ATOM     10  O   UNL d   1       3.269   0.056  -4.625  0.00  0.00    -0.399 OA
ATOM     11  H   UNL d   1       2.833   0.134  -5.492  0.00  0.00     0.209 HD
ENDBRANCH   9  10
ENDBRANCH   8   9
ENDBRANCH   3   8
ENDBRANCH   1   2
BRANCH   1  12
ATOM     12  C   UNL d   1       0.529  -3.410  -0.029  0.00  0.00     0.007 C 
BRANCH  12  13
ATOM     13  C   UNL d   1       0.224  -4.910  -0.015  0.00  0.00     0.000 C 
BRANCH  13  14
ATOM     14  C   UNL d   1       1.487  -5.768  -0.041  0.00  0.00     0.000 C 
BRANCH  14  15
ATOM     15  C   UNL d   1       1.165  -7.257   0.025  0.00  0.00     0.000 C 
BRANCH  15  16
ATOM     16  C   UNL d   1       2.450  -8.078  -0.066  0.00  0.00     0.000 C 
BRANCH  16  17
ATOM     17  C   UNL d   1       2.153  -9.574  -0.041  0.00  0.00     0.000 C 
BRANCH  17  18
ATOM     18  C   UNL d   1       3.440 -10.391  -0.136  0.00  0.00     0.000 C 
BRANCH  18  19
ATOM     19  C   UNL d   1       3.130 -11.886  -0.108  0.00  0.00    -0.000 C 
BRANCH  19  20
ATOM     20  C   UNL d   1       4.402 -12.724  -0.194  0.00  0.00    -0.005 C 
ATOM     21  C   UNL d   1       4.079 -14.207  -0.162  0.00  0.00     0.005 C 
ENDBRANCH  19  20
ENDBRANCH  18  19
ENDBRANCH  17  18
ENDBRANCH  16  17
ENDBRANCH  15  16
ENDBRANCH  14  15
ENDBRANCH  13  14
ENDBRANCH  12  13
ENDBRANCH   1  12
TORSDOF 13
