REMARK  4 active torsions:
REMARK  status: ('A' for Active; 'I' for Inactive)
REMARK    1  A    between atoms: C_4  and  C_1 
REMARK    2  A    between atoms: N_7  and  C_4 
REMARK    3  A    between atoms: C_10  and  N_7 
REMARK    4  A    between atoms: C_14  and  C_9 
ROOT
ATOM      1  C   UNL d   1       3.486   0.112   0.058  0.00  0.00     0.118 C 
ATOM      2  S   UNL d   1       2.085   0.263  -0.861  0.00  0.00    -0.059 SA
ENDROOT
BRANCH   1   3
ATOM      3  C   UNL d   1       3.878   1.242   0.909  0.00  0.00     0.050 C 
ATOM      4  S   UNL d   1       4.335   0.873   2.529  0.00  0.00    -0.086 SA
ATOM      5  C   UNL d   1       4.295   2.513   3.023  0.00  0.00     0.016 A 
ATOM      6  C   UNL d   1       4.457   3.013   4.333  0.00  0.00     0.019 A 
ATOM      7  C   UNL d   1       4.069   3.359   1.940  0.00  0.00    -0.012 A 
ATOM      8  C   UNL d   1       4.364   4.389   4.554  0.00  0.00     0.001 A 
ATOM      9  C   UNL d   1       4.148   5.255   3.494  0.00  0.00     0.001 A 
ATOM     10  C   UNL d   1       4.013   4.757   2.196  0.00  0.00     0.013 A 
ATOM     11  C   UNL d   1       3.896   2.621   0.697  0.00  0.00    -0.030 C 
ATOM     12  C   UNL d   1       3.687   3.340  -0.604  0.00  0.00     0.050 C 
ENDBRANCH   1   3
BRANCH   1  13
ATOM     13  N   UNL d   1       4.328  -0.998   0.073  0.00  0.00    -0.346 N 
ATOM     14  H   UNL d   1       5.279  -0.830   0.371  0.00  0.00     0.167 HD
BRANCH  13  15
ATOM     15  C   UNL d   1       3.990  -2.362  -0.121  0.00  0.00     0.033 A 
ATOM     16  C   UNL d   1       5.000  -3.246  -0.512  0.00  0.00     0.030 A 
ATOM     17  C   UNL d   1       4.748  -4.624  -0.603  0.00  0.00     0.010 A 
ATOM     18  C   UNL d   1       3.501  -5.156  -0.253  0.00  0.00    -0.055 A 
ATOM     19  C   UNL d   1       2.490  -4.262   0.125  0.00  0.00     0.010 A 
ATOM     20  C   UNL d   1       2.732  -2.883   0.184  0.00  0.00     0.030 A 
BRANCH  18  21
ATOM     21  C   UNL d   1       3.245  -6.654  -0.202  0.00  0.00     0.010 C 
ATOM     22  C   UNL d   1       3.354  -7.322  -1.574  0.00  0.00     0.015 C 
ATOM     23  C   UNL d   1       4.179  -7.337   0.804  0.00  0.00     0.015 C 
ENDBRANCH  18  21
ENDBRANCH  13  15
ENDBRANCH   1  13
TORSDOF 4
