REMARK  8 active torsions:
REMARK  status: ('A' for Active; 'I' for Inactive)
REMARK    1  A    between atoms: C_2  and  C_1 
REMARK    2  A    between atoms: C_3  and  C_1 
REMARK    3  A    between atoms: N_4  and  C_1 
REMARK    4  A    between atoms: O_11  and  C_2 
REMARK    5  A    between atoms: O_10  and  C_3 
REMARK    6  A    between atoms: C_5  and  N_4 
REMARK    7  A    between atoms: C_17  and  O_10 
REMARK    8  A    between atoms: C_16  and  O_11 
ROOT
ATOM      1  C   UNL d   1       1.021  -0.008  -0.027  0.00  0.00     0.283 C 
ENDROOT
BRANCH   1   2
ATOM      2  C   UNL d   1       0.605  -1.235   0.778  0.00  0.00     0.291 C 
ATOM      3  O   UNL d   1       1.224  -1.697   1.728  0.00  0.00    -0.262 OA
BRANCH   2   4
ATOM      4  O   UNL d   1      -0.563  -1.743   0.284  0.00  0.00    -0.320 OA
BRANCH   4   5
ATOM      5  C   UNL d   1      -0.988  -2.994   0.842  0.00  0.00     0.174 C 
ATOM      6  C   UNL d   1      -0.426  -4.113  -0.012  0.00  0.00     0.034 C 
ENDBRANCH   4   5
ENDBRANCH   2   4
ENDBRANCH   1   2
BRANCH   1   7
ATOM      7  C   UNL d   1       0.571   1.230   0.739  0.00  0.00     0.291 C 
ATOM      8  O   UNL d   1       1.315   2.000   1.339  0.00  0.00    -0.262 OA
BRANCH   7   9
ATOM      9  O   UNL d   1      -0.791   1.333   0.707  0.00  0.00    -0.320 OA
BRANCH   9  10
ATOM     10  C   UNL d   1      -1.358   2.348   1.547  0.00  0.00     0.174 C 
ATOM     11  C   UNL d   1      -1.502   1.805   2.957  0.00  0.00     0.034 C 
ENDBRANCH   9  10
ENDBRANCH   7   9
ENDBRANCH   1   7
BRANCH   1  12
ATOM     12  N   UNL d   1       2.493   0.028  -0.238  0.00  0.00    -0.368 N 
ATOM     13  H   UNL d   1       2.982   0.228   0.638  0.00  0.00     0.161 HD
BRANCH  12  14
ATOM     14  C   UNL d   1       3.153  -0.911  -1.027  0.00  0.00     0.030 A 
ATOM     15  C   UNL d   1       2.523  -1.702  -1.993  0.00  0.00     0.052 A 
ATOM     16  C   UNL d   1       3.269  -2.545  -2.824  0.00  0.00     0.036 A 
ATOM     17 CL   UNL d   1       2.461  -3.519  -3.993  0.00  0.00    -0.084 Cl
ATOM     18  C   UNL d   1       4.656  -2.595  -2.729  0.00  0.00     0.024 A 
ATOM     19  C   UNL d   1       5.303  -1.795  -1.794  0.00  0.00     0.004 A 
ATOM     20  C   UNL d   1       4.555  -0.957  -0.961  0.00  0.00     0.029 A 
ENDBRANCH  12  14
ENDBRANCH   1  12
TORSDOF 8
