REMARK  4 active torsions:
REMARK  status: ('A' for Active; 'I' for Inactive)
REMARK    1  A    between atoms: C_6  and  C_1 
REMARK    2  A    between atoms: C_9  and  C_2 
REMARK       I    between atoms: N_12  and  C_6 
REMARK    3  A    between atoms: C_7  and  N_13 
REMARK    4  A    between atoms: C_25  and  C_8 
ROOT
ATOM      1  C   UNL d   1       0.379  -2.784  -0.143  0.00  0.00     0.258 C 
ATOM      2  N   UNL d   1      -0.500  -3.858  -0.282  0.00  0.00    -0.346 N 
ATOM      3  N   UNL d   1      -2.675  -5.783  -0.235  0.00  0.00    -0.265 NA
ATOM      4  O   UNL d   1       1.058  -2.703   0.880  0.00  0.00    -0.267 OA
ATOM      5  C   UNL d   1      -1.181  -4.318  -1.486  0.00  0.00     0.141 C 
ATOM      6  C   UNL d   1      -0.551  -4.867   0.796  0.00  0.00     0.141 C 
ATOM      7  C   UNL d   1      -1.970  -5.433   1.041  0.00  0.00     0.117 C 
ATOM      8  C   UNL d   1      -2.656  -4.632  -1.154  0.00  0.00     0.117 C 
ENDROOT
BRANCH   1   9
ATOM      9  C   UNL d   1       0.565  -1.760  -1.183  0.00  0.00     0.092 A 
ATOM     10  C   UNL d   1      -0.266  -1.114  -2.170  0.00  0.00     0.086 A 
ATOM     11  N   UNL d   1       0.424  -0.160  -2.821  0.00  0.00    -0.259 N 
ATOM     12  O   UNL d   1       1.680  -0.143  -2.278  0.00  0.00    -0.241 OA
ATOM     13  HN  UNL d   1       0.078   0.435  -3.573  1.00  0.00     0.195 HD
ATOM     14  C   UNL d   1       1.764  -1.059  -1.292  0.00  0.00     0.090 A 
ATOM     15  C   UNL d   1       3.050  -1.104  -0.566  0.00  0.00     0.080 C 
BRANCH  10  16
ATOM     16  C   UNL d   1      -1.672  -1.306  -2.534  0.00  0.00     0.037 A 
ATOM     17  C   UNL d   1      -2.696  -1.177  -1.581  0.00  0.00     0.048 A 
ATOM     18 CL   UNL d   1      -2.402  -0.662   0.045  0.00  0.00    -0.083 Cl
ATOM     19  C   UNL d   1      -4.019  -1.516  -1.904  0.00  0.00     0.025 A 
ATOM     20  C   UNL d   1      -4.345  -1.959  -3.183  0.00  0.00     0.003 A 
ATOM     21  C   UNL d   1      -3.357  -2.029  -4.158  0.00  0.00     0.025 A 
ATOM     22  C   UNL d   1      -2.032  -1.700  -3.844  0.00  0.00     0.048 A 
ATOM     23 CL   UNL d   1      -0.877  -1.918  -5.121  0.00  0.00    -0.083 Cl
ENDBRANCH  10  16
ENDBRANCH   1   9
BRANCH   3  24
ATOM     24  C   UNL d   1      -3.967  -6.316  -0.012  0.00  0.00     0.097 A 
ATOM     25  C   UNL d   1      -4.831  -6.917  -0.990  0.00  0.00     0.048 A 
ATOM     26  C   UNL d   1      -4.802  -7.179  -2.440  0.00  0.00    -0.003 A 
ATOM     27  C   UNL d   1      -6.037  -7.402  -0.474  0.00  0.00     0.089 A 
ATOM     28  C   UNL d   1      -5.944  -7.846  -2.858  0.00  0.00     0.065 A 
ATOM     29  S   UNL d   1      -7.064  -8.116  -1.618  0.00  0.00    -0.082 SA
ATOM     30  N   UNL d   1      -6.461  -7.372   0.797  0.00  0.00    -0.346 N 
ATOM     31  C   UNL d   1      -5.585  -6.824   1.618  0.00  0.00     0.182 A 
ATOM     32  HN  UNL d   1      -7.366  -7.735   1.099  1.00  0.00     0.167 HD
ATOM     33  N   UNL d   1      -4.400  -6.316   1.283  0.00  0.00    -0.342 N 
ATOM     34  HN  UNL d   1      -3.804  -5.918   2.009  1.00  0.00     0.167 HD
BRANCH  26  35
ATOM     35  C   UNL d   1      -3.805  -6.851  -3.470  0.00  0.00    -0.024 A 
ATOM     36  C   UNL d   1      -2.437  -7.022  -3.251  0.00  0.00     0.012 A 
ATOM     37  C   UNL d   1      -1.506  -6.615  -4.216  0.00  0.00     0.001 A 
ATOM     38  C   UNL d   1      -1.933  -6.086  -5.432  0.00  0.00     0.000 A 
ATOM     39  C   UNL d   1      -3.293  -5.971  -5.694  0.00  0.00     0.001 A 
ATOM     40  C   UNL d   1      -4.221  -6.337  -4.716  0.00  0.00     0.012 A 
ENDBRANCH  26  35
ENDBRANCH   3  24
TORSDOF 4
