REMARK  9 active torsions:
REMARK  status: ('A' for Active; 'I' for Inactive)
REMARK    1  A    between atoms: N_11  and  C_1 
REMARK    2  A    between atoms: C_5  and  C_2 
REMARK    3  A    between atoms: C_8  and  O_13 
REMARK    4  A    between atoms: C_10  and  O_22 
REMARK       I    between atoms: N_12  and  C_10 
REMARK    5  A    between atoms: C_30  and  N_11 
REMARK    6  A    between atoms: C_21  and  N_12 
REMARK    7  A    between atoms: O_13  and  C_23 
REMARK    8  A    between atoms: O_22  and  C_29 
REMARK    9  A    between atoms: C_29  and  C_30 
ROOT
ATOM      1  C   UNL d   1      -2.235  -4.143  -0.038  0.00  0.00     0.149 C 
ENDROOT
BRANCH   1   2
ATOM      2  C   UNL d   1      -3.666  -3.602   0.088  0.00  0.00     0.200 C 
BRANCH   2   3
ATOM      3  O   UNL d   1      -4.532  -4.742  -0.013  0.00  0.00    -0.302 OA
BRANCH   3   4
ATOM      4  C   UNL d   1      -5.382  -4.994   1.013  0.00  0.00     0.365 C 
ATOM      5  N   UNL d   1      -5.992  -6.214   0.915  0.00  0.00    -0.303 N 
ATOM      6  H   UNL d   1      -6.838  -6.294   1.477  0.00  0.00     0.171 HD
ATOM      7  O   UNL d   1      -5.641  -4.205   1.914  0.00  0.00    -0.238 OA
BRANCH   5   8
ATOM      8  C   UNL d   1      -5.473  -7.405   0.368  0.00  0.00     0.037 A 
ATOM      9  C   UNL d   1      -4.115  -7.576   0.101  0.00  0.00     0.032 A 
ATOM     10  C   UNL d   1      -3.624  -8.820  -0.292  0.00  0.00     0.039 A 
ATOM     11  C   UNL d   1      -4.472  -9.919  -0.425  0.00  0.00     0.078 A 
ATOM     12  C   UNL d   1      -5.838  -9.739  -0.226  0.00  0.00     0.039 A 
ATOM     13  C   UNL d   1      -6.334  -8.496   0.194  0.00  0.00     0.032 A 
BRANCH  11  14
ATOM     14  O   UNL d   1      -3.824 -11.072  -0.734  0.00  0.00    -0.255 OA
BRANCH  14  15
ATOM     15  C   UNL d   1      -4.477 -12.309  -0.520  0.00  0.00     0.530 C 
ATOM     16  F   UNL d   1      -5.304 -12.296   0.545  0.00  0.00    -0.144 F 
ATOM     17  F   UNL d   1      -5.173 -12.661  -1.623  0.00  0.00    -0.144 F 
ATOM     18  F   UNL d   1      -3.535 -13.256  -0.297  0.00  0.00    -0.144 F 
ENDBRANCH  14  15
ENDBRANCH  11  14
ENDBRANCH   5   8
ENDBRANCH   3   4
ENDBRANCH   2   3
ENDBRANCH   1   2
BRANCH   1  19
ATOM     19  N   UNL d   1      -1.216  -3.120   0.184  0.00  0.00    -0.382 N 
ATOM     20  C   UNL d   1      -0.955  -2.881   1.616  0.00  0.00     0.150 C 
BRANCH  19  21
ATOM     21  C   UNL d   1      -0.573  -2.362  -0.807  0.00  0.00     0.044 A 
ATOM     22  C   UNL d   1       0.469  -1.502  -0.397  0.00  0.00     0.064 A 
ATOM     23  C   UNL d   1       1.189  -0.723  -1.294  0.00  0.00     0.119 A 
ATOM     24  N   UNL d   1       0.985  -0.805  -2.622  0.00  0.00    -0.352 N 
ATOM     25  C   UNL d   1       0.004  -1.589  -3.068  0.00  0.00     0.045 A 
ATOM     26  HN  UNL d   1       1.568  -0.279  -3.272  1.00  0.00     0.166 HD
ATOM     27  C   UNL d   1      -0.853  -2.364  -2.231  0.00  0.00     0.017 A 
ATOM     28  C   UNL d   1      -0.154  -1.568  -4.446  0.00  0.00     0.030 A 
ATOM     29  C   UNL d   1      -1.912  -3.020  -2.931  0.00  0.00     0.016 A 
ATOM     30  C   UNL d   1      -2.076  -2.966  -4.321  0.00  0.00     0.001 A 
ATOM     31  C   UNL d   1      -1.181  -2.250  -5.087  0.00  0.00     0.002 A 
BRANCH  23  32
ATOM     32  C   UNL d   1       2.175   0.295  -0.742  0.00  0.00     0.432 C 
ATOM     33  F   UNL d   1       2.801   1.051  -1.687  0.00  0.00    -0.165 F 
ATOM     34  F   UNL d   1       1.567   1.187   0.098  0.00  0.00    -0.165 F 
ATOM     35  F   UNL d   1       3.168  -0.276  -0.001  0.00  0.00    -0.165 F 
ENDBRANCH  23  32
ENDBRANCH  19  21
ENDBRANCH   1  19
TORSDOF 9
