REMARK  6 active torsions:
REMARK  status: ('A' for Active; 'I' for Inactive)
REMARK    1  A    between atoms: C_2  and  C_1 
REMARK       I    between atoms: N_11  and  C_2 
REMARK    2  A    between atoms: O_14  and  C_5 
REMARK    3  A    between atoms: O_15  and  C_6 
REMARK    4  A    between atoms: C_7  and  C_18 
REMARK    5  A    between atoms: C_17  and  N_11 
REMARK    6  A    between atoms: C_18  and  C_17 
ROOT
ATOM      1  C   UNL d   1      -2.624   3.668  -0.089  0.00  0.00     0.127 C 
ENDROOT
BRANCH   1   2
ATOM      2  N   UNL d   1      -1.984   2.362  -0.080  0.00  0.00    -0.357 N 
ATOM      3  C   UNL d   1      -2.067   1.506  -1.154  0.00  0.00     0.253 C 
ATOM      4  O   UNL d   1      -2.704   1.789  -2.166  0.00  0.00    -0.268 OA
ATOM      5  H   UNL d   1      -1.423   2.106   0.724  0.00  0.00     0.162 HD
BRANCH   3   6
ATOM      6  C   UNL d   1      -1.317   0.216  -1.100  0.00  0.00     0.053 A 
ATOM      7  C   UNL d   1      -0.932  -0.470   0.060  0.00  0.00     0.049 A 
ATOM      8 CL   UNL d   1      -1.292   0.065   1.665  0.00  0.00    -0.083 Cl
ATOM      9  C   UNL d   1      -0.238  -1.687  -0.042  0.00  0.00     0.025 A 
ATOM     10  C   UNL d   1       0.073  -2.228  -1.290  0.00  0.00     0.002 A 
ATOM     11  C   UNL d   1      -0.310  -1.559  -2.447  0.00  0.00     0.001 A 
ATOM     12  C   UNL d   1      -1.001  -0.350  -2.351  0.00  0.00     0.019 A 
ENDBRANCH   3   6
ENDBRANCH   1   2
BRANCH   1  13
ATOM     13  C   UNL d   1      -4.155   3.587  -0.065  0.00  0.00     0.060 C 
BRANCH  13  14
ATOM     14  C   UNL d   1      -4.804   4.951  -0.113  0.00  0.00    -0.036 A 
ATOM     15  C   UNL d   1      -5.157   5.689   1.021  0.00  0.00     0.020 A 
ATOM     16  C   UNL d   1      -5.763   6.947   0.893  0.00  0.00     0.059 A 
ATOM     17 BR   UNL d   1      -4.843   5.055   2.785  0.00  0.00    -0.050 Br
ATOM     18  C   UNL d   1      -6.026   7.509  -0.365  0.00  0.00     0.102 A 
ATOM     19  C   UNL d   1      -5.665   6.787  -1.512  0.00  0.00     0.102 A 
ATOM     20  C   UNL d   1      -5.061   5.525  -1.369  0.00  0.00     0.048 A 
BRANCH  18  21
ATOM     21  O   UNL d   1      -6.614   8.736  -0.524  0.00  0.00    -0.353 OA
ATOM     22  C   UNL d   1      -6.985   9.467   0.637  0.00  0.00     0.210 C 
ENDBRANCH  18  21
BRANCH  19  23
ATOM     23  O   UNL d   1      -5.819   7.133  -2.830  0.00  0.00    -0.353 OA
ATOM     24  C   UNL d   1      -6.444   8.365  -3.155  0.00  0.00     0.210 C 
ENDBRANCH  19  23
ENDBRANCH  13  14
ENDBRANCH   1  13
TORSDOF 6
