REMARK  5 active torsions:
REMARK  status: ('A' for Active; 'I' for Inactive)
REMARK    1  A    between atoms: O_5  and  C_1 
REMARK    2  A    between atoms: C_3  and  C_2 
REMARK       I    between atoms: N_4  and  C_3 
REMARK    3  A    between atoms: N_8  and  N_4 
REMARK    4  A    between atoms: C_13  and  O_5 
REMARK    5  A    between atoms: C_11  and  N_8 
ROOT
ATOM      1  C   UNL d   1      -0.575   0.996   0.478  0.00  0.00     0.164 A 
ATOM      2  C   UNL d   1       0.733   1.459   0.386  0.00  0.00     0.084 A 
ATOM      3  N   UNL d   1      -0.915  -0.297   0.198  0.00  0.00    -0.346 N 
ATOM      4  HN  UNL d   1      -1.892  -0.590   0.202  1.00  0.00     0.167 HD
ATOM      5  C   UNL d   1       1.725   0.498   0.107  0.00  0.00     0.023 A 
ATOM      6  C   UNL d   1       0.064  -1.179  -0.084  0.00  0.00     0.090 A 
ATOM      7  C   UNL d   1       1.395  -0.836  -0.114  0.00  0.00     0.018 A 
ENDROOT
BRANCH   2   8
ATOM      8  C   UNL d   1       1.216   2.856   0.544  0.00  0.00     0.270 C 
ATOM      9  N   UNL d   1       0.432   3.817   1.175  0.00  0.00    -0.282 N 
ATOM     10  H   UNL d   1      -0.368   3.533   1.735  0.00  0.00     0.184 HD
ATOM     11  O   UNL d   1       2.358   3.137   0.164  0.00  0.00    -0.266 OA
BRANCH   9  12
ATOM     12  N   UNL d   1       1.211   4.871   1.729  0.00  0.00    -0.203 NA
ATOM     13  H   UNL d   1       2.168   4.835   1.346  0.00  0.00     0.153 HD
BRANCH  12  14
ATOM     14  C   UNL d   1       0.701   6.190   1.640  0.00  0.00     0.029 A 
ATOM     15  C   UNL d   1      -0.648   6.495   1.463  0.00  0.00     0.048 A 
ATOM     16  C   UNL d   1      -1.086   7.824   1.530  0.00  0.00     0.035 A 
ATOM     17 CL   UNL d   1      -2.756   8.181   1.309  0.00  0.00    -0.084 Cl
ATOM     18  C   UNL d   1      -0.195   8.862   1.799  0.00  0.00     0.024 A 
ATOM     19  C   UNL d   1       1.152   8.576   1.992  0.00  0.00     0.003 A 
ATOM     20  C   UNL d   1       1.589   7.250   1.920  0.00  0.00     0.025 A 
ENDBRANCH  12  14
ENDBRANCH   9  12
ENDBRANCH   2   8
BRANCH   1  21
ATOM     21  O   UNL d   1      -1.597   1.846   0.885  0.00  0.00    -0.293 OA
BRANCH  21  22
ATOM     22  C   UNL d   1      -2.739   1.228   1.369  0.00  0.00     0.077 A 
ATOM     23  C   UNL d   1      -2.690   0.275   2.397  0.00  0.00     0.037 A 
ATOM     24  C   UNL d   1      -3.853  -0.378   2.805  0.00  0.00     0.003 A 
ATOM     25  C   UNL d   1      -5.075  -0.051   2.221  0.00  0.00     0.000 A 
ATOM     26  C   UNL d   1      -5.135   0.938   1.235  0.00  0.00     0.003 A 
ATOM     27  C   UNL d   1      -3.967   1.582   0.812  0.00  0.00     0.037 A 
ENDBRANCH  21  22
ENDBRANCH   1  21
TORSDOF 5
