REMARK  5 active torsions:
REMARK  status: ('A' for Active; 'I' for Inactive)
REMARK    1  A    between atoms: C_2  and  C_1 
REMARK    2  A    between atoms: C_3  and  C_1 
REMARK    3  A    between atoms: C_4  and  C_2 
REMARK    4  A    between atoms: O_9  and  C_3 
REMARK    5  A    between atoms: O_10  and  C_4 
ROOT
ATOM      1  C   UNL d   1       0.928  -0.050   0.143  0.00  0.00     0.335 C 
ATOM      2  F   UNL d   1       0.637   0.178  -1.172  0.00  0.00    -0.194 F 
ATOM      3  F   UNL d   1       2.289  -0.033   0.242  0.00  0.00    -0.194 F 
ENDROOT
BRANCH   1   4
ATOM      4  C   UNL d   1       0.392  -1.401   0.533  0.00  0.00     0.200 C 
BRANCH   4   5
ATOM      5  C   UNL d   1       1.007  -2.455  -0.327  0.00  0.00     0.145 C 
ATOM      6  O   UNL d   1       1.690  -3.364   0.123  0.00  0.00    -0.650 OA
BRANCH   5   7
ATOM      7  O   UNL d   1       0.700  -2.371  -1.638  0.00  0.00    -0.776 OA
ATOM      8  H   UNL d   1       0.190  -1.578  -1.909  0.00  0.00     0.167 HD
ENDBRANCH   5   7
ENDBRANCH   4   5
ENDBRANCH   1   4
BRANCH   1   9
ATOM      9  C   UNL d   1       0.328   1.024   1.044  0.00  0.00     0.216 C 
ATOM     10  O   UNL d   1      -0.869   1.246   1.159  0.00  0.00    -0.646 OA
BRANCH   9  11
ATOM     11  O   UNL d   1       1.267   1.724   1.737  0.00  0.00    -0.772 OA
ATOM     12  H   UNL d   1       2.182   1.445   1.508  0.00  0.00     0.167 HD
ENDBRANCH   9  11
ENDBRANCH   1   9
TORSDOF 5
