REMARK  4 active torsions:
REMARK  status: ('A' for Active; 'I' for Inactive)
REMARK       I    between atoms: C_4  and  N_1 
REMARK    1  A    between atoms: C_8  and  C_4 
REMARK    2  A    between atoms: C_12  and  C_5 
REMARK    3  A    between atoms: C_9  and  C_17 
REMARK    4  A    between atoms: C_20  and  C_10 
ROOT
ATOM      1  C   UNL d   1      -0.748   2.511   0.008  0.00  0.00    -0.008 A 
ATOM      2  C   UNL d   1      -1.497   5.220   0.016  0.00  0.00     0.018 A 
ATOM      3  C   UNL d   1      -1.530   3.034   1.049  0.00  0.00     0.015 A 
ATOM      4  C   UNL d   1      -0.353   3.364  -1.033  0.00  0.00     0.015 A 
ATOM      5  C   UNL d   1      -0.728   4.709  -1.030  0.00  0.00     0.021 A 
ATOM      6  C   UNL d   1      -1.900   4.385   1.057  0.00  0.00     0.021 A 
ENDROOT
BRANCH   1   7
ATOM      7  C   UNL d   1      -0.345   1.106   0.009  0.00  0.00     0.060 A 
ATOM      8  N   UNL d   1      -1.129   0.152   0.531  0.00  0.00    -0.291 N 
ATOM      9  N   UNL d   1      -0.444  -1.013   0.368  0.00  0.00    -0.230 N 
ATOM     10  HN  UNL d   1      -2.046   0.273   0.961  1.00  0.00     0.187 HD
ATOM     11  C   UNL d   1      -0.969  -2.263   0.792  0.00  0.00     0.283 C 
ATOM     12  C   UNL d   1       0.775  -0.793  -0.240  0.00  0.00     0.122 A 
ATOM     13  O   UNL d   1      -0.127  -3.152   0.934  0.00  0.00    -0.265 OA
ATOM     14  C   UNL d   1       0.849   0.549  -0.511  0.00  0.00     0.051 A 
BRANCH  11  15
ATOM     15  C   UNL d   1      -2.405  -2.490   0.975  0.00  0.00     0.074 A 
ATOM     16  S   UNL d   1      -2.930  -4.021   1.563  0.00  0.00    -0.097 SA
ATOM     17  C   UNL d   1      -4.578  -3.596   1.421  0.00  0.00     0.050 A 
ATOM     18  C   UNL d   1      -4.742  -2.320   0.940  0.00  0.00     0.009 A 
ATOM     19  C   UNL d   1      -3.492  -1.685   0.680  0.00  0.00     0.025 A 
ENDBRANCH  11  15
ENDBRANCH   1   7
BRANCH   2  20
ATOM     20  C   UNL d   1      -1.853   6.603   0.015  0.00  0.00    -0.061 C 
ATOM     21  C   UNL d   1      -2.112   7.778  -0.010  0.00  0.00    -0.061 C 
BRANCH  21  22
ATOM     22  C   UNL d   1      -2.376   9.182  -0.051  0.00  0.00     0.018 A 
ATOM     23  C   UNL d   1      -3.035   9.806   1.010  0.00  0.00     0.020 A 
ATOM     24  C   UNL d   1      -3.268  11.184   0.977  0.00  0.00     0.001 A 
ATOM     25  C   UNL d   1      -2.846  11.935  -0.120  0.00  0.00     0.000 A 
ATOM     26  C   UNL d   1      -2.189  11.316  -1.182  0.00  0.00     0.001 A 
ATOM     27  C   UNL d   1      -1.956   9.940  -1.150  0.00  0.00     0.020 A 
ENDBRANCH  21  22
ENDBRANCH   2  20
TORSDOF 4
