REMARK  1 active torsions:
REMARK  status: ('A' for Active; 'I' for Inactive)
REMARK    1  A    between atoms: C_8  and  N_4 
ROOT
ATOM      1  C   UNL d   1      -2.138  -0.784  -0.974  0.00  0.00     0.146 C 
ATOM      2  N   UNL d   1      -0.803  -0.796  -0.685  0.00  0.00    -0.356 N 
ATOM      3  S   UNL d   1      -3.009   0.209   0.197  0.00  0.00    -0.057 SA
ATOM      4  N   UNL d   1      -2.821  -1.380  -1.893  0.00  0.00    -0.335 N 
ATOM      5  HN  UNL d   1      -3.801  -1.135  -2.034  1.00  0.00     0.168 HD
ATOM      6  C   UNL d   1      -1.554   0.533   1.113  0.00  0.00     0.005 C 
ATOM      7  C   UNL d   1      -0.296   0.053   0.393  0.00  0.00     0.065 C 
ATOM      8  C   UNL d   1      -1.620   1.142   2.307  0.00  0.00     0.029 C 
ATOM      9  C   UNL d   1       0.627  -0.818   1.268  0.00  0.00     0.036 C 
ATOM     10  C   UNL d   1       0.467   1.273  -0.171  0.00  0.00     0.036 C 
ATOM     11  C   UNL d   1       1.804   0.924  -0.825  0.00  0.00     0.003 C 
ATOM     12  C   UNL d   1       1.923  -1.195   0.542  0.00  0.00     0.003 C 
ATOM     13  C   UNL d   1       2.673   0.044   0.065  0.00  0.00     0.000 C 
ATOM     14  H   UNL d   1      -0.173  -1.042  -1.434  0.00  0.00     0.162 HD
ENDROOT
BRANCH   4  15
ATOM     15  C   UNL d   1      -2.222  -2.367  -2.706  0.00  0.00     0.062 A 
ATOM     16  C   UNL d   1      -1.153  -2.127  -3.597  0.00  0.00     0.061 A 
ATOM     17 CL   UNL d   1      -0.511  -0.541  -3.855  0.00  0.00    -0.082 Cl
ATOM     18  C   UNL d   1      -0.568  -3.172  -4.321  0.00  0.00     0.026 A 
ATOM     19  C   UNL d   1      -1.065  -4.468  -4.213  0.00  0.00     0.002 A 
ATOM     20  C   UNL d   1      -2.166  -4.714  -3.398  0.00  0.00     0.009 A 
ATOM     21  C   UNL d   1      -2.757  -3.676  -2.653  0.00  0.00    -0.034 A 
ATOM     22  C   UNL d   1      -3.989  -4.014  -1.853  0.00  0.00     0.050 C 
ENDBRANCH   4  15
TORSDOF 1
