REMARK  4 active torsions:
REMARK  status: ('A' for Active; 'I' for Inactive)
REMARK    1  A    between atoms: C_5  and  C_1 
REMARK    2  A    between atoms: C_2  and  S_3 
REMARK    3  A    between atoms: S_3  and  C_4 
REMARK    4  A    between atoms: O_12  and  C_5 
ROOT
ATOM      1  C   UNL d   1       2.940  -3.079   1.809  0.00  0.00     0.018 C 
ATOM      2  N   UNL d   1       1.914  -1.491   5.361  0.00  0.00    -0.191 NA
ATOM      3  C   UNL d   1       4.006  -2.424   2.519  0.00  0.00     0.012 C 
ATOM      4  C   UNL d   1       2.770  -1.590   4.583  0.00  0.00     0.100 C 
ATOM      5  C   UNL d   1       3.917  -1.623   3.708  0.00  0.00     0.057 C 
ATOM      6  C   UNL d   1       5.306  -2.540   1.946  0.00  0.00    -0.023 C 
ATOM      7  C   UNL d   1       3.218  -3.895   0.698  0.00  0.00     0.020 C 
ATOM      8  C   UNL d   1       4.523  -4.112   0.270  0.00  0.00     0.002 C 
ATOM      9  C   UNL d   1       6.200  -0.849   3.445  0.00  0.00     0.002 C 
ATOM     10  C   UNL d   1       5.000  -0.836   4.137  0.00  0.00     0.024 C 
ATOM     11  C   UNL d   1       5.554  -3.422   0.884  0.00  0.00     0.012 C 
ATOM     12  C   UNL d   1       6.365  -1.740   2.396  0.00  0.00     0.012 C 
ENDROOT
BRANCH   1  13
ATOM     13  S   UNL d   1       1.209  -2.655   2.122  0.00  0.00    -0.089 SA
BRANCH  13  14
ATOM     14  C   UNL d   1       0.326  -4.176   1.827  0.00  0.00     0.021 A 
ATOM     15  C   UNL d   1       0.575  -5.394   2.476  0.00  0.00     0.056 A 
ATOM     16  C   UNL d   1      -0.120  -6.552   2.085  0.00  0.00     0.019 A 
ATOM     17  C   UNL d   1      -1.081  -6.492   1.079  0.00  0.00     0.001 A 
ATOM     18  C   UNL d   1      -1.370  -5.278   0.468  0.00  0.00     0.001 A 
ATOM     19  C   UNL d   1      -0.670  -4.127   0.836  0.00  0.00     0.020 A 
BRANCH  15  20
ATOM     20  C   UNL d   1       1.500  -5.483   3.629  0.00  0.00     0.294 C 
ATOM     21  O   UNL d   1       1.503  -4.709   4.568  0.00  0.00    -0.259 OA
BRANCH  20  22
ATOM     22  O   UNL d   1       2.307  -6.560   3.469  0.00  0.00    -0.322 OA
ATOM     23  C   UNL d   1       3.231  -6.790   4.541  0.00  0.00     0.213 C 
ENDBRANCH  20  22
ENDBRANCH  15  20
ENDBRANCH  13  14
ENDBRANCH   1  13
TORSDOF 4
