REMARK  1 active torsions:
REMARK  status: ('A' for Active; 'I' for Inactive)
REMARK    1  A    between atoms: C_5  and  C_1 
ROOT
ATOM      1  C   UNL d   1      -0.073  -1.338   0.061  0.00  0.00     0.093 A 
ATOM      2  C   UNL d   1      -0.081  -0.456   1.181  0.00  0.00     0.105 A 
ATOM      3  N   UNL d   1       0.323  -0.669  -1.035  0.00  0.00    -0.259 N 
ATOM      4  HN  UNL d   1       0.428  -1.050  -1.975  1.00  0.00     0.195 HD
ATOM      5  O   UNL d   1       0.562   0.630  -0.645  0.00  0.00    -0.241 OA
ATOM      6  C   UNL d   1       0.340   0.755   0.688  0.00  0.00     0.095 A 
ATOM      7  C   UNL d   1      -0.422  -0.713   2.533  0.00  0.00     0.104 C 
ATOM      8  N   UNL d   1      -0.704  -0.900   3.644  0.00  0.00    -0.191 NA
ATOM      9  C   UNL d   1       0.598   2.088   1.264  0.00  0.00     0.081 C 
ENDROOT
BRANCH   1  10
ATOM     10  C   UNL d   1      -0.371  -2.772  -0.001  0.00  0.00     0.054 A 
ATOM     11  C   UNL d   1      -1.142  -3.361  -1.020  0.00  0.00     0.049 A 
ATOM     12 CL   UNL d   1      -1.917  -2.450  -2.272  0.00  0.00    -0.083 Cl
ATOM     13  C   UNL d   1      -1.353  -4.749  -1.045  0.00  0.00     0.025 A 
ATOM     14  C   UNL d   1      -0.820  -5.567  -0.051  0.00  0.00     0.005 A 
ATOM     15  C   UNL d   1      -0.064  -4.999   0.968  0.00  0.00     0.043 A 
ATOM     16  C   UNL d   1       0.164  -3.624   0.976  0.00  0.00     0.130 A 
ATOM     17  F   UNL d   1       0.946  -3.134   1.950  0.00  0.00    -0.205 F 
ENDBRANCH   1  10
TORSDOF 1
