REMARK  2 active torsions:
REMARK  status: ('A' for Active; 'I' for Inactive)
REMARK       I    between atoms: N_2  and  C_1 
REMARK       I    between atoms: N_4  and  C_1 
REMARK    1  A    between atoms: C_5  and  N_3 
REMARK    2  A    between atoms: C_13  and  N_4 
ROOT
ATOM      1  C   UNL d   1       0.929   0.136   0.073  0.00  0.00     0.323 C 
ATOM      2  N   UNL d   1       0.291   0.753   1.131  0.00  0.00    -0.331 N 
ATOM      3  N   UNL d   1      -0.110   1.786   3.765  0.00  0.00    -0.378 N 
ATOM      4  N   UNL d   1       0.527  -1.149  -0.208  0.00  0.00    -0.309 N 
ATOM      5  O   UNL d   1       1.804   0.724  -0.555  0.00  0.00    -0.247 OA
ATOM      6  C   UNL d   1       0.684   2.136   1.459  0.00  0.00     0.147 C 
ATOM      7  C   UNL d   1      -0.791   0.227   1.981  0.00  0.00     0.147 C 
ATOM      8  C   UNL d   1       1.011   2.290   2.951  0.00  0.00     0.143 C 
ATOM      9  C   UNL d   1      -0.485   0.394   3.485  0.00  0.00     0.143 C 
ATOM     10  H   UNL d   1      -0.357  -1.450   0.158  0.00  0.00     0.170 HD
ENDROOT
BRANCH   4  11
ATOM     11  C   UNL d   1       1.144  -2.035  -1.119  0.00  0.00     0.036 A 
ATOM     12  C   UNL d   1       2.437  -1.843  -1.620  0.00  0.00     0.032 A 
ATOM     13  C   UNL d   1       3.027  -2.801  -2.446  0.00  0.00     0.044 A 
ATOM     14  C   UNL d   1       2.318  -3.945  -2.781  0.00  0.00     0.116 A 
ATOM     15  C   UNL d   1       1.022  -4.140  -2.323  0.00  0.00     0.044 A 
ATOM     16  F   UNL d   1       2.897  -4.880  -3.548  0.00  0.00    -0.206 F 
ATOM     17  C   UNL d   1       0.435  -3.187  -1.487  0.00  0.00     0.032 A 
ENDBRANCH   4  11
BRANCH   3  18
ATOM     18  C   UNL d   1      -0.756   2.562   4.705  0.00  0.00     0.030 A 
ATOM     19  C   UNL d   1      -1.352   1.994   5.845  0.00  0.00     0.032 A 
ATOM     20  C   UNL d   1      -1.993   2.779   6.810  0.00  0.00     0.044 A 
ATOM     21  C   UNL d   1      -2.048   4.151   6.647  0.00  0.00     0.116 A 
ATOM     22  C   UNL d   1      -1.486   4.751   5.532  0.00  0.00     0.044 A 
ATOM     23  F   UNL d   1      -2.651   4.908   7.574  0.00  0.00    -0.206 F 
ATOM     24  C   UNL d   1      -0.851   3.957   4.573  0.00  0.00     0.032 A 
ENDBRANCH   3  18
TORSDOF 2
