REMARK  4 active torsions:
REMARK  status: ('A' for Active; 'I' for Inactive)
REMARK    1  A    between atoms: C_4  and  C_1 
REMARK       I    between atoms: C_3  and  N_2 
REMARK    2  A    between atoms: C_7  and  C_3 
REMARK    3  A    between atoms: S_9  and  C_7 
REMARK    4  A    between atoms: C_15  and  S_9 
ROOT
ATOM      1  N   UNL d   1       0.819  -3.252   1.738  0.00  0.00    -0.351 N 
ATOM      2  C   UNL d   1       0.125  -4.374   2.197  0.00  0.00     0.229 C 
ATOM      3  C   UNL d   1       0.508  -1.382  -0.464  0.00  0.00     0.096 C 
ATOM      4  C   UNL d   1       0.447  -1.873   2.038  0.00  0.00     0.126 C 
ATOM      5  C   UNL d   1       1.710  -3.391   0.590  0.00  0.00     0.126 C 
ATOM      6  O   UNL d   1       0.297  -5.489   1.693  0.00  0.00    -0.273 OA
ATOM      7  C   UNL d   1      -0.303  -1.289   0.841  0.00  0.00     0.033 C 
ATOM      8  C   UNL d   1       1.060  -2.808  -0.669  0.00  0.00     0.033 C 
ENDROOT
BRANCH   2   9
ATOM      9  C   UNL d   1      -0.829  -4.226   3.379  0.00  0.00     0.182 C 
BRANCH   9  10
ATOM     10  S   UNL d   1      -2.454  -3.626   2.801  0.00  0.00    -0.121 SA
BRANCH  10  11
ATOM     11  C   UNL d   1      -3.423  -3.722   4.295  0.00  0.00     0.001 A 
ATOM     12  C   UNL d   1      -4.104  -2.585   4.740  0.00  0.00     0.019 A 
ATOM     13  C   UNL d   1      -4.997  -2.667   5.815  0.00  0.00     0.008 A 
ATOM     14  C   UNL d   1      -5.231  -3.890   6.450  0.00  0.00    -0.062 A 
ATOM     15  C   UNL d   1      -4.527  -5.022   6.021  0.00  0.00     0.008 A 
ATOM     16  C   UNL d   1      -6.265  -3.990   7.533  0.00  0.00     0.048 C 
ATOM     17  C   UNL d   1      -3.632  -4.939   4.949  0.00  0.00     0.019 A 
ENDBRANCH  10  11
ENDBRANCH   9  10
ENDBRANCH   2   9
BRANCH   3  18
ATOM     18  C   UNL d   1       1.610  -0.332  -0.518  0.00  0.00     0.391 C 
ATOM     19  F   UNL d   1       1.113   0.900  -0.265  0.00  0.00    -0.171 F 
ATOM     20  F   UNL d   1       2.173  -0.293  -1.746  0.00  0.00    -0.171 F 
ATOM     21  F   UNL d   1       2.593  -0.563   0.374  0.00  0.00    -0.171 F 
ENDBRANCH   3  18
TORSDOF 4
