REMARK  2 active torsions:
REMARK  status: ('A' for Active; 'I' for Inactive)
REMARK    1  A    between atoms: C_6  and  C_7 
REMARK       I    between atoms: N_8  and  C_6 
REMARK    2  A    between atoms: C_15  and  N_8 
ROOT
ATOM      1  C   UNL d   1      -0.564   0.539   0.176  0.00  0.00     0.005 A 
ATOM      2  C   UNL d   1      -1.058  -0.797   0.278  0.00  0.00     0.027 A 
ATOM      3  C   UNL d   1       0.071  -1.734   0.368  0.00  0.00     0.194 A 
ATOM      4  C   UNL d   1       0.907   0.429   0.112  0.00  0.00    -0.010 A 
ATOM      5  C   UNL d   1       1.282  -0.923   0.273  0.00  0.00     0.026 A 
ATOM      6  C   UNL d   1      -1.527   1.551   0.149  0.00  0.00     0.044 A 
ATOM      7  O   UNL d   1       0.009  -2.938   0.485  0.00  0.00    -0.287 OA
ATOM      8  C   UNL d   1      -2.387  -1.185   0.285  0.00  0.00     0.016 A 
ATOM      9  C   UNL d   1       1.936   1.327  -0.122  0.00  0.00     0.013 A 
ATOM     10  C   UNL d   1       2.582  -1.407   0.281  0.00  0.00     0.016 A 
ATOM     11  C   UNL d   1      -2.901   1.155   0.168  0.00  0.00     0.018 A 
ATOM     12  C   UNL d   1      -3.327  -0.180   0.219  0.00  0.00     0.002 A 
ATOM     13  C   UNL d   1       3.273   0.873  -0.105  0.00  0.00     0.001 A 
ATOM     14  C   UNL d   1       3.595  -0.480   0.105  0.00  0.00     0.001 A 
ENDROOT
BRANCH   6  15
ATOM     15  C   UNL d   1      -1.377   3.043   0.074  0.00  0.00     0.252 C 
ATOM     16  N   UNL d   1      -0.195   3.643   0.442  0.00  0.00    -0.353 N 
ATOM     17  H   UNL d   1       0.432   3.106   1.022  0.00  0.00     0.163 HD
ATOM     18  O   UNL d   1      -2.350   3.710  -0.269  0.00  0.00    -0.268 OA
BRANCH  16  19
ATOM     19  C   UNL d   1      -0.013   5.102   0.459  0.00  0.00     0.076 C 
ATOM     20  C   UNL d   1      -0.526   5.823  -0.797  0.00  0.00     0.032 C 
ATOM     21  C   UNL d   1      -0.618   5.724   1.715  0.00  0.00     0.032 C 
ENDBRANCH  16  19
ENDBRANCH   6  15
TORSDOF 2
