REMARK  4 active torsions:
REMARK  status: ('A' for Active; 'I' for Inactive)
REMARK    1  A    between atoms: N_2  and  C_1 
REMARK       I    between atoms: C_3  and  N_2 
REMARK    2  A    between atoms: C_9  and  C_3 
REMARK    3  A    between atoms: C_10  and  C_11 
REMARK    4  A    between atoms: O_14  and  C_10 
ROOT
ATOM      1  N   UNL d   1       2.202  -2.127   0.207  0.00  0.00    -0.323 N 
ATOM      2  C   UNL d   1       2.565  -3.368   0.603  0.00  0.00     0.245 C 
ATOM      3  O   UNL d   1       3.781  -3.579   0.695  0.00  0.00    -0.268 OA
ATOM      4  H   UNL d   1       3.063  -1.617   0.047  0.00  0.00     0.169 HD
ENDROOT
BRANCH   1   5
ATOM      5  C   UNL d   1       1.034  -1.350   0.051  0.00  0.00     0.041 A 
ATOM      6  C   UNL d   1      -0.267  -1.787   0.313  0.00  0.00     0.037 A 
ATOM      7  C   UNL d   1      -1.379  -0.918   0.202  0.00  0.00    -0.054 A 
ATOM      8  C   UNL d   1      -2.767  -1.462   0.417  0.00  0.00     0.049 C 
ATOM      9  C   UNL d   1      -1.175   0.439  -0.088  0.00  0.00    -0.056 A 
ATOM     10  C   UNL d   1       0.115   0.867  -0.407  0.00  0.00     0.016 A 
ATOM     11  C   UNL d   1      -2.302   1.435  -0.110  0.00  0.00     0.049 C 
ATOM     12  C   UNL d   1       1.210  -0.013  -0.377  0.00  0.00    -0.035 A 
ATOM     13  C   UNL d   1       2.552   0.541  -0.790  0.00  0.00     0.050 C 
ENDBRANCH   1   5
BRANCH   2  14
ATOM     14  C   UNL d   1       1.626  -4.458   0.914  0.00  0.00     0.081 C 
ATOM     15  C   UNL d   1       2.140  -5.560   1.490  0.00  0.00     0.086 C 
BRANCH  15  16
ATOM     16  C   UNL d   1       1.273  -6.707   1.786  0.00  0.00     0.165 C 
ATOM     17  O   UNL d   1       0.068  -6.724   1.601  0.00  0.00    -0.647 OA
BRANCH  16  18
ATOM     18  O   UNL d   1       1.964  -7.751   2.290  0.00  0.00    -0.773 OA
ATOM     19  H   UNL d   1       2.926  -7.620   2.374  0.00  0.00     0.167 HD
ENDBRANCH  16  18
ENDBRANCH  15  16
ENDBRANCH   2  14
TORSDOF 4
