REMARK  5 active torsions:
REMARK  status: ('A' for Active; 'I' for Inactive)
REMARK    1  A    between atoms: C_10  and  C_2 
REMARK    2  A    between atoms: N_14  and  C_3 
REMARK    3  A    between atoms: C_12  and  C_5 
REMARK    4  A    between atoms: O_17  and  C_10 
REMARK    5  A    between atoms: C_22  and  O_17 
ROOT
ATOM      1  C   UNL d   1      -0.745   0.612   0.018  0.00  0.00     0.140 A 
ATOM      2  C   UNL d   1      -1.542   0.356  -1.250  0.00  0.00     0.090 C 
ATOM      3  C   UNL d   1      -2.652  -0.407  -1.222  0.00  0.00     0.134 C 
ATOM      4  C   UNL d   1      -0.278   2.102   0.049  0.00  0.00     0.245 A 
ATOM      5  C   UNL d   1      -1.550   0.290   1.290  0.00  0.00     0.044 C 
ATOM      6  C   UNL d   1      -2.663  -0.471   1.195  0.00  0.00     0.063 C 
ATOM      7  O   UNL d   1      -3.144  -0.906  -0.033  0.00  0.00    -0.302 OA
ATOM      8  N   UNL d   1       1.120   2.103   0.034  0.00  0.00    -0.325 N 
ATOM      9  C   UNL d   1       0.587  -0.125   0.002  0.00  0.00    -0.004 A 
ATOM     10  C   UNL d   1       1.631   0.809   0.014  0.00  0.00     0.043 A 
ATOM     11  O   UNL d   1      -0.988   3.100   0.076  0.00  0.00    -0.271 OA
ATOM     12  C   UNL d   1      -3.500  -1.046   2.300  0.00  0.00     0.077 C 
ATOM     13  C   UNL d   1       0.851  -1.484  -0.025  0.00  0.00     0.011 A 
ATOM     14  C   UNL d   1       2.955   0.429   0.004  0.00  0.00     0.030 A 
ATOM     15  C   UNL d   1       2.188  -1.890  -0.033  0.00  0.00     0.001 A 
ATOM     16  C   UNL d   1       3.229  -0.943  -0.018  0.00  0.00     0.002 A 
ATOM     17  H   UNL d   1       1.675   2.945   0.071  0.00  0.00     0.169 HD
ENDROOT
BRANCH   2  18
ATOM     18  C   UNL d   1      -1.117   0.884  -2.574  0.00  0.00     0.295 C 
ATOM     19  O   UNL d   1      -1.874   1.028  -3.526  0.00  0.00    -0.259 OA
BRANCH  18  20
ATOM     20  O   UNL d   1       0.217   1.081  -2.612  0.00  0.00    -0.318 OA
BRANCH  20  21
ATOM     21  C   UNL d   1       0.820   1.176  -3.908  0.00  0.00     0.174 C 
ATOM     22  C   UNL d   1       1.341  -0.201  -4.271  0.00  0.00     0.034 C 
ENDBRANCH  20  21
ENDBRANCH  18  20
ENDBRANCH   2  18
BRANCH   5  23
ATOM     23  C   UNL d   1      -0.986   0.812   2.591  0.00  0.00     0.156 C 
ATOM     24  O   UNL d   1       0.225   1.005   2.707  0.00  0.00    -0.293 OA
ATOM     25  C   UNL d   1      -1.871   1.124   3.767  0.00  0.00     0.096 C 
ENDBRANCH   5  23
BRANCH   3  26
ATOM     26  N   UNL d   1      -3.394  -0.810  -2.308  0.00  0.00    -0.282 NA
ATOM     27  H   UNL d   1      -3.260  -0.212  -3.131  0.00  0.00     0.126 HD
ATOM     28  H   UNL d   1      -4.372  -0.946  -2.077  0.00  0.00     0.126 HD
ENDBRANCH   3  26
TORSDOF 5
