REMARK  7 active torsions:
REMARK  status: ('A' for Active; 'I' for Inactive)
REMARK    1  A    between atoms: C_3  and  C_1 
REMARK    2  A    between atoms: C_4  and  C_1 
REMARK    3  A    between atoms: N_9  and  C_2 
REMARK    4  A    between atoms: S_10  and  C_2 
REMARK    5  A    between atoms: O_11  and  C_3 
REMARK    6  A    between atoms: N_5  and  C_4 
REMARK    7  A    between atoms: C_14  and  O_11 
ROOT
ATOM      1  C   UNL d   1       0.980  -0.095   0.024  0.00  0.00     0.134 C 
ATOM      2  C   UNL d   1       0.296  -0.125  -1.154  0.00  0.00     0.090 C 
ENDROOT
BRANCH   1   3
ATOM      3  C   UNL d   1       0.411   0.041   1.384  0.00  0.00     0.305 C 
ATOM      4  O   UNL d   1       1.074   0.422   2.343  0.00  0.00    -0.258 OA
BRANCH   3   5
ATOM      5  O   UNL d   1      -0.886  -0.355   1.458  0.00  0.00    -0.317 OA
BRANCH   5   6
ATOM      6  C   UNL d   1      -1.440  -0.367   2.785  0.00  0.00     0.174 C 
ATOM      7  C   UNL d   1      -1.931   1.015   3.173  0.00  0.00     0.034 C 
ENDBRANCH   5   6
ENDBRANCH   3   5
ENDBRANCH   1   3
BRANCH   1   8
ATOM      8  C   UNL d   1       2.500  -0.095   0.024  0.00  0.00    -0.028 C 
BRANCH   8   9
ATOM      9  N   UNL d   1       3.761  -0.095   0.024  0.00  0.00    -0.365 N 
ATOM     10  HN2 UNL d   1       2.741  -0.095   0.024  1.00  0.00     0.165 HD
ATOM     11  HN1 UNL d   1       4.781  -0.095   0.024  1.00  0.00     0.165 HD
ENDBRANCH   8   9
ENDBRANCH   1   8
BRANCH   2  12
ATOM     12  N   UNL d   1      -1.089  -0.013  -1.247  0.00  0.00    -0.388 N 
ATOM     13  C   UNL d   1      -1.923  -0.197  -2.417  0.00  0.00     0.147 C 
ATOM     14  H   UNL d   1      -1.584  -0.094  -0.357  0.00  0.00     0.159 HD
ENDBRANCH   2  12
BRANCH   2  15
ATOM     15  S   UNL d   1       1.259  -0.327  -2.651  0.00  0.00    -0.115 SA
ATOM     16  C   UNL d   1       1.532   1.409  -3.084  0.00  0.00     0.097 C 
ENDBRANCH   2  15
TORSDOF 7
