REMARK  5 active torsions:
REMARK  status: ('A' for Active; 'I' for Inactive)
REMARK    1  A    between atoms: C_3  and  N_1 
REMARK    2  A    between atoms: C_2  and  N_9 
REMARK    3  A    between atoms: N_11  and  C_2 
REMARK    4  A    between atoms: N_9  and  N_4 
REMARK    5  A    between atoms: C_12  and  C_13 
ROOT
ATOM      1  N   UNL d   1       1.638  -4.986   0.637  0.00  0.00    -0.309 N 
ATOM      2  HN  UNL d   1       2.088  -4.119   0.930  1.00  0.00     0.186 HD
ATOM      3  C   UNL d   1       0.613  -4.956  -0.145  0.00  0.00     0.118 C 
ENDROOT
BRANCH   3   4
ATOM      4  C   UNL d   1       0.103  -3.640  -0.591  0.00  0.00    -0.017 A 
ATOM      5  C   UNL d   1       0.748  -2.473  -0.156  0.00  0.00     0.048 A 
ATOM      6  C   UNL d   1       0.261  -1.228  -0.559  0.00  0.00     0.103 A 
ATOM      7  C   UNL d   1      -0.860  -1.143  -1.395  0.00  0.00     0.036 A 
ATOM      8  C   UNL d   1      -1.492  -2.313  -1.829  0.00  0.00     0.003 A 
ATOM      9  C   UNL d   1      -1.012  -3.565  -1.429  0.00  0.00     0.013 A 
BRANCH   6  10
ATOM     10  N   UNL d   1       0.928  -0.003  -0.098  0.00  0.00    -0.116 N 
ATOM     11  O   UNL d   1       1.919  -0.122   0.636  0.00  0.00    -0.532 OA
ATOM     12  O   UNL d   1       0.457   1.080  -0.472  0.00  0.00    -0.532 OA
ENDBRANCH   6  10
ENDBRANCH   3   4
BRANCH   1  13
ATOM     13  N   UNL d   1       2.110  -6.181   1.065  0.00  0.00    -0.277 N 
ATOM     14  H   UNL d   1       1.648  -7.031   0.772  0.00  0.00     0.189 HD
BRANCH  13  15
ATOM     15  C   UNL d   1       3.216  -6.218   1.919  0.00  0.00     0.186 C 
ATOM     16  S   UNL d   1       4.039  -4.854   2.449  0.00  0.00    -0.040 SA
BRANCH  15  17
ATOM     17  N   UNL d   1       3.544  -7.517   2.269  0.00  0.00    -0.370 N 
ATOM     18  C   UNL d   1       4.631  -7.930   3.141  0.00  0.00     0.148 C 
ATOM     19  H   UNL d   1       2.974  -8.261   1.898  0.00  0.00     0.161 HD
ENDBRANCH  15  17
ENDBRANCH  13  15
ENDBRANCH   1  13
TORSDOF 5
