REMARK  10 active torsions:
REMARK  status: ('A' for Active; 'I' for Inactive)
REMARK    1  A    between atoms: C_5  and  C_1 
REMARK    2  A    between atoms: C_2  and  C_9 
REMARK    3  A    between atoms: C_3  and  N_6 
REMARK    4  A    between atoms: N_10  and  C_3 
REMARK    5  A    between atoms: O_23  and  C_5 
REMARK    6  A    between atoms: N_6  and  C_12 
REMARK    7  A    between atoms: C_22  and  C_8 
REMARK    8  A    between atoms: C_17  and  N_10 
REMARK    9  A    between atoms: S_14  and  C_22 
REMARK   10  A    between atoms: C_15  and  S_14 
ROOT
ATOM      1  C   UNL d   1      -2.425  -5.555  -0.440  0.00  0.00     0.031 C 
ATOM      2  C   UNL d   1      -1.096  -5.242  -0.813  0.00  0.00     0.022 C 
ATOM      3  C   UNL d   1      -2.799  -6.863  -0.116  0.00  0.00     0.025 C 
ATOM      4  C   UNL d   1      -0.111  -6.162  -0.458  0.00  0.00     0.020 C 
ATOM      5  C   UNL d   1      -1.815  -7.813   0.104  0.00  0.00     0.002 C 
ATOM      6  C   UNL d   1      -0.476  -7.428   0.042  0.00  0.00     0.001 C 
ENDROOT
BRANCH   1   7
ATOM      7  N   UNL d   1      -3.330  -4.468  -0.185  0.00  0.00    -0.234 NA
ATOM      8  H   UNL d   1      -2.760  -3.624  -0.170  0.00  0.00     0.136 HD
BRANCH   7   9
ATOM      9  C   UNL d   1      -4.090  -4.529   0.949  0.00  0.00     0.155 C 
ATOM     10  S   UNL d   1      -3.492  -3.985   2.419  0.00  0.00    -0.047 SA
BRANCH   9  11
ATOM     11  N   UNL d   1      -5.405  -4.874   0.892  0.00  0.00    -0.338 N 
ATOM     12  H   UNL d   1      -5.849  -4.724   1.791  0.00  0.00     0.168 HD
BRANCH  11  13
ATOM     13  C   UNL d   1      -6.267  -4.828  -0.220  0.00  0.00     0.034 A 
ATOM     14  C   UNL d   1      -5.890  -5.153  -1.521  0.00  0.00     0.045 A 
ATOM     15  C   UNL d   1      -6.738  -4.860  -2.601  0.00  0.00     0.050 A 
ATOM     16  C   UNL d   1      -8.001  -4.303  -2.347  0.00  0.00     0.016 A 
ATOM     17  C   UNL d   1      -8.416  -4.061  -1.040  0.00  0.00     0.003 A 
ATOM     18  C   UNL d   1      -7.554  -4.334   0.019  0.00  0.00     0.029 A 
BRANCH  15  19
ATOM     19  C   UNL d   1      -6.266  -5.044  -4.020  0.00  0.00     0.417 C 
ATOM     20  F   UNL d   1      -5.052  -5.650  -4.126  0.00  0.00    -0.166 F 
ATOM     21  F   UNL d   1      -7.123  -5.791  -4.769  0.00  0.00    -0.166 F 
ATOM     22  F   UNL d   1      -6.145  -3.852  -4.670  0.00  0.00    -0.166 F 
ENDBRANCH  15  19
ENDBRANCH  11  13
ENDBRANCH   9  11
ENDBRANCH   7   9
ENDBRANCH   1   7
BRANCH   2  23
ATOM     23  S   UNL d   1      -0.923  -3.967  -2.093  0.00  0.00    -0.122 SA
BRANCH  23  24
ATOM     24  C   UNL d   1       0.497  -2.877  -1.745  0.00  0.00     0.144 C 
BRANCH  24  25
ATOM     25  C   UNL d   1       1.778  -3.348  -2.315  0.00  0.00     0.063 A 
ATOM     26  O   UNL d   1       2.381  -4.358  -1.656  0.00  0.00    -0.308 OA
ATOM     27  C   UNL d   1       3.553  -4.668  -2.291  0.00  0.00     0.150 A 
ATOM     28  C   UNL d   1       3.733  -3.799  -3.352  0.00  0.00     0.046 A 
ATOM     29  C   UNL d   1       2.595  -2.943  -3.370  0.00  0.00     0.036 A 
BRANCH  27  30
ATOM     30  C   UNL d   1       4.285  -5.765  -1.746  0.00  0.00     0.316 C 
ATOM     31  O   UNL d   1       3.938  -6.423  -0.756  0.00  0.00    -0.257 OA
BRANCH  30  32
ATOM     32  O   UNL d   1       5.415  -6.024  -2.462  0.00  0.00    -0.321 OA
ATOM     33  C   UNL d   1       6.125  -7.159  -1.966  0.00  0.00     0.213 C 
ENDBRANCH  30  32
ENDBRANCH  27  30
ENDBRANCH  24  25
ENDBRANCH  23  24
ENDBRANCH   2  23
TORSDOF 10
