REMARK  5 active torsions:
REMARK  status: ('A' for Active; 'I' for Inactive)
REMARK    1  A    between atoms: N_8  and  C_2 
REMARK    2  A    between atoms: S_10  and  C_5 
REMARK    3  A    between atoms: C_11  and  N_8 
REMARK    4  A    between atoms: C_12  and  S_10 
REMARK    5  A    between atoms: C_15  and  C_12 
ROOT
ATOM      1  C   UNL d   1      -0.355  -1.176   0.059  0.00  0.00     0.113 A 
ATOM      2  C   UNL d   1       0.946  -0.686   0.018  0.00  0.00     0.115 A 
ATOM      3  N   UNL d   1      -0.818   1.121  -0.049  0.00  0.00    -0.318 N 
ATOM      4  HN  UNL d   1      -1.368   1.978  -0.109  1.00  0.00     0.175 HD
ATOM      5  C   UNL d   1      -1.310  -0.112  -0.018  0.00  0.00     0.100 A 
ATOM      6  S   UNL d   1       0.825   1.043   0.024  0.00  0.00     0.006 SA
ATOM      7  C   UNL d   1      -0.661  -2.570   0.120  0.00  0.00     0.105 C 
ATOM      8  N   UNL d   1      -0.859  -3.713   0.171  0.00  0.00    -0.191 NA
ENDROOT
BRANCH   2   9
ATOM      9  N   UNL d   1       2.135  -1.359   0.052  0.00  0.00    -0.348 N 
ATOM     10  H   UNL d   1       2.150  -2.352   0.289  0.00  0.00     0.166 HD
BRANCH   9  11
ATOM     11  C   UNL d   1       3.303  -0.999  -0.667  0.00  0.00     0.033 A 
ATOM     12  C   UNL d   1       4.559  -1.327  -0.136  0.00  0.00     0.031 A 
ATOM     13  C   UNL d   1       5.737  -0.967  -0.804  0.00  0.00     0.026 A 
ATOM     14  C   UNL d   1       5.666  -0.284  -2.015  0.00  0.00     0.034 A 
ATOM     15  C   UNL d   1       4.430   0.046  -2.561  0.00  0.00     0.026 A 
ATOM     16 CL   UNL d   1       7.109   0.148  -2.846  0.00  0.00    -0.084 Cl
ATOM     17  C   UNL d   1       3.257  -0.310  -1.889  0.00  0.00     0.031 A 
ENDBRANCH   9  11
ENDBRANCH   2   9
BRANCH   5  18
ATOM     18  S   UNL d   1      -3.064  -0.329  -0.049  0.00  0.00    -0.106 SA
BRANCH  18  19
ATOM     19  C   UNL d   1      -3.594   1.227  -0.838  0.00  0.00     0.119 C 
BRANCH  19  20
ATOM     20  C   UNL d   1      -5.097   1.382  -0.858  0.00  0.00    -0.048 A 
ATOM     21  C   UNL d   1      -5.751   2.083   0.169  0.00  0.00     0.009 A 
ATOM     22  C   UNL d   1      -7.138   2.250   0.147  0.00  0.00     0.024 A 
ATOM     23  C   UNL d   1      -7.882   1.712  -0.900  0.00  0.00     0.034 A 
ATOM     24  C   UNL d   1      -7.251   1.008  -1.924  0.00  0.00     0.024 A 
ATOM     25 CL   UNL d   1      -9.590   1.918  -0.929  0.00  0.00    -0.084 Cl
ATOM     26  C   UNL d   1      -5.863   0.842  -1.903  0.00  0.00     0.009 A 
ENDBRANCH  19  20
ENDBRANCH  18  19
ENDBRANCH   5  18
TORSDOF 5
