REMARK  5 active torsions:
REMARK  status: ('A' for Active; 'I' for Inactive)
REMARK    1  A    between atoms: C_2  and  C_12 
REMARK    2  A    between atoms: C_13  and  C_7 
REMARK    3  A    between atoms: C_16  and  C_7 
REMARK    4  A    between atoms: C_17  and  C_12 
REMARK    5  A    between atoms: C_14  and  C_15 
ROOT
ATOM      1  C   UNL d   1      -2.906   6.051   0.189  0.00  0.00     0.013 C 
ATOM      2  C   UNL d   1      -3.695   5.227  -0.517  0.00  0.00     0.002 C 
ENDROOT
BRANCH   2   3
ATOM      3  C   UNL d   1      -3.730   3.813  -0.208  0.00  0.00     0.009 C 
ATOM      4  C   UNL d   1      -3.779   2.736  -1.021  0.00  0.00    -0.035 C 
BRANCH   4   5
ATOM      5  C   UNL d   1      -3.849   1.368  -0.368  0.00  0.00     0.087 C 
ATOM      6  C   UNL d   1      -4.929   0.358  -0.739  0.00  0.00    -0.034 A 
ATOM      7  C   UNL d   1      -4.407  -0.950  -0.577  0.00  0.00    -0.018 A 
ATOM      8  C   UNL d   1      -6.273   0.558  -1.011  0.00  0.00     0.009 A 
ATOM      9  C   UNL d   1      -5.234  -2.059  -0.659  0.00  0.00     0.013 A 
ATOM     10  C   UNL d   1      -2.981  -0.862  -0.317  0.00  0.00    -0.018 A 
ATOM     11  C   UNL d   1      -6.589  -1.858  -0.934  0.00  0.00     0.001 A 
ATOM     12  C   UNL d   1      -7.099  -0.564  -1.126  0.00  0.00     0.001 A 
ATOM     13  C   UNL d   1      -2.594   0.498  -0.329  0.00  0.00    -0.034 A 
ATOM     14  C   UNL d   1      -2.053  -1.859  -0.064  0.00  0.00     0.013 A 
ATOM     15  C   UNL d   1      -1.268   0.866  -0.157  0.00  0.00     0.009 A 
ATOM     16  C   UNL d   1      -0.327  -0.143   0.065  0.00  0.00     0.001 A 
ATOM     17  C   UNL d   1      -0.719  -1.490   0.136  0.00  0.00     0.001 A 
ENDBRANCH   4   5
BRANCH   4  18
ATOM     18  C   UNL d   1      -3.696   2.876  -2.486  0.00  0.00    -0.029 A 
ATOM     19  C   UNL d   1      -2.446   2.972  -3.112  0.00  0.00     0.012 A 
ATOM     20  C   UNL d   1      -2.352   3.178  -4.492  0.00  0.00     0.001 A 
ATOM     21  C   UNL d   1      -3.507   3.296  -5.261  0.00  0.00     0.000 A 
ATOM     22  C   UNL d   1      -4.756   3.217  -4.649  0.00  0.00     0.001 A 
ATOM     23  C   UNL d   1      -4.850   3.015  -3.268  0.00  0.00     0.012 A 
ENDBRANCH   4  18
ENDBRANCH   2   3
BRANCH   1  24
ATOM     24  C   UNL d   1      -2.902   7.515   0.116  0.00  0.00    -0.014 C 
ATOM     25  C   UNL d   1      -3.909   8.278   0.627  0.00  0.00    -0.003 C 
ATOM     26  C   UNL d   1      -4.111   9.766   0.481  0.00  0.00    -0.013 A 
ATOM     27  C   UNL d   1      -5.079   7.765   1.423  0.00  0.00    -0.013 C 
ATOM     28  C   UNL d   1      -5.387  10.049   1.029  0.00  0.00    -0.014 A 
ATOM     29  C   UNL d   1      -3.342  10.809  -0.017  0.00  0.00     0.013 A 
ATOM     30  C   UNL d   1      -5.872  11.352   1.110  0.00  0.00     0.013 A 
ATOM     31  C   UNL d   1      -5.986   8.835   1.557  0.00  0.00    -0.014 C 
ATOM     32  C   UNL d   1      -5.082  12.392   0.627  0.00  0.00     0.001 A 
ATOM     33  C   UNL d   1      -3.831  12.121   0.058  0.00  0.00     0.001 A 
ATOM     34  C   UNL d   1      -7.203   8.672   2.207  0.00  0.00     0.013 C 
ATOM     35  C   UNL d   1      -7.478   7.450   2.820  0.00  0.00     0.001 C 
ATOM     36  C   UNL d   1      -6.524   6.425   2.804  0.00  0.00     0.001 C 
ATOM     37  C   UNL d   1      -5.322   6.579   2.111  0.00  0.00     0.013 C 
BRANCH  24  38
ATOM     38  C   UNL d   1      -1.677   8.138  -0.438  0.00  0.00    -0.025 A 
ATOM     39  C   UNL d   1      -0.613   8.429   0.431  0.00  0.00     0.012 A 
ATOM     40  C   UNL d   1       0.560   9.010  -0.053  0.00  0.00     0.001 A 
ATOM     41  C   UNL d   1       0.680   9.301  -1.411  0.00  0.00     0.000 A 
ATOM     42  C   UNL d   1      -0.367   8.997  -2.285  0.00  0.00     0.001 A 
ATOM     43  C   UNL d   1      -1.537   8.405  -1.801  0.00  0.00     0.012 A 
ENDBRANCH  24  38
ENDBRANCH   1  24
TORSDOF 5
