REMARK  7 active torsions:
REMARK  status: ('A' for Active; 'I' for Inactive)
REMARK    1  A    between atoms: C_6  and  C_1 
REMARK       I    between atoms: N_7  and  C_1 
REMARK    2  A    between atoms: C_2  and  C_4 
REMARK    3  A    between atoms: C_3  and  C_5 
REMARK    4  A    between atoms: S_10  and  C_6 
REMARK    5  A    between atoms: C_14  and  C_6 
REMARK    6  A    between atoms: C_8  and  N_7 
REMARK    7  A    between atoms: C_21  and  S_10 
ROOT
ATOM      1  C   UNL d   1       1.570   0.271   0.618  0.00  0.00     0.240 C 
ATOM      2  N   UNL d   1       0.918  -0.244   1.733  0.00  0.00    -0.326 N 
ATOM      3  O   UNL d   1       2.699  -0.091   0.293  0.00  0.00    -0.272 OA
ATOM      4  H   UNL d   1      -0.073  -0.034   1.798  0.00  0.00     0.169 HD
ENDROOT
BRANCH   1   5
ATOM      5  C   UNL d   1       0.709   1.194  -0.280  0.00  0.00     0.177 C 
BRANCH   5   6
ATOM      6  S   UNL d   1      -0.715   1.969   0.622  0.00  0.00    -0.111 SA
BRANCH   6   7
ATOM      7  C   UNL d   1       0.015   3.183   1.709  0.00  0.00     0.001 A 
ATOM      8  C   UNL d   1       0.006   4.534   1.342  0.00  0.00     0.020 A 
ATOM      9  C   UNL d   1       0.306   5.529   2.282  0.00  0.00     0.025 A 
ATOM     10  C   UNL d   1       0.617   5.176   3.594  0.00  0.00     0.034 A 
ATOM     11  C   UNL d   1       0.649   3.836   3.967  0.00  0.00     0.025 A 
ATOM     12 CL   UNL d   1       0.908   6.397   4.769  0.00  0.00    -0.084 Cl
ATOM     13  C   UNL d   1       0.340   2.844   3.029  0.00  0.00     0.020 A 
ENDBRANCH   6   7
ENDBRANCH   5   6
BRANCH   5  14
ATOM     14  C   UNL d   1       1.416   2.118  -1.278  0.00  0.00    -0.035 A 
ATOM     15  C   UNL d   1       2.813   2.249  -1.358  0.00  0.00     0.009 A 
ATOM     16  C   UNL d   1       3.423   2.932  -2.416  0.00  0.00     0.001 A 
ATOM     17  C   UNL d   1       2.650   3.541  -3.396  0.00  0.00     0.000 A 
ATOM     18  C   UNL d   1       1.264   3.475  -3.314  0.00  0.00     0.001 A 
ATOM     19  C   UNL d   1       0.655   2.765  -2.274  0.00  0.00     0.009 A 
ENDBRANCH   5  14
ENDBRANCH   1   5
BRANCH   2  20
ATOM     20  C   UNL d   1       1.480  -1.040   2.752  0.00  0.00     0.036 A 
ATOM     21  C   UNL d   1       2.848  -1.297   2.864  0.00  0.00     0.045 A 
ATOM     22  C   UNL d   1       3.359  -2.094   3.905  0.00  0.00     0.050 A 
ATOM     23  C   UNL d   1       2.474  -2.617   4.855  0.00  0.00     0.032 A 
ATOM     24  C   UNL d   1       1.097  -2.357   4.773  0.00  0.00     0.050 A 
ATOM     25  C   UNL d   1       0.613  -1.569   3.714  0.00  0.00     0.045 A 
BRANCH  22  26
ATOM     26  C   UNL d   1       4.849  -2.326   4.004  0.00  0.00     0.417 C 
ATOM     27  F   UNL d   1       5.171  -3.377   4.810  0.00  0.00    -0.166 F 
ATOM     28  F   UNL d   1       5.431  -2.588   2.803  0.00  0.00    -0.166 F 
ATOM     29  F   UNL d   1       5.505  -1.250   4.517  0.00  0.00    -0.166 F 
ENDBRANCH  22  26
BRANCH  24  30
ATOM     30  C   UNL d   1       0.146  -2.951   5.784  0.00  0.00     0.417 C 
ATOM     31  F   UNL d   1       0.707  -3.109   7.014  0.00  0.00    -0.166 F 
ATOM     32  F   UNL d   1      -0.967  -2.189   5.976  0.00  0.00    -0.166 F 
ATOM     33  F   UNL d   1      -0.300  -4.181   5.411  0.00  0.00    -0.166 F 
ENDBRANCH  24  30
ENDBRANCH   2  20
TORSDOF 7
