REMARK  3 active torsions:
REMARK  status: ('A' for Active; 'I' for Inactive)
REMARK    1  A    between atoms: C_10  and  C_1 
REMARK    2  A    between atoms: C_2  and  C_3 
REMARK       I    between atoms: C_3  and  N_11 
REMARK    3  A    between atoms: N_11  and  N_6 
ROOT
ATOM      1  N   UNL d   1      -1.108   3.161   0.115  0.00  0.00    -0.308 N 
ATOM      2  HN  UNL d   1      -2.071   2.832   0.188  1.00  0.00     0.186 HD
ATOM      3  C   UNL d   1      -0.108   2.341   0.055  0.00  0.00     0.123 C 
ENDROOT
BRANCH   1   4
ATOM      4  N   UNL d   1      -0.804   4.485   0.077  0.00  0.00    -0.270 N 
ATOM      5  C   UNL d   1      -1.774   5.465   0.142  0.00  0.00     0.240 C 
ATOM      6  O   UNL d   1      -1.483   6.657   0.080  0.00  0.00    -0.271 OA
ATOM      7  H   UNL d   1       0.152   4.801  -0.031  0.00  0.00     0.190 HD
BRANCH   5   8
ATOM      8  C   UNL d   1      -3.186   5.019   0.338  0.00  0.00     0.080 A 
ATOM      9  C   UNL d   1      -4.343   5.981   0.211  0.00  0.00     0.015 A 
ATOM     10  C   UNL d   1      -3.935   5.483   1.566  0.00  0.00     0.015 A 
ENDBRANCH   5   8
ENDBRANCH   1   4
BRANCH   3  11
ATOM     11  C   UNL d   1      -0.303   0.874   0.053  0.00  0.00     0.041 A 
ATOM     12  C   UNL d   1       0.787  -0.006  -0.001  0.00  0.00     0.048 A 
ATOM     13 CL   UNL d   1       2.430   0.531  -0.046  0.00  0.00    -0.083 Cl
ATOM     14  C   UNL d   1       0.576  -1.393  -0.021  0.00  0.00     0.025 A 
ATOM     15  C   UNL d   1      -0.719  -1.913   0.010  0.00  0.00     0.005 A 
ATOM     16  C   UNL d   1      -1.803  -1.046   0.067  0.00  0.00     0.043 A 
ATOM     17  C   UNL d   1      -1.595   0.333   0.088  0.00  0.00     0.129 A 
ATOM     18  F   UNL d   1      -2.685   1.112   0.136  0.00  0.00    -0.205 F 
ENDBRANCH   3  11
TORSDOF 3
