REMARK  6 active torsions:
REMARK  status: ('A' for Active; 'I' for Inactive)
REMARK    1  A    between atoms: N_13  and  C_3 
REMARK    2  A    between atoms: C_14  and  C_10 
REMARK    3  A    between atoms: C_18  and  C_11 
REMARK       I    between atoms: C_12  and  N_15 
REMARK       I    between atoms: N_17  and  C_12 
REMARK    4  A    between atoms: C_16  and  O_24 
REMARK    5  A    between atoms: C_28  and  N_17 
REMARK    6  A    between atoms: O_24  and  C_32 
ROOT
ATOM      1  C   UNL d   1       0.186   6.900   0.774  0.00  0.00     0.323 C 
ATOM      2  N   UNL d   1      -0.725   2.822   0.140  0.00  0.00    -0.363 N 
ATOM      3  N   UNL d   1      -0.224   5.678   0.260  0.00  0.00    -0.331 N 
ATOM      4  N   UNL d   1       1.374   7.391   0.284  0.00  0.00    -0.309 N 
ATOM      5  O   UNL d   1      -0.498   7.478   1.615  0.00  0.00    -0.247 OA
ATOM      6  C   UNL d   1      -1.329   3.664   1.215  0.00  0.00     0.144 C 
ATOM      7  C   UNL d   1       0.564   3.395  -0.331  0.00  0.00     0.144 C 
ATOM      8  C   UNL d   1      -1.496   5.118   0.743  0.00  0.00     0.147 C 
ATOM      9  C   UNL d   1       0.403   4.857  -0.783  0.00  0.00     0.147 C 
ATOM     10  H   UNL d   1       1.846   6.856  -0.419  0.00  0.00     0.170 HD
ENDROOT
BRANCH   2  11
ATOM     11  C   UNL d   1      -0.854   1.411   0.171  0.00  0.00     0.129 A 
ATOM     12  N   UNL d   1      -1.004   0.691   1.392  0.00  0.00    -0.224 N 
ATOM     13  C   UNL d   1      -1.087  -0.709   1.381  0.00  0.00     0.131 A 
ATOM     14  N   UNL d   1      -1.048   1.169   2.668  0.00  0.00    -0.294 N 
ATOM     15  N   UNL d   1      -1.068  -1.448   0.240  0.00  0.00    -0.337 N 
ATOM     16  C   UNL d   1      -1.169  -1.095   2.701  0.00  0.00     0.077 A 
ATOM     17  C   UNL d   1      -0.944  -0.793  -0.886  0.00  0.00     0.121 A 
ATOM     18  HN  UNL d   1      -1.147  -2.465   0.261  1.00  0.00     0.167 HD
ATOM     19  C   UNL d   1      -0.819   0.698  -0.973  0.00  0.00     0.084 A 
ATOM     20  C   UNL d   1      -1.130   0.094   3.462  0.00  0.00     0.037 A 
ATOM     21  HN  UNL d   1      -1.022   2.146   2.959  1.00  0.00     0.187 HD
BRANCH  17  22
ATOM     22  C   UNL d   1      -0.909  -1.556  -2.212  0.00  0.00     0.432 C 
ATOM     23  F   UNL d   1      -0.812  -0.731  -3.295  0.00  0.00    -0.165 F 
ATOM     24  F   UNL d   1       0.153  -2.402  -2.292  0.00  0.00    -0.165 F 
ATOM     25  F   UNL d   1      -2.026  -2.307  -2.409  0.00  0.00    -0.165 F 
ENDBRANCH  17  22
BRANCH  20  26
ATOM     26  C   UNL d   1      -1.212   0.256   4.971  0.00  0.00    -0.007 C 
ATOM     27  C   UNL d   1      -2.688   0.323   5.405  0.00  0.00     0.021 C 
ATOM     28  C   UNL d   1      -0.539  -0.934   5.694  0.00  0.00     0.021 C 
ATOM     29  C   UNL d   1      -0.502   1.543   5.445  0.00  0.00     0.021 C 
ENDBRANCH  20  26
ENDBRANCH   2  11
BRANCH   4  30
ATOM     30  C   UNL d   1       1.969   8.639   0.574  0.00  0.00     0.036 A 
ATOM     31  C   UNL d   1       1.451   9.567   1.478  0.00  0.00     0.032 A 
ATOM     32  C   UNL d   1       2.034  10.834   1.633  0.00  0.00     0.039 A 
ATOM     33  C   UNL d   1       3.178  11.172   0.919  0.00  0.00     0.078 A 
ATOM     34  C   UNL d   1       3.721  10.231   0.039  0.00  0.00     0.039 A 
ATOM     35  C   UNL d   1       3.129   8.975  -0.129  0.00  0.00     0.032 A 
BRANCH  33  36
ATOM     36  O   UNL d   1       3.865  12.345   0.967  0.00  0.00    -0.255 OA
BRANCH  36  37
ATOM     37  C   UNL d   1       3.574  13.304   1.969  0.00  0.00     0.530 C 
ATOM     38  F   UNL d   1       3.177  12.756   3.136  0.00  0.00    -0.144 F 
ATOM     39  F   UNL d   1       4.704  14.007   2.215  0.00  0.00    -0.144 F 
ATOM     40  F   UNL d   1       2.631  14.165   1.533  0.00  0.00    -0.144 F 
ENDBRANCH  36  37
ENDBRANCH  33  36
ENDBRANCH   4  30
TORSDOF 6
