REMARK  9 active torsions:
REMARK  status: ('A' for Active; 'I' for Inactive)
REMARK    1  A    between atoms: N_2  and  C_1 
REMARK    2  A    between atoms: C_8  and  N_2 
REMARK    3  A    between atoms: C_4  and  O_5 
REMARK    4  A    between atoms: C_16  and  C_4 
REMARK    5  A    between atoms: O_5  and  C_9 
REMARK    6  A    between atoms: C_17  and  N_7 
REMARK    7  A    between atoms: C_14  and  C_17 
REMARK    8  A    between atoms: C_18  and  C_14 
REMARK    9  A    between atoms: O_15  and  C_18 
ROOT
ATOM      1  C   UNL d   1       0.860  -2.135  -1.333  0.00  0.00     0.034 A 
ATOM      2  C   UNL d   1       2.123  -4.163  -2.770  0.00  0.00     0.079 A 
ATOM      3  C   UNL d   1       1.653  -3.081  -0.678  0.00  0.00     0.032 A 
ATOM      4  C   UNL d   1       0.586  -2.290  -2.695  0.00  0.00     0.032 A 
ATOM      5  C   UNL d   1       1.243  -3.297  -3.421  0.00  0.00     0.039 A 
ATOM      6  C   UNL d   1       2.269  -4.106  -1.388  0.00  0.00     0.039 A 
ENDROOT
BRANCH   1   7
ATOM      7  N   UNL d   1       0.319  -1.048  -0.611  0.00  0.00    -0.333 N 
ATOM      8  H   UNL d   1      -0.468  -0.568  -1.029  0.00  0.00     0.168 HD
BRANCH   7   9
ATOM      9  C   UNL d   1       1.034  -0.269   0.275  0.00  0.00     0.172 C 
ATOM     10  S   UNL d   1       2.692  -0.029   0.311  0.00  0.00    -0.041 SA
ATOM     11  N   UNL d   1       0.304   0.414   1.202  0.00  0.00    -0.367 N 
ATOM     12  H   UNL d   1       0.885   0.947   1.840  0.00  0.00     0.161 HD
BRANCH  11  13
ATOM     13  C   UNL d   1      -1.067   0.167   1.618  0.00  0.00     0.124 C 
BRANCH  13  14
ATOM     14  C   UNL d   1      -1.210  -1.150   2.380  0.00  0.00     0.046 C 
BRANCH  14  15
ATOM     15  C   UNL d   1      -2.609  -1.313   2.956  0.00  0.00     0.165 C 
BRANCH  15  16
ATOM     16  O   UNL d   1      -3.569  -1.257   1.913  0.00  0.00    -0.401 OA
ATOM     17  H   UNL d   1      -4.441  -1.408   2.318  0.00  0.00     0.209 HD
ENDBRANCH  15  16
ENDBRANCH  14  15
ENDBRANCH  13  14
ENDBRANCH  11  13
ENDBRANCH   7   9
ENDBRANCH   1   7
BRANCH   2  18
ATOM     18  O   UNL d   1       2.829  -5.092  -3.560  0.00  0.00    -0.279 OA
BRANCH  18  19
ATOM     19  C   UNL d   1       4.172  -5.341  -3.247  0.00  0.00     0.263 C 
ATOM     20  O   UNL d   1       4.814  -4.846  -2.329  0.00  0.00    -0.265 OA
BRANCH  19  21
ATOM     21  C   UNL d   1       4.744  -6.314  -4.250  0.00  0.00     0.107 C 
ATOM     22  C   UNL d   1       6.154  -6.738  -3.863  0.00  0.00     0.015 C 
ENDBRANCH  19  21
ENDBRANCH  18  19
ENDBRANCH   2  18
TORSDOF 9
