REMARK  5 active torsions:
REMARK  status: ('A' for Active; 'I' for Inactive)
REMARK    1  A    between atoms: N_2  and  S_1 
REMARK    2  A    between atoms: C_6  and  S_1 
REMARK    3  A    between atoms: C_3  and  C_9 
REMARK    4  A    between atoms: O_13  and  C_3 
REMARK    5  A    between atoms: C_16  and  O_13 
ROOT
ATOM      1  N   UNL d   1       0.635  -0.737  -1.530  0.00  0.00    -0.206 NA
ATOM      2  C   UNL d   1       1.153   0.022  -2.705  0.00  0.00     0.108 C 
ATOM      3  C   UNL d   1       1.009  -2.180  -1.548  0.00  0.00     0.108 C 
ATOM      4  C   UNL d   1       1.141  -2.109  -4.073  0.00  0.00     0.088 C 
ATOM      5  C   UNL d   1       0.712  -0.640  -4.008  0.00  0.00     0.030 C 
ATOM      6  C   UNL d   1       0.560  -2.833  -2.854  0.00  0.00     0.030 C 
ENDROOT
BRANCH   1   7
ATOM      7  S   UNL d   1       1.009   0.008  -0.017  0.00  0.00     0.243 S 
ATOM      8  O   UNL d   1       2.384   0.456  -0.085  0.00  0.00    -0.206 OA
ATOM      9  O   UNL d   1       0.553  -0.861   1.046  0.00  0.00    -0.206 OA
BRANCH   7  10
ATOM     10  C   UNL d   1      -0.053   1.428  -0.006  0.00  0.00     0.074 A 
ATOM     11  C   UNL d   1      -1.435   1.228  -0.069  0.00  0.00     0.025 A 
ATOM     12  C   UNL d   1      -2.290   2.329  -0.036  0.00  0.00     0.002 A 
ATOM     13  C   UNL d   1      -1.762   3.618   0.063  0.00  0.00     0.000 A 
ATOM     14  C   UNL d   1      -0.380   3.810   0.135  0.00  0.00     0.002 A 
ATOM     15  C   UNL d   1       0.482   2.714   0.102  0.00  0.00     0.025 A 
ENDBRANCH   7  10
ENDBRANCH   1   7
BRANCH   4  16
ATOM     16  C   UNL d   1       2.650  -2.322  -4.134  0.00  0.00     0.263 C 
ATOM     17  O   UNL d   1       3.207  -3.334  -3.726  0.00  0.00    -0.265 OA
BRANCH  16  18
ATOM     18  O   UNL d   1       3.287  -1.272  -4.716  0.00  0.00    -0.322 OA
BRANCH  18  19
ATOM     19  C   UNL d   1       4.720  -1.368  -4.767  0.00  0.00     0.174 C 
ATOM     20  C   UNL d   1       5.326  -0.957  -3.437  0.00  0.00     0.034 C 
ENDBRANCH  18  19
ENDBRANCH  16  18
ENDBRANCH   4  16
TORSDOF 5
