REMARK  3 active torsions:
REMARK  status: ('A' for Active; 'I' for Inactive)
REMARK    1  A    between atoms: C_8  and  N_4 
REMARK    2  A    between atoms: C_9  and  C_8 
REMARK    3  A    between atoms: C_10  and  C_9 
ROOT
ATOM      1  C   UNL d   1      -3.445  -0.981  -0.315  0.00  0.00     0.170 C 
ATOM      2  N   UNL d   1      -2.641   0.100  -0.175  0.00  0.00    -0.342 N 
ATOM      3  N   UNL d   1      -2.831  -2.187  -0.305  0.00  0.00    -0.342 N 
ATOM      4  N   UNL d   1      -0.731  -1.246   0.233  0.00  0.00     0.123 N 
ATOM      5  C   UNL d   1      -1.214   0.021  -0.287  0.00  0.00     0.399 C 
ATOM      6  C   UNL d   1      -1.416  -2.317  -0.468  0.00  0.00     0.399 C 
ATOM      7  S   UNL d   1      -5.092  -0.838  -0.435  0.00  0.00    -0.041 SA
ATOM      8  H   UNL d   1      -3.088   1.003  -0.250  0.00  0.00     0.163 HD
ATOM      9  H   UNL d   1      -3.421  -2.989  -0.479  0.00  0.00     0.163 HD
ENDROOT
BRANCH   4  10
ATOM     10  C   UNL d   1      -0.816  -1.320   1.704  0.00  0.00     0.281 C 
BRANCH  10  11
ATOM     11  C   UNL d   1      -0.080  -2.541   2.284  0.00  0.00     0.069 C 
BRANCH  11  12
ATOM     12  C   UNL d   1      -0.143  -2.608   3.791  0.00  0.00    -0.057 A 
ATOM     13  C   UNL d   1      -1.261  -3.169   4.426  0.00  0.00     0.007 A 
ATOM     14  C   UNL d   1      -1.306  -3.278   5.816  0.00  0.00     0.001 A 
ATOM     15  C   UNL d   1      -0.238  -2.820   6.586  0.00  0.00     0.000 A 
ATOM     16  C   UNL d   1       0.869  -2.243   5.966  0.00  0.00     0.001 A 
ATOM     17  C   UNL d   1       0.916  -2.134   4.575  0.00  0.00     0.007 A 
ENDBRANCH  11  12
ENDBRANCH  10  11
ENDBRANCH   4  10
TORSDOF 3
