REMARK  2 active torsions:
REMARK  status: ('A' for Active; 'I' for Inactive)
REMARK       I    between atoms: N_2  and  C_1 
REMARK       I    between atoms: N_3  and  C_1 
REMARK    1  A    between atoms: C_4  and  N_2 
REMARK    2  A    between atoms: C_7  and  N_3 
ROOT
ATOM      1  C   UNL d   1       0.989  -0.107  -0.114  0.00  0.00     0.326 C 
ATOM      2  N   UNL d   1       0.305   0.188  -1.269  0.00  0.00    -0.294 N 
ATOM      3  N   UNL d   1       0.227  -0.185   1.016  0.00  0.00    -0.306 N 
ATOM      4  O   UNL d   1       2.191  -0.345  -0.210  0.00  0.00    -0.247 OA
ATOM      5  H   UNL d   1       0.893   0.153  -2.088  0.00  0.00     0.172 HD
ATOM      6  H   UNL d   1      -0.768  -0.092   0.830  0.00  0.00     0.171 HD
ENDROOT
BRANCH   2   7
ATOM      7  C   UNL d   1      -1.050   0.496  -1.430  0.00  0.00     0.109 A 
ATOM      8  N   UNL d   1      -1.831   0.641  -0.335  0.00  0.00    -0.346 N 
ATOM      9  C   UNL d   1      -3.131   0.977  -0.507  0.00  0.00     0.007 A 
ATOM     10  HN  UNL d   1      -1.448   0.500   0.600  1.00  0.00     0.167 HD
ATOM     11  C   UNL d   1      -3.941   1.211   0.732  0.00  0.00     0.068 C 
ATOM     12  C   UNL d   1      -3.702   1.118  -1.764  0.00  0.00     0.025 A 
ATOM     13  C   UNL d   1      -2.897   0.939  -2.884  0.00  0.00     0.006 A 
ATOM     14  C   UNL d   1      -1.546   0.639  -2.718  0.00  0.00     0.049 A 
ENDBRANCH   2   7
BRANCH   3  15
ATOM     15  C   UNL d   1       0.599  -0.507   2.331  0.00  0.00     0.075 A 
ATOM     16  C   UNL d   1       1.891  -0.427   2.856  0.00  0.00     0.143 A 
ATOM     17  F   UNL d   1       2.915   0.064   2.148  0.00  0.00    -0.204 F 
ATOM     18  C   UNL d   1       2.143  -0.780   4.184  0.00  0.00     0.044 A 
ATOM     19  C   UNL d   1       1.106  -1.221   5.004  0.00  0.00     0.003 A 
ATOM     20  C   UNL d   1      -0.190  -1.290   4.500  0.00  0.00     0.002 A 
ATOM     21  C   UNL d   1      -0.442  -0.923   3.177  0.00  0.00     0.033 A 
ENDBRANCH   3  15
TORSDOF 2
