REMARK  1 active torsions:
REMARK  status: ('A' for Active; 'I' for Inactive)
REMARK    1  A    between atoms: C_12  and  C_3 
ROOT
ATOM      1  S   UNL d   1       1.624   1.951  -0.423  0.00  0.00    -0.144 SA
ATOM      2  S   UNL d   1       2.062  -1.072  -0.949  0.00  0.00    -0.144 SA
ATOM      3  C   UNL d   1       2.801   0.549  -0.504  0.00  0.00     0.141 C 
ATOM      4  C   UNL d   1      -0.309  -0.784   0.402  0.00  0.00    -0.041 A 
ATOM      5  C   UNL d   1      -0.502   0.584   0.636  0.00  0.00    -0.041 A 
ATOM      6  C   UNL d   1      -1.393  -1.555  -0.052  0.00  0.00     0.015 A 
ATOM      7  C   UNL d   1      -1.771   1.143   0.397  0.00  0.00     0.015 A 
ATOM      8  C   UNL d   1      -2.664  -0.998  -0.296  0.00  0.00    -0.056 A 
ATOM      9  C   UNL d   1      -2.853   0.375  -0.074  0.00  0.00    -0.056 A 
ATOM     10  C   UNL d   1       0.639   1.487   1.025  0.00  0.00     0.114 C 
ATOM     11  C   UNL d   1       1.053  -1.417   0.517  0.00  0.00     0.114 C 
ATOM     12  C   UNL d   1      -4.128   1.121  -0.358  0.00  0.00     0.049 C 
ATOM     13  C   UNL d   1      -3.716  -1.932  -0.829  0.00  0.00     0.049 C 
ENDROOT
BRANCH   3  14
ATOM     14  C   UNL d   1       3.893   0.884  -1.520  0.00  0.00    -0.035 A 
ATOM     15  C   UNL d   1       3.600   1.007  -2.892  0.00  0.00     0.009 A 
ATOM     16  C   UNL d   1       4.603   1.277  -3.823  0.00  0.00     0.007 A 
ATOM     17  C   UNL d   1       5.926   1.444  -3.406  0.00  0.00    -0.062 A 
ATOM     18  C   UNL d   1       6.226   1.348  -2.042  0.00  0.00     0.007 A 
ATOM     19  C   UNL d   1       6.998   1.690  -4.425  0.00  0.00     0.048 C 
ATOM     20  C   UNL d   1       5.221   1.074  -1.108  0.00  0.00     0.009 A 
ENDBRANCH   3  14
TORSDOF 1
