REMARK  2 active torsions:
REMARK  status: ('A' for Active; 'I' for Inactive)
REMARK    1  A    between atoms: C_10  and  C_4 
REMARK    2  A    between atoms: N_8  and  N_6 
ROOT
ATOM      1  N   UNL d   1       0.866   0.672   0.020  0.00  0.00    -0.338 N 
ATOM      2  HN  UNL d   1       1.686   1.275  -0.045  1.00  0.00     0.168 HD
ATOM      3  C   UNL d   1      -0.427   1.127   0.149  0.00  0.00     0.159 C 
ATOM      4  C   UNL d   1       0.906  -0.626  -0.007  0.00  0.00     0.031 C 
ATOM      5  S   UNL d   1      -1.653  -0.123  -0.038  0.00  0.00    -0.086 SA
ATOM      6  N   UNL d   1      -0.654   2.377   0.414  0.00  0.00    -0.280 N 
ATOM      7  HN  UNL d   1       0.090   3.068   0.514  1.00  0.00     0.189 HD
ATOM      8  C   UNL d   1      -0.392  -1.392   0.107  0.00  0.00     0.140 C 
ENDROOT
BRANCH   6   9
ATOM      9  N   UNL d   1      -2.008   2.690   0.551  0.00  0.00    -0.308 N 
ATOM     10  C   UNL d   1      -2.272   3.913   0.893  0.00  0.00    -0.004 C 
ATOM     11  C   UNL d   1      -1.261   5.002   1.150  0.00  0.00     0.064 C 
ATOM     12  C   UNL d   1      -3.726   4.286   1.046  0.00  0.00     0.064 C 
ATOM     13  HN  UNL d   1      -2.743   2.001   0.391  1.00  0.00     0.186 HD
ENDBRANCH   6   9
BRANCH   4  14
ATOM     14  C   UNL d   1       2.176  -1.384  -0.149  0.00  0.00    -0.013 A 
ATOM     15  C   UNL d   1       2.272  -2.712   0.290  0.00  0.00     0.015 A 
ATOM     16  C   UNL d   1       3.469  -3.419   0.138  0.00  0.00     0.024 A 
ATOM     17  C   UNL d   1       4.567  -2.803  -0.457  0.00  0.00     0.034 A 
ATOM     18  C   UNL d   1       4.481  -1.483  -0.898  0.00  0.00     0.024 A 
ATOM     19 CL   UNL d   1       6.036  -3.679  -0.643  0.00  0.00    -0.084 Cl
ATOM     20  C   UNL d   1       3.288  -0.770  -0.739  0.00  0.00     0.015 A 
ENDBRANCH   4  14
TORSDOF 2
