REMARK  2 active torsions:
REMARK  status: ('A' for Active; 'I' for Inactive)
REMARK    1  A    between atoms: C_3  and  C_1 
REMARK    2  A    between atoms: C_7  and  C_2 
REMARK       I    between atoms: N_4  and  C_3 
ROOT
ATOM      1  C   UNL d   1      -0.290  -1.237  -0.151  0.00  0.00     0.093 C 
ATOM      2  C   UNL d   1       0.012  -0.098   0.668  0.00  0.00     0.086 C 
ATOM      3  N   UNL d   1      -0.827   0.914   0.375  0.00  0.00    -0.259 N 
ATOM      4  HN  UNL d   1      -0.932   1.789   0.889  1.00  0.00     0.195 HD
ATOM      5  O   UNL d   1      -1.509   0.537  -0.749  0.00  0.00    -0.241 OA
ATOM      6  C   UNL d   1      -1.144  -0.718  -1.108  0.00  0.00     0.090 C 
ATOM      7  C   UNL d   1      -1.720  -1.192  -2.382  0.00  0.00     0.080 C 
ENDROOT
BRANCH   1   8
ATOM      8  C   UNL d   1       0.307  -2.564  -0.108  0.00  0.00     0.263 C 
ATOM      9  N   UNL d   1      -0.553  -3.689  -0.073  0.00  0.00    -0.313 N 
ATOM     10  C   UNL d   1      -0.073  -5.045   0.076  0.00  0.00     0.043 A 
ATOM     11  C   UNL d   1      -2.026  -3.615  -0.083  0.00  0.00     0.133 C 
ATOM     12  C   UNL d   1      -0.904  -6.123  -0.319  0.00  0.00    -0.031 A 
ATOM     13  C   UNL d   1       1.161  -5.346   0.669  0.00  0.00     0.030 A 
ATOM     14  C   UNL d   1      -0.495  -7.450  -0.100  0.00  0.00     0.009 A 
ATOM     15  C   UNL d   1      -2.257  -5.913  -0.959  0.00  0.00     0.042 C 
ATOM     16  C   UNL d   1       0.724  -7.723   0.509  0.00  0.00     0.001 A 
ATOM     17  C   UNL d   1       1.550  -6.673   0.890  0.00  0.00     0.002 A 
ATOM     18  C   UNL d   1      -2.558  -4.449  -1.234  0.00  0.00     0.025 C 
ATOM     19  O   UNL d   1       1.534  -2.634  -0.094  0.00  0.00    -0.267 OA
ENDBRANCH   1   8
BRANCH   2  20
ATOM     20  C   UNL d   1       1.045   0.104   1.688  0.00  0.00     0.037 A 
ATOM     21  C   UNL d   1       1.962   1.174   1.562  0.00  0.00     0.048 A 
ATOM     22 CL   UNL d   1       2.021   2.216   0.173  0.00  0.00    -0.083 Cl
ATOM     23  C   UNL d   1       2.909   1.441   2.560  0.00  0.00     0.025 A 
ATOM     24  C   UNL d   1       2.987   0.632   3.686  0.00  0.00     0.003 A 
ATOM     25  C   UNL d   1       2.113  -0.445   3.816  0.00  0.00     0.025 A 
ATOM     26  C   UNL d   1       1.141  -0.703   2.835  0.00  0.00     0.048 A 
ATOM     27 CL   UNL d   1       0.055  -2.013   3.159  0.00  0.00    -0.083 Cl
ENDBRANCH   2  20
TORSDOF 2
