REMARK  3 active torsions:
REMARK  status: ('A' for Active; 'I' for Inactive)
REMARK       I    between atoms: C_5  and  N_7 
REMARK       I    between atoms: N_11  and  C_5 
REMARK    1  A    between atoms: C_10  and  S_13 
REMARK    2  A    between atoms: C_20  and  N_11 
REMARK    3  A    between atoms: S_13  and  C_25 
ROOT
ATOM      1  C   UNL d   1      -3.051   0.115   0.242  0.00  0.00     0.148 A 
ATOM      2  N   UNL d   1      -2.331   1.088  -0.278  0.00  0.00    -0.336 N 
ATOM      3  HN  UNL d   1      -2.720   1.930  -0.702  1.00  0.00     0.168 HD
ATOM      4  S   UNL d   1      -2.110  -1.181   0.896  0.00  0.00    -0.052 SA
ATOM      5  C   UNL d   1      -8.555  -0.501  -0.291  0.00  0.00     0.323 C 
ATOM      6  N   UNL d   1      -4.407   0.074   0.187  0.00  0.00    -0.358 N 
ATOM      7  N   UNL d   1      -7.174  -0.375  -0.308  0.00  0.00    -0.331 N 
ATOM      8  C   UNL d   1      -0.661  -0.406   0.414  0.00  0.00     0.036 A 
ATOM      9  C   UNL d   1      -0.980   0.816  -0.173  0.00  0.00     0.051 A 
ATOM     10  N   UNL d   1      -9.236   0.193  -1.262  0.00  0.00    -0.309 N 
ATOM     11  C   UNL d   1       0.664  -0.849   0.546  0.00  0.00     0.045 A 
ATOM     12  O   UNL d   1      -9.097  -1.204   0.560  0.00  0.00    -0.247 OA
ATOM     13  C   UNL d   1      -5.224  -0.526   1.244  0.00  0.00     0.145 C 
ATOM     14  C   UNL d   1      -5.127   1.028  -0.659  0.00  0.00     0.145 C 
ATOM     15  C   UNL d   1      -6.414  -1.252   0.602  0.00  0.00     0.147 C 
ATOM     16  C   UNL d   1      -6.340   0.325  -1.304  0.00  0.00     0.147 C 
ATOM     17  C   UNL d   1       0.064   1.648  -0.624  0.00  0.00     0.032 A 
ATOM     18  C   UNL d   1       1.678  -0.011   0.079  0.00  0.00     0.035 A 
ATOM     19  C   UNL d   1       1.391   1.225  -0.491  0.00  0.00     0.026 A 
ATOM     20 CL   UNL d   1       3.317  -0.523   0.212  0.00  0.00    -0.084 Cl
ATOM     21  H   UNL d   1      -8.696   0.659  -1.966  0.00  0.00     0.170 HD
ENDROOT
BRANCH  10  22
ATOM     22  C   UNL d   1     -10.630   0.179  -1.494  0.00  0.00     0.036 A 
ATOM     23  C   UNL d   1     -11.552  -0.465  -0.667  0.00  0.00     0.031 A 
ATOM     24  C   UNL d   1     -12.901  -0.538  -1.024  0.00  0.00     0.021 A 
ATOM     25  C   UNL d   1     -13.345   0.024  -2.221  0.00  0.00     0.009 A 
ATOM     26  C   UNL d   1     -12.447   0.747  -3.008  0.00  0.00     0.021 A 
ATOM     27  C   UNL d   1     -11.097   0.823  -2.646  0.00  0.00     0.031 A 
BRANCH  25  28
ATOM     28  S   UNL d   1     -15.029  -0.179  -2.749  0.00  0.00    -0.016 SA
BRANCH  28  29
ATOM     29  C   UNL d   1     -15.061  -1.957  -3.057  0.00  0.00     0.448 C 
ATOM     30  F   UNL d   1     -13.923  -2.600  -2.704  0.00  0.00    -0.160 F 
ATOM     31  F   UNL d   1     -16.075  -2.541  -2.373  0.00  0.00    -0.160 F 
ATOM     32  F   UNL d   1     -15.267  -2.212  -4.372  0.00  0.00    -0.160 F 
ENDBRANCH  28  29
ENDBRANCH  25  28
ENDBRANCH  10  22
TORSDOF 3
