REMARK  7 active torsions:
REMARK  status: ('A' for Active; 'I' for Inactive)
REMARK    1  A    between atoms: S_8  and  C_2 
REMARK    2  A    between atoms: C_9  and  C_3 
REMARK    3  A    between atoms: C_11  and  S_8 
REMARK    4  A    between atoms: C_10  and  C_11 
REMARK    5  A    between atoms: C_13  and  C_10 
REMARK    6  A    between atoms: C_25  and  C_22 
REMARK    7  A    between atoms: C_28  and  C_25 
ROOT
ATOM      1  N   UNL d   1      -1.180   3.397   2.362  0.00  0.00    -0.315 N 
ATOM      2  C   UNL d   1       0.047   3.308   1.758  0.00  0.00     0.163 A 
ATOM      3  C   UNL d   1      -0.952   3.974   3.601  0.00  0.00     0.134 A 
ATOM      4  N   UNL d   1       0.349   4.192   3.711  0.00  0.00    -0.283 N 
ATOM      5  HN  UNL d   1       0.812   4.620   4.513  1.00  0.00     0.188 HD
ATOM      6  N   UNL d   1       0.974   3.749   2.572  0.00  0.00    -0.278 N 
ATOM      7  HN  UNL d   1       1.978   3.762   2.392  1.00  0.00     0.189 HD
ATOM      8  C   UNL d   1      -2.454   3.017   1.807  0.00  0.00     0.160 C 
ENDROOT
BRANCH   2   9
ATOM      9  S   UNL d   1       0.290   2.712   0.153  0.00  0.00    -0.080 SA
BRANCH   9  10
ATOM     10  C   UNL d   1       2.061   3.064  -0.152  0.00  0.00     0.126 C 
ATOM     11  C   UNL d   1       2.352   4.565  -0.227  0.00  0.00     0.030 C 
BRANCH  10  12
ATOM     12  C   UNL d   1       2.412   2.420  -1.499  0.00  0.00     0.173 C 
ATOM     13  O   UNL d   1       2.207   3.005  -2.566  0.00  0.00    -0.291 OA
BRANCH  12  14
ATOM     14  C   UNL d   1       3.000   1.042  -1.558  0.00  0.00     0.011 A 
ATOM     15  C   UNL d   1       3.209   0.244  -0.429  0.00  0.00     0.015 A 
ATOM     16  C   UNL d   1       3.809  -1.015  -0.558  0.00  0.00     0.008 A 
ATOM     17  C   UNL d   1       4.202  -1.504  -1.810  0.00  0.00    -0.058 A 
ATOM     18  C   UNL d   1       3.950  -0.724  -2.943  0.00  0.00     0.008 A 
ATOM     19  C   UNL d   1       3.362   0.538  -2.816  0.00  0.00     0.015 A 
BRANCH  17  20
ATOM     20  C   UNL d   1       4.872  -2.856  -1.926  0.00  0.00     0.042 C 
BRANCH  20  21
ATOM     21  C   UNL d   1       6.264  -2.835  -2.592  0.00  0.00    -0.019 C 
ATOM     22  C   UNL d   1       7.262  -1.960  -1.829  0.00  0.00     0.010 C 
ATOM     23  C   UNL d   1       6.810  -4.262  -2.697  0.00  0.00     0.010 C 
ENDBRANCH  20  21
ENDBRANCH  17  20
ENDBRANCH  12  14
ENDBRANCH  10  12
ENDBRANCH   9  10
ENDBRANCH   2   9
BRANCH   3  24
ATOM     24  C   UNL d   1      -1.951   4.349   4.614  0.00  0.00     0.010 A 
ATOM     25  C   UNL d   1      -1.765   5.521   5.365  0.00  0.00     0.027 A 
ATOM     26  C   UNL d   1      -2.696   5.936   6.340  0.00  0.00    -0.025 A 
ATOM     27  C   UNL d   1      -2.512   7.105   7.098  0.00  0.00     0.012 A 
ATOM     28  C   UNL d   1      -3.849   5.152   6.564  0.00  0.00    -0.026 A 
ATOM     29  C   UNL d   1      -3.453   7.497   8.050  0.00  0.00     0.001 A 
ATOM     30  C   UNL d   1      -4.597   6.731   8.258  0.00  0.00     0.001 A 
ATOM     31  C   UNL d   1      -4.793   5.565   7.518  0.00  0.00     0.012 A 
ATOM     32  C   UNL d   1      -4.024   3.970   5.834  0.00  0.00     0.013 A 
ATOM     33  C   UNL d   1      -3.078   3.566   4.887  0.00  0.00     0.016 A 
ENDBRANCH   3  24
TORSDOF 7
