REMARK  3 active torsions:
REMARK  status: ('A' for Active; 'I' for Inactive)
REMARK    1  A    between atoms: C_12  and  N_3 
REMARK    2  A    between atoms: C_7  and  C_4 
REMARK    3  A    between atoms: C_8  and  C_5 
ROOT
ATOM      1  N   UNL d   1       1.156  -0.170   0.085  0.00  0.00    -0.301 N 
ATOM      2  HN  UNL d   1       2.157  -0.362   0.131  1.00  0.00     0.187 HD
ATOM      3  N   UNL d   1       0.150  -1.095   0.081  0.00  0.00    -0.283 N 
ATOM      4  C   UNL d   1      -1.187  -0.508  -0.003  0.00  0.00     0.147 A 
ATOM      5  C   UNL d   1       0.597   1.000   0.018  0.00  0.00     0.038 A 
ATOM      6  C   UNL d   1      -0.908   0.993   0.000  0.00  0.00     0.091 A 
ENDROOT
BRANCH   5   7
ATOM      7  C   UNL d   1       1.356   2.273  -0.041  0.00  0.00    -0.011 A 
ATOM      8  C   UNL d   1       2.755   2.241  -0.070  0.00  0.00     0.025 A 
ATOM      9  C   UNL d   1       3.502   3.431  -0.121  0.00  0.00    -0.025 A 
ATOM     10  C   UNL d   1       4.906   3.416  -0.143  0.00  0.00     0.012 A 
ATOM     11  C   UNL d   1       2.828   4.674  -0.143  0.00  0.00    -0.026 A 
ATOM     12  C   UNL d   1       5.633   4.609  -0.180  0.00  0.00     0.001 A 
ATOM     13  C   UNL d   1       4.967   5.830  -0.196  0.00  0.00     0.001 A 
ATOM     14  C   UNL d   1       3.572   5.863  -0.181  0.00  0.00     0.012 A 
ATOM     15  C   UNL d   1       1.427   4.694  -0.127  0.00  0.00     0.013 A 
ATOM     16  C   UNL d   1       0.695   3.505  -0.077  0.00  0.00     0.014 A 
ENDBRANCH   5   7
BRANCH   3  17
ATOM     17  C   UNL d   1       0.425  -2.460   0.028  0.00  0.00     0.051 A 
ATOM     18  C   UNL d   1       1.631  -2.970   0.533  0.00  0.00     0.031 A 
ATOM     19  C   UNL d   1       1.898  -4.344   0.544  0.00  0.00     0.002 A 
ATOM     20  C   UNL d   1       0.971  -5.239   0.019  0.00  0.00     0.000 A 
ATOM     21  C   UNL d   1      -0.223  -4.760  -0.507  0.00  0.00     0.002 A 
ATOM     22  C   UNL d   1      -0.493  -3.388  -0.493  0.00  0.00     0.031 A 
ENDBRANCH   3  17
BRANCH   4  23
ATOM     23  C   UNL d   1      -2.090  -0.902   1.156  0.00  0.00    -0.030 A 
ATOM     24  C   UNL d   1      -1.567  -1.165   2.438  0.00  0.00     0.049 A 
ATOM     25  C   UNL d   1      -2.438  -1.519   3.444  0.00  0.00     0.105 A 
ATOM     26  O   UNL d   1      -2.094  -1.813   4.726  0.00  0.00    -0.323 OA
ATOM     27  C   UNL d   1      -3.792  -1.608   3.229  0.00  0.00     0.105 A 
ATOM     28  C   UNL d   1      -3.391  -2.059   5.304  0.00  0.00     0.352 A 
ATOM     29  O   UNL d   1      -4.472  -1.967   4.352  0.00  0.00    -0.323 OA
ATOM     30  C   UNL d   1      -4.349  -1.347   1.997  0.00  0.00     0.040 A 
ATOM     31  C   UNL d   1      -3.489  -0.988   0.954  0.00  0.00     0.012 A 
ENDBRANCH   4  23
TORSDOF 3
