REMARK  5 active torsions:
REMARK  status: ('A' for Active; 'I' for Inactive)
REMARK    1  A    between atoms: N_2  and  S_1 
REMARK    2  A    between atoms: C_3  and  S_1 
REMARK    3  A    between atoms: C_8  and  N_2 
REMARK    4  A    between atoms: C_12  and  N_2 
REMARK    5  A    between atoms: C_14  and  C_8 
ROOT
ATOM      1  S   UNL d   1       1.316   0.115   0.163  0.00  0.00     0.261 S 
ATOM      2  O   UNL d   1       0.485   1.098   0.812  0.00  0.00    -0.200 OA
ATOM      3  O   UNL d   1       2.727   0.377  -0.017  0.00  0.00    -0.200 OA
ENDROOT
BRANCH   1   4
ATOM      4  N   UNL d   1       0.594  -0.364  -1.337  0.00  0.00    -0.298 N 
BRANCH   4   5
ATOM      5  C   UNL d   1      -0.896  -0.573  -1.266  0.00  0.00     0.174 C 
BRANCH   5   6
ATOM      6  C   UNL d   1      -1.786   0.660  -1.184  0.00  0.00    -0.040 A 
ATOM      7  C   UNL d   1      -2.107   1.443  -2.305  0.00  0.00     0.009 A 
ATOM      8  C   UNL d   1      -2.878   2.603  -2.182  0.00  0.00     0.001 A 
ATOM      9  C   UNL d   1      -3.355   2.996  -0.937  0.00  0.00     0.000 A 
ATOM     10  C   UNL d   1      -3.081   2.216   0.181  0.00  0.00     0.001 A 
ATOM     11  C   UNL d   1      -2.319   1.051   0.054  0.00  0.00     0.009 A 
ENDBRANCH   5   6
ENDBRANCH   4   5
BRANCH   4  12
ATOM     12  C   UNL d   1       1.078   0.315  -2.606  0.00  0.00     0.088 C 
ATOM     13  C   UNL d   1       2.602   0.265  -2.777  0.00  0.00     0.032 C 
ATOM     14  C   UNL d   1       0.529  -0.379  -3.869  0.00  0.00     0.032 C 
ENDBRANCH   4  12
ENDBRANCH   1   4
BRANCH   1  15
ATOM     15  C   UNL d   1       1.294  -1.361   1.180  0.00  0.00     0.080 A 
ATOM     16  C   UNL d   1       0.659  -1.343   2.432  0.00  0.00     0.035 A 
ATOM     17  C   UNL d   1       0.919  -2.391   3.303  0.00  0.00    -0.021 A 
ATOM     18  C   UNL d   1       0.427  -2.634   4.680  0.00  0.00     0.068 C 
ATOM     19  C   UNL d   1       1.760  -3.433   2.936  0.00  0.00     0.075 A 
ATOM     20  C   UNL d   1       1.403  -3.735   5.103  0.00  0.00     0.180 C 
ATOM     21  O   UNL d   1       1.941  -4.371   3.920  0.00  0.00    -0.350 OA
ATOM     22  C   UNL d   1       2.366  -3.485   1.697  0.00  0.00     0.039 A 
ATOM     23  C   UNL d   1       2.137  -2.429   0.811  0.00  0.00     0.028 A 
ENDBRANCH   1  15
TORSDOF 5
