REMARK  5 active torsions:
REMARK  status: ('A' for Active; 'I' for Inactive)
REMARK    1  A    between atoms: S_7  and  C_1 
REMARK    2  A    between atoms: C_13  and  S_7 
REMARK    3  A    between atoms: C_8  and  C_13 
REMARK       I    between atoms: N_9  and  C_8 
REMARK    4  A    between atoms: C_10  and  N_9 
REMARK    5  A    between atoms: S_16  and  C_14 
ROOT
ATOM      1  C   UNL d   1      -2.519  -4.433  -0.060  0.00  0.00     0.231 C 
ATOM      2  N   UNL d   1      -1.546  -5.419  -0.080  0.00  0.00    -0.326 N 
ATOM      3  O   UNL d   1      -2.300  -3.232   0.115  0.00  0.00    -0.272 OA
ATOM      4  H   UNL d   1      -1.840  -6.345  -0.370  0.00  0.00     0.169 HD
ENDROOT
BRANCH   1   5
ATOM      5  C   UNL d   1      -3.929  -4.862  -0.427  0.00  0.00     0.185 C 
BRANCH   5   6
ATOM      6  S   UNL d   1      -4.401  -6.521   0.141  0.00  0.00    -0.082 SA
BRANCH   6   7
ATOM      7  C   UNL d   1      -6.060  -6.507  -0.357  0.00  0.00     0.172 A 
ATOM      8  N   UNL d   1      -6.978  -7.474  -0.067  0.00  0.00    -0.260 N 
ATOM      9  N   UNL d   1      -8.159  -7.149  -0.624  0.00  0.00    -0.005 NA
ATOM     10  C   UNL d   1      -6.850  -8.695   0.670  0.00  0.00     0.177 C 
ATOM     11  N   UNL d   1      -7.951  -5.987  -1.229  0.00  0.00    -0.007 NA
ATOM     12  N   UNL d   1      -6.650  -5.577  -1.073  0.00  0.00    -0.265 N 
ATOM     13  HN  UNL d   1      -6.228  -4.724  -1.439  1.00  0.00     0.186 HD
ENDBRANCH   6   7
ENDBRANCH   5   6
ENDBRANCH   1   5
BRANCH   2  14
ATOM     14  C   UNL d   1      -0.158  -5.221   0.122  0.00  0.00     0.035 A 
ATOM     15  C   UNL d   1       0.375  -4.038   0.653  0.00  0.00     0.048 A 
ATOM     16  C   UNL d   1       1.756  -3.837   0.750  0.00  0.00     0.002 A 
ATOM     17  C   UNL d   1       2.615  -4.863   0.349  0.00  0.00     0.018 A 
ATOM     18  C   UNL d   1       2.100  -6.067  -0.135  0.00  0.00     0.004 A 
ATOM     19  C   UNL d   1       0.717  -6.248  -0.240  0.00  0.00     0.029 A 
BRANCH  16  20
ATOM     20  S   UNL d   1       2.485  -2.334   1.395  0.00  0.00    -0.134 SA
ATOM     21  C   UNL d   1       1.235  -1.087   0.964  0.00  0.00     0.095 C 
ENDBRANCH  16  20
ENDBRANCH   2  14
TORSDOF 5
