REMARK  9 active torsions:
REMARK  status: ('A' for Active; 'I' for Inactive)
REMARK    1  A    between atoms: C_2  and  S_1 
REMARK    2  A    between atoms: N_4  and  S_1 
REMARK    3  A    between atoms: C_11  and  N_4 
REMARK    4  A    between atoms: C_18  and  N_4 
REMARK    5  A    between atoms: C_15  and  C_11 
REMARK    6  A    between atoms: C_16  and  C_17 
REMARK    7  A    between atoms: N_27  and  C_16 
REMARK    8  A    between atoms: C_17  and  C_18 
REMARK    9  A    between atoms: O_28  and  N_22 
ROOT
ATOM      1  N   UNL d   1       1.023  -5.756  -6.755  0.00  0.00    -0.300 N 
ENDROOT
BRANCH   1   2
ATOM      2  S   UNL d   1       1.648  -5.680  -8.339  0.00  0.00     0.263 S 
ATOM      3  O   UNL d   1       1.001  -4.607  -9.064  0.00  0.00    -0.200 OA
ATOM      4  O   UNL d   1       3.095  -5.679  -8.247  0.00  0.00    -0.200 OA
BRANCH   2   5
ATOM      5  C   UNL d   1       1.154  -7.158  -9.141  0.00  0.00     0.109 A 
ATOM      6  C   UNL d   1      -0.201  -7.546  -9.256  0.00  0.00     0.090 A 
ATOM      7  N   UNL d   1      -1.280  -6.962  -8.709  0.00  0.00    -0.309 N 
ATOM      8  C   UNL d   1      -0.565  -8.763 -10.078  0.00  0.00     0.068 A 
ATOM      9  S   UNL d   1      -2.606  -7.828  -9.200  0.00  0.00     0.068 SA
ATOM     10  HN  UNL d   1      -1.284  -6.141  -8.105  1.00  0.00     0.176 HD
ATOM     11  N   UNL d   1      -1.882  -9.011 -10.111  0.00  0.00    -0.310 N 
ATOM     12  HN  UNL d   1      -2.348  -9.776 -10.599  1.00  0.00     0.176 HD
ATOM     13  C   UNL d   1       0.431  -9.528 -10.734  0.00  0.00     0.032 A 
ATOM     14  C   UNL d   1       1.758  -9.100 -10.565  0.00  0.00     0.004 A 
ATOM     15  C   UNL d   1       2.108  -7.965  -9.799  0.00  0.00     0.028 A 
ENDBRANCH   2   5
ENDBRANCH   1   2
BRANCH   1  16
ATOM     16  C   UNL d   1       1.320  -6.989  -5.967  0.00  0.00     0.200 C 
BRANCH  16  17
ATOM     17  C   UNL d   1       2.769  -7.243  -5.735  0.00  0.00     0.071 A 
ATOM     18  O   UNL d   1       3.252  -8.433  -6.206  0.00  0.00    -0.325 OA
ATOM     19  C   UNL d   1       4.573  -8.479  -5.896  0.00  0.00     0.142 A 
ATOM     20  C   UNL d   1       4.952  -7.340  -5.230  0.00  0.00     0.027 A 
ATOM     21  C   UNL d   1       3.785  -6.547  -5.110  0.00  0.00     0.036 A 
ENDBRANCH  16  17
ENDBRANCH   1  16
BRANCH   1  22
ATOM     22  C   UNL d   1       1.156  -4.508  -5.933  0.00  0.00     0.143 C 
BRANCH  22  23
ATOM     23  C   UNL d   1       0.269  -3.366  -6.417  0.00  0.00     0.092 C 
BRANCH  23  24
ATOM     24  C   UNL d   1       0.434  -2.115  -5.571  0.00  0.00     0.076 C 
ATOM     25  N   UNL d   1       0.648  -2.236  -4.294  0.00  0.00    -0.263 N 
ATOM     26  HN  UNL d   1       0.706  -3.125  -3.796  1.00  0.00     0.195 HD
BRANCH  25  27
ATOM     27  O   UNL d   1       0.789  -0.973  -3.695  0.00  0.00    -0.289 OA
ATOM     28  H   UNL d   1       0.853  -1.199  -2.749  0.00  0.00     0.244 HD
ENDBRANCH  25  27
BRANCH  24  29
ATOM     29  N   UNL d   1       0.325  -0.903  -6.204  0.00  0.00    -0.291 NA
ATOM     30  H   UNL d   1       0.603  -0.857  -7.178  0.00  0.00     0.125 HD
ATOM     31  H   UNL d   1       0.673  -0.143  -5.630  0.00  0.00     0.125 HD
ENDBRANCH  24  29
ENDBRANCH  23  24
ENDBRANCH  22  23
ENDBRANCH   1  22
TORSDOF 9
