REMARK  8 active torsions:
REMARK  status: ('A' for Active; 'I' for Inactive)
REMARK    1  A    between atoms: C_7  and  C_1 
REMARK    2  A    between atoms: C_10  and  N_2 
REMARK    3  A    between atoms: C_11  and  C_6 
REMARK       I    between atoms: N_9  and  C_7 
REMARK       I    between atoms: C_8  and  N_12 
REMARK       I    between atoms: N_15  and  C_8 
REMARK    4  A    between atoms: N_12  and  N_9 
REMARK    5  A    between atoms: C_16  and  C_10 
REMARK    6  A    between atoms: C_26  and  N_15 
REMARK    7  A    between atoms: C_27  and  C_26 
REMARK    8  A    between atoms: C_28  and  C_27 
ROOT
ATOM      1  C   UNL d   1      -0.361  -1.430   0.170  0.00  0.00     0.122 A 
ATOM      2  N   UNL d   1       0.833  -0.769   0.308  0.00  0.00    -0.282 N 
ATOM      3  N   UNL d   1       0.717   0.568   0.221  0.00  0.00    -0.301 N 
ATOM      4  HN  UNL d   1       1.467   1.259   0.246  1.00  0.00     0.187 HD
ATOM      5  C   UNL d   1      -1.308  -0.430   0.029  0.00  0.00     0.064 A 
ATOM      6  C   UNL d   1      -0.595   0.795   0.093  0.00  0.00     0.036 A 
ENDROOT
BRANCH   1   7
ATOM      7  C   UNL d   1      -0.495  -2.856   0.057  0.00  0.00     0.284 C 
ATOM      8  N   UNL d   1      -0.071  -3.576   1.156  0.00  0.00    -0.278 N 
ATOM      9  H   UNL d   1       0.123  -3.167   2.067  0.00  0.00     0.184 HD
ATOM     10  O   UNL d   1      -0.862  -3.415  -0.978  0.00  0.00    -0.265 OA
BRANCH   8  11
ATOM     11  N   UNL d   1       0.197  -4.950   0.976  0.00  0.00    -0.152 NA
ATOM     12  C   UNL d   1      -0.501  -5.865   1.745  0.00  0.00     0.312 C 
ATOM     13  O   UNL d   1      -1.240  -5.579   2.677  0.00  0.00    -0.252 OA
ATOM     14  N   UNL d   1      -0.224  -7.147   1.318  0.00  0.00    -0.346 N 
ATOM     15  H   UNL d   1       0.701  -7.256   0.926  0.00  0.00     0.163 HD
ATOM     16  H   UNL d   1       0.226  -5.214  -0.011  0.00  0.00     0.157 HD
BRANCH  14  17
ATOM     17  C   UNL d   1      -0.773  -8.310   1.987  0.00  0.00     0.124 C 
BRANCH  17  18
ATOM     18  C   UNL d   1      -0.764  -9.517   1.050  0.00  0.00     0.019 C 
BRANCH  18  19
ATOM     19  C   UNL d   1      -1.211 -10.794   1.759  0.00  0.00    -0.003 C 
ATOM     20  C   UNL d   1      -1.296 -11.967   0.794  0.00  0.00     0.005 C 
ENDBRANCH  18  19
ENDBRANCH  17  18
ENDBRANCH  14  17
ENDBRANCH   8  11
ENDBRANCH   1   7
BRANCH   2  21
ATOM     21  C   UNL d   1       2.167  -1.336   0.477  0.00  0.00     0.188 C 
BRANCH  21  22
ATOM     22  C   UNL d   1       2.566  -1.433   1.935  0.00  0.00    -0.038 A 
ATOM     23  C   UNL d   1       3.238  -2.572   2.404  0.00  0.00     0.012 A 
ATOM     24  C   UNL d   1       3.647  -2.655   3.738  0.00  0.00     0.043 A 
ATOM     25  C   UNL d   1       3.390  -1.598   4.605  0.00  0.00     0.116 A 
ATOM     26  C   UNL d   1       2.740  -0.457   4.163  0.00  0.00     0.043 A 
ATOM     27  F   UNL d   1       3.787  -1.680   5.881  0.00  0.00    -0.206 F 
ATOM     28  C   UNL d   1       2.340  -0.369   2.830  0.00  0.00     0.012 A 
ENDBRANCH  21  22
ENDBRANCH   2  21
BRANCH   6  29
ATOM     29  C   UNL d   1      -1.079   2.233   0.015  0.00  0.00    -0.007 C 
ATOM     30  C   UNL d   1      -2.615   2.331   0.020  0.00  0.00     0.021 C 
ATOM     31  C   UNL d   1      -0.549   3.033   1.228  0.00  0.00     0.021 C 
ATOM     32  C   UNL d   1      -0.555   2.893  -1.278  0.00  0.00     0.021 C 
ENDBRANCH   6  29
TORSDOF 8
