REMARK  2 active torsions:
REMARK  status: ('A' for Active; 'I' for Inactive)
REMARK    1  A    between atoms: C_3  and  N_1 
REMARK    2  A    between atoms: S_10  and  C_2 
ROOT
ATOM      1  N   UNL d   1      -0.294  -1.135  -0.005  0.00  0.00    -0.300 N 
ATOM      2  C   UNL d   1       0.903  -0.598   0.457  0.00  0.00     0.148 A 
ATOM      3  N   UNL d   1       0.917   0.717   0.401  0.00  0.00    -0.345 N 
ATOM      4  HN  UNL d   1       1.672   1.339   0.690  1.00  0.00     0.167 HD
ATOM      5  C   UNL d   1      -1.055  -0.040  -0.371  0.00  0.00     0.116 A 
ATOM      6  C   UNL d   1      -0.288   1.073  -0.126  0.00  0.00     0.108 A 
ENDROOT
BRANCH   1   7
ATOM      7  C   UNL d   1      -0.742  -2.489  -0.026  0.00  0.00     0.064 A 
ATOM      8  C   UNL d   1      -1.493  -3.025  -1.097  0.00  0.00     0.083 A 
ATOM      9  C   UNL d   1      -1.939  -4.359  -1.021  0.00  0.00     0.058 A 
ATOM     10 CL   UNL d   1      -1.762  -2.141  -2.572  0.00  0.00    -0.080 Cl
ATOM     11 CL   UNL d   1      -2.879  -5.106  -2.272  0.00  0.00    -0.082 Cl
ATOM     12  C   UNL d   1      -1.627  -5.153   0.086  0.00  0.00     0.026 A 
ATOM     13  C   UNL d   1      -0.884  -4.626   1.136  0.00  0.00     0.004 A 
ATOM     14  C   UNL d   1      -0.458  -3.300   1.089  0.00  0.00     0.032 A 
ENDBRANCH   1   7
BRANCH   2  15
ATOM     15  S   UNL d   1       2.321  -1.499   0.910  0.00  0.00    -0.106 SA
ATOM     16  H   UNL d   1       2.009  -2.690   0.386  0.00  0.00     0.110 HD
ENDBRANCH   2  15
TORSDOF 2
