REMARK  1 active torsions:
REMARK  status: ('A' for Active; 'I' for Inactive)
REMARK    1  A    between atoms: C_8  and  C_7 
ROOT
ATOM      1  C   UNL d   1      -1.251   0.101  -0.093  0.00  0.00     0.115 C 
ATOM      2  C   UNL d   1      -0.638  -1.198   0.206  0.00  0.00     0.302 C 
ATOM      3  C   UNL d   1      -0.519   1.328   0.245  0.00  0.00     0.302 C 
ATOM      4  O   UNL d   1       0.705  -1.176   0.332  0.00  0.00    -0.280 OA
ATOM      5  O   UNL d   1       0.823   1.203   0.252  0.00  0.00    -0.280 OA
ATOM      6  C   UNL d   1       1.410  -0.032  -0.154  0.00  0.00     0.175 C 
ATOM      7  C   UNL d   1      -2.442   0.103  -0.724  0.00  0.00     0.037 C 
ATOM      8  O   UNL d   1      -1.056   2.387   0.536  0.00  0.00    -0.259 OA
ATOM      9  O   UNL d   1      -1.282  -2.233   0.322  0.00  0.00    -0.259 OA
ATOM     10  C   UNL d   1       1.545  -0.089  -1.680  0.00  0.00     0.080 C 
ATOM     11  C   UNL d   1       2.802  -0.062   0.476  0.00  0.00     0.080 C 
ENDROOT
BRANCH   7  12
ATOM     12  C   UNL d   1      -3.128   1.248  -1.213  0.00  0.00    -0.011 A 
ATOM     13  C   UNL d   1      -2.995   1.769  -2.480  0.00  0.00     0.152 A 
ATOM     14  O   UNL d   1      -3.760   2.886  -2.609  0.00  0.00    -0.334 OA
ATOM     15  C   UNL d   1      -4.385   3.074  -1.417  0.00  0.00     0.142 A 
ATOM     16  C   UNL d   1      -4.046   2.078  -0.529  0.00  0.00     0.038 A 
ENDBRANCH   7  12
TORSDOF 1
