REMARK  10 active torsions:
REMARK  status: ('A' for Active; 'I' for Inactive)
REMARK    1  A    between atoms: N_4  and  C_1 
REMARK    2  A    between atoms: N_5  and  C_1 
REMARK    3  A    between atoms: C_2  and  N_3 
REMARK    4  A    between atoms: N_6  and  C_2 
REMARK    5  A    between atoms: C_13  and  N_5 
REMARK    6  A    between atoms: C_14  and  N_6 
REMARK    7  A    between atoms: C_31  and  C_34 
REMARK    8  A    between atoms: C_35  and  C_32 
REMARK    9  A    between atoms: C_33  and  C_35 
REMARK   10  A    between atoms: C_34  and  C_33 
ROOT
ATOM      1  C   UNL d   1      -2.851  -2.256  -4.325  0.00  0.00     0.001 C 
ENDROOT
BRANCH   1   2
ATOM      2  C   UNL d   1      -1.592  -2.704  -3.568  0.00  0.00     0.005 C 
BRANCH   2   3
ATOM      3  C   UNL d   1      -1.796  -2.716  -2.034  0.00  0.00    -0.012 C 
ATOM      4  C   UNL d   1      -0.559  -3.268  -1.295  0.00  0.00     0.024 C 
ATOM      5  C   UNL d   1       0.604  -2.282  -1.259  0.00  0.00     0.125 C 
ATOM      6  N   UNL d   1       0.199  -0.938  -0.845  0.00  0.00    -0.358 N 
ATOM      7  C   UNL d   1      -0.958  -0.367  -1.535  0.00  0.00     0.125 C 
ATOM      8  C   UNL d   1      -2.140  -1.333  -1.449  0.00  0.00     0.024 C 
BRANCH   6   9
ATOM      9  C   UNL d   1       0.704  -0.294   0.271  0.00  0.00     0.174 C 
ATOM     10  S   UNL d   1       0.802  -0.980   1.792  0.00  0.00    -0.041 SA
BRANCH   9  11
ATOM     11  N   UNL d   1       1.019   1.035   0.107  0.00  0.00    -0.333 N 
ATOM     12  H   UNL d   1       0.999   1.593   0.954  0.00  0.00     0.168 HD
BRANCH  11  13
ATOM     13  C   UNL d   1       1.766   1.582  -0.963  0.00  0.00     0.034 A 
ATOM     14  C   UNL d   1       1.838   2.974  -1.082  0.00  0.00     0.032 A 
ATOM     15  C   UNL d   1       2.617   3.555  -2.088  0.00  0.00     0.044 A 
ATOM     16  C   UNL d   1       3.345   2.743  -2.951  0.00  0.00     0.116 A 
ATOM     17  C   UNL d   1       3.303   1.361  -2.835  0.00  0.00     0.044 A 
ATOM     18  F   UNL d   1       4.107   3.302  -3.900  0.00  0.00    -0.206 F 
ATOM     19  C   UNL d   1       2.511   0.783  -1.842  0.00  0.00     0.032 A 
ENDBRANCH  11  13
ENDBRANCH   9  11
ENDBRANCH   6   9
ENDBRANCH   2   3
ENDBRANCH   1   2
BRANCH   1  20
ATOM     20  C   UNL d   1      -2.642  -2.235  -5.841  0.00  0.00     0.005 C 
BRANCH  20  21
ATOM     21  C   UNL d   1      -3.922  -1.888  -6.639  0.00  0.00    -0.012 C 
ATOM     22  C   UNL d   1      -3.624  -1.832  -8.152  0.00  0.00     0.024 C 
ATOM     23  C   UNL d   1      -2.809  -0.594  -8.544  0.00  0.00     0.125 C 
ATOM     24  N   UNL d   1      -3.444   0.632  -8.051  0.00  0.00    -0.358 N 
ATOM     25  C   UNL d   1      -3.785   0.648  -6.628  0.00  0.00     0.125 C 
ATOM     26  C   UNL d   1      -4.606  -0.570  -6.226  0.00  0.00     0.024 C 
BRANCH  24  27
ATOM     27  C   UNL d   1      -3.972   1.535  -8.947  0.00  0.00     0.174 C 
ATOM     28  S   UNL d   1      -5.595   1.949  -9.016  0.00  0.00    -0.041 SA
BRANCH  27  29
ATOM     29  N   UNL d   1      -3.142   2.072  -9.894  0.00  0.00    -0.333 N 
ATOM     30  H   UNL d   1      -3.646   2.519 -10.655  0.00  0.00     0.168 HD
BRANCH  29  31
ATOM     31  C   UNL d   1      -1.751   2.306  -9.862  0.00  0.00     0.034 A 
ATOM     32  C   UNL d   1      -0.953   2.142  -8.726  0.00  0.00     0.032 A 
ATOM     33  C   UNL d   1       0.419   2.404  -8.769  0.00  0.00     0.044 A 
ATOM     34  C   UNL d   1       0.991   2.857  -9.948  0.00  0.00     0.116 A 
ATOM     35  C   UNL d   1       0.211   3.064 -11.080  0.00  0.00     0.044 A 
ATOM     36  F   UNL d   1       2.303   3.112  -9.993  0.00  0.00    -0.206 F 
ATOM     37  C   UNL d   1      -1.158   2.795 -11.035  0.00  0.00     0.032 A 
ENDBRANCH  29  31
ENDBRANCH  27  29
ENDBRANCH  24  27
ENDBRANCH  20  21
ENDBRANCH   1  20
TORSDOF 10
