REMARK  4 active torsions:
REMARK  status: ('A' for Active; 'I' for Inactive)
REMARK    1  A    between atoms: C_2  and  S_1 
REMARK    2  A    between atoms: C_5  and  S_1 
REMARK    3  A    between atoms: N_7  and  C_3 
REMARK    4  A    between atoms: C_15  and  N_4 
ROOT
ATOM      1  C   UNL d   1      -0.560  -0.150   3.506  0.00  0.00     0.160 C 
ATOM      2  C   UNL d   1      -0.439   0.436   2.299  0.00  0.00     0.121 C 
ATOM      3  C   UNL d   1      -1.198   0.451   4.612  0.00  0.00     0.113 C 
ATOM      4  N   UNL d   1      -1.721   0.949   5.522  0.00  0.00    -0.191 NA
ENDROOT
BRANCH   1   5
ATOM      5  S   UNL d   1       0.135  -1.709   3.807  0.00  0.00     0.233 S 
ATOM      6  O   UNL d   1       1.070  -1.583   4.916  0.00  0.00    -0.215 OA
ATOM      7  O   UNL d   1       0.595  -2.331   2.574  0.00  0.00    -0.215 OA
BRANCH   5   8
ATOM      8  C   UNL d   1      -1.237  -2.701   4.404  0.00  0.00     0.134 A 
ATOM      9  N   UNL d   1      -2.273  -2.798   3.530  0.00  0.00    -0.356 N 
ATOM     10  C   UNL d   1      -3.271  -3.633   3.897  0.00  0.00     0.089 A 
ATOM     11  HN  UNL d   1      -2.296  -2.276   2.654  1.00  0.00     0.166 HD
ATOM     12  C   UNL d   1      -3.289  -4.342   5.090  0.00  0.00     0.017 A 
ATOM     13  C   UNL d   1      -2.223  -4.188   5.974  0.00  0.00     0.004 A 
ATOM     14  C   UNL d   1      -1.165  -3.352   5.629  0.00  0.00     0.042 A 
ENDBRANCH   5   8
ENDBRANCH   1   5
BRANCH   2  15
ATOM     15  N   UNL d   1      -0.784   1.714   1.865  0.00  0.00    -0.385 N 
ATOM     16  C   UNL d   1      -0.804   2.925   2.723  0.00  0.00     0.142 C 
ATOM     17  C   UNL d   1       0.015   4.077   2.093  0.00  0.00     0.143 C 
ATOM     18  N   UNL d   1      -0.434   4.343   0.716  0.00  0.00    -0.378 N 
ATOM     19  C   UNL d   1      -0.436   3.155  -0.158  0.00  0.00     0.143 C 
ATOM     20  C   UNL d   1      -1.240   2.000   0.481  0.00  0.00     0.142 C 
BRANCH  18  21
ATOM     21  C   UNL d   1      -0.821   5.603   0.306  0.00  0.00     0.030 A 
ATOM     22  C   UNL d   1      -1.775   5.799  -0.704  0.00  0.00     0.029 A 
ATOM     23  C   UNL d   1      -2.199   7.079  -1.086  0.00  0.00     0.002 A 
ATOM     24  C   UNL d   1      -1.673   8.205  -0.465  0.00  0.00     0.000 A 
ATOM     25  C   UNL d   1      -0.714   8.048   0.527  0.00  0.00     0.002 A 
ATOM     26  C   UNL d   1      -0.295   6.765   0.898  0.00  0.00     0.029 A 
ENDBRANCH  18  21
ENDBRANCH   2  15
TORSDOF 4
