REMARK  6 active torsions:
REMARK  status: ('A' for Active; 'I' for Inactive)
REMARK    1  A    between atoms: C_16  and  N_1 
REMARK    2  A    between atoms: S_14  and  C_2 
REMARK    3  A    between atoms: O_20  and  C_3 
REMARK    4  A    between atoms: C_9  and  C_18 
REMARK    5  A    between atoms: C_18  and  S_14 
REMARK    6  A    between atoms: O_23  and  C_21 
ROOT
ATOM      1  N   UNL d   1       2.775   0.592  -1.684  0.00  0.00    -0.255 N 
ATOM      2  C   UNL d   1       2.702  -0.771  -1.429  0.00  0.00     0.169 A 
ATOM      3  C   UNL d   1       3.132   0.644  -3.026  0.00  0.00     0.245 A 
ATOM      4  N   UNL d   1       2.957  -1.455  -2.522  0.00  0.00    -0.276 N 
ATOM      5  HN  UNL d   1       2.960  -2.472  -2.607  1.00  0.00     0.189 HD
ATOM      6  N   UNL d   1       3.219  -0.564  -3.529  0.00  0.00    -0.263 N 
ATOM      7  HN  UNL d   1       3.442  -0.797  -4.496  1.00  0.00     0.190 HD
ENDROOT
BRANCH   2   8
ATOM      8  S   UNL d   1       2.208  -1.490   0.072  0.00  0.00    -0.087 SA
BRANCH   8   9
ATOM      9  C   UNL d   1       2.518  -3.254  -0.204  0.00  0.00     0.122 C 
BRANCH   9  10
ATOM     10  C   UNL d   1       3.963  -3.718  -0.206  0.00  0.00    -0.030 A 
ATOM     11  C   UNL d   1       4.225  -5.177  -0.162  0.00  0.00     0.005 A 
ATOM     12  C   UNL d   1       5.545  -5.633  -0.250  0.00  0.00     0.092 A 
ATOM     13  C   UNL d   1       3.221  -6.149  -0.027  0.00  0.00     0.017 A 
ATOM     14  C   UNL d   1       5.873  -6.989  -0.222  0.00  0.00     0.074 A 
ATOM     15  O   UNL d   1       6.632  -4.747  -0.354  0.00  0.00    -0.275 OA
ATOM     16  C   UNL d   1       4.861  -7.922  -0.083  0.00  0.00     0.068 A 
ATOM     17  C   UNL d   1       3.536  -7.515   0.020  0.00  0.00     0.037 A 
ATOM     18  C   UNL d   1       6.432  -3.385  -0.320  0.00  0.00     0.288 A 
ATOM     19  C   UNL d   1       5.040  -2.917  -0.262  0.00  0.00     0.091 A 
ATOM     20  O   UNL d   1       7.358  -2.582  -0.340  0.00  0.00    -0.260 OA
BRANCH  16  21
ATOM     21  O   UNL d   1       5.209  -9.238  -0.047  0.00  0.00    -0.361 OA
ATOM     22  H   UNL d   1       4.405  -9.777   0.036  0.00  0.00     0.217 HD
ENDBRANCH  16  21
ENDBRANCH   9  10
ENDBRANCH   8   9
ENDBRANCH   2   8
BRANCH   1  23
ATOM     23  C   UNL d   1       2.526   1.700  -0.827  0.00  0.00     0.045 A 
ATOM     24  C   UNL d   1       2.888   1.664   0.525  0.00  0.00     0.030 A 
ATOM     25  C   UNL d   1       2.595   2.745   1.359  0.00  0.00     0.002 A 
ATOM     26  C   UNL d   1       1.952   3.869   0.850  0.00  0.00     0.000 A 
ATOM     27  C   UNL d   1       1.607   3.922  -0.499  0.00  0.00     0.002 A 
ATOM     28  C   UNL d   1       1.894   2.844  -1.340  0.00  0.00     0.030 A 
ENDBRANCH   1  23
BRANCH   3  29
ATOM     29  O   UNL d   1       3.455   1.730  -3.720  0.00  0.00    -0.331 OA
ATOM     30  H   UNL d   1       3.718   2.427  -3.098  0.00  0.00     0.221 HD
ENDBRANCH   3  29
TORSDOF 6
