REMARK  6 active torsions:
REMARK  status: ('A' for Active; 'I' for Inactive)
REMARK    1  A    between atoms: C_2  and  C_1 
REMARK       I    between atoms: N_7  and  C_2 
REMARK    2  A    between atoms: N_3  and  N_7 
REMARK    3  A    between atoms: O_16  and  C_5 
REMARK    4  A    between atoms: N_14  and  C_6 
REMARK    5  A    between atoms: O_18  and  C_8 
REMARK    6  A    between atoms: C_13  and  C_12 
ROOT
ATOM      1  N   UNL d   1      -1.107   3.795   0.092  0.00  0.00    -0.308 N 
ATOM      2  HN  UNL d   1      -1.617   2.924   0.235  1.00  0.00     0.186 HD
ATOM      3  C   UNL d   1      -1.732   4.916  -0.050  0.00  0.00     0.118 C 
ENDROOT
BRANCH   1   4
ATOM      4  N   UNL d   1       0.256   3.811   0.046  0.00  0.00    -0.266 N 
ATOM      5  C   UNL d   1       0.918   2.613   0.290  0.00  0.00     0.271 C 
ATOM      6  O   UNL d   1       0.355   1.569   0.618  0.00  0.00    -0.266 OA
ATOM      7  H   UNL d   1       0.734   4.628  -0.310  0.00  0.00     0.190 HD
BRANCH   5   8
ATOM      8  C   UNL d   1       2.405   2.604   0.124  0.00  0.00     0.054 A 
ATOM      9  C   UNL d   1       3.051   1.397  -0.232  0.00  0.00     0.021 A 
ATOM     10  C   UNL d   1       4.444   1.394  -0.382  0.00  0.00     0.024 A 
ATOM     11  C   UNL d   1       5.197   2.535  -0.101  0.00  0.00     0.002 A 
ATOM     12  C   UNL d   1       4.560   3.708   0.300  0.00  0.00     0.001 A 
ATOM     13  C   UNL d   1       3.167   3.747   0.411  0.00  0.00     0.019 A 
BRANCH   9  14
ATOM     14  N   UNL d   1       2.337   0.257  -0.662  0.00  0.00    -0.302 NA
ATOM     15  H   UNL d   1       1.390   0.252  -0.257  0.00  0.00     0.124 HD
ATOM     16  H   UNL d   1       2.816  -0.618  -0.479  0.00  0.00     0.124 HD
ENDBRANCH   9  14
ENDBRANCH   5   8
ENDBRANCH   1   4
BRANCH   3  17
ATOM     17  C   UNL d   1      -3.212   4.940  -0.040  0.00  0.00    -0.017 A 
ATOM     18  C   UNL d   1      -3.928   3.750  -0.237  0.00  0.00     0.052 A 
ATOM     19  C   UNL d   1      -5.330   3.746  -0.255  0.00  0.00     0.102 A 
ATOM     20  C   UNL d   1      -6.011   4.955  -0.025  0.00  0.00     0.101 A 
ATOM     21  C   UNL d   1      -5.282   6.141   0.163  0.00  0.00     0.040 A 
ATOM     22  C   UNL d   1      -3.885   6.142   0.151  0.00  0.00     0.016 A 
BRANCH  19  23
ATOM     23  O   UNL d   1      -6.072   2.625  -0.516  0.00  0.00    -0.353 OA
ATOM     24  C   UNL d   1      -5.379   1.423  -0.834  0.00  0.00     0.210 C 
ENDBRANCH  19  23
BRANCH  20  25
ATOM     25  O   UNL d   1      -7.368   5.156  -0.004  0.00  0.00    -0.353 OA
ATOM     26  C   UNL d   1      -8.181   4.059   0.398  0.00  0.00     0.210 C 
ENDBRANCH  20  25
ENDBRANCH   3  17
TORSDOF 6
