REMARK  8 active torsions:
REMARK  status: ('A' for Active; 'I' for Inactive)
REMARK    1  A    between atoms: C_5  and  N_1 
REMARK    2  A    between atoms: C_2  and  O_8 
REMARK       I    between atoms: N_9  and  C_2 
REMARK    3  A    between atoms: C_3  and  O_10 
REMARK    4  A    between atoms: O_8  and  C_4 
REMARK    5  A    between atoms: C_12  and  C_5 
REMARK    6  A    between atoms: C_13  and  C_5 
REMARK    7  A    between atoms: C_17  and  N_9 
REMARK    8  A    between atoms: O_10  and  C_18 
ROOT
ATOM      1  N   UNL d   1       0.519   1.057  -0.472  0.00  0.00     0.106 N 
ATOM      2  C   UNL d   1      -0.158  -0.946  -0.409  0.00  0.00     0.190 C 
ATOM      3  C   UNL d   1      -0.790   0.436  -0.140  0.00  0.00     0.308 C 
ATOM      4  C   UNL d   1       1.180  -0.224  -0.105  0.00  0.00     0.308 C 
ENDROOT
BRANCH   2   5
ATOM      5  O   UNL d   1      -0.354  -1.447  -1.750  0.00  0.00    -0.295 OA
BRANCH   5   6
ATOM      6  C   UNL d   1       0.267  -2.611  -2.035  0.00  0.00     0.365 C 
ATOM      7  N   UNL d   1       0.184  -3.012  -3.342  0.00  0.00    -0.303 N 
ATOM      8  H   UNL d   1       0.674  -3.885  -3.487  0.00  0.00     0.171 HD
ATOM      9  O   UNL d   1       0.872  -3.287  -1.208  0.00  0.00    -0.238 OA
BRANCH   7  10
ATOM     10  C   UNL d   1      -0.453  -2.442  -4.461  0.00  0.00     0.037 A 
ATOM     11  C   UNL d   1      -1.198  -1.261  -4.451  0.00  0.00     0.032 A 
ATOM     12  C   UNL d   1      -1.838  -0.793  -5.612  0.00  0.00     0.039 A 
ATOM     13  C   UNL d   1      -1.707  -1.480  -6.813  0.00  0.00     0.078 A 
ATOM     14  C   UNL d   1      -0.959  -2.659  -6.830  0.00  0.00     0.039 A 
ATOM     15  C   UNL d   1      -0.336  -3.134  -5.670  0.00  0.00     0.032 A 
BRANCH  13  16
ATOM     16  O   UNL d   1      -2.227  -1.134  -8.022  0.00  0.00    -0.255 OA
BRANCH  16  17
ATOM     17  C   UNL d   1      -2.825   0.141  -8.195  0.00  0.00     0.530 C 
ATOM     18  F   UNL d   1      -2.198   1.116  -7.506  0.00  0.00    -0.144 F 
ATOM     19  F   UNL d   1      -2.760   0.462  -9.507  0.00  0.00    -0.144 F 
ATOM     20  F   UNL d   1      -4.125   0.100  -7.836  0.00  0.00    -0.144 F 
ENDBRANCH  16  17
ENDBRANCH  13  16
ENDBRANCH   7  10
ENDBRANCH   5   6
ENDBRANCH   2   5
BRANCH   1  21
ATOM     21  C   UNL d   1       0.857   2.145   0.480  0.00  0.00     0.289 C 
BRANCH  21  22
ATOM     22  C   UNL d   1       2.260   2.700   0.218  0.00  0.00    -0.021 A 
ATOM     23  C   UNL d   1       2.600   3.260  -1.027  0.00  0.00     0.010 A 
ATOM     24  C   UNL d   1       3.865   3.812  -1.244  0.00  0.00     0.001 A 
ATOM     25  C   UNL d   1       4.814   3.800  -0.227  0.00  0.00     0.000 A 
ATOM     26  C   UNL d   1       4.502   3.233   1.009  0.00  0.00     0.001 A 
ATOM     27  C   UNL d   1       3.233   2.690   1.230  0.00  0.00     0.010 A 
ENDBRANCH  21  22
BRANCH  21  28
ATOM     28  C   UNL d   1      -0.185   3.274   0.476  0.00  0.00    -0.021 A 
ATOM     29  C   UNL d   1      -0.483   3.961   1.663  0.00  0.00     0.010 A 
ATOM     30  C   UNL d   1      -1.453   4.965   1.684  0.00  0.00     0.001 A 
ATOM     31  C   UNL d   1      -2.135   5.304   0.514  0.00  0.00     0.000 A 
ATOM     32  C   UNL d   1      -1.836   4.651  -0.676  0.00  0.00     0.001 A 
ATOM     33  C   UNL d   1      -0.865   3.650  -0.701  0.00  0.00     0.010 A 
ENDBRANCH  21  28
ENDBRANCH   1  21
TORSDOF 8
