REMARK  5 active torsions:
REMARK  status: ('A' for Active; 'I' for Inactive)
REMARK    1  A    between atoms: C_4  and  N_1 
REMARK    2  A    between atoms: N_2  and  C_6 
REMARK    3  A    between atoms: C_3  and  C_8 
REMARK    4  A    between atoms: O_18  and  C_3 
REMARK    5  A    between atoms: C_19  and  O_18 
ROOT
ATOM      1  N   UNL d   1      -1.862  -4.643  -1.735  0.00  0.00    -0.381 N 
ATOM      2  C   UNL d   1      -3.970  -6.212  -2.890  0.00  0.00     0.088 C 
ATOM      3  C   UNL d   1      -2.393  -5.745  -0.932  0.00  0.00     0.123 C 
ATOM      4  C   UNL d   1      -1.850  -4.855  -3.180  0.00  0.00     0.123 C 
ATOM      5  C   UNL d   1      -3.290  -5.059  -3.649  0.00  0.00     0.034 C 
ATOM      6  C   UNL d   1      -3.838  -6.014  -1.371  0.00  0.00     0.034 C 
ENDROOT
BRANCH   1   7
ATOM      7  C   UNL d   1      -1.197  -3.577  -1.165  0.00  0.00     0.030 A 
ATOM      8  C   UNL d   1      -0.466  -3.703   0.027  0.00  0.00     0.032 A 
ATOM      9  C   UNL d   1       0.150  -2.601   0.635  0.00  0.00     0.038 A 
ATOM     10  C   UNL d   1       0.038  -1.339   0.046  0.00  0.00     0.103 A 
ATOM     11  C   UNL d   1      -0.666  -1.183  -1.150  0.00  0.00     0.038 A 
ATOM     12  C   UNL d   1      -1.268  -2.297  -1.741  0.00  0.00     0.032 A 
BRANCH  10  13
ATOM     13  N   UNL d   1       0.645  -0.172   0.691  0.00  0.00    -0.116 N 
ATOM     14  O   UNL d   1       0.506   0.929   0.142  0.00  0.00    -0.532 OA
ATOM     15  O   UNL d   1       1.260  -0.355   1.753  0.00  0.00    -0.532 OA
ENDBRANCH  10  13
ENDBRANCH   1   7
BRANCH   2  16
ATOM     16  C   UNL d   1      -3.382  -7.546  -3.316  0.00  0.00     0.263 C 
ATOM     17  O   UNL d   1      -2.828  -8.341  -2.572  0.00  0.00    -0.265 OA
BRANCH  16  18
ATOM     18  O   UNL d   1      -3.518  -7.702  -4.664  0.00  0.00    -0.322 OA
BRANCH  18  19
ATOM     19  C   UNL d   1      -2.684  -8.707  -5.255  0.00  0.00     0.174 C 
ATOM     20  C   UNL d   1      -1.365  -8.057  -5.634  0.00  0.00     0.034 C 
ENDBRANCH  18  19
ENDBRANCH  16  18
ENDBRANCH   2  16
TORSDOF 5
