REMARK  2 active torsions:
REMARK  status: ('A' for Active; 'I' for Inactive)
REMARK    1  A    between atoms: C_11  and  N_7 
REMARK    2  A    between atoms: C_12  and  C_8 
ROOT
ATOM      1  C   UNL d   1       2.489  -5.549   0.114  0.00  0.00    -0.055 A 
ATOM      2  C   UNL d   1       1.826  -4.882  -0.923  0.00  0.00     0.010 A 
ATOM      3  C   UNL d   1       3.087  -4.777   1.116  0.00  0.00     0.010 A 
ATOM      4  C   UNL d   1       2.352  -2.707   0.062  0.00  0.00     0.034 A 
ATOM      5  C   UNL d   1       3.024  -3.385   1.084  0.00  0.00     0.030 A 
ATOM      6  C   UNL d   1       1.759  -3.480  -0.947  0.00  0.00     0.030 A 
ENDROOT
BRANCH   4   7
ATOM      7  N   UNL d   1       2.326  -1.303  -0.038  0.00  0.00    -0.335 N 
ATOM      8  C   UNL d   1       3.179  -0.432   0.559  0.00  0.00     0.175 A 
ATOM      9  N   UNL d   1       4.302  -0.698   1.206  0.00  0.00    -0.265 N 
ATOM     10  S   UNL d   1       2.915   1.286   0.514  0.00  0.00     0.035 SA
ATOM     11  N   UNL d   1       4.937   0.441   1.671  0.00  0.00    -0.017 NA
ATOM     12  HN  UNL d   1       4.661  -1.642   1.347  1.00  0.00     0.186 HD
ATOM     13  N   UNL d   1       4.321   1.575   1.381  0.00  0.00    -0.044 NA
ATOM     14  H   UNL d   1       1.572  -0.933  -0.603  0.00  0.00     0.168 HD
ENDBRANCH   4   7
BRANCH   1  15
ATOM     15  C   UNL d   1       2.555  -7.065   0.157  0.00  0.00     0.010 C 
ATOM     16  C   UNL d   1       4.001  -7.570   0.113  0.00  0.00     0.015 C 
ATOM     17  C   UNL d   1       1.839  -7.617   1.395  0.00  0.00     0.015 C 
ENDBRANCH   1  15
TORSDOF 2
