REMARK  8 active torsions:
REMARK  status: ('A' for Active; 'I' for Inactive)
REMARK    1  A    between atoms: S_16  and  C_2 
REMARK    2  A    between atoms: C_19  and  C_3 
REMARK    3  A    between atoms: C_10  and  C_11 
REMARK    4  A    between atoms: C_12  and  S_17 
REMARK    5  A    between atoms: C_27  and  S_16 
REMARK    6  A    between atoms: S_17  and  C_19 
REMARK    7  A    between atoms: C_18  and  C_27 
REMARK       I    between atoms: N_20  and  C_18 
REMARK    8  A    between atoms: C_21  and  N_20 
ROOT
ATOM      1  N   UNL d   1       1.077   0.025  -0.143  0.00  0.00    -0.319 N 
ATOM      2  C   UNL d   1       0.256   1.051  -0.527  0.00  0.00     0.162 C 
ATOM      3  C   UNL d   1       0.244  -1.060   0.029  0.00  0.00     0.109 C 
ATOM      4  N   UNL d   1      -0.994   0.685  -0.395  0.00  0.00    -0.278 N 
ATOM      5  HN  UNL d   1      -1.811   1.282  -0.522  1.00  0.00     0.189 HD
ATOM      6  N   UNL d   1      -1.008  -0.644  -0.056  0.00  0.00    -0.286 N 
ATOM      7  HN  UNL d   1      -1.840  -1.212   0.103  1.00  0.00     0.188 HD
ATOM      8  C   UNL d   1       2.508   0.053  -0.013  0.00  0.00     0.159 C 
ENDROOT
BRANCH   3   9
ATOM      9  C   UNL d   1       0.680  -2.485   0.107  0.00  0.00     0.157 C 
BRANCH   9  10
ATOM     10  S   UNL d   1       1.340  -2.934   1.742  0.00  0.00    -0.121 SA
BRANCH  10  11
ATOM     11  C   UNL d   1       1.931  -4.598   1.382  0.00  0.00     0.015 A 
ATOM     12  C   UNL d   1       3.317  -4.755   1.284  0.00  0.00     0.053 A 
ATOM     13  C   UNL d   1       3.841  -6.022   1.050  0.00  0.00     0.118 A 
ATOM     14  N   UNL d   1       3.038  -7.108   0.904  0.00  0.00    -0.352 N 
ATOM     15  C   UNL d   1       1.708  -6.968   1.013  0.00  0.00     0.044 A 
ATOM     16  HN  UNL d   1       3.444  -8.024   0.713  1.00  0.00     0.166 HD
ATOM     17  C   UNL d   1       1.083  -5.726   1.257  0.00  0.00     0.007 A 
ATOM     18  C   UNL d   1       0.928  -8.109   0.889  0.00  0.00     0.030 A 
ATOM     19  C   UNL d   1      -0.331  -5.697   1.372  0.00  0.00     0.015 A 
ATOM     20  C   UNL d   1      -1.094  -6.856   1.239  0.00  0.00     0.001 A 
ATOM     21  C   UNL d   1      -0.463  -8.067   0.998  0.00  0.00     0.002 A 
BRANCH  13  22
ATOM     22  C   UNL d   1       5.353  -6.191   0.967  0.00  0.00     0.432 C 
ATOM     23  F   UNL d   1       5.771  -7.474   0.780  0.00  0.00    -0.165 F 
ATOM     24  F   UNL d   1       5.896  -5.468  -0.057  0.00  0.00    -0.165 F 
ATOM     25  F   UNL d   1       5.986  -5.753   2.094  0.00  0.00    -0.165 F 
ENDBRANCH  13  22
ENDBRANCH  10  11
ENDBRANCH   9  10
ENDBRANCH   3   9
BRANCH   2  26
ATOM     26  S   UNL d   1       0.803   2.444  -1.394  0.00  0.00    -0.083 SA
BRANCH  26  27
ATOM     27  C   UNL d   1      -0.684   3.477  -1.487  0.00  0.00     0.185 C 
BRANCH  27  28
ATOM     28  C   UNL d   1      -1.785   3.065  -2.465  0.00  0.00     0.231 C 
ATOM     29  N   UNL d   1      -1.804   1.747  -2.864  0.00  0.00    -0.326 N 
ATOM     30  H   UNL d   1      -1.139   1.143  -2.398  0.00  0.00     0.169 HD
ATOM     31  O   UNL d   1      -2.624   3.907  -2.792  0.00  0.00    -0.272 OA
BRANCH  29  32
ATOM     32  C   UNL d   1      -2.809   1.069  -3.581  0.00  0.00     0.036 A 
ATOM     33  C   UNL d   1      -3.874   1.698  -4.224  0.00  0.00     0.053 A 
ATOM     34  C   UNL d   1      -4.868   0.930  -4.833  0.00  0.00     0.036 A 
ATOM     35 CL   UNL d   1      -6.201   1.708  -5.597  0.00  0.00    -0.084 Cl
ATOM     36  C   UNL d   1      -4.804  -0.463  -4.821  0.00  0.00     0.024 A 
ATOM     37  C   UNL d   1      -3.728  -1.097  -4.208  0.00  0.00     0.004 A 
ATOM     38  C   UNL d   1      -2.733  -0.333  -3.596  0.00  0.00     0.029 A 
ENDBRANCH  29  32
ENDBRANCH  27  28
ENDBRANCH  26  27
ENDBRANCH   2  26
TORSDOF 8
