REMARK  7 active torsions:
REMARK  status: ('A' for Active; 'I' for Inactive)
REMARK    1  A    between atoms: O_7  and  C_1 
REMARK    2  A    between atoms: C_19  and  O_7 
REMARK    3  A    between atoms: C_8  and  C_10 
REMARK    4  A    between atoms: O_23  and  C_8 
REMARK    5  A    between atoms: C_9  and  C_19 
REMARK       I    between atoms: N_11  and  C_9 
REMARK    6  A    between atoms: C_22  and  N_11 
REMARK    7  A    between atoms: C_26  and  O_23 
ROOT
ATOM      1  C   UNL d   1      -0.317  -7.073   0.686  0.00  0.00     0.246 C 
ATOM      2  N   UNL d   1      -0.513  -5.957  -0.113  0.00  0.00    -0.325 N 
ATOM      3  O   UNL d   1      -1.189  -7.689   1.296  0.00  0.00    -0.271 OA
ATOM      4  H   UNL d   1       0.254  -5.684  -0.716  0.00  0.00     0.169 HD
ENDROOT
BRANCH   1   5
ATOM      5  C   UNL d   1       1.146  -7.487   0.810  0.00  0.00     0.279 C 
BRANCH   5   6
ATOM      6  O   UNL d   1       1.557  -8.234  -0.326  0.00  0.00    -0.336 OA
BRANCH   6   7
ATOM      7  C   UNL d   1       2.751  -8.903  -0.228  0.00  0.00     0.153 A 
ATOM      8  C   UNL d   1       3.694  -8.782   0.799  0.00  0.00     0.194 A 
ATOM      9  C   UNL d   1       4.881  -9.513   0.769  0.00  0.00     0.199 A 
ATOM     10  F   UNL d   1       3.496  -7.949   1.830  0.00  0.00    -0.200 F 
ATOM     11  F   UNL d   1       5.770  -9.376   1.763  0.00  0.00    -0.199 F 
ATOM     12  C   UNL d   1       5.150 -10.369  -0.287  0.00  0.00     0.199 A 
ATOM     13  C   UNL d   1       4.230 -10.500  -1.317  0.00  0.00     0.199 A 
ATOM     14  F   UNL d   1       6.298 -11.058  -0.317  0.00  0.00    -0.199 F 
ATOM     15  C   UNL d   1       3.042  -9.774  -1.286  0.00  0.00     0.194 A 
ATOM     16  F   UNL d   1       4.489 -11.320  -2.344  0.00  0.00    -0.199 F 
ATOM     17  F   UNL d   1       2.169  -9.913  -2.295  0.00  0.00    -0.200 F 
ENDBRANCH   6   7
ENDBRANCH   5   6
ENDBRANCH   1   5
BRANCH   2  18
ATOM     18  C   UNL d   1      -1.681  -5.167  -0.177  0.00  0.00     0.034 A 
ATOM     19  C   UNL d   1      -2.774  -5.351   0.674  0.00  0.00     0.030 A 
ATOM     20  C   UNL d   1      -3.865  -4.479   0.638  0.00  0.00     0.020 A 
ATOM     21  C   UNL d   1      -3.880  -3.402  -0.254  0.00  0.00     0.039 A 
ATOM     22  C   UNL d   1      -2.804  -3.229  -1.134  0.00  0.00     0.020 A 
ATOM     23  C   UNL d   1      -1.712  -4.106  -1.091  0.00  0.00     0.030 A 
BRANCH  21  24
ATOM     24  C   UNL d   1      -4.958  -2.376  -0.226  0.00  0.00     0.293 C 
ATOM     25  O   UNL d   1      -4.962  -1.377  -0.926  0.00  0.00    -0.259 OA
BRANCH  24  26
ATOM     26  O   UNL d   1      -5.841  -2.671   0.760  0.00  0.00    -0.318 OA
BRANCH  26  27
ATOM     27  C   UNL d   1      -6.694  -1.603   1.192  0.00  0.00     0.174 C 
ATOM     28  C   UNL d   1      -6.000  -0.877   2.331  0.00  0.00     0.034 C 
ENDBRANCH  26  27
ENDBRANCH  24  26
ENDBRANCH  21  24
ENDBRANCH   2  18
TORSDOF 7
