REMARK  6 active torsions:
REMARK  status: ('A' for Active; 'I' for Inactive)
REMARK    1  A    between atoms: N_3  and  C_1 
REMARK    2  A    between atoms: N_4  and  C_1 
REMARK       I    between atoms: C_2  and  N_5 
REMARK    3  A    between atoms: O_10  and  C_2 
REMARK    4  A    between atoms: C_8  and  N_3 
REMARK    5  A    between atoms: N_5  and  N_4 
REMARK    6  A    between atoms: C_15  and  O_10 
ROOT
ATOM      1  C   UNL d   1       0.985  -0.140   0.153  0.00  0.00     0.191 C 
ATOM      2  S   UNL d   1       0.160  -1.472   0.722  0.00  0.00    -0.039 SA
ENDROOT
BRANCH   1   3
ATOM      3  N   UNL d   1       0.406   0.703  -0.770  0.00  0.00    -0.332 N 
ATOM      4  H   UNL d   1      -0.608   0.700  -0.807  0.00  0.00     0.168 HD
BRANCH   3   5
ATOM      5  C   UNL d   1       1.088   1.446  -1.760  0.00  0.00     0.034 A 
ATOM      6  C   UNL d   1       2.331   1.031  -2.263  0.00  0.00     0.036 A 
ATOM      7  C   UNL d   1       2.999   1.773  -3.243  0.00  0.00    -0.060 A 
ATOM      8  C   UNL d   1       4.327   1.317  -3.774  0.00  0.00     0.048 C 
ATOM      9  C   UNL d   1       2.417   2.955  -3.707  0.00  0.00     0.007 A 
ATOM     10  C   UNL d   1       1.165   3.358  -3.232  0.00  0.00     0.003 A 
ATOM     11  C   UNL d   1       0.490   2.592  -2.278  0.00  0.00     0.029 A 
ENDBRANCH   3   5
ENDBRANCH   1   3
BRANCH   1  12
ATOM     12  N   UNL d   1       2.217   0.274   0.594  0.00  0.00    -0.272 N 
ATOM     13  H   UNL d   1       2.551   1.206   0.342  0.00  0.00     0.189 HD
BRANCH  12  14
ATOM     14  N   UNL d   1       3.175  -0.556   1.190  0.00  0.00    -0.243 N 
ATOM     15  C   UNL d   1       4.431   0.003   1.260  0.00  0.00     0.379 C 
ATOM     16  O   UNL d   1       4.631   1.215   1.214  0.00  0.00    -0.237 OA
ATOM     17  H   UNL d   1       3.118  -1.549   0.995  0.00  0.00     0.192 HD
BRANCH  15  18
ATOM     18  O   UNL d   1       5.395  -0.947   1.232  0.00  0.00    -0.303 OA
BRANCH  18  19
ATOM     19  C   UNL d   1       6.713  -0.429   0.989  0.00  0.00     0.176 C 
ATOM     20  C   UNL d   1       6.905  -0.187  -0.501  0.00  0.00     0.034 C 
ENDBRANCH  18  19
ENDBRANCH  15  18
ENDBRANCH  12  14
ENDBRANCH   1  12
TORSDOF 6
