REMARK  8 active torsions:
REMARK  status: ('A' for Active; 'I' for Inactive)
REMARK    1  A    between atoms: N_5  and  C_1 
REMARK    2  A    between atoms: C_4  and  C_6 
REMARK    3  A    between atoms: C_15  and  N_7 
REMARK    4  A    between atoms: C_20  and  C_15 
REMARK    5  A    between atoms: O_18  and  C_24 
REMARK    6  A    between atoms: C_22  and  O_18 
REMARK    7  A    between atoms: C_24  and  C_20 
REMARK    8  A    between atoms: O_30  and  C_20 
ROOT
ATOM      1  N   UNL d   1       0.383   2.626  -0.300  0.00  0.00    -0.214 N 
ATOM      2  N   UNL d   1       0.980   5.518  -0.076  0.00  0.00     0.094 N 
ATOM      3  C   UNL d   1      -0.407   3.464   0.605  0.00  0.00     0.171 C 
ATOM      4  C   UNL d   1       1.739   3.110  -0.596  0.00  0.00     0.171 C 
ATOM      5  C   UNL d   1       1.715   4.610  -0.992  0.00  0.00     0.293 C 
ATOM      6  C   UNL d   1      -0.381   4.935   0.116  0.00  0.00     0.293 C 
ENDROOT
BRANCH   2   7
ATOM      7  C   UNL d   1       1.641   5.694   1.229  0.00  0.00     0.306 C 
BRANCH   7   8
ATOM      8  C   UNL d   1       3.044   6.347   1.277  0.00  0.00     0.170 C 
BRANCH   8   9
ATOM      9  C   UNL d   1       3.090   7.766   0.686  0.00  0.00     0.209 C 
BRANCH   9  10
ATOM     10  O   UNL d   1       4.441   8.258   0.734  0.00  0.00    -0.349 OA
BRANCH  10  11
ATOM     11  C   UNL d   1       4.672   9.508   0.222  0.00  0.00     0.069 A 
ATOM     12  C   UNL d   1       3.693  10.363  -0.295  0.00  0.00     0.040 A 
ATOM     13  C   UNL d   1       4.050  11.612  -0.810  0.00  0.00     0.045 A 
ATOM     14  C   UNL d   1       5.381  12.006  -0.806  0.00  0.00     0.116 A 
ATOM     15  C   UNL d   1       6.367  11.176  -0.288  0.00  0.00     0.045 A 
ATOM     16  F   UNL d   1       5.717  13.201  -1.311  0.00  0.00    -0.206 F 
ATOM     17  C   UNL d   1       6.008   9.927   0.230  0.00  0.00     0.040 A 
ENDBRANCH  10  11
ENDBRANCH   9  10
ENDBRANCH   8   9
BRANCH   8  18
ATOM     18  O   UNL d   1       3.440   6.380   2.664  0.00  0.00    -0.392 OA
ATOM     19  H   UNL d   1       2.859   7.009   3.125  0.00  0.00     0.210 HD
ENDBRANCH   8  18
ENDBRANCH   7   8
ENDBRANCH   2   7
BRANCH   1  20
ATOM     20  C   UNL d   1       0.248   1.259  -0.115  0.00  0.00     0.680 A 
ATOM     21  N   UNL d   1       1.259   0.450  -0.468  0.00  0.00    -0.186 N 
ATOM     22  C   UNL d   1       1.093  -0.893  -0.362  0.00  0.00     0.133 A 
ATOM     23  HN  UNL d   1       2.138   0.838  -0.810  1.00  0.00     0.184 HD
ATOM     24  C   UNL d   1      -0.091  -1.450   0.087  0.00  0.00     0.052 A 
ATOM     25  C   UNL d   1      -1.066  -0.554   0.436  0.00  0.00     0.108 A 
ATOM     26  N   UNL d   1      -0.917   0.778   0.353  0.00  0.00    -0.202 N 
ATOM     27  HN  UNL d   1      -1.668   1.407   0.637  1.00  0.00     0.183 HD
BRANCH  22  28
ATOM     28  C   UNL d   1       2.233  -1.816  -0.748  0.00  0.00     0.433 C 
ATOM     29  F   UNL d   1       3.364  -1.174  -1.158  0.00  0.00    -0.165 F 
ATOM     30  F   UNL d   1       2.619  -2.623   0.285  0.00  0.00    -0.165 F 
ATOM     31  F   UNL d   1       1.897  -2.665  -1.763  0.00  0.00    -0.165 F 
ENDBRANCH  22  28
ENDBRANCH   1  20
TORSDOF 8
