REMARK  8 active torsions:
REMARK  status: ('A' for Active; 'I' for Inactive)
REMARK    1  A    between atoms: C_6  and  C_1 
REMARK    2  A    between atoms: C_8  and  C_3 
REMARK    3  A    between atoms: C_9  and  N_4 
REMARK    4  A    between atoms: O_17  and  C_6 
REMARK    5  A    between atoms: C_7  and  C_8 
REMARK       I    between atoms: N_11  and  C_7 
REMARK    6  A    between atoms: C_16  and  N_11 
REMARK    7  A    between atoms: C_29  and  O_17 
REMARK    8  A    between atoms: O_28  and  C_19 
ROOT
ATOM      1  C   UNL d   1       1.022   0.314  -0.786  0.00  0.00     0.052 C 
ATOM      2  C   UNL d   1      -0.368  -1.413  -0.393  0.00  0.00     0.256 C 
ATOM      3  C   UNL d   1       1.052  -0.953  -0.351  0.00  0.00     0.033 C 
ATOM      4  N   UNL d   1      -1.134  -0.330  -0.829  0.00  0.00    -0.305 N 
ATOM      5  C   UNL d   1      -0.353   0.882  -0.729  0.00  0.00     0.129 C 
ATOM      6  O   UNL d   1      -0.706  -2.566  -0.201  0.00  0.00    -0.267 OA
ATOM      7  C   UNL d   1      -0.597   1.506   0.661  0.00  0.00     0.038 C 
ENDROOT
BRANCH   3   8
ATOM      8  C   UNL d   1       2.205  -1.846  -0.059  0.00  0.00     0.148 C 
BRANCH   8   9
ATOM      9  C   UNL d   1       1.952  -2.730   1.136  0.00  0.00     0.226 C 
ATOM     10  N   UNL d   1       1.691  -4.058   1.060  0.00  0.00    -0.327 N 
ATOM     11  H   UNL d   1       1.436  -4.392   1.978  0.00  0.00     0.169 HD
ATOM     12  O   UNL d   1       1.947  -2.220   2.269  0.00  0.00    -0.273 OA
BRANCH  10  13
ATOM     13  C   UNL d   1       1.482  -4.964   0.009  0.00  0.00     0.034 A 
ATOM     14  C   UNL d   1       1.861  -4.815  -1.325  0.00  0.00     0.032 A 
ATOM     15  C   UNL d   1       1.500  -5.761  -2.296  0.00  0.00     0.039 A 
ATOM     16  C   UNL d   1       0.768  -6.883  -1.933  0.00  0.00     0.068 A 
ATOM     17  C   UNL d   1       0.454  -7.095  -0.599  0.00  0.00     0.039 A 
ATOM     18  C   UNL d   1       0.804  -6.139   0.367  0.00  0.00     0.032 A 
BRANCH  16  19
ATOM     19  O   UNL d   1       0.333  -7.856  -2.793  0.00  0.00    -0.356 OA
ATOM     20  C   UNL d   1       0.188  -7.461  -4.154  0.00  0.00     0.210 C 
ENDBRANCH  16  19
ENDBRANCH  10  13
ENDBRANCH   8   9
ENDBRANCH   3   8
BRANCH   1  21
ATOM     21  C   UNL d   1       2.114   1.010  -1.497  0.00  0.00     0.292 C 
ATOM     22  O   UNL d   1       1.947   2.014  -2.163  0.00  0.00    -0.260 OA
BRANCH  21  23
ATOM     23  O   UNL d   1       3.233   0.251  -1.462  0.00  0.00    -0.318 OA
BRANCH  23  24
ATOM     24  C   UNL d   1       4.066   0.178  -2.626  0.00  0.00     0.174 C 
ATOM     25  C   UNL d   1       5.463   0.655  -2.296  0.00  0.00     0.034 C 
ENDBRANCH  23  24
ENDBRANCH  21  23
ENDBRANCH   1  21
BRANCH   4  26
ATOM     26  C   UNL d   1      -2.538  -0.301  -1.042  0.00  0.00     0.038 A 
ATOM     27  C   UNL d   1      -3.382  -1.269  -0.485  0.00  0.00     0.033 A 
ATOM     28  C   UNL d   1      -4.772  -1.160  -0.605  0.00  0.00     0.044 A 
ATOM     29  C   UNL d   1      -5.324  -0.105  -1.318  0.00  0.00     0.116 A 
ATOM     30  C   UNL d   1      -4.511   0.838  -1.926  0.00  0.00     0.044 A 
ATOM     31  F   UNL d   1      -6.655   0.006  -1.419  0.00  0.00    -0.206 F 
ATOM     32  C   UNL d   1      -3.124   0.743  -1.784  0.00  0.00     0.033 A 
ENDBRANCH   4  26
TORSDOF 8
