REMARK  10 active torsions:
REMARK  status: ('A' for Active; 'I' for Inactive)
REMARK    1  A    between atoms: C_5  and  N_1 
REMARK    2  A    between atoms: C_11  and  C_5 
REMARK    3  A    between atoms: O_14  and  C_6 
REMARK    4  A    between atoms: O_16  and  C_8 
REMARK    5  A    between atoms: O_17  and  C_11 
REMARK    6  A    between atoms: C_19  and  C_11 
REMARK    7  A    between atoms: C_12  and  C_22 
REMARK    8  A    between atoms: N_15  and  C_19 
REMARK    9  A    between atoms: C_21  and  N_15 
REMARK   10  A    between atoms: C_22  and  C_21 
ROOT
ATOM      1  N   UNL d   1      -0.411  -5.857  -0.082  0.00  0.00     0.086 N 
ATOM      2  H   UNL d   1       0.255  -5.641   0.666  0.00  0.00     0.315 HD
ENDROOT
BRANCH   1   3
ATOM      3  C   UNL d   1      -1.498  -4.874  -0.025  0.00  0.00     0.302 C 
BRANCH   3   4
ATOM      4  C   UNL d   1      -0.901  -3.450  -0.005  0.00  0.00     0.164 C 
BRANCH   4   5
ATOM      5  C   UNL d   1      -2.022  -2.402   0.030  0.00  0.00     0.162 C 
BRANCH   5   6
ATOM      6  N   UNL d   1      -1.529  -1.038  -0.107  0.00  0.00    -0.354 N 
ATOM      7  C   UNL d   1      -1.325  -0.419  -1.316  0.00  0.00     0.092 A 
ATOM      8  C   UNL d   1      -0.899   0.865  -1.069  0.00  0.00     0.031 A 
ATOM      9  C   UNL d   1      -0.847   1.040   0.341  0.00  0.00    -0.008 A 
ATOM     10  C   UNL d   1      -1.248  -0.166   0.927  0.00  0.00     0.044 A 
ATOM     11  C   UNL d   1      -0.493   2.122   1.170  0.00  0.00     0.014 A 
ATOM     12  C   UNL d   1      -1.303  -0.321   2.323  0.00  0.00     0.030 A 
ATOM     13  C   UNL d   1      -0.938   0.765   3.125  0.00  0.00     0.002 A 
ATOM     14  C   UNL d   1      -0.540   1.972   2.560  0.00  0.00     0.001 A 
ENDBRANCH   5   6
ENDBRANCH   4   5
BRANCH   4  15
ATOM     15  O   UNL d   1      -0.033  -3.345   1.136  0.00  0.00    -0.392 OA
ATOM     16  H   UNL d   1      -0.571  -3.173   1.926  0.00  0.00     0.210 HD
ENDBRANCH   4  15
ENDBRANCH   3   4
ENDBRANCH   1   3
BRANCH   1  17
ATOM     17  C   UNL d   1      -0.893  -7.233   0.023  0.00  0.00     0.274 C 
BRANCH  17  18
ATOM     18  C   UNL d   1       0.296  -8.203   0.021  0.00  0.00     0.068 C 
BRANCH  18  19
ATOM     19  C   UNL d   1      -0.149  -9.643   0.042  0.00  0.00    -0.054 A 
ATOM     20  C   UNL d   1      -0.421 -10.316  -1.160  0.00  0.00     0.046 A 
ATOM     21  C   UNL d   1      -0.831 -11.659  -1.172  0.00  0.00     0.102 A 
ATOM     22  C   UNL d   1      -0.999 -12.334   0.048  0.00  0.00     0.101 A 
ATOM     23  C   UNL d   1      -0.743 -11.649   1.246  0.00  0.00     0.040 A 
ATOM     24  C   UNL d   1      -0.322 -10.320   1.247  0.00  0.00     0.010 A 
BRANCH  21  25
ATOM     25  O   UNL d   1      -1.134 -12.304  -2.344  0.00  0.00    -0.353 OA
ATOM     26  C   UNL d   1      -0.369 -11.924  -3.483  0.00  0.00     0.210 C 
ENDBRANCH  21  25
BRANCH  22  27
ATOM     27  O   UNL d   1      -1.387 -13.630   0.267  0.00  0.00    -0.353 OA
ATOM     28  C   UNL d   1      -1.583 -14.482  -0.852  0.00  0.00     0.210 C 
ENDBRANCH  22  27
ENDBRANCH  18  19
ENDBRANCH  17  18
ENDBRANCH   1  17
TORSDOF 10
