REMARK  10 active torsions:
REMARK  status: ('A' for Active; 'I' for Inactive)
REMARK    1  A    between atoms: N_4  and  S_1 
REMARK    2  A    between atoms: C_5  and  S_1 
REMARK    3  A    between atoms: C_12  and  C_2 
REMARK    4  A    between atoms: C_3  and  O_13 
REMARK    5  A    between atoms: C_8  and  N_4 
REMARK    6  A    between atoms: C_6  and  C_10 
REMARK    7  A    between atoms: C_7  and  C_11 
REMARK    8  A    between atoms: C_9  and  C_16 
REMARK    9  A    between atoms: O_37  and  C_12 
REMARK   10  A    between atoms: O_13  and  C_15 
ROOT
ATOM      1  C   UNL d   1       1.093  -2.278   1.526  0.00  0.00     0.057 A 
ATOM      2  C   UNL d   1       2.348  -2.899   1.426  0.00  0.00     0.098 A 
ATOM      3  C   UNL d   1       0.161  -4.318   2.472  0.00  0.00     0.049 A 
ATOM      4  C   UNL d   1       0.001  -2.990   2.036  0.00  0.00     0.043 A 
ATOM      5  C   UNL d   1       1.429  -4.913   2.397  0.00  0.00     0.019 A 
ATOM      6  C   UNL d   1       2.518  -4.205   1.893  0.00  0.00     0.040 A 
ENDROOT
BRANCH   1   7
ATOM      7  N   UNL d   1       0.961  -0.904   1.130  0.00  0.00    -0.179 NA
ATOM      8  H   UNL d   1       0.532  -0.333   1.861  0.00  0.00     0.146 HD
BRANCH   7   9
ATOM      9  S   UNL d   1       0.146  -0.559  -0.313  0.00  0.00     0.246 S 
ATOM     10  O   UNL d   1       0.446   0.812  -0.655  0.00  0.00    -0.206 OA
ATOM     11  O   UNL d   1      -1.226  -0.992  -0.143  0.00  0.00    -0.206 OA
BRANCH   9  12
ATOM     12  C   UNL d   1       0.904  -1.609  -1.531  0.00  0.00     0.076 A 
ATOM     13  C   UNL d   1       0.273  -2.811  -1.872  0.00  0.00     0.041 A 
ATOM     14  C   UNL d   1       0.821  -3.641  -2.857  0.00  0.00     0.050 A 
ATOM     15  C   UNL d   1       2.006  -3.238  -3.498  0.00  0.00     0.032 A 
ATOM     16  C   UNL d   1       2.643  -2.025  -3.169  0.00  0.00     0.050 A 
ATOM     17  C   UNL d   1       2.072  -1.203  -2.183  0.00  0.00     0.041 A 
BRANCH  14  18
ATOM     18  C   UNL d   1       0.172  -4.960  -3.206  0.00  0.00     0.417 C 
ATOM     19  F   UNL d   1      -1.066  -5.114  -2.664  0.00  0.00    -0.166 F 
ATOM     20  F   UNL d   1       0.024  -5.134  -4.546  0.00  0.00    -0.166 F 
ATOM     21  F   UNL d   1       0.909  -6.016  -2.765  0.00  0.00    -0.166 F 
ENDBRANCH  14  18
BRANCH  16  22
ATOM     22  C   UNL d   1       3.920  -1.632  -3.881  0.00  0.00     0.417 C 
ATOM     23  F   UNL d   1       4.567  -0.586  -3.302  0.00  0.00    -0.166 F 
ATOM     24  F   UNL d   1       4.820  -2.654  -3.928  0.00  0.00    -0.166 F 
ATOM     25  F   UNL d   1       3.697  -1.276  -5.174  0.00  0.00    -0.166 F 
ENDBRANCH  16  22
ENDBRANCH   9  12
ENDBRANCH   7   9
ENDBRANCH   1   7
BRANCH   2  26
ATOM     26  O   UNL d   1       3.408  -2.154   0.955  0.00  0.00    -0.307 OA
BRANCH  26  27
ATOM     27  C   UNL d   1       4.412  -2.704   0.226  0.00  0.00     0.099 A 
ATOM     28  C   UNL d   1       5.697  -2.188   0.262  0.00  0.00     0.114 A 
ATOM     29  S   UNL d   1       6.748  -3.103  -0.752  0.00  0.00    -0.093 SA
ATOM     30  C   UNL d   1       5.492  -4.138  -1.258  0.00  0.00     0.053 A 
ATOM     31  C   UNL d   1       4.292  -3.809  -0.674  0.00  0.00     0.046 A 
BRANCH  28  32
ATOM     32  C   UNL d   1       6.267  -1.076   1.001  0.00  0.00     0.302 C 
ATOM     33  O   UNL d   1       7.461  -0.797   1.073  0.00  0.00    -0.259 OA
BRANCH  32  34
ATOM     34  O   UNL d   1       5.292  -0.356   1.626  0.00  0.00    -0.322 OA
ATOM     35  C   UNL d   1       5.777   0.759   2.376  0.00  0.00     0.213 C 
ENDBRANCH  32  34
ENDBRANCH  28  32
ENDBRANCH  26  27
ENDBRANCH   2  26
BRANCH   3  36
ATOM     36  C   UNL d   1      -0.987  -5.112   3.051  0.00  0.00     0.417 C 
ATOM     37  F   UNL d   1      -2.160  -4.426   3.093  0.00  0.00    -0.166 F 
ATOM     38  F   UNL d   1      -1.236  -6.247   2.343  0.00  0.00    -0.166 F 
ATOM     39  F   UNL d   1      -0.740  -5.514   4.328  0.00  0.00    -0.166 F 
ENDBRANCH   3  36
TORSDOF 10
