REMARK  3 active torsions:
REMARK  status: ('A' for Active; 'I' for Inactive)
REMARK    1  A    between atoms: O_9  and  C_1 
REMARK    2  A    between atoms: C_5  and  C_4 
REMARK    3  A    between atoms: C_15  and  O_9 
ROOT
ATOM      1  C   UNL d   1       1.542   1.523  -0.134  0.00  0.00     0.090 A 
ATOM      2  N   UNL d   1       2.352  -1.124  -0.003  0.00  0.00    -0.352 N 
ATOM      3  HN  UNL d   1       2.650  -2.096   0.085  1.00  0.00     0.166 HD
ATOM      4  C   UNL d   1       3.277  -0.125  -0.042  0.00  0.00     0.119 A 
ATOM      5  C   UNL d   1       0.570   0.497  -0.209  0.00  0.00     0.026 A 
ATOM      6  C   UNL d   1       1.047  -0.824  -0.080  0.00  0.00     0.045 A 
ATOM      7  C   UNL d   1       2.899   1.210  -0.085  0.00  0.00     0.072 A 
ATOM      8  C   UNL d   1      -0.821   0.701  -0.387  0.00  0.00     0.040 A 
ATOM      9  C   UNL d   1       0.134  -1.867  -0.030  0.00  0.00     0.032 A 
ATOM     10  C   UNL d   1      -1.715  -0.362  -0.318  0.00  0.00     0.035 A 
ATOM     11  C   UNL d   1      -1.242  -1.651  -0.125  0.00  0.00     0.026 A 
ATOM     12 CL   UNL d   1      -3.404  -0.073  -0.444  0.00  0.00    -0.084 Cl
ENDROOT
BRANCH   1  13
ATOM     13  O   UNL d   1       1.265   2.873  -0.189  0.00  0.00    -0.310 OA
BRANCH  13  14
ATOM     14  C   UNL d   1       0.363   3.440   0.687  0.00  0.00     0.076 A 
ATOM     15  C   UNL d   1      -0.111   2.856   1.866  0.00  0.00     0.039 A 
ATOM     16  C   UNL d   1      -1.124   3.483   2.599  0.00  0.00     0.026 A 
ATOM     17  C   UNL d   1      -1.617   4.721   2.188  0.00  0.00     0.034 A 
ATOM     18  C   UNL d   1      -1.095   5.345   1.058  0.00  0.00     0.026 A 
ATOM     19 CL   UNL d   1      -2.878   5.478   3.078  0.00  0.00    -0.084 Cl
ATOM     20  C   UNL d   1      -0.106   4.703   0.308  0.00  0.00     0.039 A 
ENDBRANCH  13  14
ENDBRANCH   1  13
BRANCH   4  21
ATOM     21  C   UNL d   1       4.759  -0.476  -0.054  0.00  0.00     0.432 C 
ATOM     22  F   UNL d   1       5.020  -1.814  -0.045  0.00  0.00    -0.165 F 
ATOM     23  F   UNL d   1       5.399   0.018  -1.154  0.00  0.00    -0.165 F 
ATOM     24  F   UNL d   1       5.426   0.041   1.018  0.00  0.00    -0.165 F 
ENDBRANCH   4  21
TORSDOF 3
