REMARK  5 active torsions:
REMARK  status: ('A' for Active; 'I' for Inactive)
REMARK    1  A    between atoms: C_11  and  N_3 
REMARK    2  A    between atoms: O_19  and  C_9 
REMARK    3  A    between atoms: C_16  and  C_11 
REMARK    4  A    between atoms: O_20  and  C_12 
REMARK    5  A    between atoms: C_15  and  C_16 
ROOT
ATOM      1  N   UNL d   1       1.655   0.299  -1.018  0.00  0.00    -0.237 N 
ATOM      2  HN  UNL d   1       2.079   0.494  -1.925  1.00  0.00     0.208 HD
ATOM      3  N   UNL d   1       2.318   0.661   0.119  0.00  0.00    -0.242 N 
ATOM      4  C   UNL d   1       1.863   0.390   1.396  0.00  0.00     0.275 A 
ATOM      5  N   UNL d   1       0.539  -0.266  -0.974  0.00  0.00    -0.285 N 
ATOM      6  HN  UNL d   1       0.086  -0.569  -1.836  1.00  0.00     0.188 HD
ATOM      7  C   UNL d   1       0.526  -0.192   1.468  0.00  0.00     0.061 A 
ATOM      8  C   UNL d   1      -0.085  -0.482   0.261  0.00  0.00     0.065 A 
ATOM      9  O   UNL d   1       2.486   0.628   2.423  0.00  0.00    -0.266 OA
ATOM     10  C   UNL d   1      -0.118  -0.404   2.693  0.00  0.00     0.019 A 
ATOM     11  C   UNL d   1      -1.384  -1.006   0.287  0.00  0.00     0.032 A 
ATOM     12  C   UNL d   1      -1.413  -0.916   2.706  0.00  0.00     0.001 A 
ATOM     13  C   UNL d   1      -2.047  -1.219   1.502  0.00  0.00     0.002 A 
ENDROOT
BRANCH   3  14
ATOM     14  C   UNL d   1       3.579   1.370  -0.064  0.00  0.00     0.158 C 
BRANCH  14  15
ATOM     15  C   UNL d   1       4.786   0.430  -0.119  0.00  0.00     0.060 C 
BRANCH  15  16
ATOM     16  C   UNL d   1       6.074   1.200  -0.307  0.00  0.00    -0.054 A 
ATOM     17  C   UNL d   1       6.524   1.516  -1.599  0.00  0.00     0.046 A 
ATOM     18  C   UNL d   1       7.680   2.288  -1.813  0.00  0.00     0.102 A 
ATOM     19  C   UNL d   1       8.404   2.747  -0.698  0.00  0.00     0.101 A 
ATOM     20  C   UNL d   1       7.961   2.411   0.591  0.00  0.00     0.040 A 
ATOM     21  C   UNL d   1       6.807   1.651   0.790  0.00  0.00     0.010 A 
BRANCH  18  22
ATOM     22  O   UNL d   1       8.129   2.619  -3.063  0.00  0.00    -0.353 OA
ATOM     23  C   UNL d   1       7.390   2.170  -4.190  0.00  0.00     0.210 C 
ENDBRANCH  18  22
BRANCH  19  24
ATOM     24  O   UNL d   1       9.535   3.522  -0.668  0.00  0.00    -0.353 OA
ATOM     25  C   UNL d   1      10.090   3.982  -1.891  0.00  0.00     0.210 C 
ENDBRANCH  19  24
ENDBRANCH  15  16
ENDBRANCH  14  15
ENDBRANCH   3  14
TORSDOF 5
