REMARK  3 active torsions:
REMARK  status: ('A' for Active; 'I' for Inactive)
REMARK    1  A    between atoms: C_7  and  C_1 
REMARK    2  A    between atoms: O_9  and  C_2 
REMARK    3  A    between atoms: C_10  and  C_7 
ROOT
ATOM      1  C   UNL d   1       1.802  -0.817  -0.055  0.00  0.00     0.056 A 
ATOM      2  C   UNL d   1       0.583  -1.385  -0.016  0.00  0.00     0.091 A 
ATOM      3  C   UNL d   1       1.932   0.662  -0.136  0.00  0.00     0.297 A 
ATOM      4  O   UNL d   1       0.772   1.419  -0.073  0.00  0.00    -0.274 OA
ATOM      5  C   UNL d   1      -0.629  -0.565  -0.029  0.00  0.00     0.032 A 
ATOM      6  C   UNL d   1      -0.495   0.819  -0.031  0.00  0.00     0.092 A 
ATOM      7  O   UNL d   1       3.026   1.209  -0.235  0.00  0.00    -0.259 OA
ATOM      8  C   UNL d   1      -1.924  -1.099  -0.021  0.00  0.00     0.017 A 
ATOM      9  C   UNL d   1      -1.598   1.672  -0.002  0.00  0.00     0.038 A 
ATOM     10  C   UNL d   1      -3.042  -0.258  -0.004  0.00  0.00     0.001 A 
ATOM     11  C   UNL d   1      -2.879   1.127   0.013  0.00  0.00     0.003 A 
ENDROOT
BRANCH   1  12
ATOM     12  C   UNL d   1       3.106  -1.569   0.075  0.00  0.00     0.086 C 
BRANCH  12  13
ATOM     13  C   UNL d   1       3.617  -2.168  -1.218  0.00  0.00    -0.054 A 
ATOM     14  C   UNL d   1       4.044  -1.344  -2.270  0.00  0.00     0.007 A 
ATOM     15  C   UNL d   1       4.539  -1.900  -3.451  0.00  0.00     0.001 A 
ATOM     16  C   UNL d   1       4.620  -3.283  -3.594  0.00  0.00     0.000 A 
ATOM     17  C   UNL d   1       4.211  -4.115  -2.553  0.00  0.00     0.001 A 
ATOM     18  C   UNL d   1       3.716  -3.560  -1.371  0.00  0.00     0.007 A 
ENDBRANCH  12  13
ENDBRANCH   1  12
BRANCH   2  19
ATOM     19  O   UNL d   1       0.363  -2.744   0.063  0.00  0.00    -0.359 OA
ATOM     20  H   UNL d   1       1.182  -3.218  -0.154  0.00  0.00     0.217 HD
ENDBRANCH   2  19
TORSDOF 3
