REMARK  6 active torsions:
REMARK  status: ('A' for Active; 'I' for Inactive)
REMARK    1  A    between atoms: C_5  and  C_4 
REMARK    2  A    between atoms: C_6  and  C_5 
REMARK       I    between atoms: N_9  and  C_6 
REMARK    3  A    between atoms: C_10  and  N_9 
REMARK    4  A    between atoms: O_14  and  C_13 
REMARK    5  A    between atoms: C_19  and  O_14 
REMARK    6  A    between atoms: C_20  and  C_19 
ROOT
ATOM      1  C   UNL d   1       2.309  -0.471   3.017  0.00  0.00     0.223 C 
ATOM      2  N   UNL d   1       3.614  -0.034   2.815  0.00  0.00    -0.325 N 
ATOM      3  O   UNL d   1       1.494  -0.719   2.133  0.00  0.00    -0.273 OA
ATOM      4  H   UNL d   1       4.295  -0.459   3.433  0.00  0.00     0.169 HD
ENDROOT
BRANCH   1   5
ATOM      5  C   UNL d   1       1.966  -0.713   4.467  0.00  0.00     0.128 C 
BRANCH   5   6
ATOM      6  C   UNL d   1       2.157  -2.177   4.856  0.00  0.00     0.153 C 
ATOM      7  C   UNL d   1       1.187  -2.531   5.971  0.00  0.00     0.236 C 
ATOM      8  N   UNL d   1       1.470  -2.117   7.248  0.00  0.00    -0.325 N 
ATOM      9  O   UNL d   1       0.089  -3.048   5.743  0.00  0.00    -0.272 OA
ATOM     10  C   UNL d   1       2.713  -1.664   7.713  0.00  0.00     0.051 A 
ATOM     11  H   UNL d   1       0.706  -2.225   7.904  0.00  0.00     0.169 HD
ATOM     12  C   UNL d   1       3.883  -1.780   6.949  0.00  0.00     0.028 A 
ATOM     13  C   UNL d   1       2.769  -1.117   9.000  0.00  0.00     0.031 A 
ATOM     14  S   UNL d   1       3.886  -2.523   5.330  0.00  0.00    -0.113 SA
ATOM     15  C   UNL d   1       5.101  -1.349   7.490  0.00  0.00     0.021 A 
ATOM     16  C   UNL d   1       5.149  -0.788   8.764  0.00  0.00     0.002 A 
ATOM     17  C   UNL d   1       3.985  -0.670   9.520  0.00  0.00     0.002 A 
ENDBRANCH   5   6
ENDBRANCH   1   5
BRANCH   2  18
ATOM     18  C   UNL d   1       4.041   0.245   1.495  0.00  0.00     0.068 A 
ATOM     19  C   UNL d   1       3.407   1.226   0.702  0.00  0.00     0.095 A 
ATOM     20  C   UNL d   1       3.735   1.304  -0.655  0.00  0.00     0.039 A 
ATOM     21  C   UNL d   1       4.715   0.465  -1.196  0.00  0.00     0.003 A 
ATOM     22  C   UNL d   1       5.402  -0.432  -0.382  0.00  0.00     0.002 A 
ATOM     23  C   UNL d   1       5.077  -0.533   0.970  0.00  0.00     0.032 A 
BRANCH  19  24
ATOM     24  O   UNL d   1       2.572   2.102   1.355  0.00  0.00    -0.349 OA
BRANCH  24  25
ATOM     25  C   UNL d   1       1.772   2.974   0.557  0.00  0.00     0.175 C 
BRANCH  25  26
ATOM     26  C   UNL d   1       1.061   3.985   1.460  0.00  0.00     0.022 C 
ATOM     27  C   UNL d   1       1.996   5.088   1.941  0.00  0.00     0.007 C 
ENDBRANCH  25  26
ENDBRANCH  24  25
ENDBRANCH  19  24
ENDBRANCH   2  18
TORSDOF 6
