REMARK  2 active torsions:
REMARK  status: ('A' for Active; 'I' for Inactive)
REMARK    1  A    between atoms: C_12  and  C_4 
REMARK    2  A    between atoms: O_14  and  C_8 
ROOT
ATOM      1  C   UNL d   1       1.584  -1.141   0.019  0.00  0.00    -0.027 A 
ATOM      2  C   UNL d   1       0.170  -0.750  -0.008  0.00  0.00     0.056 A 
ATOM      3  C   UNL d   1       0.049   0.630  -0.071  0.00  0.00     0.090 A 
ATOM      4  C   UNL d   1       2.435  -0.029  -0.047  0.00  0.00     0.024 A 
ATOM      5  S   UNL d   1       1.537   1.432  -0.156  0.00  0.00    -0.070 SA
ATOM      6  N   UNL d   1      -1.084   1.350  -0.078  0.00  0.00    -0.346 N 
ATOM      7  HN  UNL d   1      -1.106   2.368  -0.130  1.00  0.00     0.167 HD
ATOM      8  C   UNL d   1      -1.067  -1.415   0.034  0.00  0.00     0.154 A 
ATOM      9  N   UNL d   1      -2.229  -0.740   0.042  0.00  0.00    -0.332 N 
ATOM     10  HN  UNL d   1      -3.123  -1.230   0.088  1.00  0.00     0.168 HD
ATOM     11  C   UNL d   1      -2.175   0.593  -0.011  0.00  0.00     0.183 A 
ATOM     12  C   UNL d   1       2.083  -2.553   0.129  0.00  0.00     0.050 C 
ENDROOT
BRANCH   4  13
ATOM     13  C   UNL d   1       3.918   0.063  -0.046  0.00  0.00    -0.018 A 
ATOM     14  C   UNL d   1       4.707  -0.878  -0.724  0.00  0.00     0.013 A 
ATOM     15  C   UNL d   1       6.105  -0.797  -0.717  0.00  0.00     0.001 A 
ATOM     16  C   UNL d   1       6.742   0.248  -0.055  0.00  0.00     0.000 A 
ATOM     17  C   UNL d   1       5.982   1.206   0.607  0.00  0.00     0.001 A 
ATOM     18  C   UNL d   1       4.587   1.106   0.622  0.00  0.00     0.013 A 
ENDBRANCH   4  13
BRANCH   8  19
ATOM     19  O   UNL d   1      -1.229  -2.774   0.064  0.00  0.00    -0.345 OA
ATOM     20  H   UNL d   1      -0.427  -3.174  -0.289  0.00  0.00     0.219 HD
ENDBRANCH   8  19
TORSDOF 2
