REMARK  4 active torsions:
REMARK  status: ('A' for Active; 'I' for Inactive)
REMARK    1  A    between atoms: C_7  and  C_1 
REMARK    2  A    between atoms: C_9  and  N_4 
REMARK    3  A    between atoms: S_11  and  C_5 
REMARK       I    between atoms: N_8  and  C_7 
REMARK    4  A    between atoms: C_12  and  N_8 
ROOT
ATOM      1  C   UNL d   1      -0.234   1.052   0.270  0.00  0.00     0.084 A 
ATOM      2  N   UNL d   1       0.946  -0.882   0.596  0.00  0.00    -0.287 N 
ATOM      3  HN  UNL d   1       1.695  -1.535   0.827  1.00  0.00     0.188 HD
ATOM      4  N   UNL d   1      -0.296  -1.176   0.136  0.00  0.00    -0.266 N 
ATOM      5  C   UNL d   1       0.971   0.447   0.680  0.00  0.00     0.102 A 
ATOM      6  C   UNL d   1      -1.006  -0.031  -0.120  0.00  0.00     0.136 A 
ENDROOT
BRANCH   1   7
ATOM      7  C   UNL d   1      -0.711   2.429   0.188  0.00  0.00     0.260 C 
ATOM      8  N   UNL d   1       0.119   3.394   0.726  0.00  0.00    -0.323 N 
ATOM      9  H   UNL d   1       1.008   3.078   1.100  0.00  0.00     0.169 HD
ATOM     10  O   UNL d   1      -1.800   2.649  -0.336  0.00  0.00    -0.267 OA
BRANCH   8  11
ATOM     11  C   UNL d   1      -0.120   4.787   0.783  0.00  0.00     0.035 A 
ATOM     12  C   UNL d   1      -1.305   5.390   0.349  0.00  0.00     0.029 A 
ATOM     13  C   UNL d   1      -1.464   6.778   0.397  0.00  0.00     0.002 A 
ATOM     14  C   UNL d   1      -0.441   7.582   0.887  0.00  0.00     0.000 A 
ATOM     15  C   UNL d   1       0.736   6.995   1.347  0.00  0.00     0.002 A 
ATOM     16  C   UNL d   1       0.894   5.605   1.299  0.00  0.00     0.029 A 
ENDBRANCH   8  11
ENDBRANCH   1   7
BRANCH   5  17
ATOM     17  S   UNL d   1       2.413   1.261   1.248  0.00  0.00    -0.114 SA
ATOM     18  C   UNL d   1       3.685   0.294   0.398  0.00  0.00     0.097 C 
ENDBRANCH   5  17
BRANCH   4  19
ATOM     19  C   UNL d   1      -0.724  -2.525  -0.019  0.00  0.00     0.056 A 
ATOM     20  C   UNL d   1      -2.014  -2.836  -0.476  0.00  0.00     0.031 A 
ATOM     21  C   UNL d   1      -2.408  -4.172  -0.600  0.00  0.00     0.002 A 
ATOM     22  C   UNL d   1      -1.524  -5.199  -0.272  0.00  0.00     0.000 A 
ATOM     23  C   UNL d   1      -0.243  -4.896   0.182  0.00  0.00     0.002 A 
ATOM     24  C   UNL d   1       0.158  -3.565   0.308  0.00  0.00     0.031 A 
ENDBRANCH   4  19
TORSDOF 4
