REMARK  8 active torsions:
REMARK  status: ('A' for Active; 'I' for Inactive)
REMARK    1  A    between atoms: C_10  and  C_1 
REMARK    2  A    between atoms: C_11  and  C_2 
REMARK    3  A    between atoms: C_8  and  C_3 
REMARK    4  A    between atoms: N_7  and  C_9 
REMARK    5  A    between atoms: O_17  and  C_10 
REMARK    6  A    between atoms: O_16  and  C_11 
REMARK    7  A    between atoms: C_23  and  O_16 
REMARK    8  A    between atoms: C_22  and  O_17 
ROOT
ATOM      1  C   UNL d   1      -1.309  -0.987   0.209  0.00  0.00     0.052 C 
ATOM      2  C   UNL d   1       1.260  -0.996   0.156  0.00  0.00     0.052 C 
ATOM      3  C   UNL d   1      -0.025  -1.813  -0.061  0.00  0.00     0.103 C 
ATOM      4  C   UNL d   1      -1.246   0.368   0.243  0.00  0.00     0.018 C 
ATOM      5  C   UNL d   1       1.211   0.356   0.201  0.00  0.00     0.018 C 
ATOM      6  N   UNL d   1      -0.015   0.999   0.137  0.00  0.00    -0.362 N 
ATOM      7  C   UNL d   1      -2.404   1.331   0.347  0.00  0.00     0.069 C 
ATOM      8  C   UNL d   1       2.422   1.253   0.262  0.00  0.00     0.069 C 
ATOM      9  H   UNL d   1      -0.005   2.010   0.247  0.00  0.00     0.165 HD
ENDROOT
BRANCH   3  10
ATOM     10  C   UNL d   1      -0.070  -2.390  -1.498  0.00  0.00    -0.012 A 
ATOM     11  C   UNL d   1      -0.154  -3.758  -1.858  0.00  0.00     0.110 A 
ATOM     12  C   UNL d   1      -0.236  -4.126  -3.224  0.00  0.00     0.037 A 
ATOM     13  C   UNL d   1      -0.235  -3.166  -4.234  0.00  0.00     0.002 A 
ATOM     14  C   UNL d   1      -0.144  -1.825  -3.902  0.00  0.00     0.001 A 
ATOM     15  C   UNL d   1      -0.062  -1.447  -2.560  0.00  0.00     0.011 A 
BRANCH  11  16
ATOM     16  N   UNL d   1      -0.148  -4.881  -0.890  0.00  0.00    -0.115 N 
ATOM     17  O   UNL d   1       0.160  -4.665   0.286  0.00  0.00    -0.532 OA
ATOM     18  O   UNL d   1      -0.406  -6.013  -1.328  0.00  0.00    -0.532 OA
ENDBRANCH  11  16
ENDBRANCH   3  10
BRANCH   2  19
ATOM     19  C   UNL d   1       2.562  -1.695   0.318  0.00  0.00     0.292 C 
ATOM     20  O   UNL d   1       3.548  -1.210   0.853  0.00  0.00    -0.259 OA
BRANCH  19  21
ATOM     21  O   UNL d   1       2.531  -2.901  -0.298  0.00  0.00    -0.318 OA
BRANCH  21  22
ATOM     22  C   UNL d   1       3.811  -3.473  -0.593  0.00  0.00     0.174 C 
ATOM     23  C   UNL d   1       4.200  -3.013  -1.986  0.00  0.00     0.034 C 
ENDBRANCH  21  22
ENDBRANCH  19  21
ENDBRANCH   2  19
BRANCH   1  24
ATOM     24  C   UNL d   1      -2.532  -1.819   0.375  0.00  0.00     0.292 C 
ATOM     25  O   UNL d   1      -2.643  -2.947  -0.092  0.00  0.00    -0.259 OA
BRANCH  24  26
ATOM     26  O   UNL d   1      -3.460  -1.205   1.147  0.00  0.00    -0.318 OA
BRANCH  26  27
ATOM     27  C   UNL d   1      -4.695  -1.919   1.345  0.00  0.00     0.174 C 
ATOM     28  C   UNL d   1      -5.592  -1.813   0.123  0.00  0.00     0.034 C 
ENDBRANCH  26  27
ENDBRANCH  24  26
ENDBRANCH   1  24
TORSDOF 8
