REMARK  4 active torsions:
REMARK  status: ('A' for Active; 'I' for Inactive)
REMARK    1  A    between atoms: C_7  and  N_1 
REMARK    2  A    between atoms: C_8  and  N_3 
REMARK    3  A    between atoms: N_13  and  C_4 
REMARK    4  A    between atoms: C_10  and  C_8 
ROOT
ATOM      1  N   UNL d   1      -0.614   1.243   0.041  0.00  0.00    -0.254 N 
ATOM      2  C   UNL d   1      -1.397   0.066   0.066  0.00  0.00     0.338 A 
ATOM      3  N   UNL d   1      -0.698  -1.140   0.082  0.00  0.00    -0.261 N 
ATOM      4  C   UNL d   1       0.777   1.211  -0.074  0.00  0.00     0.094 A 
ATOM      5  C   UNL d   1       0.668  -1.232   0.021  0.00  0.00     0.254 A 
ATOM      6  C   UNL d   1       1.404   0.027  -0.064  0.00  0.00     0.117 A 
ATOM      7  O   UNL d   1      -2.632   0.080   0.036  0.00  0.00    -0.246 OA
ATOM      8  O   UNL d   1       1.304  -2.286   0.015  0.00  0.00    -0.268 OA
ENDROOT
BRANCH   1   9
ATOM      9  C   UNL d   1      -1.337   2.491   0.049  0.00  0.00     0.051 A 
ATOM     10  C   UNL d   1      -2.180   2.859   1.118  0.00  0.00    -0.035 A 
ATOM     11  C   UNL d   1      -2.383   2.027   2.356  0.00  0.00     0.050 C 
ATOM     12  C   UNL d   1      -2.865   4.087   1.054  0.00  0.00     0.009 A 
ATOM     13  C   UNL d   1      -2.712   4.944  -0.036  0.00  0.00     0.001 A 
ATOM     14  C   UNL d   1      -1.869   4.588  -1.082  0.00  0.00     0.002 A 
ATOM     15  C   UNL d   1      -1.185   3.372  -1.039  0.00  0.00     0.031 A 
ENDBRANCH   1   9
BRANCH   4  16
ATOM     16  N   UNL d   1       1.548   2.363  -0.159  0.00  0.00    -0.288 NA
ATOM     17  H   UNL d   1       1.099   3.168   0.271  0.00  0.00     0.125 HD
ATOM     18  H   UNL d   1       2.512   2.254   0.142  0.00  0.00     0.125 HD
ENDBRANCH   4  16
BRANCH   3  19
ATOM     19  C   UNL d   1      -1.464  -2.373  -0.020  0.00  0.00     0.183 C 
BRANCH  19  20
ATOM     20  C   UNL d   1      -1.705  -3.019   1.317  0.00  0.00     0.001 A 
ATOM     21  S   UNL d   1      -3.135  -2.679   2.201  0.00  0.00    -0.105 SA
ATOM     22  C   UNL d   1      -2.810  -3.918   3.333  0.00  0.00     0.050 A 
ATOM     23  C   UNL d   1      -1.604  -4.535   3.090  0.00  0.00     0.008 A 
ATOM     24  C   UNL d   1      -0.947  -3.989   1.948  0.00  0.00     0.017 A 
ENDBRANCH  19  20
ENDBRANCH   3  19
TORSDOF 4
