REMARK  5 active torsions:
REMARK  status: ('A' for Active; 'I' for Inactive)
REMARK    1  A    between atoms: C_3  and  C_1 
REMARK    2  A    between atoms: C_13  and  C_6 
REMARK    3  A    between atoms: C_14  and  N_7 
REMARK    4  A    between atoms: C_8  and  C_12 
REMARK    5  A    between atoms: C_12  and  C_14 
ROOT
ATOM      1  N   UNL d   1       5.072   2.522  -0.381  0.00  0.00    -0.353 N 
ATOM      2  HN  UNL d   1       4.433   3.070   0.195  1.00  0.00     0.166 HD
ATOM      3  C   UNL d   1       6.244   3.005  -0.943  0.00  0.00     0.049 A 
ATOM      4  C   UNL d   1       4.900   1.256  -0.698  0.00  0.00     0.052 A 
ATOM      5  S   UNL d   1       6.185   0.544  -1.590  0.00  0.00    -0.086 SA
ATOM      6  C   UNL d   1       6.993   2.058  -1.614  0.00  0.00     0.081 A 
ENDROOT
BRANCH   4   7
ATOM      7  C   UNL d   1       3.694   0.446  -0.322  0.00  0.00     0.085 C 
BRANCH   7   8
ATOM      8  C   UNL d   1       2.452   1.336  -0.231  0.00  0.00     0.138 C 
BRANCH   8   9
ATOM      9  N   UNL d   1       1.237   0.605   0.149  0.00  0.00    -0.324 N 
ATOM     10  C   UNL d   1       0.411   0.099  -0.863  0.00  0.00     0.262 C 
ATOM     11  C   UNL d   1      -0.890  -0.468  -0.419  0.00  0.00     0.115 C 
ATOM     12  O   UNL d   1       0.730   0.126  -2.047  0.00  0.00    -0.267 OA
ATOM     13  C   UNL d   1      -1.138  -0.584   0.901  0.00  0.00     0.023 C 
ATOM     14  C   UNL d   1      -0.179  -0.158   1.885  0.00  0.00     0.018 C 
ATOM     15  C   UNL d   1       0.951   0.438   1.492  0.00  0.00     0.094 C 
BRANCH  11  16
ATOM     16  C   UNL d   1      -1.889  -0.841  -1.452  0.00  0.00     0.422 C 
ATOM     17  F   UNL d   1      -1.550  -0.609  -2.741  0.00  0.00    -0.166 F 
ATOM     18  F   UNL d   1      -2.203  -2.164  -1.369  0.00  0.00    -0.166 F 
ATOM     19  F   UNL d   1      -3.061  -0.174  -1.247  0.00  0.00    -0.166 F 
ENDBRANCH  11  16
ENDBRANCH   8   9
ENDBRANCH   7   8
ENDBRANCH   4   7
BRANCH   3  20
ATOM     20  C   UNL d   1       6.609   4.410  -0.813  0.00  0.00    -0.009 A 
ATOM     21  C   UNL d   1       6.216   5.123   0.330  0.00  0.00     0.015 A 
ATOM     22  C   UNL d   1       6.500   6.487   0.454  0.00  0.00     0.024 A 
ATOM     23  C   UNL d   1       7.172   7.148  -0.570  0.00  0.00     0.034 A 
ATOM     24  C   UNL d   1       7.574   6.455  -1.710  0.00  0.00     0.024 A 
ATOM     25 CL   UNL d   1       7.494   8.832  -0.435  0.00  0.00    -0.084 Cl
ATOM     26  C   UNL d   1       7.297   5.090  -1.831  0.00  0.00     0.015 A 
ENDBRANCH   3  20
TORSDOF 5
