REMARK  3 active torsions:
REMARK  status: ('A' for Active; 'I' for Inactive)
REMARK    1  A    between atoms: C_3  and  C_1 
REMARK    2  A    between atoms: N_18  and  C_2 
REMARK    3  A    between atoms: C_10  and  C_8 
ROOT
ATOM      1  C   UNL d   1      -0.577  -2.827  -2.037  0.00  0.00     0.155 A 
ATOM      2  C   UNL d   1       0.554  -1.461  -0.576  0.00  0.00     0.121 A 
ATOM      3  N   UNL d   1      -0.307  -1.592  -1.616  0.00  0.00    -0.329 N 
ATOM      4  HN  UNL d   1      -0.732  -0.777  -2.058  1.00  0.00     0.168 HD
ATOM      5  N   UNL d   1      -0.094  -3.940  -1.488  0.00  0.00    -0.332 N 
ATOM      6  HN  UNL d   1      -0.350  -4.861  -1.842  1.00  0.00     0.168 HD
ATOM      7  C   UNL d   1       0.748  -3.797  -0.444  0.00  0.00     0.053 A 
ATOM      8  C   UNL d   1       1.115  -2.561   0.044  0.00  0.00     0.065 A 
ENDROOT
BRANCH   7   9
ATOM      9  C   UNL d   1       1.252  -5.064   0.108  0.00  0.00     0.031 A 
ATOM     10  S   UNL d   1       1.746  -5.190   1.752  0.00  0.00    -0.100 SA
ATOM     11  C   UNL d   1       2.153  -6.839   1.588  0.00  0.00     0.050 A 
ATOM     12  C   UNL d   1       1.911  -7.305   0.317  0.00  0.00     0.008 A 
ATOM     13  C   UNL d   1       1.382  -6.287  -0.530  0.00  0.00     0.021 A 
ENDBRANCH   7   9
BRANCH   1  14
ATOM     14  N   UNL d   1      -1.449  -2.957  -3.095  0.00  0.00    -0.274 NA
ATOM     15  H   UNL d   1      -2.044  -2.143  -3.162  0.00  0.00     0.127 HD
ATOM     16  H   UNL d   1      -1.899  -3.861  -3.071  0.00  0.00     0.127 HD
ENDBRANCH   1  14
BRANCH   2  17
ATOM     17  C   UNL d   1       0.926  -0.077  -0.076  0.00  0.00     0.432 C 
ATOM     18  F   UNL d   1       0.302   0.945  -0.724  0.00  0.00    -0.165 F 
ATOM     19  F   UNL d   1       2.264   0.170  -0.186  0.00  0.00    -0.165 F 
ATOM     20  F   UNL d   1       0.634   0.088   1.248  0.00  0.00    -0.165 F 
ENDBRANCH   2  17
TORSDOF 3
