REMARK  4 active torsions:
REMARK  status: ('A' for Active; 'I' for Inactive)
REMARK    1  A    between atoms: C_4  and  C_1 
REMARK    2  A    between atoms: C_5  and  C_4 
REMARK    3  A    between atoms: C_9  and  C_8 
REMARK    4  A    between atoms: O_12  and  C_9 
ROOT
ATOM      1  C   UNL d   1       3.536   0.082   0.352  0.00  0.00     0.200 C 
ATOM      2  O   UNL d   1       4.199  -0.931   0.115  0.00  0.00    -0.286 OA
ENDROOT
BRANCH   1   3
ATOM      3  C   UNL d   1       2.080   0.146   0.224  0.00  0.00     0.063 A 
ATOM      4  S   UNL d   1       1.255  -1.361   0.278  0.00  0.00    -0.085 SA
ATOM      5  C   UNL d   1      -0.292  -0.647   0.162  0.00  0.00     0.016 A 
ATOM      6  C   UNL d   1      -1.533  -1.315   0.157  0.00  0.00     0.019 A 
ATOM      7  C   UNL d   1      -0.202   0.740   0.063  0.00  0.00    -0.012 A 
ATOM      8  C   UNL d   1      -2.707  -0.568   0.055  0.00  0.00     0.001 A 
ATOM      9  C   UNL d   1      -2.652   0.814  -0.031  0.00  0.00     0.001 A 
ATOM     10  C   UNL d   1      -1.417   1.470  -0.027  0.00  0.00     0.013 A 
ATOM     11  C   UNL d   1       1.182   1.201   0.056  0.00  0.00    -0.029 A 
ATOM     12  C   UNL d   1       1.507   2.655  -0.113  0.00  0.00     0.050 C 
ENDBRANCH   1   3
BRANCH   1  13
ATOM     13  C   UNL d   1       4.324   1.216   0.897  0.00  0.00     0.032 A 
ATOM     14  C   UNL d   1       5.585   1.595   0.401  0.00  0.00     0.051 A 
ATOM     15  C   UNL d   1       6.222   2.714   0.979  0.00  0.00     0.019 A 
ATOM     16  C   UNL d   1       5.633   3.436   2.018  0.00  0.00     0.001 A 
ATOM     17  C   UNL d   1       4.409   3.031   2.529  0.00  0.00     0.001 A 
ATOM     18  C   UNL d   1       3.772   1.912   1.996  0.00  0.00     0.016 A 
BRANCH  14  19
ATOM     19  C   UNL d   1       6.332   1.003  -0.751  0.00  0.00     0.177 C 
ATOM     20  O   UNL d   1       7.047   1.709  -1.451  0.00  0.00    -0.646 OA
BRANCH  19  21
ATOM     21  O   UNL d   1       6.296  -0.328  -0.918  0.00  0.00    -0.773 OA
ATOM     22  H   UNL d   1       5.623  -0.823  -0.394  0.00  0.00     0.167 HD
ENDBRANCH  19  21
ENDBRANCH  14  19
ENDBRANCH   1  13
TORSDOF 4
