REMARK  7 active torsions:
REMARK  status: ('A' for Active; 'I' for Inactive)
REMARK    1  A    between atoms: N_3  and  C_1 
REMARK       I    between atoms: C_2  and  N_4 
REMARK    2  A    between atoms: C_5  and  C_2 
REMARK    3  A    between atoms: C_6  and  C_5 
REMARK    4  A    between atoms: C_12  and  C_6 
REMARK    5  A    between atoms: C_19  and  C_6 
REMARK    6  A    between atoms: C_11  and  C_12 
REMARK    7  A    between atoms: O_20  and  C_11 
ROOT
ATOM      1  C   UNL d   1       1.190   6.520   0.834  0.00  0.00     0.220 C 
ATOM      2  N   UNL d   1       0.224   2.477   0.185  0.00  0.00    -0.214 N 
ATOM      3  N   UNL d   1       0.744   5.282   0.414  0.00  0.00    -0.349 N 
ATOM      4  C   UNL d   1      -0.310   3.191   1.353  0.00  0.00     0.161 C 
ATOM      5  C   UNL d   1       1.459   3.040  -0.377  0.00  0.00     0.161 C 
ATOM      6  C   UNL d   1       1.223   4.519  -0.748  0.00  0.00     0.146 C 
ATOM      7  C   UNL d   1      -0.454   4.698   1.046  0.00  0.00     0.146 C 
ATOM      8  O   UNL d   1       0.658   7.093   1.786  0.00  0.00    -0.273 OA
ENDROOT
BRANCH   1   9
ATOM      9  C   UNL d   1       2.358   7.173   0.098  0.00  0.00     0.113 C 
BRANCH   9  10
ATOM     10  C   UNL d   1       2.734   8.573   0.674  0.00  0.00     0.037 C 
BRANCH  10  11
ATOM     11  C   UNL d   1       3.249   8.583   2.135  0.00  0.00     0.119 C 
BRANCH  11  12
ATOM     12  C   UNL d   1       4.492   7.774   2.409  0.00  0.00     0.140 C 
ATOM     13  O   UNL d   1       5.047   7.018   1.623  0.00  0.00    -0.650 OA
BRANCH  12  14
ATOM     14  O   UNL d   1       4.936   7.940   3.684  0.00  0.00    -0.776 OA
ATOM     15  H   UNL d   1       4.385   8.542   4.213  0.00  0.00     0.167 HD
ENDBRANCH  12  14
ENDBRANCH  11  12
ENDBRANCH  10  11
BRANCH  10  16
ATOM     16  C   UNL d   1       3.647   9.416  -0.220  0.00  0.00    -0.053 A 
ATOM     17  C   UNL d   1       3.595  10.820  -0.122  0.00  0.00     0.007 A 
ATOM     18  C   UNL d   1       4.405  11.632  -0.920  0.00  0.00     0.001 A 
ATOM     19  C   UNL d   1       5.278  11.054  -1.836  0.00  0.00     0.000 A 
ATOM     20  C   UNL d   1       5.351   9.668  -1.939  0.00  0.00     0.001 A 
ATOM     21  C   UNL d   1       4.550   8.854  -1.131  0.00  0.00     0.007 A 
ENDBRANCH  10  16
ENDBRANCH   9  10
ENDBRANCH   1   9
BRANCH   2  22
ATOM     22  C   UNL d   1       0.123   1.094   0.200  0.00  0.00     0.679 A 
ATOM     23  N   UNL d   1      -0.863   0.517   0.910  0.00  0.00    -0.202 N 
ATOM     24  C   UNL d   1      -1.024  -0.817   0.794  0.00  0.00     0.107 A 
ATOM     25  HN  UNL d   1      -1.469   1.070   1.515  1.00  0.00     0.183 HD
ATOM     26  C   UNL d   1      -0.233  -1.613   0.008  0.00  0.00     0.035 A 
ATOM     27  C   UNL d   1       0.765  -0.952  -0.656  0.00  0.00     0.107 A 
ATOM     28  N   UNL d   1       0.957   0.378  -0.576  0.00  0.00    -0.202 N 
ATOM     29  HN  UNL d   1       1.713   0.830  -1.090  1.00  0.00     0.183 HD
ENDBRANCH   2  22
TORSDOF 7
