REMARK  4 active torsions:
REMARK  status: ('A' for Active; 'I' for Inactive)
REMARK    1  A    between atoms: C_4  and  C_1 
REMARK       I    between atoms: N_8  and  C_4 
REMARK    2  A    between atoms: C_6  and  N_10 
REMARK    3  A    between atoms: N_13  and  C_6 
REMARK    4  A    between atoms: N_10  and  N_8 
ROOT
ATOM      1  C   UNL d   1      -2.703  -1.497   0.015  0.00  0.00     0.288 C 
ATOM      2  N   UNL d   1      -3.838  -0.712   0.020  0.00  0.00    -0.262 N 
ATOM      3  O   UNL d   1      -2.743  -2.727   0.015  0.00  0.00    -0.264 OA
ATOM      4  H   UNL d   1      -3.774   0.306   0.024  0.00  0.00     0.190 HD
ENDROOT
BRANCH   1   5
ATOM      5  C   UNL d   1      -1.450  -0.740   0.010  0.00  0.00     0.126 A 
ATOM      6  N   UNL d   1      -1.428   0.606   0.010  0.00  0.00    -0.256 N 
ATOM      7  O   UNL d   1      -0.091   0.965   0.008  0.00  0.00    -0.242 OA
ATOM      8  HN  UNL d   1      -2.232   1.233   0.011  1.00  0.00     0.195 HD
ATOM      9  C   UNL d   1       0.681  -0.153   0.006  0.00  0.00     0.075 A 
ATOM     10  C   UNL d   1      -0.130  -1.260   0.006  0.00  0.00     0.071 A 
ATOM     11  C   UNL d   1       2.140   0.054   0.005  0.00  0.00     0.079 C 
ENDBRANCH   1   5
BRANCH   2  12
ATOM     12  N   UNL d   1      -5.111  -1.299   0.034  0.00  0.00    -0.274 N 
ATOM     13  H   UNL d   1      -5.132  -2.316   0.032  0.00  0.00     0.189 HD
BRANCH  12  14
ATOM     14  C   UNL d   1      -6.257  -0.518   0.043  0.00  0.00     0.186 C 
ATOM     15  S   UNL d   1      -6.224   1.159   0.042  0.00  0.00    -0.040 SA
BRANCH  14  16
ATOM     16  N   UNL d   1      -7.400  -1.291   0.054  0.00  0.00    -0.370 N 
ATOM     17  C   UNL d   1      -8.776  -0.823   0.064  0.00  0.00     0.148 C 
ATOM     18  H   UNL d   1      -7.281  -2.294   0.057  0.00  0.00     0.161 HD
ENDBRANCH  14  16
ENDBRANCH  12  14
ENDBRANCH   2  12
TORSDOF 4
