REMARK  2 active torsions:
REMARK  status: ('A' for Active; 'I' for Inactive)
REMARK    1  A    between atoms: C_10  and  C_2 
REMARK    2  A    between atoms: C_11  and  C_5 
ROOT
ATOM      1  C   UNL d   1      -1.394  -0.356   0.004  0.00  0.00     0.119 C 
ATOM      2  C   UNL d   1      -0.464  -1.329   0.086  0.00  0.00    -0.019 C 
ATOM      3  C   UNL d   1      -0.965   1.064   0.045  0.00  0.00     0.263 C 
ATOM      4  N   UNL d   1       0.367   1.342   0.163  0.00  0.00    -0.343 N 
ATOM      5  C   UNL d   1       1.479   0.400   0.057  0.00  0.00     0.061 C 
ATOM      6  C   UNL d   1       1.011  -1.070   0.293  0.00  0.00     0.077 C 
ATOM      7  C   UNL d   1      -2.799  -0.622  -0.072  0.00  0.00     0.105 C 
ATOM      8  N   UNL d   1      -3.932  -0.875  -0.113  0.00  0.00    -0.191 NA
ATOM      9  O   UNL d   1      -1.771   1.991  -0.011  0.00  0.00    -0.267 OA
ATOM     10  C   UNL d   1       2.456   0.726   1.218  0.00  0.00     0.044 C 
ATOM     11  H   UNL d   1       0.575   2.329   0.082  0.00  0.00     0.164 HD
ENDROOT
BRANCH   2  12
ATOM     12  C   UNL d   1      -0.821  -2.757   0.034  0.00  0.00    -0.028 A 
ATOM     13  C   UNL d   1      -0.948  -3.409  -1.198  0.00  0.00     0.012 A 
ATOM     14  C   UNL d   1      -1.270  -4.766  -1.242  0.00  0.00     0.001 A 
ATOM     15  C   UNL d   1      -1.470  -5.475  -0.058  0.00  0.00     0.000 A 
ATOM     16  C   UNL d   1      -1.352  -4.828   1.172  0.00  0.00     0.001 A 
ATOM     17  C   UNL d   1      -1.028  -3.472   1.220  0.00  0.00     0.012 A 
ENDBRANCH   2  12
BRANCH   5  18
ATOM     18  C   UNL d   1       2.155   0.595  -1.319  0.00  0.00    -0.030 A 
ATOM     19  C   UNL d   1       3.233   1.486  -1.499  0.00  0.00     0.010 A 
ATOM     20  C   UNL d   1       3.872   1.627  -2.736  0.00  0.00     0.001 A 
ATOM     21  C   UNL d   1       3.438   0.893  -3.833  0.00  0.00     0.000 A 
ATOM     22  C   UNL d   1       2.350   0.038  -3.697  0.00  0.00     0.001 A 
ATOM     23  C   UNL d   1       1.709  -0.099  -2.460  0.00  0.00     0.010 A 
ENDBRANCH   5  18
TORSDOF 2
