REMARK  10 active torsions:
REMARK  status: ('A' for Active; 'I' for Inactive)
REMARK       I    between atoms: N_10  and  C_1 
REMARK       I    between atoms: N_11  and  C_1 
REMARK    1  A    between atoms: N_6  and  N_11 
REMARK    2  A    between atoms: N_8  and  N_10 
REMARK    3  A    between atoms: N_15  and  C_12 
REMARK    4  A    between atoms: N_16  and  C_13 
REMARK    5  A    between atoms: C_32  and  N_15 
REMARK    6  A    between atoms: C_31  and  N_16 
REMARK    7  A    between atoms: C_26  and  C_21 
REMARK    8  A    between atoms: C_25  and  C_22 
REMARK    9  A    between atoms: C_23  and  C_32 
REMARK   10  A    between atoms: C_24  and  C_31 
ROOT
ATOM      1  N   UNL d   1       1.851 -10.891   6.260  0.00  0.00    -0.197 NA
ATOM      2  C   UNL d   1       2.170  -9.888   5.774  0.00  0.00     0.060 C 
ATOM      3  C   UNL d   1       2.588  -8.616   5.167  0.00  0.00     0.143 C 
ENDROOT
BRANCH   3   4
ATOM      4  C   UNL d   1       2.761  -7.544   6.244  0.00  0.00     0.136 C 
BRANCH   4   5
ATOM      5  N   UNL d   1       3.337  -6.301   5.699  0.00  0.00    -0.384 N 
ATOM      6  C   UNL d   1       4.741  -6.058   6.035  0.00  0.00     0.149 C 
BRANCH   5   7
ATOM      7  C   UNL d   1       2.633  -5.440   4.868  0.00  0.00     0.029 A 
ATOM      8  C   UNL d   1       1.226  -5.395   4.843  0.00  0.00     0.030 A 
ATOM      9  C   UNL d   1       0.513  -4.489   4.032  0.00  0.00     0.015 A 
ATOM     10  C   UNL d   1       1.205  -3.601   3.213  0.00  0.00    -0.019 A 
ATOM     11  C   UNL d   1       2.595  -3.632   3.200  0.00  0.00     0.015 A 
ATOM     12  C   UNL d   1       3.288  -4.542   4.008  0.00  0.00     0.030 A 
BRANCH  10  13
ATOM     13  C   UNL d   1       0.479  -2.634   2.359  0.00  0.00     0.118 C 
ATOM     14  N   UNL d   1       1.134  -1.815   1.600  0.00  0.00    -0.307 N 
ATOM     15  HN  UNL d   1       2.153  -1.817   1.580  1.00  0.00     0.186 HD
BRANCH  14  16
ATOM     16  N   UNL d   1       0.416  -0.950   0.830  0.00  0.00    -0.251 N 
ATOM     17  C   UNL d   1       1.097  -0.037   0.018  0.00  0.00     0.353 C 
ATOM     18  N   UNL d   1       0.214   0.763  -0.710  0.00  0.00    -0.251 N 
ATOM     19  O   UNL d   1       2.321   0.048  -0.049  0.00  0.00    -0.244 OA
ATOM     20  H   UNL d   1      -0.781   0.619  -0.649  0.00  0.00     0.191 HD
ATOM     21  H   UNL d   1      -0.590  -0.948   0.886  0.00  0.00     0.191 HD
BRANCH  18  22
ATOM     22  N   UNL d   1       0.705   1.716  -1.556  0.00  0.00    -0.307 N 
ATOM     23  C   UNL d   1      -0.166   2.420  -2.205  0.00  0.00     0.118 C 
ATOM     24  HN  UNL d   1       1.708   1.866  -1.671  1.00  0.00     0.186 HD
BRANCH  23  25
ATOM     25  C   UNL d   1       0.251   3.486  -3.142  0.00  0.00    -0.019 A 
ATOM     26  C   UNL d   1       1.599   3.745  -3.366  0.00  0.00     0.015 A 
ATOM     27  C   UNL d   1       1.979   4.767  -4.248  0.00  0.00     0.030 A 
ATOM     28  C   UNL d   1       1.045   5.556  -4.945  0.00  0.00     0.029 A 
ATOM     29  C   UNL d   1      -0.308   5.272  -4.683  0.00  0.00     0.030 A 
ATOM     30  C   UNL d   1      -0.708   4.251  -3.801  0.00  0.00     0.015 A 
BRANCH  28  31
ATOM     31  N   UNL d   1       1.440   6.541  -5.839  0.00  0.00    -0.384 N 
ATOM     32  C   UNL d   1       2.771   6.526  -6.448  0.00  0.00     0.149 C 
BRANCH  31  33
ATOM     33  C   UNL d   1       0.567   7.653  -6.255  0.00  0.00     0.136 C 
BRANCH  33  34
ATOM     34  C   UNL d   1       0.381   8.685  -5.142  0.00  0.00     0.143 C 
ATOM     35  C   UNL d   1      -0.334   9.859  -5.657  0.00  0.00     0.060 C 
ATOM     36  N   UNL d   1      -0.895  10.787  -6.078  0.00  0.00    -0.197 NA
ENDBRANCH  33  34
ENDBRANCH  31  33
ENDBRANCH  28  31
ENDBRANCH  23  25
ENDBRANCH  18  22
ENDBRANCH  14  16
ENDBRANCH  10  13
ENDBRANCH   5   7
ENDBRANCH   4   5
ENDBRANCH   3   4
TORSDOF 10
