REMARK  1 active torsions:
REMARK  status: ('A' for Active; 'I' for Inactive)
REMARK    1  A    between atoms: C_8  and  C_1 
ROOT
ATOM      1  C   UNL d   1      -3.167   0.661  -0.000  0.00  0.00     0.090 A 
ATOM      2  C   UNL d   1      -3.025  -0.673   0.009  0.00  0.00     0.093 A 
ATOM      3  C   UNL d   1      -0.552  -0.316  -0.036  0.00  0.00     0.050 A 
ATOM      4  C   UNL d   1      -1.677  -1.259  -0.032  0.00  0.00     0.187 A 
ATOM      5  O   UNL d   1      -2.102   1.552  -0.047  0.00  0.00    -0.309 OA
ATOM      6  C   UNL d   1      -0.827   1.049  -0.045  0.00  0.00     0.090 A 
ATOM      7  C   UNL d   1       0.764  -0.780  -0.020  0.00  0.00     0.042 A 
ATOM      8  O   UNL d   1      -1.517  -2.472  -0.052  0.00  0.00    -0.287 OA
ATOM      9  C   UNL d   1       0.220   1.970  -0.046  0.00  0.00     0.040 A 
ATOM     10  C   UNL d   1       1.806   0.143  -0.015  0.00  0.00     0.035 A 
ATOM     11  C   UNL d   1       1.541   1.515  -0.029  0.00  0.00     0.026 A 
ATOM     12 CL   UNL d   1       3.435  -0.408   0.015  0.00  0.00    -0.084 Cl
ENDROOT
BRANCH   1  13
ATOM     13  C   UNL d   1      -4.496   1.309   0.063  0.00  0.00    -0.002 A 
ATOM     14  C   UNL d   1      -4.636   2.568   0.671  0.00  0.00     0.014 A 
ATOM     15  C   UNL d   1      -5.879   3.205   0.728  0.00  0.00     0.001 A 
ATOM     16  C   UNL d   1      -7.000   2.594   0.175  0.00  0.00     0.000 A 
ATOM     17  C   UNL d   1      -6.881   1.349  -0.435  0.00  0.00     0.001 A 
ATOM     18  C   UNL d   1      -5.638   0.713  -0.494  0.00  0.00     0.014 A 
ENDBRANCH   1  13
TORSDOF 1
