REMARK  3 active torsions:
REMARK  status: ('A' for Active; 'I' for Inactive)
REMARK    1  A    between atoms: C_4  and  C_1 
REMARK    2  A    between atoms: C_6  and  C_4 
REMARK    3  A    between atoms: C_7  and  C_8 
ROOT
ATOM      1  C   UNL d   1       0.189   3.600   0.023  0.00  0.00     0.018 A 
ATOM      2  C   UNL d   1       2.140   5.658  -0.049  0.00  0.00    -0.051 A 
ATOM      3  C   UNL d   1       1.115   3.649  -1.022  0.00  0.00     0.016 A 
ATOM      4  C   UNL d   1       0.251   4.559   1.033  0.00  0.00     0.016 A 
ATOM      5  C   UNL d   1       2.072   4.674  -1.058  0.00  0.00     0.009 A 
ATOM      6  C   UNL d   1       1.205   5.575   0.994  0.00  0.00     0.009 A 
ENDROOT
BRANCH   1   7
ATOM      7  C   UNL d   1      -0.813   2.497   0.088  0.00  0.00     0.225 C 
ATOM      8  O   UNL d   1      -0.500   1.379  -0.318  0.00  0.00    -0.283 OA
BRANCH   7   9
ATOM      9  C   UNL d   1      -2.102   2.777   0.699  0.00  0.00     0.157 A 
ATOM     10  N   UNL d   1      -2.666   3.970   0.779  0.00  0.00    -0.348 N 
ATOM     11  C   UNL d   1      -3.831   3.792   1.474  0.00  0.00     0.107 A 
ATOM     12  HN  UNL d   1      -2.306   4.846   0.399  1.00  0.00     0.167 HD
ATOM     13  C   UNL d   1      -3.982   2.476   1.833  0.00  0.00     0.107 A 
ATOM     14  N   UNL d   1      -2.900   1.833   1.298  0.00  0.00    -0.348 N 
ATOM     15  H   UNL d   1      -2.673   0.849   1.367  0.00  0.00     0.167 HD
ENDBRANCH   7   9
ENDBRANCH   1   7
BRANCH   2  16
ATOM     16  C   UNL d   1       3.212   6.761  -0.085  0.00  0.00    -0.024 C 
ATOM     17  C   UNL d   1       3.131   7.739   1.112  0.00  0.00     0.019 C 
ATOM     18  C   UNL d   1       4.613   6.117  -0.050  0.00  0.00     0.019 C 
ATOM     19  C   UNL d   1       3.069   7.604  -1.368  0.00  0.00     0.019 C 
ENDBRANCH   2  16
TORSDOF 3
