REMARK  7 active torsions:
REMARK  status: ('A' for Active; 'I' for Inactive)
REMARK    1  A    between atoms: C_3  and  C_1 
REMARK    2  A    between atoms: N_2  and  C_4 
REMARK       I    between atoms: C_8  and  N_2 
REMARK    3  A    between atoms: O_9  and  N_2 
REMARK    4  A    between atoms: C_12  and  C_3 
REMARK    5  A    between atoms: C_4  and  C_5 
REMARK       I    between atoms: C_5  and  N_7 
REMARK    6  A    between atoms: N_7  and  C_6 
REMARK    7  A    between atoms: C_10  and  O_9 
ROOT
ATOM      1  C   UNL d   1       1.284   0.596   0.249  0.00  0.00     0.042 C 
ATOM      2  C   UNL d   1       0.426  -0.289  -0.448  0.00  0.00     0.049 C 
ATOM      3  C   UNL d   1       0.800   1.886   0.522  0.00  0.00     0.018 C 
ATOM      4  C   UNL d   1      -0.939   0.022  -0.544  0.00  0.00     0.030 C 
ATOM      5  C   UNL d   1      -0.550   2.205   0.362  0.00  0.00     0.001 C 
ATOM      6  C   UNL d   1      -1.432   1.251  -0.119  0.00  0.00     0.002 C 
ENDROOT
BRANCH   2   7
ATOM      7  N   UNL d   1       0.936  -1.440  -1.116  0.00  0.00    -0.325 N 
ATOM      8  C   UNL d   1       0.402  -1.936  -2.306  0.00  0.00     0.242 C 
ATOM      9  O   UNL d   1      -0.639  -1.540  -2.842  0.00  0.00    -0.271 OA
ATOM     10  H   UNL d   1       1.922  -1.656  -0.926  0.00  0.00     0.169 HD
BRANCH   8  11
ATOM     11  C   UNL d   1       1.167  -3.080  -2.951  0.00  0.00     0.263 C 
BRANCH  11  12
ATOM     12  N   UNL d   1       2.508  -2.667  -3.334  0.00  0.00    -0.209 N 
ATOM     13  C   UNL d   1       3.579  -3.028  -2.551  0.00  0.00     0.240 C 
ATOM     14  O   UNL d   1       3.433  -3.471  -1.407  0.00  0.00    -0.272 OA
ATOM     15  C   UNL d   1       4.950  -2.814  -3.127  0.00  0.00     0.119 C 
BRANCH  12  16
ATOM     16  O   UNL d   1       2.685  -2.765  -4.739  0.00  0.00    -0.195 OA
BRANCH  16  17
ATOM     17  C   UNL d   1       2.813  -1.545  -5.351  0.00  0.00     0.277 C 
ATOM     18  O   UNL d   1       3.100  -0.496  -4.792  0.00  0.00    -0.264 OA
ATOM     19  C   UNL d   1       2.542  -1.661  -6.822  0.00  0.00     0.128 C 
ENDBRANCH  16  17
ENDBRANCH  12  16
ENDBRANCH  11  12
ENDBRANCH   8  11
ENDBRANCH   2   7
BRANCH   1  20
ATOM     20  C   UNL d   1       2.687   0.204   0.612  0.00  0.00     0.194 C 
ATOM     21  O   UNL d   1       3.205  -0.701  -0.048  0.00  0.00    -0.287 OA
BRANCH  20  22
ATOM     22  C   UNL d   1       3.501   0.799   1.738  0.00  0.00     0.015 A 
ATOM     23  C   UNL d   1       4.827   0.350   1.877  0.00  0.00     0.015 A 
ATOM     24  C   UNL d   1       5.685   0.890   2.843  0.00  0.00     0.001 A 
ATOM     25  C   UNL d   1       5.238   1.904   3.683  0.00  0.00     0.000 A 
ATOM     26  C   UNL d   1       3.917   2.328   3.597  0.00  0.00     0.001 A 
ATOM     27  C   UNL d   1       3.046   1.750   2.663  0.00  0.00     0.015 A 
ENDBRANCH  20  22
ENDBRANCH   1  20
TORSDOF 7
