REMARK  8 active torsions:
REMARK  status: ('A' for Active; 'I' for Inactive)
REMARK    1  A    between atoms: C_5  and  C_1 
REMARK       I    between atoms: N_7  and  C_5 
REMARK    2  A    between atoms: C_11  and  N_7 
REMARK    3  A    between atoms: O_10  and  C_14 
REMARK    4  A    between atoms: C_13  and  O_10 
REMARK    5  A    between atoms: C_12  and  C_11 
REMARK    6  A    between atoms: C_14  and  C_12 
REMARK    7  A    between atoms: O_21  and  C_12 
REMARK    8  A    between atoms: O_23  and  C_15 
ROOT
ATOM      1  C   UNL d   1       2.369  -1.367  -1.332  0.00  0.00     0.260 C 
ATOM      2  N   UNL d   1       3.312  -2.387  -1.317  0.00  0.00    -0.354 N 
ATOM      3  O   UNL d   1       2.344  -0.594  -0.371  0.00  0.00    -0.267 OA
ATOM      4  H   UNL d   1       3.379  -3.053  -2.080  0.00  0.00     0.162 HD
ENDROOT
BRANCH   2   5
ATOM      5  C   UNL d   1       4.206  -2.474  -0.175  0.00  0.00     0.156 C 
BRANCH   5   6
ATOM      6  C   UNL d   1       5.132  -3.696  -0.123  0.00  0.00     0.160 C 
BRANCH   6   7
ATOM      7  C   UNL d   1       5.949  -3.632   1.189  0.00  0.00     0.209 C 
BRANCH   7   8
ATOM      8  O   UNL d   1       6.909  -4.693   1.256  0.00  0.00    -0.349 OA
BRANCH   8   9
ATOM      9  C   UNL d   1       7.686  -4.718   2.389  0.00  0.00     0.069 A 
ATOM     10  C   UNL d   1       7.337  -4.168   3.623  0.00  0.00     0.039 A 
ATOM     11  C   UNL d   1       8.219  -4.249   4.707  0.00  0.00     0.039 A 
ATOM     12  C   UNL d   1       9.446  -4.896   4.581  0.00  0.00     0.068 A 
ATOM     13  C   UNL d   1       9.795  -5.462   3.356  0.00  0.00     0.039 A 
ATOM     14  C   UNL d   1       8.912  -5.379   2.269  0.00  0.00     0.039 A 
BRANCH  12  15
ATOM     15  O   UNL d   1      10.238  -4.858   5.696  0.00  0.00    -0.356 OA
ATOM     16  C   UNL d   1      11.126  -5.955   5.870  0.00  0.00     0.210 C 
ENDBRANCH  12  15
ENDBRANCH   8   9
ENDBRANCH   7   8
ENDBRANCH   6   7
BRANCH   6  17
ATOM     17  O   UNL d   1       4.338  -4.890  -0.173  0.00  0.00    -0.392 OA
ATOM     18  H   UNL d   1       3.812  -4.940   0.645  0.00  0.00     0.210 HD
ENDBRANCH   6  17
ENDBRANCH   5   6
ENDBRANCH   2   5
BRANCH   1  19
ATOM     19  C   UNL d   1       1.462  -1.244  -2.464  0.00  0.00     0.096 A 
ATOM     20  S   UNL d   1       0.420   0.132  -2.433  0.00  0.00    -0.082 SA
ATOM     21  C   UNL d   1      -0.347  -0.277  -3.901  0.00  0.00     0.017 A 
ATOM     22  C   UNL d   1      -1.381   0.450  -4.525  0.00  0.00     0.020 A 
ATOM     23  C   UNL d   1       0.173  -1.452  -4.441  0.00  0.00     0.004 A 
ATOM     24  C   UNL d   1      -1.910  -0.017  -5.727  0.00  0.00     0.001 A 
ATOM     25  C   UNL d   1      -1.416  -1.181  -6.297  0.00  0.00     0.001 A 
ATOM     26  C   UNL d   1      -0.386  -1.898  -5.671  0.00  0.00     0.014 A 
ATOM     27  C   UNL d   1       1.223  -1.996  -3.596  0.00  0.00     0.068 A 
ATOM     28 CL   UNL d   1       2.042  -3.451  -4.016  0.00  0.00    -0.082 Cl
ENDBRANCH   1  19
TORSDOF 8
