REMARK  5 active torsions:
REMARK  status: ('A' for Active; 'I' for Inactive)
REMARK    1  A    between atoms: N_2  and  S_1 
REMARK    2  A    between atoms: C_3  and  S_1 
REMARK    3  A    between atoms: C_6  and  C_4 
REMARK    4  A    between atoms: O_17  and  C_6 
REMARK    5  A    between atoms: C_22  and  O_17 
ROOT
ATOM      1  S   UNL d   1       1.000   0.073  -0.038  0.00  0.00     0.243 S 
ATOM      2  O   UNL d   1       2.124   0.340  -0.913  0.00  0.00    -0.206 OA
ATOM      3  O   UNL d   1       1.111   0.214   1.395  0.00  0.00    -0.206 OA
ENDROOT
BRANCH   1   4
ATOM      4  N   UNL d   1       0.461  -1.529  -0.387  0.00  0.00    -0.206 NA
ATOM      5  C   UNL d   1       0.362  -1.828  -1.847  0.00  0.00     0.122 C 
ATOM      6  C   UNL d   1      -0.285  -3.188  -2.089  0.00  0.00     0.100 C 
ATOM      7  C   UNL d   1       0.426  -4.295  -1.304  0.00  0.00     0.017 C 
ATOM      8  C   UNL d   1       0.588  -3.931   0.169  0.00  0.00     0.016 C 
ATOM      9  C   UNL d   1       1.248  -2.566   0.340  0.00  0.00     0.107 C 
BRANCH   6  10
ATOM     10  C   UNL d   1      -1.778  -3.173  -1.817  0.00  0.00     0.264 C 
ATOM     11  O   UNL d   1      -2.370  -3.969  -1.102  0.00  0.00    -0.265 OA
BRANCH  10  12
ATOM     12  O   UNL d   1      -2.385  -2.247  -2.616  0.00  0.00    -0.322 OA
BRANCH  12  13
ATOM     13  C   UNL d   1      -3.803  -2.408  -2.763  0.00  0.00     0.174 C 
ATOM     14  C   UNL d   1      -4.051  -3.388  -3.896  0.00  0.00     0.034 C 
ENDBRANCH  12  13
ENDBRANCH  10  12
ENDBRANCH   6  10
ENDBRANCH   1   4
BRANCH   1  15
ATOM     15  C   UNL d   1      -0.371   1.079  -0.553  0.00  0.00     0.075 A 
ATOM     16  C   UNL d   1      -0.199   2.044  -1.554  0.00  0.00     0.034 A 
ATOM     17  C   UNL d   1      -1.290   2.834  -1.877  0.00  0.00    -0.021 A 
ATOM     18  C   UNL d   1      -1.427   3.885  -2.909  0.00  0.00     0.068 C 
ATOM     19  C   UNL d   1      -2.509   2.664  -1.236  0.00  0.00     0.075 A 
ATOM     20  C   UNL d   1      -2.767   4.484  -2.475  0.00  0.00     0.180 C 
ATOM     21  O   UNL d   1      -3.488   3.512  -1.681  0.00  0.00    -0.350 OA
ATOM     22  C   UNL d   1      -2.697   1.712  -0.253  0.00  0.00     0.039 A 
ATOM     23  C   UNL d   1      -1.609   0.912   0.099  0.00  0.00     0.027 A 
ENDBRANCH   1  15
TORSDOF 5
