REMARK  5 active torsions:
REMARK  status: ('A' for Active; 'I' for Inactive)
REMARK    1  A    between atoms: C_8  and  N_1 
REMARK    2  A    between atoms: C_7  and  N_3 
REMARK    3  A    between atoms: N_12  and  C_4 
REMARK    4  A    between atoms: C_9  and  C_7 
REMARK    5  A    between atoms: S_15  and  C_13 
ROOT
ATOM      1  N   UNL d   1      -0.584   1.238   0.140  0.00  0.00    -0.254 N 
ATOM      2  C   UNL d   1      -1.339   0.049   0.279  0.00  0.00     0.338 A 
ATOM      3  N   UNL d   1      -0.623  -1.145   0.233  0.00  0.00    -0.261 N 
ATOM      4  C   UNL d   1       0.809   1.230   0.053  0.00  0.00     0.094 A 
ATOM      5  C   UNL d   1       0.743  -1.218   0.092  0.00  0.00     0.254 A 
ATOM      6  C   UNL d   1       1.459   0.058   0.057  0.00  0.00     0.117 A 
ATOM      7  O   UNL d   1      -2.567   0.045   0.402  0.00  0.00    -0.246 OA
ATOM      8  O   UNL d   1       1.390  -2.255  -0.024  0.00  0.00    -0.268 OA
ENDROOT
BRANCH   3   9
ATOM      9  C   UNL d   1      -1.377  -2.394   0.118  0.00  0.00     0.177 C 
BRANCH   9  10
ATOM     10  C   UNL d   1      -1.273  -3.345   1.297  0.00  0.00    -0.023 A 
ATOM     11  C   UNL d   1      -1.345  -4.747   1.133  0.00  0.00     0.008 A 
ATOM     12  C   UNL d   1      -1.401  -5.576   2.267  0.00  0.00     0.019 A 
ATOM     13  C   UNL d   1      -1.380  -5.037   3.554  0.00  0.00     0.001 A 
ATOM     14  C   UNL d   1      -1.299  -3.661   3.723  0.00  0.00     0.001 A 
ATOM     15  C   UNL d   1      -1.250  -2.823   2.607  0.00  0.00     0.010 A 
BRANCH  11  16
ATOM     16  S   UNL d   1      -1.530  -5.577  -0.450  0.00  0.00    -0.134 SA
ATOM     17  C   UNL d   1       0.158  -5.440  -1.108  0.00  0.00     0.095 C 
ENDBRANCH  11  16
ENDBRANCH   9  10
ENDBRANCH   3   9
BRANCH   1  18
ATOM     18  C   UNL d   1      -1.333   2.469   0.083  0.00  0.00     0.051 A 
ATOM     19  C   UNL d   1      -1.283   3.340  -1.027  0.00  0.00    -0.035 A 
ATOM     20  C   UNL d   1      -0.528   3.047  -2.296  0.00  0.00     0.050 C 
ATOM     21  C   UNL d   1      -2.014   4.543  -0.984  0.00  0.00     0.009 A 
ATOM     22  C   UNL d   1      -2.797   4.872   0.121  0.00  0.00     0.001 A 
ATOM     23  C   UNL d   1      -2.863   4.005   1.205  0.00  0.00     0.002 A 
ATOM     24  C   UNL d   1      -2.139   2.812   1.185  0.00  0.00     0.031 A 
ENDBRANCH   1  18
BRANCH   4  25
ATOM     25  N   UNL d   1       1.554   2.397  -0.017  0.00  0.00    -0.288 NA
ATOM     26  H   UNL d   1       1.075   3.198   0.388  0.00  0.00     0.125 HD
ATOM     27  H   UNL d   1       2.518   2.316   0.294  0.00  0.00     0.125 HD
ENDBRANCH   4  25
TORSDOF 5
