REMARK  1 active torsions:
REMARK  status: ('A' for Active; 'I' for Inactive)
REMARK    1  A    between atoms: C_8  and  C_1 
ROOT
ATOM      1  C   UNL d   1      -0.714   1.131   0.009  0.00  0.00     0.123 A 
ATOM      2  N   UNL d   1      -1.284   0.103   0.544  0.00  0.00    -0.294 N 
ATOM      3  HN  UNL d   1      -2.223   0.185   0.935  1.00  0.00     0.172 HD
ATOM      4  N   UNL d   1       0.558   1.066  -0.497  0.00  0.00    -0.318 N 
ATOM      5  C   UNL d   1      -0.627  -1.096   0.585  0.00  0.00     0.328 A 
ATOM      6  C   UNL d   1       1.251  -0.099  -0.504  0.00  0.00     0.181 A 
ATOM      7  N   UNL d   1       0.625  -1.165   0.043  0.00  0.00    -0.285 N 
ATOM      8  S   UNL d   1       2.778  -0.203  -1.150  0.00  0.00    -0.040 SA
ATOM      9  O   UNL d   1      -1.117  -2.102   1.087  0.00  0.00    -0.247 OA
ATOM     10  H   UNL d   1       0.996   1.873  -0.924  0.00  0.00     0.170 HD
ATOM     11  H   UNL d   1       1.080  -2.064   0.076  0.00  0.00     0.173 HD
ENDROOT
BRANCH   1  12
ATOM     12  C   UNL d   1      -1.425   2.443  -0.046  0.00  0.00     0.030 A 
ATOM     13  C   UNL d   1      -1.234   3.421  -1.036  0.00  0.00     0.048 A 
ATOM     14 CL   UNL d   1      -0.140   3.243  -2.363  0.00  0.00    -0.083 Cl
ATOM     15  C   UNL d   1      -1.978   4.608  -1.003  0.00  0.00     0.025 A 
ATOM     16  C   UNL d   1      -2.916   4.831   0.005  0.00  0.00     0.002 A 
ATOM     17  C   UNL d   1      -3.116   3.868   0.988  0.00  0.00     0.001 A 
ATOM     18  C   UNL d   1      -2.378   2.682   0.962  0.00  0.00     0.017 A 
ENDBRANCH   1  12
TORSDOF 1
