REMARK  7 active torsions:
REMARK  status: ('A' for Active; 'I' for Inactive)
REMARK    1  A    between atoms: C_4  and  C_1 
REMARK       I    between atoms: C_2  and  N_3 
REMARK    2  A    between atoms: C_6  and  C_2 
REMARK    3  A    between atoms: N_3  and  C_5 
REMARK    4  A    between atoms: O_7  and  C_4 
REMARK    5  A    between atoms: C_12  and  O_7 
REMARK    6  A    between atoms: C_8  and  C_12 
REMARK    7  A    between atoms: C_9  and  C_8 
ROOT
ATOM      1  C   UNL d   1       0.980   0.019  -0.082  0.00  0.00     0.066 A 
ATOM      2  C   UNL d   1       0.385  -1.257  -0.102  0.00  0.00     0.051 A 
ATOM      3  C   UNL d   1       0.175   1.153  -0.325  0.00  0.00     0.020 A 
ATOM      4  C   UNL d   1      -1.016  -1.346  -0.211  0.00  0.00     0.030 A 
ATOM      5  C   UNL d   1      -1.205   1.037  -0.492  0.00  0.00     0.001 A 
ATOM      6  C   UNL d   1      -1.805  -0.211  -0.400  0.00  0.00     0.002 A 
ENDROOT
BRANCH   1   7
ATOM      7  C   UNL d   1       2.366   0.251   0.431  0.00  0.00     0.296 C 
ATOM      8  O   UNL d   1       2.924  -0.455   1.250  0.00  0.00    -0.259 OA
BRANCH   7   9
ATOM      9  O   UNL d   1       2.843   1.435  -0.044  0.00  0.00    -0.310 OA
BRANCH   9  10
ATOM     10  C   UNL d   1       4.169   1.757   0.349  0.00  0.00     0.263 C 
BRANCH  10  11
ATOM     11  C   UNL d   1       4.496   2.149   1.797  0.00  0.00     0.183 C 
ATOM     12  O   UNL d   1       5.547   1.769   2.320  0.00  0.00    -0.290 OA
BRANCH  11  13
ATOM     13  C   UNL d   1       3.637   3.109   2.563  0.00  0.00     0.012 A 
ATOM     14  C   UNL d   1       2.494   3.721   2.036  0.00  0.00     0.017 A 
ATOM     15  C   UNL d   1       1.756   4.628   2.812  0.00  0.00     0.025 A 
ATOM     16  C   UNL d   1       2.166   4.941   4.107  0.00  0.00     0.034 A 
ATOM     17  C   UNL d   1       3.308   4.355   4.640  0.00  0.00     0.025 A 
ATOM     18 CL   UNL d   1       1.264   6.067   5.046  0.00  0.00    -0.084 Cl
ATOM     19  C   UNL d   1       4.036   3.441   3.872  0.00  0.00     0.017 A 
ENDBRANCH  11  13
ENDBRANCH  10  11
ENDBRANCH   9  10
ENDBRANCH   7   9
ENDBRANCH   1   7
BRANCH   2  20
ATOM     20  N   UNL d   1       1.049  -2.505  -0.030  0.00  0.00    -0.322 N 
ATOM     21  C   UNL d   1       2.295  -2.794  -0.565  0.00  0.00     0.256 C 
ATOM     22  O   UNL d   1       2.968  -2.026  -1.244  0.00  0.00    -0.267 OA
ATOM     23  H   UNL d   1       0.456  -3.308   0.136  0.00  0.00     0.169 HD
BRANCH  21  24
ATOM     24  C   UNL d   1       2.731  -4.220  -0.393  0.00  0.00     0.032 A 
ATOM     25  C   UNL d   1       3.594  -4.788  -1.341  0.00  0.00     0.018 A 
ATOM     26  C   UNL d   1       3.981  -6.131  -1.234  0.00  0.00     0.025 A 
ATOM     27  C   UNL d   1       3.510  -6.906  -0.176  0.00  0.00     0.034 A 
ATOM     28  C   UNL d   1       2.666  -6.350   0.782  0.00  0.00     0.025 A 
ATOM     29 CL   UNL d   1       3.975  -8.557  -0.048  0.00  0.00    -0.084 Cl
ATOM     30  C   UNL d   1       2.282  -5.008   0.680  0.00  0.00     0.018 A 
ENDBRANCH  21  24
ENDBRANCH   2  20
TORSDOF 7
