REMARK  3 active torsions:
REMARK  status: ('A' for Active; 'I' for Inactive)
REMARK       I    between atoms: N_2  and  C_1 
REMARK       I    between atoms: N_4  and  C_1 
REMARK    1  A    between atoms: C_5  and  N_2 
REMARK    2  A    between atoms: C_12  and  N_4 
REMARK    3  A    between atoms: C_13  and  C_12 
ROOT
ATOM      1  C   UNL d   1       1.087   0.033   0.139  0.00  0.00     0.320 C 
ATOM      2  N   UNL d   1       0.474  -1.201   0.083  0.00  0.00    -0.309 N 
ATOM      3  O   UNL d   1       0.528   1.121   0.126  0.00  0.00    -0.247 OA
ATOM      4  N   UNL d   1       2.457  -0.080   0.177  0.00  0.00    -0.343 N 
ATOM      5  H   UNL d   1       1.042  -1.995   0.323  0.00  0.00     0.170 HD
ATOM      6  H   UNL d   1       2.888  -0.990   0.183  0.00  0.00     0.164 HD
ENDROOT
BRANCH   2   7
ATOM      7  C   UNL d   1      -0.878  -1.455  -0.237  0.00  0.00     0.036 A 
ATOM      8  C   UNL d   1      -1.758  -0.470  -0.696  0.00  0.00     0.031 A 
ATOM      9  C   UNL d   1      -3.054  -0.801  -1.100  0.00  0.00     0.026 A 
ATOM     10  C   UNL d   1      -3.483  -2.122  -1.040  0.00  0.00     0.034 A 
ATOM     11  C   UNL d   1      -2.632  -3.112  -0.553  0.00  0.00     0.026 A 
ATOM     12 CL   UNL d   1      -5.058  -2.537  -1.591  0.00  0.00    -0.084 Cl
ATOM     13  C   UNL d   1      -1.332  -2.778  -0.153  0.00  0.00     0.031 A 
ENDBRANCH   2   7
BRANCH   4  14
ATOM     14  C   UNL d   1       3.315   1.090   0.130  0.00  0.00     0.124 C 
BRANCH  14  15
ATOM     15  C   UNL d   1       3.689   1.596   1.519  0.00  0.00     0.015 C 
ATOM     16  C   UNL d   1       4.531   0.592   2.292  0.00  0.00     0.006 C 
ENDBRANCH  14  15
ENDBRANCH   4  14
TORSDOF 3
