REMARK  1 active torsions:
REMARK  status: ('A' for Active; 'I' for Inactive)
REMARK       I    between atoms: C_3  and  N_1 
REMARK    1  A    between atoms: C_7  and  C_3 
ROOT
ATOM      1  N   UNL d   1       1.557  -1.094  -0.073  0.00  0.00    -0.220 N 
ATOM      2  C   UNL d   1       2.328   0.073   0.008  0.00  0.00     0.380 A 
ATOM      3  C   UNL d   1       1.988  -2.412  -0.160  0.00  0.00     0.267 C 
ATOM      4  O   UNL d   1       1.521   1.218   0.052  0.00  0.00    -0.258 OA
ATOM      5  C   UNL d   1       0.238  -0.696   0.057  0.00  0.00     0.082 A 
ATOM      6  C   UNL d   1       0.248   0.684   0.078  0.00  0.00     0.108 A 
ATOM      7  O   UNL d   1       3.549   0.149   0.044  0.00  0.00    -0.237 OA
ATOM      8  O   UNL d   1       1.393  -3.380   0.308  0.00  0.00    -0.267 OA
ATOM      9  C   UNL d   1      -0.942  -1.411   0.092  0.00  0.00     0.033 A 
ATOM     10  C   UNL d   1      -0.914   1.425   0.100  0.00  0.00     0.040 A 
ATOM     11  C   UNL d   1      -2.136  -0.682   0.132  0.00  0.00     0.002 A 
ATOM     12  C   UNL d   1      -2.122   0.726   0.123  0.00  0.00     0.003 A 
ENDROOT
BRANCH   3  13
ATOM     13  C   UNL d   1       3.271  -2.654  -0.881  0.00  0.00     0.033 A 
ATOM     14  C   UNL d   1       4.168  -3.610  -0.391  0.00  0.00     0.018 A 
ATOM     15  C   UNL d   1       5.378  -3.831  -1.056  0.00  0.00     0.025 A 
ATOM     16  C   UNL d   1       5.680  -3.107  -2.212  0.00  0.00     0.034 A 
ATOM     17  C   UNL d   1       4.770  -2.187  -2.728  0.00  0.00     0.025 A 
ATOM     18 CL   UNL d   1       7.183  -3.354  -3.010  0.00  0.00    -0.084 Cl
ATOM     19  C   UNL d   1       3.556  -1.973  -2.073  0.00  0.00     0.018 A 
ENDBRANCH   3  13
TORSDOF 1
