REMARK  4 active torsions:
REMARK  status: ('A' for Active; 'I' for Inactive)
REMARK       I    between atoms: N_2  and  C_1 
REMARK    1  A    between atoms: C_3  and  C_1 
REMARK    2  A    between atoms: N_4  and  N_2 
REMARK    3  A    between atoms: C_8  and  N_4 
REMARK    4  A    between atoms: C_17  and  C_12 
ROOT
ATOM      1  C   UNL d   1       0.903  -0.122   0.202  0.00  0.00     0.266 C 
ATOM      2  N   UNL d   1       0.118   0.480   1.175  0.00  0.00    -0.283 N 
ATOM      3  O   UNL d   1       2.129  -0.159   0.246  0.00  0.00    -0.266 OA
ATOM      4  H   UNL d   1      -0.785   0.861   0.907  0.00  0.00     0.184 HD
ENDROOT
BRANCH   2   5
ATOM      5  N   UNL d   1       0.802   1.240   2.135  0.00  0.00    -0.203 NA
ATOM      6  H   UNL d   1       1.808   1.027   2.140  0.00  0.00     0.153 HD
BRANCH   5   7
ATOM      7  C   UNL d   1       0.257   1.232   3.443  0.00  0.00     0.028 A 
ATOM      8  C   UNL d   1      -1.020   0.744   3.759  0.00  0.00     0.032 A 
ATOM      9  C   UNL d   1      -1.549   0.863   5.055  0.00  0.00    -0.060 A 
ATOM     10  C   UNL d   1      -2.909   0.321   5.389  0.00  0.00     0.048 C 
ATOM     11  C   UNL d   1      -0.802   1.511   6.043  0.00  0.00     0.007 A 
ATOM     12  C   UNL d   1       0.460   2.019   5.744  0.00  0.00     0.002 A 
ATOM     13  C   UNL d   1       0.980   1.881   4.456  0.00  0.00     0.025 A 
ENDBRANCH   5   7
ENDBRANCH   2   5
BRANCH   1  14
ATOM     14  C   UNL d   1       0.162  -0.712  -0.947  0.00  0.00     0.033 A 
ATOM     15  C   UNL d   1       0.792  -0.782  -2.197  0.00  0.00     0.017 A 
ATOM     16  C   UNL d   1       0.131  -1.365  -3.282  0.00  0.00     0.008 A 
ATOM     17  C   UNL d   1      -1.155  -1.897  -3.131  0.00  0.00    -0.059 A 
ATOM     18  C   UNL d   1      -1.783  -1.815  -1.880  0.00  0.00     0.008 A 
ATOM     19  C   UNL d   1      -1.128  -1.230  -0.793  0.00  0.00     0.017 A 
BRANCH  17  20
ATOM     20  C   UNL d   1      -1.861  -2.554  -4.292  0.00  0.00     0.034 C 
ATOM     21  C   UNL d   1      -2.700  -1.570  -5.091  0.00  0.00     0.010 C 
ENDBRANCH  17  20
ENDBRANCH   1  14
TORSDOF 4
