REMARK  7 active torsions:
REMARK  status: ('A' for Active; 'I' for Inactive)
REMARK    1  A    between atoms: C_2  and  C_1 
REMARK    2  A    between atoms: C_3  and  C_2 
REMARK    3  A    between atoms: C_4  and  C_2 
REMARK       I    between atoms: N_7  and  C_3 
REMARK       I    between atoms: N_8  and  C_4 
REMARK    4  A    between atoms: N_5  and  C_9 
REMARK    5  A    between atoms: N_6  and  C_10 
REMARK    6  A    between atoms: C_25  and  N_7 
REMARK    7  A    between atoms: C_26  and  N_8 
ROOT
ATOM      1  C   UNL d   1      -2.923   0.743   0.414  0.00  0.00     0.178 C 
ENDROOT
BRANCH   1   2
ATOM      2  C   UNL d   1      -1.544  -0.039   0.596  0.00  0.00    -0.019 C 
ATOM      3  C   UNL d   1      -1.923  -1.558   0.749  0.00  0.00     0.015 C 
ATOM      4  C   UNL d   1      -0.703  -2.431   1.042  0.00  0.00    -0.013 C 
ATOM      5  C   UNL d   1       0.264  -2.349  -0.145  0.00  0.00     0.009 C 
ATOM      6  C   UNL d   1      -0.033  -1.911   2.318  0.00  0.00     0.009 C 
ATOM      7  C   UNL d   1       0.683  -0.889  -0.371  0.00  0.00    -0.013 C 
ATOM      8  C   UNL d   1      -0.575  -0.003  -0.630  0.00  0.00     0.015 C 
ATOM      9  C   UNL d   1       1.431  -0.426   0.892  0.00  0.00     0.009 C 
ATOM     10  C   UNL d   1       0.489  -0.486   2.098  0.00  0.00    -0.013 C 
ATOM     11  C   UNL d   1      -0.684   0.452   1.812  0.00  0.00     0.015 C 
ENDBRANCH   1   2
BRANCH   1  12
ATOM     12  C   UNL d   1      -3.776   0.678   1.698  0.00  0.00     0.236 C 
ATOM     13  N   UNL d   1      -5.112   1.023   1.621  0.00  0.00    -0.326 N 
ATOM     14  H   UNL d   1      -5.385   1.703   0.915  0.00  0.00     0.169 HD
ATOM     15  O   UNL d   1      -3.297   0.286   2.763  0.00  0.00    -0.272 OA
BRANCH  13  16
ATOM     16  C   UNL d   1      -6.007   0.755   2.696  0.00  0.00     0.037 A 
ATOM     17  C   UNL d   1      -5.827  -0.346   3.551  0.00  0.00     0.065 A 
ATOM     18  C   UNL d   1      -6.670  -0.543   4.652  0.00  0.00     0.105 A 
ATOM     19  C   UNL d   1      -7.721   0.342   4.902  0.00  0.00     0.036 A 
ATOM     20  C   UNL d   1      -7.928   1.413   4.027  0.00  0.00     0.005 A 
ATOM     21  C   UNL d   1      -7.086   1.611   2.922  0.00  0.00     0.029 A 
BRANCH  18  22
ATOM     22  N   UNL d   1      -6.442  -1.688   5.549  0.00  0.00    -0.116 N 
ATOM     23  O   UNL d   1      -5.522  -2.467   5.272  0.00  0.00    -0.532 OA
ATOM     24  O   UNL d   1      -7.194  -1.804   6.526  0.00  0.00    -0.532 OA
ENDBRANCH  18  22
ENDBRANCH  13  16
ENDBRANCH   1  12
BRANCH   1  25
ATOM     25  C   UNL d   1      -2.948   2.128  -0.245  0.00  0.00     0.236 C 
ATOM     26  N   UNL d   1      -1.833   2.910  -0.080  0.00  0.00    -0.326 N 
ATOM     27  H   UNL d   1      -1.232   2.686   0.693  0.00  0.00     0.169 HD
ATOM     28  O   UNL d   1      -3.965   2.494  -0.840  0.00  0.00    -0.272 OA
BRANCH  26  29
ATOM     29  C   UNL d   1      -1.403   4.013  -0.854  0.00  0.00     0.037 A 
ATOM     30  C   UNL d   1      -2.038   4.475  -2.011  0.00  0.00     0.065 A 
ATOM     31  C   UNL d   1      -1.462   5.528  -2.741  0.00  0.00     0.105 A 
ATOM     32  C   UNL d   1      -0.258   6.119  -2.333  0.00  0.00     0.036 A 
ATOM     33  C   UNL d   1       0.371   5.659  -1.182  0.00  0.00     0.005 A 
ATOM     34  C   UNL d   1      -0.200   4.616  -0.449  0.00  0.00     0.029 A 
BRANCH  31  35
ATOM     35  N   UNL d   1      -2.113   6.017  -3.963  0.00  0.00    -0.116 N 
ATOM     36  O   UNL d   1      -3.087   5.388  -4.396  0.00  0.00    -0.532 OA
ATOM     37  O   UNL d   1      -1.635   7.029  -4.500  0.00  0.00    -0.532 OA
ENDBRANCH  31  35
ENDBRANCH  26  29
ENDBRANCH   1  25
TORSDOF 7
