REMARK  4 active torsions:
REMARK  status: ('A' for Active; 'I' for Inactive)
REMARK    1  A    between atoms: C_2  and  S_1 
REMARK    2  A    between atoms: N_3  and  S_1 
REMARK    3  A    between atoms: C_15  and  N_3 
REMARK    4  A    between atoms: C_16  and  C_15 
ROOT
ATOM      1  N   UNL d   1       2.337  -2.230   0.172  0.00  0.00    -0.211 NA
ATOM      2  H   UNL d   1       2.358  -2.451   1.167  0.00  0.00     0.140 HD
ENDROOT
BRANCH   1   3
ATOM      3  S   UNL d   1       3.003  -0.715  -0.141  0.00  0.00     0.248 S 
ATOM      4  O   UNL d   1       4.270  -0.648   0.549  0.00  0.00    -0.205 OA
ATOM      5  O   UNL d   1       2.880  -0.446  -1.557  0.00  0.00    -0.205 OA
BRANCH   3   6
ATOM      6  C   UNL d   1       1.974   0.510   0.642  0.00  0.00     0.115 A 
ATOM      7  S   UNL d   1       1.791   0.371   2.339  0.00  0.00    -0.089 SA
ATOM      8  C   UNL d   1       0.812   1.773   2.412  0.00  0.00     0.051 A 
ATOM      9  C   UNL d   1       0.600   2.321   1.166  0.00  0.00     0.009 A 
ATOM     10  C   UNL d   1       1.266   1.586   0.142  0.00  0.00     0.033 A 
ENDBRANCH   3   6
ENDBRANCH   1   3
BRANCH   1  11
ATOM     11  C   UNL d   1       1.063  -2.519  -0.494  0.00  0.00     0.143 C 
BRANCH  11  12
ATOM     12  C   UNL d   1       0.570  -3.916  -0.187  0.00  0.00    -0.044 A 
ATOM     13  C   UNL d   1       1.373  -5.031  -0.489  0.00  0.00     0.018 A 
ATOM     14  C   UNL d   1       0.869  -6.298  -0.251  0.00  0.00    -0.022 A 
ATOM     15  C   UNL d   1       1.508  -7.619  -0.434  0.00  0.00     0.068 C 
ATOM     16  C   UNL d   1      -0.393  -6.472   0.291  0.00  0.00     0.075 A 
ATOM     17  C   UNL d   1       0.284  -8.515  -0.240  0.00  0.00     0.180 C 
ATOM     18  O   UNL d   1      -0.738  -7.784   0.480  0.00  0.00    -0.350 OA
ATOM     19  C   UNL d   1      -1.201  -5.403   0.613  0.00  0.00     0.038 A 
ATOM     20  C   UNL d   1      -0.716  -4.115   0.364  0.00  0.00     0.011 A 
ENDBRANCH  11  12
ENDBRANCH   1  11
TORSDOF 4
