REMARK  5 active torsions:
REMARK  status: ('A' for Active; 'I' for Inactive)
REMARK    1  A    between atoms: C_15  and  N_1 
REMARK    2  A    between atoms: C_8  and  C_2 
REMARK    3  A    between atoms: S_13  and  C_3 
REMARK    4  A    between atoms: C_12  and  C_8 
REMARK    5  A    between atoms: C_19  and  C_15 
ROOT
ATOM      1  N   UNL d   1      -0.237  -1.080  -0.096  0.00  0.00    -0.315 N 
ATOM      2  C   UNL d   1       1.070  -0.662  -0.284  0.00  0.00     0.104 A 
ATOM      3  C   UNL d   1      -1.000   0.056  -0.197  0.00  0.00     0.160 A 
ATOM      4  N   UNL d   1       1.062   0.635  -0.520  0.00  0.00    -0.286 N 
ATOM      5  HN  UNL d   1       1.882   1.210  -0.714  1.00  0.00     0.188 HD
ATOM      6  N   UNL d   1      -0.231   1.083  -0.462  0.00  0.00    -0.279 N 
ATOM      7  HN  UNL d   1      -0.541   2.045  -0.599  1.00  0.00     0.189 HD
ENDROOT
BRANCH   2   8
ATOM      8  C   UNL d   1       2.278  -1.537  -0.138  0.00  0.00     0.116 C 
BRANCH   8   9
ATOM      9  C   UNL d   1       3.541  -1.073  -0.842  0.00  0.00    -0.049 A 
ATOM     10  C   UNL d   1       4.212  -1.936  -1.725  0.00  0.00     0.033 A 
ATOM     11  C   UNL d   1       5.434  -1.569  -2.304  0.00  0.00     0.056 A 
ATOM     12 CL   UNL d   1       6.201  -2.713  -3.349  0.00  0.00    -0.083 Cl
ATOM     13  C   UNL d   1       6.000  -0.325  -2.010  0.00  0.00     0.055 A 
ATOM     14  C   UNL d   1       5.335   0.547  -1.147  0.00  0.00     0.026 A 
ATOM     15 CL   UNL d   1       7.519   0.181  -2.659  0.00  0.00    -0.083 Cl
ATOM     16  C   UNL d   1       4.120   0.174  -0.564  0.00  0.00     0.009 A 
ENDBRANCH   8   9
ENDBRANCH   2   8
BRANCH   1  17
ATOM     17  C   UNL d   1      -0.681  -2.416   0.246  0.00  0.00     0.132 C 
BRANCH  17  18
ATOM     18  C   UNL d   1      -1.291  -3.197  -0.921  0.00  0.00     0.016 C 
ATOM     19  C   UNL d   1      -0.279  -3.588  -1.987  0.00  0.00     0.006 C 
ENDBRANCH  17  18
ENDBRANCH   1  17
BRANCH   3  20
ATOM     20  S   UNL d   1      -2.710   0.160   0.039  0.00  0.00    -0.105 SA
ATOM     21  H   UNL d   1      -3.057  -1.123  -0.100  0.00  0.00     0.110 HD
ENDBRANCH   3  20
TORSDOF 5
