REMARK  6 active torsions:
REMARK  status: ('A' for Active; 'I' for Inactive)
REMARK    1  A    between atoms: C_4  and  C_1 
REMARK    2  A    between atoms: C_5  and  C_1 
REMARK    3  A    between atoms: N_6  and  N_2 
REMARK    4  A    between atoms: O_9  and  C_4 
REMARK    5  A    between atoms: C_10  and  N_6 
REMARK    6  A    between atoms: C_12  and  O_9 
ROOT
ATOM      1  C   UNL d   1       0.949  -0.090   0.033  0.00  0.00     0.169 C 
ATOM      2  N   UNL d   1       0.236   0.127   1.110  0.00  0.00    -0.292 N 
ATOM      3  HN  UNL d   1      -0.782   0.071   1.092  1.00  0.00     0.187 HD
ENDROOT
BRANCH   2   4
ATOM      4  N   UNL d   1       0.910   0.429   2.252  0.00  0.00    -0.300 N 
ATOM      5  H   UNL d   1       1.878   0.101   2.371  0.00  0.00     0.187 HD
BRANCH   4   6
ATOM      6  C   UNL d   1       0.208   0.544   3.468  0.00  0.00     0.048 A 
ATOM      7  C   UNL d   1      -1.179   0.390   3.566  0.00  0.00     0.031 A 
ATOM      8  C   UNL d   1      -1.836   0.571   4.787  0.00  0.00     0.002 A 
ATOM      9  C   UNL d   1      -1.117   0.948   5.919  0.00  0.00     0.000 A 
ATOM     10  C   UNL d   1       0.258   1.148   5.829  0.00  0.00     0.002 A 
ATOM     11  C   UNL d   1       0.913   0.950   4.611  0.00  0.00     0.031 A 
ENDBRANCH   4   6
ENDBRANCH   2   4
BRANCH   1  12
ATOM     12  C   UNL d   1       0.206  -0.322  -1.267  0.00  0.00     0.315 C 
ATOM     13  O   UNL d   1       0.685  -1.001  -2.162  0.00  0.00    -0.257 OA
BRANCH  12  14
ATOM     14  O   UNL d   1      -0.882   0.468  -1.319  0.00  0.00    -0.317 OA
BRANCH  14  15
ATOM     15  C   UNL d   1      -1.439   0.714  -2.614  0.00  0.00     0.175 C 
ATOM     16  C   UNL d   1      -0.876   2.032  -3.115  0.00  0.00     0.034 C 
ENDBRANCH  14  15
ENDBRANCH  12  14
ENDBRANCH   1  12
BRANCH   1  17
ATOM     17  C   UNL d   1       2.470  -0.062   0.033  0.00  0.00     0.179 C 
ATOM     18  O   UNL d   1       3.087  -0.488   1.005  0.00  0.00    -0.291 OA
ATOM     19  C   UNL d   1       3.157   0.505  -1.175  0.00  0.00     0.099 C 
ENDBRANCH   1  17
TORSDOF 6
