REMARK  1 active torsions:
REMARK  status: ('A' for Active; 'I' for Inactive)
REMARK    1  A    between atoms: C_11  and  C_3 
ROOT
ATOM      1  N   UNL d   1       0.562   0.766  -0.050  0.00  0.00    -0.304 N 
ATOM      2  C   UNL d   1      -0.144  -0.410  -0.059  0.00  0.00     0.123 A 
ATOM      3  C   UNL d   1      -0.100   2.070  -0.013  0.00  0.00     0.225 C 
ATOM      4  N   UNL d   1       0.672  -1.446  -0.080  0.00  0.00    -0.340 N 
ATOM      5  HN  UNL d   1       0.417  -2.433  -0.125  1.00  0.00     0.167 HD
ATOM      6  N   UNL d   1      -1.562   2.055   0.157  0.00  0.00    -0.364 N 
ATOM      7  C   UNL d   1      -1.599  -0.397  -0.032  0.00  0.00     0.035 A 
ATOM      8  C   UNL d   1       1.902   0.478   0.001  0.00  0.00     0.065 A 
ATOM      9  C   UNL d   1      -2.259   0.847   0.023  0.00  0.00     0.043 A 
ATOM     10  C   UNL d   1       1.938  -0.915  -0.030  0.00  0.00     0.061 A 
ATOM     11  C   UNL d   1      -2.329  -1.592  -0.054  0.00  0.00     0.017 A 
ATOM     12  C   UNL d   1       3.059   1.264   0.068  0.00  0.00     0.032 A 
ATOM     13  C   UNL d   1      -3.658   0.853   0.100  0.00  0.00     0.030 A 
ATOM     14  C   UNL d   1       3.177  -1.571   0.005  0.00  0.00     0.032 A 
ATOM     15  C   UNL d   1      -3.720  -1.563   0.004  0.00  0.00     0.001 A 
ATOM     16  C   UNL d   1       4.284   0.590   0.105  0.00  0.00     0.002 A 
ATOM     17  C   UNL d   1       4.346  -0.804   0.075  0.00  0.00     0.002 A 
ATOM     18  C   UNL d   1      -4.384  -0.341   0.083  0.00  0.00     0.002 A 
ATOM     19  H   UNL d   1      -2.041   2.858  -0.237  0.00  0.00     0.162 HD
ENDROOT
BRANCH   3  20
ATOM     20  C   UNL d   1       0.255   2.911  -1.236  0.00  0.00    -0.016 A 
ATOM     21  C   UNL d   1      -0.043   2.475  -2.539  0.00  0.00     0.013 A 
ATOM     22  C   UNL d   1       0.305   3.252  -3.647  0.00  0.00     0.024 A 
ATOM     23  C   UNL d   1       0.948   4.474  -3.464  0.00  0.00     0.034 A 
ATOM     24  C   UNL d   1       1.238   4.931  -2.181  0.00  0.00     0.024 A 
ATOM     25 CL   UNL d   1       1.385   5.426  -4.828  0.00  0.00    -0.084 Cl
ATOM     26  C   UNL d   1       0.888   4.157  -1.072  0.00  0.00     0.013 A 
ENDBRANCH   3  20
TORSDOF 1
