REMARK  20 active torsions:
REMARK  status: ('A' for Active; 'I' for Inactive)
REMARK       I    between atoms: N_2  and  C_1 
REMARK    1  A    between atoms: C_8  and  C_1 
REMARK    2  A    between atoms: C_5  and  N_2 
REMARK       I    between atoms: C_3  and  N_7 
REMARK    3  A    between atoms: O_15  and  C_3 
REMARK    4  A    between atoms: C_5  and  C_4 
REMARK    5  A    between atoms: O_9  and  C_4 
REMARK    6  A    between atoms: C_11  and  C_5 
REMARK       I    between atoms: C_6  and  N_17 
REMARK    7  A    between atoms: O_16  and  C_6 
REMARK    8  A    between atoms: N_7  and  C_8 
REMARK    9  A    between atoms: C_25  and  C_8 
REMARK   10  A    between atoms: C_18  and  O_9 
REMARK   11  A    between atoms: C_21  and  C_11 
REMARK   12  A    between atoms: C_19  and  O_15 
REMARK   13  A    between atoms: C_20  and  O_16 
REMARK   14  A    between atoms: N_17  and  C_26 
REMARK   15  A    between atoms: C_22  and  C_18 
REMARK   16  A    between atoms: C_23  and  C_19 
REMARK   17  A    between atoms: C_24  and  C_20 
REMARK   18  A    between atoms: C_35  and  C_25 
REMARK   19  A    between atoms: C_26  and  C_36 
REMARK   20  A    between atoms: C_36  and  C_35 
ROOT
ATOM      1  C   UNL d   1       0.306   0.969  -0.879  0.00  0.00     0.179 C 
ENDROOT
BRANCH   1   2
ATOM      2  N   UNL d   1       0.786   2.060  -0.031  0.00  0.00    -0.324 N 
ATOM      3  C   UNL d   1      -0.026   2.597   0.930  0.00  0.00     0.361 C 
ATOM      4  O   UNL d   1      -0.940   2.002   1.483  0.00  0.00    -0.238 OA
ATOM      5  H   UNL d   1       1.422   2.733  -0.435  0.00  0.00     0.165 HD
BRANCH   3   6
ATOM      6  O   UNL d   1       0.304   3.894   1.114  0.00  0.00    -0.299 OA
BRANCH   6   7
ATOM      7  C   UNL d   1      -0.615   4.669   1.907  0.00  0.00     0.219 C 
BRANCH   7   8
ATOM      8  C   UNL d   1      -1.710   5.287   1.064  0.00  0.00    -0.034 A 
ATOM      9  C   UNL d   1      -2.986   5.501   1.610  0.00  0.00     0.009 A 
ATOM     10  C   UNL d   1      -3.997   6.101   0.856  0.00  0.00     0.001 A 
ATOM     11  C   UNL d   1      -3.744   6.504  -0.455  0.00  0.00     0.000 A 
ATOM     12  C   UNL d   1      -2.478   6.315  -1.004  0.00  0.00     0.001 A 
ATOM     13  C   UNL d   1      -1.466   5.720  -0.250  0.00  0.00     0.009 A 
ENDBRANCH   7   8
ENDBRANCH   6   7
ENDBRANCH   3   6
ENDBRANCH   1   2
BRANCH   1  14
ATOM     14  C   UNL d   1       0.799  -0.461  -0.533  0.00  0.00     0.241 C 
ATOM     15  N   UNL d   1       1.329  -0.668   0.716  0.00  0.00    -0.345 N 
ATOM     16  H   UNL d   1       1.685   0.142   1.210  0.00  0.00     0.163 HD
ATOM     17  O   UNL d   1       0.638  -1.402  -1.314  0.00  0.00    -0.271 OA
BRANCH  15  18
ATOM     18  C   UNL d   1       1.810  -2.013   1.075  0.00  0.00     0.188 C 
BRANCH  18  19
ATOM     19  C   UNL d   1       3.178  -2.343   0.435  0.00  0.00     0.282 C 
ATOM     20  O   UNL d   1       3.921  -1.518  -0.086  0.00  0.00    -0.263 OA
BRANCH  19  21
ATOM     21  O   UNL d   1       3.432  -3.685   0.507  0.00  0.00    -0.315 OA
BRANCH  21  22
ATOM     22  C   UNL d   1       4.684  -4.141  -0.041  0.00  0.00     0.217 C 
BRANCH  22  23
ATOM     23  C   UNL d   1       4.505  -4.827  -1.378  0.00  0.00    -0.034 A 
ATOM     24  C   UNL d   1       4.035  -4.108  -2.487  0.00  0.00     0.009 A 
ATOM     25  C   UNL d   1       3.924  -4.718  -3.740  0.00  0.00     0.001 A 
ATOM     26  C   UNL d   1       4.287  -6.053  -3.904  0.00  0.00     0.000 A 
ATOM     27  C   UNL d   1       4.759  -6.780  -2.814  0.00  0.00     0.001 A 
ATOM     28  C   UNL d   1       4.867  -6.172  -1.558  0.00  0.00     0.009 A 
ENDBRANCH  22  23
ENDBRANCH  21  22
ENDBRANCH  19  21
ENDBRANCH  18  19
BRANCH  18  29
ATOM     29  C   UNL d   1       1.778  -2.253   2.591  0.00  0.00     0.074 C 
BRANCH  29  30
ATOM     30  C   UNL d   1       2.738  -1.426   3.415  0.00  0.00    -0.056 A 
ATOM     31  C   UNL d   1       2.382  -0.144   3.859  0.00  0.00     0.007 A 
ATOM     32  C   UNL d   1       3.267   0.607   4.634  0.00  0.00     0.001 A 
ATOM     33  C   UNL d   1       4.509   0.081   4.984  0.00  0.00     0.000 A 
ATOM     34  C   UNL d   1       4.868  -1.196   4.558  0.00  0.00     0.001 A 
ATOM     35  C   UNL d   1       3.989  -1.946   3.775  0.00  0.00     0.007 A 
ENDBRANCH  29  30
ENDBRANCH  18  29
ENDBRANCH  15  18
ENDBRANCH   1  14
BRANCH   1  36
ATOM     36  C   UNL d   1       0.662   1.222  -2.356  0.00  0.00     0.035 C 
BRANCH  36  37
ATOM     37  C   UNL d   1      -0.059   2.409  -3.001  0.00  0.00     0.004 C 
BRANCH  37  38
ATOM     38  C   UNL d   1       0.334   2.578  -4.478  0.00  0.00     0.020 C 
BRANCH  38  39
ATOM     39  C   UNL d   1      -0.013   1.367  -5.341  0.00  0.00     0.125 C 
BRANCH  39  40
ATOM     40  N   UNL d   1       0.336   1.578  -6.726  0.00  0.00    -0.337 N 
ATOM     41  C   UNL d   1      -0.582   1.924  -7.664  0.00  0.00     0.360 C 
ATOM     42  O   UNL d   1      -1.742   2.245  -7.426  0.00  0.00    -0.239 OA
ATOM     43  H   UNL d   1       1.226   1.258  -7.080  0.00  0.00     0.164 HD
BRANCH  41  44
ATOM     44  O   UNL d   1      -0.045   1.778  -8.895  0.00  0.00    -0.299 OA
BRANCH  44  45
ATOM     45  C   UNL d   1      -0.994   1.702  -9.961  0.00  0.00     0.219 C 
BRANCH  45  46
ATOM     46  C   UNL d   1      -0.902   2.889 -10.884  0.00  0.00    -0.034 A 
ATOM     47  C   UNL d   1      -0.038   2.869 -11.988  0.00  0.00     0.009 A 
ATOM     48  C   UNL d   1      -0.032   3.926 -12.900  0.00  0.00     0.001 A 
ATOM     49  C   UNL d   1      -0.877   5.017 -12.709  0.00  0.00     0.000 A 
ATOM     50  C   UNL d   1      -1.713   5.064 -11.594  0.00  0.00     0.001 A 
ATOM     51  C   UNL d   1      -1.720   4.008 -10.680  0.00  0.00     0.009 A 
ENDBRANCH  45  46
ENDBRANCH  44  45
ENDBRANCH  41  44
ENDBRANCH  39  40
ENDBRANCH  38  39
ENDBRANCH  37  38
ENDBRANCH  36  37
ENDBRANCH   1  36
TORSDOF 20
