REMARK  6 active torsions:
REMARK  status: ('A' for Active; 'I' for Inactive)
REMARK    1  A    between atoms: N_2  and  C_1 
REMARK       I    between atoms: C_4  and  N_2 
REMARK    2  A    between atoms: C_18  and  C_4 
REMARK    3  A    between atoms: C_5  and  C_19 
REMARK    4  A    between atoms: O_17  and  C_7 
REMARK    5  A    between atoms: S_14  and  C_18 
REMARK    6  A    between atoms: C_19  and  S_14 
ROOT
ATOM      1  N   UNL d   1       2.182   2.623  -0.054  0.00  0.00    -0.324 N 
ATOM      2  C   UNL d   1       1.487   3.824  -0.100  0.00  0.00     0.231 C 
ATOM      3  O   UNL d   1       0.270   3.967  -0.149  0.00  0.00    -0.272 OA
ATOM      4  H   UNL d   1       3.174   2.725  -0.198  0.00  0.00     0.169 HD
ENDROOT
BRANCH   1   5
ATOM      5  C   UNL d   1       1.643   1.314  -0.043  0.00  0.00     0.070 A 
ATOM      6  C   UNL d   1       0.293   1.130   0.322  0.00  0.00     0.056 A 
ATOM      7  C   UNL d   1      -0.298  -0.133   0.336  0.00  0.00     0.036 A 
ATOM      8 CL   UNL d   1      -1.949  -0.305   0.796  0.00  0.00    -0.084 Cl
ATOM      9  C   UNL d   1       0.438  -1.252  -0.007  0.00  0.00     0.026 A 
ATOM     10  C   UNL d   1       1.779  -1.096  -0.344  0.00  0.00     0.041 A 
ATOM     11  C   UNL d   1       2.406   0.168  -0.358  0.00  0.00     0.095 A 
BRANCH  11  12
ATOM     12  O   UNL d   1       3.718   0.017  -0.709  0.00  0.00    -0.354 OA
ATOM     13  C   UNL d   1       4.595   1.103  -0.916  0.00  0.00     0.210 C 
ENDBRANCH  11  12
ENDBRANCH   1   5
BRANCH   2  14
ATOM     14  C   UNL d   1       2.397   5.045  -0.100  0.00  0.00     0.177 C 
BRANCH  14  15
ATOM     15  S   UNL d   1       3.622   4.981  -1.442  0.00  0.00    -0.153 SA
BRANCH  15  16
ATOM     16  C   UNL d   1       2.487   4.903  -2.880  0.00  0.00     0.139 C 
BRANCH  16  17
ATOM     17  C   UNL d   1       3.292   4.819  -4.125  0.00  0.00     0.061 A 
ATOM     18  O   UNL d   1       3.609   3.565  -4.563  0.00  0.00    -0.326 OA
ATOM     19  C   UNL d   1       4.378   3.715  -5.672  0.00  0.00     0.142 A 
ATOM     20  C   UNL d   1       4.551   5.048  -5.961  0.00  0.00     0.027 A 
ATOM     21  C   UNL d   1       3.838   5.764  -4.969  0.00  0.00     0.035 A 
ENDBRANCH  16  17
ENDBRANCH  15  16
ENDBRANCH  14  15
ENDBRANCH   2  14
TORSDOF 6
