REMARK  2 active torsions:
REMARK  status: ('A' for Active; 'I' for Inactive)
REMARK    1  A    between atoms: N_11  and  C_2 
REMARK    2  A    between atoms: C_10  and  C_5 
ROOT
ATOM      1  C   UNL d   1       2.477   0.739   0.118  0.00  0.00     0.094 A 
ATOM      2  C   UNL d   1       2.437  -0.653  -0.020  0.00  0.00     0.100 A 
ATOM      3  N   UNL d   1       1.291  -1.339  -0.087  0.00  0.00    -0.349 N 
ATOM      4  HN  UNL d   1       1.298  -2.356  -0.169  1.00  0.00     0.167 HD
ATOM      5  C   UNL d   1       1.270   1.493   0.108  0.00  0.00     0.006 A 
ATOM      6  C   UNL d   1       0.054   0.746  -0.003  0.00  0.00    -0.023 A 
ATOM      7  C   UNL d   1       0.126  -0.658  -0.046  0.00  0.00     0.017 A 
ATOM      8  C   UNL d   1       3.763   1.339   0.305  0.00  0.00     0.103 C 
ATOM      9  N   UNL d   1       4.823   1.798   0.467  0.00  0.00    -0.191 NA
ATOM     10  C   UNL d   1      -1.314   1.403  -0.031  0.00  0.00     0.041 C 
ATOM     11  C   UNL d   1      -1.100  -1.536  -0.109  0.00  0.00     0.057 C 
ATOM     12  C   UNL d   1      -2.463   0.497  -0.472  0.00  0.00     0.005 C 
ATOM     13  C   UNL d   1      -2.386  -0.821   0.279  0.00  0.00     0.006 C 
ENDROOT
BRANCH   2  14
ATOM     14  N   UNL d   1       3.575  -1.439  -0.187  0.00  0.00    -0.287 NA
ATOM     15  H   UNL d   1       4.306  -1.276   0.498  0.00  0.00     0.125 HD
ATOM     16  H   UNL d   1       3.279  -2.411  -0.217  0.00  0.00     0.125 HD
ENDBRANCH   2  14
BRANCH   5  17
ATOM     17  C   UNL d   1       1.287   2.997   0.190  0.00  0.00    -0.024 A 
ATOM     18  C   UNL d   1       2.201   3.776  -0.549  0.00  0.00     0.012 A 
ATOM     19  C   UNL d   1       2.222   5.176  -0.469  0.00  0.00     0.001 A 
ATOM     20  C   UNL d   1       1.275   5.846   0.293  0.00  0.00     0.000 A 
ATOM     21  C   UNL d   1       0.348   5.114   1.021  0.00  0.00     0.001 A 
ATOM     22  C   UNL d   1       0.391   3.714   1.005  0.00  0.00     0.012 A 
ENDBRANCH   5  17
TORSDOF 2
