REMARK  4 active torsions:
REMARK  status: ('A' for Active; 'I' for Inactive)
REMARK    1  A    between atoms: C_6  and  C_1 
REMARK    2  A    between atoms: C_10  and  C_4 
REMARK       I    between atoms: N_8  and  C_6 
REMARK    3  A    between atoms: N_9  and  N_8 
REMARK    4  A    between atoms: C_12  and  N_9 
ROOT
ATOM      1  C   UNL d   1      -0.135  -1.343   0.041  0.00  0.00     0.093 A 
ATOM      2  N   UNL d   1      -1.218   0.654   0.127  0.00  0.00    -0.259 N 
ATOM      3  HN  UNL d   1      -1.944   1.367   0.206  1.00  0.00     0.195 HD
ATOM      4  C   UNL d   1      -1.400  -0.679   0.144  0.00  0.00     0.083 A 
ATOM      5  O   UNL d   1       0.131   0.871  -0.019  0.00  0.00    -0.241 OA
ATOM      6  C   UNL d   1       0.778  -0.315  -0.075  0.00  0.00     0.090 A 
ATOM      7  C   UNL d   1       2.249  -0.256  -0.189  0.00  0.00     0.080 C 
ENDROOT
BRANCH   1   8
ATOM      8  C   UNL d   1       0.226  -2.743   0.063  0.00  0.00     0.271 C 
ATOM      9  N   UNL d   1      -0.433  -3.493   1.025  0.00  0.00    -0.282 N 
ATOM     10  H   UNL d   1      -0.851  -3.007   1.813  0.00  0.00     0.184 HD
ATOM     11  O   UNL d   1       1.095  -3.214  -0.666  0.00  0.00    -0.266 OA
BRANCH   9  12
ATOM     12  N   UNL d   1       0.122  -4.749   1.319  0.00  0.00    -0.203 NA
ATOM     13  H   UNL d   1       0.718  -5.099   0.558  0.00  0.00     0.153 HD
BRANCH  12  14
ATOM     14  C   UNL d   1      -0.765  -5.730   1.816  0.00  0.00     0.027 A 
ATOM     15  C   UNL d   1      -2.008  -5.432   2.398  0.00  0.00     0.028 A 
ATOM     16  C   UNL d   1      -2.773  -6.430   3.010  0.00  0.00     0.044 A 
ATOM     17  C   UNL d   1      -2.292  -7.731   3.063  0.00  0.00     0.116 A 
ATOM     18  C   UNL d   1      -1.063  -8.055   2.508  0.00  0.00     0.044 A 
ATOM     19  F   UNL d   1      -3.016  -8.679   3.671  0.00  0.00    -0.206 F 
ATOM     20  C   UNL d   1      -0.302  -7.057   1.895  0.00  0.00     0.028 A 
ENDBRANCH  12  14
ENDBRANCH   9  12
ENDBRANCH   1   8
BRANCH   4  21
ATOM     21  C   UNL d   1      -2.757  -1.227   0.257  0.00  0.00    -0.006 A 
ATOM     22  C   UNL d   1      -3.110  -2.458  -0.313  0.00  0.00     0.014 A 
ATOM     23  C   UNL d   1      -4.409  -2.961  -0.179  0.00  0.00     0.001 A 
ATOM     24  C   UNL d   1      -5.378  -2.228   0.503  0.00  0.00     0.000 A 
ATOM     25  C   UNL d   1      -5.051  -0.992   1.052  0.00  0.00     0.001 A 
ATOM     26  C   UNL d   1      -3.750  -0.497   0.932  0.00  0.00     0.014 A 
ENDBRANCH   4  21
TORSDOF 4
