REMARK  6 active torsions:
REMARK  status: ('A' for Active; 'I' for Inactive)
REMARK    1  A    between atoms: C_15  and  C_1 
REMARK    2  A    between atoms: C_2  and  N_8 
REMARK    3  A    between atoms: C_3  and  C_4 
REMARK    4  A    between atoms: C_18  and  C_5 
REMARK    5  A    between atoms: N_14  and  C_15 
REMARK    6  A    between atoms: O_32  and  C_29 
ROOT
ATOM      1  N   UNL d   1       3.501  -1.949  -0.285  0.00  0.00    -0.363 N 
ATOM      2  N   UNL d   1       3.341   1.007  -0.273  0.00  0.00     0.096 N 
ATOM      3  C   UNL d   1       2.781  -1.246  -1.357  0.00  0.00     0.154 C 
ATOM      4  C   UNL d   1       3.697  -1.216   0.967  0.00  0.00     0.154 C 
ATOM      5  C   UNL d   1       4.133   0.251   0.718  0.00  0.00     0.292 C 
ATOM      6  C   UNL d   1       3.283   0.206  -1.517  0.00  0.00     0.292 C 
ENDROOT
BRANCH   2   7
ATOM      7  C   UNL d   1       2.025   1.375   0.263  0.00  0.00     0.315 C 
BRANCH   7   8
ATOM      8  C   UNL d   1       1.283   2.270  -0.680  0.00  0.00     0.016 A 
ATOM      9  C   UNL d   1       1.681   3.513  -1.285  0.00  0.00     0.067 A 
ATOM     10  N   UNL d   1       0.731   3.951  -2.133  0.00  0.00    -0.300 N 
ATOM     11  N   UNL d   1      -0.258   3.059  -2.030  0.00  0.00    -0.311 N 
ATOM     12  HN  UNL d   1       0.761   4.781  -2.724  1.00  0.00     0.187 HD
ATOM     13  C   UNL d   1       0.009   2.046  -1.166  0.00  0.00     0.118 A 
ATOM     14  H   UNL d   1      -1.094   3.207  -2.585  0.00  0.00     0.186 HD
BRANCH   9  15
ATOM     15  C   UNL d   1       2.910   4.293  -1.099  0.00  0.00    -0.007 A 
ATOM     16  C   UNL d   1       3.518   4.932  -2.190  0.00  0.00     0.016 A 
ATOM     17  C   UNL d   1       4.675   5.705  -2.020  0.00  0.00     0.037 A 
ATOM     18  C   UNL d   1       5.237   5.855  -0.752  0.00  0.00     0.068 A 
ATOM     19  C   UNL d   1       4.630   5.227   0.337  0.00  0.00     0.037 A 
ATOM     20  C   UNL d   1       3.474   4.459   0.168  0.00  0.00     0.016 A 
BRANCH  18  21
ATOM     21  O   UNL d   1       6.356   6.575  -0.440  0.00  0.00    -0.356 OA
ATOM     22  C   UNL d   1       6.977   7.292  -1.499  0.00  0.00     0.210 C 
ENDBRANCH  18  21
ENDBRANCH   9  15
ENDBRANCH   7   8
ENDBRANCH   2   7
BRANCH   1  23
ATOM     23  C   UNL d   1       3.815  -3.281  -0.459  0.00  0.00     0.125 A 
ATOM     24  N   UNL d   1       4.151  -3.642  -1.728  0.00  0.00    -0.350 N 
ATOM     25  C   UNL d   1       4.580  -4.900  -1.987  0.00  0.00     0.106 A 
ATOM     26  HN  UNL d   1       4.079  -2.963  -2.485  1.00  0.00     0.166 HD
ATOM     27  C   UNL d   1       4.701  -5.886  -1.030  0.00  0.00     0.065 A 
ATOM     28  C   UNL d   1       4.314  -5.550   0.264  0.00  0.00     0.045 A 
ATOM     29  C   UNL d   1       3.857  -4.258   0.556  0.00  0.00     0.078 A 
ATOM     30 CL   UNL d   1       3.277  -4.024   2.172  0.00  0.00    -0.080 Cl
BRANCH  27  31
ATOM     31  C   UNL d   1       5.220  -7.239  -1.399  0.00  0.00     0.418 C 
ATOM     32  F   UNL d   1       5.307  -8.092  -0.341  0.00  0.00    -0.166 F 
ATOM     33  F   UNL d   1       4.437  -7.866  -2.319  0.00  0.00    -0.166 F 
ATOM     34  F   UNL d   1       6.467  -7.189  -1.940  0.00  0.00    -0.166 F 
ENDBRANCH  27  31
ENDBRANCH   1  23
TORSDOF 6
