REMARK  1 active torsions:
REMARK  status: ('A' for Active; 'I' for Inactive)
REMARK    1  A    between atoms: C_3  and  C_6 
ROOT
ATOM      1  N   UNL d   1      -0.013  -1.326   0.597  0.00  0.00    -0.354 N 
ATOM      2  S   UNL d   1      -0.010   1.750   0.170  0.00  0.00    -0.086 SA
ATOM      3  C   UNL d   1       1.232  -0.754   0.290  0.00  0.00     0.050 A 
ATOM      4  C   UNL d   1       1.367   0.620   0.016  0.00  0.00     0.032 A 
ATOM      5  C   UNL d   1       3.560  -1.098  -0.370  0.00  0.00     0.050 A 
ATOM      6  C   UNL d   1      -1.261  -0.749   0.299  0.00  0.00     0.050 A 
ATOM      7  C   UNL d   1      -1.390   0.623   0.013  0.00  0.00     0.032 A 
ATOM      8  C   UNL d   1       2.336  -1.597   0.105  0.00  0.00     0.047 A 
ATOM      9  C   UNL d   1       2.599   1.131  -0.407  0.00  0.00     0.022 A 
ATOM     10  C   UNL d   1       3.684   0.276  -0.613  0.00  0.00     0.017 A 
ATOM     11  C   UNL d   1      -2.379  -1.582   0.150  0.00  0.00     0.031 A 
ATOM     12  C   UNL d   1      -2.622   1.136  -0.414  0.00  0.00     0.021 A 
ATOM     13  C   UNL d   1      -3.597  -1.068  -0.296  0.00  0.00     0.002 A 
ATOM     14  C   UNL d   1      -3.717   0.289  -0.581  0.00  0.00     0.002 A 
ATOM     15  H   UNL d   1      -0.019  -2.290   0.900  0.00  0.00     0.166 HD
ENDROOT
BRANCH   5  16
ATOM     16  C   UNL d   1       4.708  -2.027  -0.676  0.00  0.00     0.417 C 
ATOM     17  F   UNL d   1       4.449  -3.330  -0.377  0.00  0.00    -0.166 F 
ATOM     18  F   UNL d   1       5.049  -2.010  -1.994  0.00  0.00    -0.166 F 
ATOM     19  F   UNL d   1       5.838  -1.703   0.009  0.00  0.00    -0.166 F 
ENDBRANCH   5  16
TORSDOF 1
