REMARK  2 active torsions:
REMARK  status: ('A' for Active; 'I' for Inactive)
REMARK    1  A    between atoms: C_6  and  N_1 
REMARK    2  A    between atoms: C_10  and  C_6 
ROOT
ATOM      1  N   UNL d   1       1.552  -1.000   0.001  0.00  0.00    -0.272 N 
ATOM      2  C   UNL d   1       1.362  -0.179  -1.083  0.00  0.00     0.374 A 
ATOM      3  C   UNL d   1       1.230  -0.294   1.128  0.00  0.00     0.146 A 
ATOM      4  O   UNL d   1       0.895   1.084  -0.687  0.00  0.00    -0.257 OA
ATOM      5  C   UNL d   1       0.834   0.946   0.684  0.00  0.00     0.125 A 
ATOM      6  N   UNL d   1       1.260  -0.695   2.403  0.00  0.00    -0.350 N 
ATOM      7  HN  UNL d   1       1.562  -1.627   2.686  1.00  0.00     0.166 HD
ATOM      8  O   UNL d   1       1.557  -0.475  -2.254  0.00  0.00    -0.237 OA
ATOM      9  C   UNL d   1       0.422   1.900   1.585  0.00  0.00     0.043 A 
ATOM     10  C   UNL d   1       0.851   0.249   3.288  0.00  0.00     0.090 A 
ATOM     11  C   UNL d   1       0.430   1.536   2.932  0.00  0.00     0.020 A 
ENDROOT
BRANCH   1  12
ATOM     12  C   UNL d   1       2.067  -2.339  -0.011  0.00  0.00     0.174 C 
BRANCH  12  13
ATOM     13  C   UNL d   1       3.579  -2.360   0.025  0.00  0.00    -0.040 A 
ATOM     14  C   UNL d   1       4.260  -2.384   1.251  0.00  0.00     0.010 A 
ATOM     15  C   UNL d   1       5.656  -2.340   1.286  0.00  0.00     0.024 A 
ATOM     16  C   UNL d   1       6.376  -2.268   0.095  0.00  0.00     0.034 A 
ATOM     17  C   UNL d   1       5.714  -2.249  -1.130  0.00  0.00     0.024 A 
ATOM     18 CL   UNL d   1       8.094  -2.182   0.140  0.00  0.00    -0.084 Cl
ATOM     19  C   UNL d   1       4.319  -2.293  -1.165  0.00  0.00     0.010 A 
ENDBRANCH  12  13
ENDBRANCH   1  12
TORSDOF 2
