REMARK  3 active torsions:
REMARK  status: ('A' for Active; 'I' for Inactive)
REMARK    1  A    between atoms: N_2  and  S_1 
REMARK    2  A    between atoms: C_4  and  S_1 
REMARK    3  A    between atoms: N_3  and  C_7 
ROOT
ATOM      1  N   UNL d   1       0.638  -1.533  -0.590  0.00  0.00    -0.307 N 
ATOM      2  C   UNL d   1       1.116  -4.064  -1.992  0.00  0.00     0.091 C 
ATOM      3  C   UNL d   1       1.015  -2.756   0.161  0.00  0.00     0.137 C 
ATOM      4  C   UNL d   1       0.979  -1.520  -2.030  0.00  0.00     0.137 C 
ATOM      5  C   UNL d   1       0.597  -2.823  -2.729  0.00  0.00     0.046 C 
ATOM      6  C   UNL d   1       0.555  -4.013  -0.563  0.00  0.00     0.046 C 
ENDROOT
BRANCH   1   7
ATOM      7  S   UNL d   1       0.955  -0.055   0.237  0.00  0.00     0.260 S 
ATOM      8  O   UNL d   1       0.313  -0.136   1.532  0.00  0.00    -0.200 OA
ATOM      9  O   UNL d   1       0.688   1.041  -0.669  0.00  0.00    -0.200 OA
BRANCH   7  10
ATOM     10  C   UNL d   1       2.722  -0.086   0.531  0.00  0.00     0.079 A 
ATOM     11  C   UNL d   1       3.610   0.405  -0.434  0.00  0.00     0.027 A 
ATOM     12  C   UNL d   1       4.980   0.443  -0.158  0.00  0.00     0.025 A 
ATOM     13  C   UNL d   1       5.456   0.006   1.082  0.00  0.00     0.034 A 
ATOM     14  C   UNL d   1       4.571  -0.469   2.050  0.00  0.00     0.025 A 
ATOM     15 CL   UNL d   1       7.138   0.080   1.428  0.00  0.00    -0.084 Cl
ATOM     16  C   UNL d   1       3.202  -0.511   1.779  0.00  0.00     0.027 A 
ENDBRANCH   7  10
ENDBRANCH   1   7
BRANCH   2  17
ATOM     17  N   UNL d   1       2.569  -4.261  -2.026  0.00  0.00    -0.362 N 
ATOM     18  C   UNL d   1       3.504  -3.523  -2.707  0.00  0.00     0.091 A 
ATOM     19  C   UNL d   1       4.755  -4.011  -2.402  0.00  0.00     0.019 A 
ATOM     20  C   UNL d   1       4.575  -5.135  -1.570  0.00  0.00     0.019 A 
ATOM     21  C   UNL d   1       3.220  -5.290  -1.383  0.00  0.00     0.091 A 
ENDBRANCH   2  17
TORSDOF 3
