REMARK  4 active torsions:
REMARK  status: ('A' for Active; 'I' for Inactive)
REMARK    1  A    between atoms: C_2  and  C_1 
REMARK       I    between atoms: N_7  and  C_2 
REMARK    2  A    between atoms: C_10  and  C_5 
REMARK    3  A    between atoms: C_9  and  N_8 
REMARK    4  A    between atoms: O_18  and  C_16 
ROOT
ATOM      1  C   UNL d   1      -2.654  -1.264   0.190  0.00  0.00     0.256 C 
ATOM      2  N   UNL d   1      -3.753  -0.400   0.319  0.00  0.00    -0.345 N 
ATOM      3  N   UNL d   1      -6.178   1.106   0.607  0.00  0.00    -0.376 N 
ATOM      4  O   UNL d   1      -2.418  -2.104   1.062  0.00  0.00    -0.267 OA
ATOM      5  C   UNL d   1      -4.131   0.637  -0.659  0.00  0.00     0.146 C 
ATOM      6  C   UNL d   1      -4.826  -0.840   1.217  0.00  0.00     0.146 C 
ATOM      7  C   UNL d   1      -5.067   1.742  -0.116  0.00  0.00     0.143 C 
ATOM      8  C   UNL d   1      -5.681   0.317   1.753  0.00  0.00     0.143 C 
ENDROOT
BRANCH   1   9
ATOM      9  C   UNL d   1      -1.791  -1.163  -0.983  0.00  0.00     0.063 C 
ATOM     10  C   UNL d   1      -2.096  -0.802  -2.327  0.00  0.00     0.053 C 
ATOM     11  C   UNL d   1      -0.919  -0.819  -3.046  0.00  0.00     0.062 C 
ATOM     12  O   UNL d   1       0.084  -1.267  -2.245  0.00  0.00    -0.318 OA
ATOM     13  C   UNL d   1      -0.451  -1.530  -1.021  0.00  0.00     0.065 C 
ATOM     14  C   UNL d   1       0.486  -2.128  -0.045  0.00  0.00     0.077 C 
BRANCH  11  15
ATOM     15  C   UNL d   1      -0.570  -0.513  -4.473  0.00  0.00    -0.002 C 
ATOM     16  C   UNL d   1      -1.814  -0.046  -5.255  0.00  0.00     0.021 C 
ATOM     17  C   UNL d   1       0.483   0.608  -4.529  0.00  0.00     0.021 C 
ATOM     18  C   UNL d   1      -0.016  -1.787  -5.130  0.00  0.00     0.021 C 
ENDBRANCH  11  15
ENDBRANCH   1   9
BRANCH   3  19
ATOM     19  C   UNL d   1      -7.355   1.846   0.751  0.00  0.00     0.064 A 
ATOM     20  C   UNL d   1      -8.195   2.185  -0.337  0.00  0.00     0.094 A 
ATOM     21  C   UNL d   1      -9.417   2.846  -0.121  0.00  0.00     0.039 A 
ATOM     22  C   UNL d   1      -9.831   3.192   1.161  0.00  0.00     0.003 A 
ATOM     23  C   UNL d   1      -9.005   2.914   2.238  0.00  0.00     0.002 A 
ATOM     24  C   UNL d   1      -7.789   2.256   2.031  0.00  0.00     0.032 A 
BRANCH  20  25
ATOM     25  O   UNL d   1      -7.934   2.000  -1.673  0.00  0.00    -0.354 OA
ATOM     26  C   UNL d   1      -7.485   0.715  -2.069  0.00  0.00     0.210 C 
ENDBRANCH  20  25
ENDBRANCH   3  19
TORSDOF 4
