REMARK  3 active torsions:
REMARK  status: ('A' for Active; 'I' for Inactive)
REMARK    1  A    between atoms: C_2  and  N_1 
REMARK    2  A    between atoms: S_4  and  C_3 
REMARK    3  A    between atoms: C_10  and  S_4 
ROOT
ATOM      1  C   UNL d   1       0.432   0.939   0.891  0.00  0.00     0.121 A 
ATOM      2  C   UNL d   1       0.729   2.309   0.763  0.00  0.00     0.055 A 
ATOM      3  C   UNL d   1      -0.003   3.182   1.595  0.00  0.00     0.053 A 
ATOM      4  C   UNL d   1      -0.513   0.438   1.801  0.00  0.00     0.037 A 
ATOM      5 CL   UNL d   1       0.137   4.906   1.515  0.00  0.00    -0.083 Cl
ATOM      6  C   UNL d   1      -1.202   1.323   2.620  0.00  0.00     0.004 A 
ATOM      7  C   UNL d   1      -0.945   2.688   2.517  0.00  0.00     0.025 A 
ENDROOT
BRANCH   2   8
ATOM      8  S   UNL d   1       1.860   2.886  -0.514  0.00  0.00    -0.122 SA
BRANCH   8   9
ATOM      9  C   UNL d   1       3.225   3.678   0.438  0.00  0.00     0.044 C 
ATOM     10  C   UNL d   1       3.878   2.737   1.446  0.00  0.00     0.021 C 
ATOM     11  C   UNL d   1       4.265   4.154  -0.578  0.00  0.00     0.021 C 
ENDBRANCH   8   9
ENDBRANCH   2   8
BRANCH   1  12
ATOM     12  N   UNL d   1       1.095  -0.048   0.059  0.00  0.00    -0.114 N 
ATOM     13  O   UNL d   1       2.280  -0.297   0.316  0.00  0.00    -0.532 OA
ATOM     14  O   UNL d   1       0.398  -0.621  -0.790  0.00  0.00    -0.532 OA
ENDBRANCH   1  12
TORSDOF 3
