REMARK  5 active torsions:
REMARK  status: ('A' for Active; 'I' for Inactive)
REMARK    1  A    between atoms: C_2  and  S_1 
REMARK    2  A    between atoms: C_7  and  S_1 
REMARK    3  A    between atoms: C_5  and  C_3 
REMARK    4  A    between atoms: C_4  and  C_5 
REMARK    5  A    between atoms: O_8  and  C_4 
ROOT
ATOM      1  C   UNL d   1       0.304   1.623   0.122  0.00  0.00     0.012 A 
ATOM      2  C   UNL d   1       0.619   2.378  -1.029  0.00  0.00    -0.031 A 
ATOM      3  C   UNL d   1      -0.558   2.164   1.096  0.00  0.00     0.019 A 
ATOM      4  C   UNL d   1       0.052   3.660  -1.161  0.00  0.00     0.009 A 
ATOM      5  C   UNL d   1      -1.110   3.436   0.942  0.00  0.00     0.001 A 
ATOM      6  C   UNL d   1      -0.795   4.186  -0.185  0.00  0.00     0.001 A 
ENDROOT
BRANCH   1   7
ATOM      7  S   UNL d   1       1.028   0.030   0.484  0.00  0.00    -0.090 SA
BRANCH   7   8
ATOM      8  C   UNL d   1      -0.191  -1.170  -0.032  0.00  0.00     0.005 A 
ATOM      9  C   UNL d   1      -1.367  -0.849  -0.718  0.00  0.00     0.019 A 
ATOM     10  C   UNL d   1      -2.242  -1.855  -1.141  0.00  0.00     0.001 A 
ATOM     11  C   UNL d   1      -1.952  -3.192  -0.880  0.00  0.00     0.000 A 
ATOM     12  C   UNL d   1      -0.791  -3.526  -0.190  0.00  0.00     0.001 A 
ATOM     13  C   UNL d   1       0.081  -2.520   0.236  0.00  0.00     0.019 A 
ENDBRANCH   7   8
ENDBRANCH   1   7
BRANCH   2  14
ATOM     14  C   UNL d   1       1.606   1.943  -2.100  0.00  0.00     0.149 C 
BRANCH  14  15
ATOM     15  C   UNL d   1       1.028   1.793  -3.495  0.00  0.00     0.143 C 
ATOM     16  O   UNL d   1       1.345   2.500  -4.438  0.00  0.00    -0.650 OA
BRANCH  15  17
ATOM     17  O   UNL d   1       0.147   0.775  -3.624  0.00  0.00    -0.776 OA
ATOM     18  H   UNL d   1       0.015   0.262  -2.804  0.00  0.00     0.167 HD
ENDBRANCH  15  17
ENDBRANCH  14  15
ENDBRANCH   2  14
TORSDOF 5
