REMARK  4 active torsions:
REMARK  status: ('A' for Active; 'I' for Inactive)
REMARK    1  A    between atoms: N_3  and  S_1 
REMARK    2  A    between atoms: C_8  and  S_1 
REMARK    3  A    between atoms: N_4  and  C_2 
REMARK    4  A    between atoms: N_5  and  C_6 
ROOT
ATOM      1  C   UNL d   1       0.469   4.058  -1.852  0.00  0.00     0.130 A 
ATOM      2  C   UNL d   1      -0.181   3.566  -2.999  0.00  0.00     0.064 A 
ATOM      3  C   UNL d   1       0.797   3.242  -0.747  0.00  0.00     0.063 A 
ATOM      4  C   UNL d   1       0.439   1.893  -0.748  0.00  0.00     0.082 A 
ATOM      5  C   UNL d   1      -0.561   2.205  -2.935  0.00  0.00     0.033 A 
ATOM      6  C   UNL d   1      -0.261   1.379  -1.838  0.00  0.00     0.028 A 
ENDROOT
BRANCH   4   7
ATOM      7  S   UNL d   1       1.155   0.774   0.454  0.00  0.00     0.261 S 
ATOM      8  O   UNL d   1       0.700  -0.559   0.123  0.00  0.00    -0.200 OA
ATOM      9  O   UNL d   1       2.566   1.100   0.484  0.00  0.00    -0.200 OA
BRANCH   7  10
ATOM     10  N   UNL d   1       0.496   1.187   1.940  0.00  0.00    -0.302 N 
ATOM     11  C   UNL d   1      -0.808   0.608   2.341  0.00  0.00     0.174 C 
ATOM     12  C   UNL d   1      -1.671   1.534   3.172  0.00  0.00    -0.033 A 
ATOM     13  C   UNL d   1      -3.067   1.454   3.144  0.00  0.00     0.009 A 
ATOM     14  C   UNL d   1      -1.055   2.495   3.992  0.00  0.00    -0.049 A 
ATOM     15  C   UNL d   1      -3.833   2.392   3.837  0.00  0.00     0.001 A 
ATOM     16  C   UNL d   1      -3.212   3.400   4.575  0.00  0.00     0.001 A 
ATOM     17  C   UNL d   1      -1.823   3.439   4.675  0.00  0.00     0.008 A 
ATOM     18  C   UNL d   1       0.446   2.484   4.059  0.00  0.00     0.060 C 
ATOM     19  C   UNL d   1       0.964   2.409   2.627  0.00  0.00     0.140 C 
ENDBRANCH   7  10
ENDBRANCH   4   7
BRANCH   1  20
ATOM     20  N   UNL d   1       0.950   5.421  -1.769  0.00  0.00    -0.113 N 
ATOM     21  O   UNL d   1       1.904   5.737  -2.494  0.00  0.00    -0.532 OA
ATOM     22  O   UNL d   1       0.402   6.152  -0.936  0.00  0.00    -0.532 OA
ENDBRANCH   1  20
BRANCH   2  23
ATOM     23  N   UNL d   1      -0.369   4.208  -4.231  0.00  0.00    -0.374 N 
ATOM     24  C   UNL d   1      -0.886   5.594  -4.339  0.00  0.00     0.162 C 
ATOM     25  C   UNL d   1      -0.286   6.406  -5.479  0.00  0.00    -0.034 A 
ATOM     26  C   UNL d   1      -0.307   7.808  -5.450  0.00  0.00     0.009 A 
ATOM     27  C   UNL d   1       0.256   5.767  -6.608  0.00  0.00    -0.049 A 
ATOM     28  C   UNL d   1       0.232   8.550  -6.506  0.00  0.00     0.001 A 
ATOM     29  C   UNL d   1       0.780   7.904  -7.611  0.00  0.00     0.001 A 
ATOM     30  C   UNL d   1       0.784   6.512  -7.670  0.00  0.00     0.008 A 
ATOM     31  C   UNL d   1       0.269   4.267  -6.628  0.00  0.00     0.059 C 
ATOM     32  C   UNL d   1       0.638   3.780  -5.230  0.00  0.00     0.128 C 
ENDBRANCH   2  23
TORSDOF 4
