REMARK  7 active torsions:
REMARK  status: ('A' for Active; 'I' for Inactive)
REMARK    1  A    between atoms: C_4  and  C_1 
REMARK    2  A    between atoms: O_11  and  C_4 
REMARK    3  A    between atoms: C_13  and  C_7 
REMARK    4  A    between atoms: N_14  and  C_7 
REMARK    5  A    between atoms: N_8  and  O_11 
REMARK    6  A    between atoms: O_15  and  C_13 
REMARK    7  A    between atoms: C_16  and  O_15 
ROOT
ATOM      1  C   UNL d   1      -5.086   1.069   0.013  0.00  0.00     0.100 C 
ATOM      2  N   UNL d   1      -4.556   1.287  -1.151  0.00  0.00    -0.248 N 
ATOM      3  HN  UNL d   1      -4.933   0.915  -2.023  1.00  0.00     0.196 HD
ENDROOT
BRANCH   1   4
ATOM      4  C   UNL d   1      -6.368   0.218   0.053  0.00  0.00     0.247 C 
BRANCH   4   5
ATOM      5  O   UNL d   1      -6.034  -1.163   0.159  0.00  0.00    -0.344 OA
BRANCH   5   6
ATOM      6  C   UNL d   1      -7.098  -2.027   0.099  0.00  0.00     0.069 A 
ATOM      7  C   UNL d   1      -6.829  -3.297  -0.418  0.00  0.00     0.037 A 
ATOM      8  C   UNL d   1      -7.837  -4.266  -0.493  0.00  0.00     0.009 A 
ATOM      9  C   UNL d   1      -9.129  -3.983  -0.036  0.00  0.00    -0.062 A 
ATOM     10  C   UNL d   1      -9.393  -2.715   0.491  0.00  0.00     0.009 A 
ATOM     11  C   UNL d   1     -10.203  -5.029  -0.104  0.00  0.00     0.048 C 
ATOM     12  C   UNL d   1      -8.386  -1.744   0.559  0.00  0.00     0.037 A 
ENDBRANCH   5   6
ENDBRANCH   4   5
ENDBRANCH   1   4
BRANCH   1  13
ATOM     13  N   UNL d   1      -4.592   1.545   1.207  0.00  0.00    -0.289 NA
ATOM     14  H   UNL d   1      -3.629   1.863   1.158  0.00  0.00     0.125 HD
ATOM     15  H   UNL d   1      -4.793   0.987   2.031  0.00  0.00     0.125 HD
ENDBRANCH   1  13
BRANCH   2  16
ATOM     16  O   UNL d   1      -3.396   2.099  -1.077  0.00  0.00    -0.193 OA
BRANCH  16  17
ATOM     17  C   UNL d   1      -2.952   2.366  -2.360  0.00  0.00     0.333 C 
ATOM     18  O   UNL d   1      -3.488   1.962  -3.389  0.00  0.00    -0.256 OA
BRANCH  17  19
ATOM     19  C   UNL d   1      -1.752   3.195  -2.412  0.00  0.00     0.134 A 
ATOM     20  N   UNL d   1      -1.118   3.688  -1.333  0.00  0.00    -0.255 N 
ATOM     21  O   UNL d   1      -0.037   4.411  -1.822  0.00  0.00    -0.242 OA
ATOM     22  HN  UNL d   1      -1.377   3.558  -0.356  1.00  0.00     0.195 HD
ATOM     23  C   UNL d   1      -0.022   4.351  -3.181  0.00  0.00     0.075 A 
ATOM     24  C   UNL d   1      -1.084   3.598  -3.604  0.00  0.00     0.072 A 
ATOM     25  C   UNL d   1       1.067   5.060  -3.878  0.00  0.00     0.079 C 
ENDBRANCH  17  19
ENDBRANCH  16  17
ENDBRANCH   2  16
TORSDOF 7
