REMARK  6 active torsions:
REMARK  status: ('A' for Active; 'I' for Inactive)
REMARK    1  A    between atoms: C_3  and  C_7 
REMARK    2  A    between atoms: C_4  and  C_9 
REMARK    3  A    between atoms: O_10  and  C_4 
REMARK    4  A    between atoms: N_5  and  O_10 
REMARK    5  A    between atoms: C_11  and  C_8 
REMARK    6  A    between atoms: N_18  and  C_8 
ROOT
ATOM      1  O   UNL d   1      -2.750  -2.646   0.075  0.00  0.00    -0.192 OA
ENDROOT
BRANCH   1   2
ATOM      2  N   UNL d   1      -3.443  -1.411   0.012  0.00  0.00    -0.246 N 
ATOM      3  C   UNL d   1      -4.734  -1.527   0.117  0.00  0.00     0.109 C 
ATOM      4  HN  UNL d   1      -2.973  -0.513  -0.106  1.00  0.00     0.196 HD
BRANCH   3   5
ATOM      5  C   UNL d   1      -5.548  -0.254   0.049  0.00  0.00     0.004 A 
ATOM      6  C   UNL d   1      -4.894   0.975  -0.128  0.00  0.00     0.015 A 
ATOM      7  C   UNL d   1      -5.617   2.171  -0.189  0.00  0.00     0.007 A 
ATOM      8  C   UNL d   1      -7.011   2.164  -0.079  0.00  0.00    -0.062 A 
ATOM      9  C   UNL d   1      -7.667   0.941   0.099  0.00  0.00     0.007 A 
ATOM     10  C   UNL d   1      -7.773   3.456  -0.140  0.00  0.00     0.048 C 
ATOM     11  C   UNL d   1      -6.944  -0.258   0.169  0.00  0.00     0.015 A 
ENDBRANCH   3   5
BRANCH   3  12
ATOM     12  N   UNL d   1      -5.363  -2.739   0.276  0.00  0.00    -0.286 NA
ATOM     13  H   UNL d   1      -4.738  -3.520   0.100  0.00  0.00     0.125 HD
ATOM     14  H   UNL d   1      -6.255  -2.851  -0.189  0.00  0.00     0.125 HD
ENDBRANCH   3  12
ENDBRANCH   1   2
BRANCH   1  15
ATOM     15  C   UNL d   1      -1.413  -2.385  -0.064  0.00  0.00     0.331 C 
ATOM     16  O   UNL d   1      -0.890  -1.283  -0.222  0.00  0.00    -0.256 OA
BRANCH  15  17
ATOM     17  C   UNL d   1      -0.581  -3.628  -0.013  0.00  0.00     0.110 A 
ATOM     18  N   UNL d   1      -1.175  -4.839   0.159  0.00  0.00    -0.347 N 
ATOM     19  C   UNL d   1      -0.354  -5.939   0.200  0.00  0.00     0.117 A 
ATOM     20  HN  UNL d   1      -2.187  -4.926   0.254  1.00  0.00     0.166 HD
ATOM     21  C   UNL d   1       1.035  -5.841   0.068  0.00  0.00     0.034 A 
ATOM     22  C   UNL d   1       1.616  -4.592  -0.109  0.00  0.00     0.005 A 
ATOM     23  C   UNL d   1       0.799  -3.470  -0.148  0.00  0.00     0.036 A 
BRANCH  19  24
ATOM     24  C   UNL d   1      -0.941  -7.335   0.397  0.00  0.00     0.432 C 
ATOM     25  F   UNL d   1      -2.297  -7.367   0.522  0.00  0.00    -0.165 F 
ATOM     26  F   UNL d   1      -0.643  -8.171  -0.641  0.00  0.00    -0.165 F 
ATOM     27  F   UNL d   1      -0.447  -7.952   1.510  0.00  0.00    -0.165 F 
ENDBRANCH  19  24
ENDBRANCH  15  17
ENDBRANCH   1  15
TORSDOF 6
