REMARK  5 active torsions:
REMARK  status: ('A' for Active; 'I' for Inactive)
REMARK    1  A    between atoms: C_9  and  N_1 
REMARK    2  A    between atoms: C_10  and  N_6 
REMARK    3  A    between atoms: C_11  and  C_8 
REMARK    4  A    between atoms: O_26  and  C_14 
REMARK    5  A    between atoms: O_27  and  C_20 
ROOT
ATOM      1  N   UNL d   1      -1.795   0.129   0.615  0.00  0.00    -0.247 N 
ATOM      2  C   UNL d   1      -0.035  -0.658  -0.687  0.00  0.00     0.260 C 
ATOM      3  C   UNL d   1       0.053   0.844  -0.647  0.00  0.00     0.149 C 
ATOM      4  C   UNL d   1      -1.358  -0.983  -0.065  0.00  0.00     0.263 C 
ATOM      5  C   UNL d   1      -0.931   1.188   0.447  0.00  0.00     0.241 C 
ATOM      6  N   UNL d   1       1.724  -0.091   0.625  0.00  0.00    -0.247 N 
ATOM      7  O   UNL d   1       0.934  -1.182   0.232  0.00  0.00    -0.261 OA
ATOM      8  C   UNL d   1       1.476   1.093  -0.197  0.00  0.00     0.164 C 
ATOM      9  O   UNL d   1      -1.888  -2.088  -0.105  0.00  0.00    -0.270 OA
ATOM     10  O   UNL d   1      -0.932   2.258   1.038  0.00  0.00    -0.272 OA
ENDROOT
BRANCH   1  11
ATOM     11  C   UNL d   1      -2.542  -0.044   1.804  0.00  0.00     0.078 A 
ATOM     12  C   UNL d   1      -3.901   0.279   1.924  0.00  0.00     0.095 A 
ATOM     13  C   UNL d   1      -4.556  -0.001   3.134  0.00  0.00     0.039 A 
ATOM     14  C   UNL d   1      -3.889  -0.602   4.205  0.00  0.00     0.003 A 
ATOM     15  C   UNL d   1      -2.540  -0.909   4.091  0.00  0.00     0.002 A 
ATOM     16  C   UNL d   1      -1.872  -0.629   2.900  0.00  0.00     0.033 A 
BRANCH  12  17
ATOM     17  O   UNL d   1      -4.717   0.881   1.007  0.00  0.00    -0.354 OA
ATOM     18  C   UNL d   1      -4.458   0.650  -0.367  0.00  0.00     0.210 C 
ENDBRANCH  12  17
ENDBRANCH   1  11
BRANCH   8  19
ATOM     19  C   UNL d   1       2.476   1.178  -1.351  0.00  0.00    -0.032 A 
ATOM     20  C   UNL d   1       3.458   0.190  -1.564  0.00  0.00     0.012 A 
ATOM     21  C   UNL d   1       4.410   0.319  -2.575  0.00  0.00     0.037 A 
ATOM     22  C   UNL d   1       4.391   1.435  -3.394  0.00  0.00     0.065 A 
ATOM     23  C   UNL d   1       3.427   2.424  -3.222  0.00  0.00     0.037 A 
ATOM     24  C   UNL d   1       2.475   2.297  -2.203  0.00  0.00     0.012 A 
BRANCH  22  25
ATOM     25  O   UNL d   1       5.349   1.525  -4.358  0.00  0.00    -0.361 OA
ATOM     26  H   UNL d   1       5.249   2.370  -4.825  0.00  0.00     0.217 HD
ENDBRANCH  22  25
ENDBRANCH   8  19
BRANCH   6  27
ATOM     27  C   UNL d   1       2.437  -0.091   1.818  0.00  0.00     0.058 A 
ATOM     28  C   UNL d   1       2.265  -1.135   2.741  0.00  0.00     0.033 A 
ATOM     29  C   UNL d   1       2.978  -1.174   3.942  0.00  0.00     0.026 A 
ATOM     30  C   UNL d   1       3.901  -0.175   4.226  0.00  0.00     0.034 A 
ATOM     31  C   UNL d   1       4.107   0.862   3.324  0.00  0.00     0.026 A 
ATOM     32 CL   UNL d   1       4.801  -0.230   5.690  0.00  0.00    -0.084 Cl
ATOM     33  C   UNL d   1       3.374   0.904   2.132  0.00  0.00     0.033 A 
ENDBRANCH   6  27
TORSDOF 5
