REMARK  2 active torsions:
REMARK  status: ('A' for Active; 'I' for Inactive)
REMARK    1  A    between atoms: O_11  and  C_1 
REMARK    2  A    between atoms: O_12  and  C_5 
ROOT
ATOM      1  C   UNL d   1       0.782   1.410  -0.335  0.00  0.00     0.152 C 
ATOM      2  C   UNL d   1       1.268   1.862  -1.667  0.00  0.00     0.098 C 
ATOM      3  C   UNL d   1      -0.760   1.439  -0.263  0.00  0.00     0.092 C 
ATOM      4  N   UNL d   1       1.633   2.239  -2.702  0.00  0.00    -0.194 NA
ATOM      5  C   UNL d   1      -1.314   0.037   0.088  0.00  0.00     0.064 C 
ATOM      6  C   UNL d   1       1.293  -0.023  -0.015  0.00  0.00     0.035 C 
ATOM      7  C   UNL d   1       0.708  -1.025  -1.026  0.00  0.00     0.011 C 
ATOM      8  C   UNL d   1       0.802  -0.456   1.384  0.00  0.00     0.011 C 
ATOM      9  C   UNL d   1      -0.822  -0.952  -0.998  0.00  0.00     0.038 C 
ATOM     10  C   UNL d   1      -0.731  -0.422   1.442  0.00  0.00     0.038 C 
ENDROOT
BRANCH   1  11
ATOM     11  O   UNL d   1       1.290   2.297   0.680  0.00  0.00    -0.375 OA
ATOM     12  H   UNL d   1       1.071   3.209   0.414  0.00  0.00     0.211 HD
ENDBRANCH   1  11
BRANCH   5  13
ATOM     13  O   UNL d   1      -2.741  -0.016   0.056  0.00  0.00    -0.385 OA
ATOM     14  C   UNL d   1      -3.441   0.832   0.954  0.00  0.00     0.202 C 
ENDBRANCH   5  13
TORSDOF 2
