REMARK  9 active torsions:
REMARK  status: ('A' for Active; 'I' for Inactive)
REMARK    1  A    between atoms: C_2  and  N_1 
REMARK    2  A    between atoms: N_5  and  C_2 
REMARK    3  A    between atoms: C_15  and  C_3 
REMARK    4  A    between atoms: C_8  and  N_5 
REMARK    5  A    between atoms: O_27  and  C_10 
REMARK    6  A    between atoms: O_29  and  C_13 
REMARK    7  A    between atoms: C_21  and  C_15 
REMARK    8  A    between atoms: O_30  and  C_16 
REMARK    9  A    between atoms: O_32  and  C_19 
ROOT
ATOM      1  N   UNL d   1       2.207   0.684   0.281  0.00  0.00    -0.349 N 
ATOM      2  C   UNL d   1       1.218   1.200  -0.700  0.00  0.00     0.124 C 
ATOM      3  C   UNL d   1      -0.127   0.556  -0.391  0.00  0.00    -0.026 A 
ATOM      4  C   UNL d   1      -0.181  -0.826  -0.173  0.00  0.00    -0.045 A 
ATOM      5  C   UNL d   1      -1.296   1.321  -0.279  0.00  0.00     0.049 A 
ATOM      6  C   UNL d   1       2.138  -0.749   0.649  0.00  0.00     0.130 C 
ATOM      7  C   UNL d   1      -2.527   0.722   0.029  0.00  0.00     0.102 A 
ATOM      8  C   UNL d   1      -1.411  -1.439   0.053  0.00  0.00     0.047 A 
ATOM      9  C   UNL d   1      -2.587  -0.679   0.159  0.00  0.00     0.102 A 
ATOM     10  C   UNL d   1       1.119  -1.579  -0.144  0.00  0.00     0.059 C 
ENDROOT
BRANCH   1  11
ATOM     11  C   UNL d   1       3.043   1.562   0.982  0.00  0.00     0.175 C 
ATOM     12  S   UNL d   1       3.830   2.853   0.246  0.00  0.00    -0.041 SA
BRANCH  11  13
ATOM     13  N   UNL d   1       3.047   1.294   2.350  0.00  0.00    -0.332 N 
ATOM     14  H   UNL d   1       2.101   1.207   2.713  0.00  0.00     0.168 HD
BRANCH  13  15
ATOM     15  C   UNL d   1       3.980   1.823   3.274  0.00  0.00     0.057 A 
ATOM     16  C   UNL d   1       5.351   1.661   3.041  0.00  0.00     0.055 A 
ATOM     17  C   UNL d   1       6.275   2.191   3.933  0.00  0.00     0.036 A 
ATOM     18 CL   UNL d   1       7.957   1.979   3.639  0.00  0.00    -0.084 Cl
ATOM     19  C   UNL d   1       5.851   2.885   5.064  0.00  0.00     0.026 A 
ATOM     20  C   UNL d   1       4.484   3.016   5.326  0.00  0.00     0.028 A 
ATOM     21  C   UNL d   1       3.550   2.465   4.446  0.00  0.00     0.060 A 
ATOM     22 CL   UNL d   1       1.869   2.649   4.802  0.00  0.00    -0.082 Cl
ENDBRANCH  13  15
ENDBRANCH  11  13
ENDBRANCH   1  11
BRANCH   2  23
ATOM     23  C   UNL d   1       1.687   1.011  -2.169  0.00  0.00     0.068 C 
BRANCH  23  24
ATOM     24  C   UNL d   1       0.696   1.531  -3.189  0.00  0.00    -0.053 A 
ATOM     25  C   UNL d   1       0.713   2.876  -3.589  0.00  0.00     0.046 A 
ATOM     26  C   UNL d   1      -0.261   3.392  -4.463  0.00  0.00     0.102 A 
ATOM     27  C   UNL d   1      -1.262   2.530  -4.947  0.00  0.00     0.101 A 
ATOM     28  C   UNL d   1      -1.270   1.187  -4.551  0.00  0.00     0.040 A 
ATOM     29  C   UNL d   1      -0.296   0.686  -3.691  0.00  0.00     0.010 A 
BRANCH  26  30
ATOM     30  O   UNL d   1      -0.311   4.709  -4.836  0.00  0.00    -0.353 OA
ATOM     31  C   UNL d   1       0.715   5.578  -4.377  0.00  0.00     0.210 C 
ENDBRANCH  26  30
BRANCH  27  32
ATOM     32  O   UNL d   1      -2.325   2.837  -5.759  0.00  0.00    -0.353 OA
ATOM     33  C   UNL d   1      -2.201   3.961  -6.617  0.00  0.00     0.210 C 
ENDBRANCH  27  32
ENDBRANCH  23  24
ENDBRANCH   2  23
BRANCH   7  34
ATOM     34  O   UNL d   1      -3.673   1.450   0.211  0.00  0.00    -0.353 OA
ATOM     35  C   UNL d   1      -3.565   2.867   0.275  0.00  0.00     0.210 C 
ENDBRANCH   7  34
BRANCH   9  36
ATOM     36  O   UNL d   1      -3.678  -1.472   0.411  0.00  0.00    -0.353 OA
ATOM     37  C   UNL d   1      -4.948  -0.861   0.573  0.00  0.00     0.210 C 
ENDBRANCH   9  36
TORSDOF 9
