REMARK  6 active torsions:
REMARK  status: ('A' for Active; 'I' for Inactive)
REMARK    1  A    between atoms: C_2  and  C_1 
REMARK    2  A    between atoms: C_3  and  N_5 
REMARK    3  A    between atoms: N_6  and  C_3 
REMARK    4  A    between atoms: N_5  and  C_4 
REMARK    5  A    between atoms: C_7  and  N_6 
REMARK    6  A    between atoms: N_13  and  C_9 
ROOT
ATOM      1  C   UNL d   1      -1.201  -0.759   0.546  0.00  0.00     0.176 C 
ATOM      2  S   UNL d   1      -2.403  -1.814   0.051  0.00  0.00    -0.041 SA
ENDROOT
BRANCH   1   3
ATOM      3  N   UNL d   1      -1.119  -0.163   1.778  0.00  0.00    -0.332 N 
ATOM      4  H   UNL d   1      -0.175  -0.204   2.151  0.00  0.00     0.168 HD
BRANCH   3   5
ATOM      5  C   UNL d   1      -2.130   0.323   2.637  0.00  0.00     0.049 A 
ATOM      6  C   UNL d   1      -1.861   0.502   4.007  0.00  0.00     0.074 A 
ATOM      7  C   UNL d   1      -2.754   1.264   4.791  0.00  0.00     0.018 A 
ATOM      8  C   UNL d   1      -3.934   1.763   4.248  0.00  0.00     0.001 A 
ATOM      9  C   UNL d   1      -4.250   1.486   2.925  0.00  0.00     0.002 A 
ATOM     10  C   UNL d   1      -3.351   0.781   2.119  0.00  0.00     0.030 A 
BRANCH   6  11
ATOM     11  C   UNL d   1      -0.683  -0.128   4.705  0.00  0.00     0.419 C 
ATOM     12  F   UNL d   1      -0.035  -1.079   3.975  0.00  0.00    -0.166 F 
ATOM     13  F   UNL d   1      -1.034  -0.740   5.873  0.00  0.00    -0.166 F 
ATOM     14  F   UNL d   1       0.273   0.786   5.041  0.00  0.00    -0.166 F 
ENDBRANCH   6  11
ENDBRANCH   3   5
ENDBRANCH   1   3
BRANCH   1  15
ATOM     15  N   UNL d   1      -0.116  -0.594  -0.269  0.00  0.00    -0.332 N 
ATOM     16  H   UNL d   1      -0.005  -1.304  -0.986  0.00  0.00     0.168 HD
BRANCH  15  17
ATOM     17  C   UNL d   1       0.858   0.431  -0.350  0.00  0.00     0.055 A 
ATOM     18  C   UNL d   1       1.954   0.183  -1.208  0.00  0.00     0.033 A 
ATOM     19  C   UNL d   1       2.910   1.184  -1.417  0.00  0.00     0.025 A 
ATOM     20  C   UNL d   1       2.817   2.398  -0.736  0.00  0.00     0.002 A 
ATOM     21  C   UNL d   1       1.745   2.635   0.121  0.00  0.00     0.002 A 
ATOM     22  C   UNL d   1       0.761   1.658   0.308  0.00  0.00     0.031 A 
BRANCH  18  23
ATOM     23  N   UNL d   1       1.951  -0.968  -2.039  0.00  0.00    -0.301 NA
ATOM     24  H   UNL d   1       1.381  -0.784  -2.866  0.00  0.00     0.124 HD
ATOM     25  H   UNL d   1       2.894  -1.200  -2.345  0.00  0.00     0.124 HD
ENDBRANCH  18  23
ENDBRANCH  15  17
ENDBRANCH   1  15
TORSDOF 6
