REMARK  7 active torsions:
REMARK  status: ('A' for Active; 'I' for Inactive)
REMARK    1  A    between atoms: C_2  and  C_1 
REMARK       I    between atoms: N_8  and  C_2 
REMARK       I    between atoms: C_4  and  N_13 
REMARK       I    between atoms: N_11  and  C_4 
REMARK    2  A    between atoms: C_7  and  C_5 
REMARK    3  A    between atoms: N_13  and  N_8 
REMARK    4  A    between atoms: C_9  and  N_11 
REMARK    5  A    between atoms: C_23  and  C_10 
REMARK    6  A    between atoms: C_24  and  C_23 
REMARK    7  A    between atoms: C_25  and  C_24 
ROOT
ATOM      1  C   UNL d   1      -0.656  -2.455   0.253  0.00  0.00     0.293 C 
ATOM      2  N   UNL d   1       0.403  -3.320   0.442  0.00  0.00    -0.260 N 
ATOM      3  O   UNL d   1      -1.815  -2.875   0.204  0.00  0.00    -0.264 OA
ATOM      4  H   UNL d   1       1.365  -2.995   0.537  0.00  0.00     0.190 HD
ENDROOT
BRANCH   2   5
ATOM      5  N   UNL d   1       0.137  -4.670   0.765  0.00  0.00    -0.248 N 
ATOM      6  C   UNL d   1       1.229  -5.507   0.913  0.00  0.00     0.339 C 
ATOM      7  N   UNL d   1       0.858  -6.819   1.138  0.00  0.00    -0.308 N 
ATOM      8  O   UNL d   1       2.373  -5.065   0.867  0.00  0.00    -0.245 OA
ATOM      9  H   UNL d   1      -0.132  -6.986   1.254  0.00  0.00     0.170 HD
ATOM     10  H   UNL d   1      -0.754  -5.021   0.423  0.00  0.00     0.192 HD
BRANCH   7  11
ATOM     11  C   UNL d   1       1.716  -7.937   1.261  0.00  0.00     0.039 A 
ATOM     12  C   UNL d   1       3.108  -7.858   1.153  0.00  0.00     0.053 A 
ATOM     13  C   UNL d   1       3.892  -9.012   1.228  0.00  0.00     0.037 A 
ATOM     14 CL   UNL d   1       5.603  -8.891   1.071  0.00  0.00    -0.084 Cl
ATOM     15  C   UNL d   1       3.308 -10.259   1.416  0.00  0.00     0.048 A 
ATOM     16  C   UNL d   1       1.927 -10.340   1.546  0.00  0.00     0.037 A 
ATOM     17  C   UNL d   1       1.130  -9.192   1.474  0.00  0.00     0.053 A 
ATOM     18 CL   UNL d   1       1.188 -11.877   1.784  0.00  0.00    -0.084 Cl
ENDBRANCH   7  11
ENDBRANCH   2   5
BRANCH   1  19
ATOM     19  C   UNL d   1      -0.309  -1.053   0.135  0.00  0.00     0.146 A 
ATOM     20  O   UNL d   1       1.004  -0.637   0.159  0.00  0.00    -0.296 OA
ATOM     21  C   UNL d   1       0.985   0.721   0.048  0.00  0.00     0.129 A 
ATOM     22  C   UNL d   1      -0.304   1.189  -0.046  0.00  0.00     0.050 A 
ATOM     23  C   UNL d   1      -1.137   0.049   0.005  0.00  0.00     0.046 A 
BRANCH  21  24
ATOM     24  C   UNL d   1       2.213   1.435   0.051  0.00  0.00    -0.041 C 
ATOM     25  C   UNL d   1       3.196   2.125   0.044  0.00  0.00    -0.099 C 
BRANCH  25  26
ATOM     26  C   UNL d   1       4.378   3.005   0.023  0.00  0.00     0.094 C 
BRANCH  26  27
ATOM     27  C   UNL d   1       4.016   4.448   0.393  0.00  0.00     0.012 C 
BRANCH  27  28
ATOM     28  C   UNL d   1       5.249   5.356   0.388  0.00  0.00    -0.004 C 
ATOM     29  C   UNL d   1       4.902   6.789   0.763  0.00  0.00     0.005 C 
ENDBRANCH  27  28
ENDBRANCH  26  27
ENDBRANCH  25  26
ENDBRANCH  21  24
ENDBRANCH   1  19
TORSDOF 7
