REMARK  3 active torsions:
REMARK  status: ('A' for Active; 'I' for Inactive)
REMARK    1  A    between atoms: N_2  and  C_1 
REMARK    2  A    between atoms: N_3  and  C_1 
REMARK    3  A    between atoms: C_4  and  N_3 
ROOT
ATOM      1  C   UNL d   1       0.998  -0.117  -0.063  0.00  0.00     0.174 C 
ATOM      2  S   UNL d   1       0.255  -0.703   1.336  0.00  0.00    -0.041 SA
ENDROOT
BRANCH   1   3
ATOM      3  N   UNL d   1       0.457   0.892  -0.874  0.00  0.00    -0.353 N 
ATOM      4  C   UNL d   1       0.869   1.153  -2.265  0.00  0.00     0.157 C 
ATOM      5  C   UNL d   1       1.015   2.656  -2.559  0.00  0.00     0.136 C 
ATOM      6  C   UNL d   1       1.238   2.893  -4.048  0.00  0.00     0.041 C 
ATOM      7  O   UNL d   1      -0.172   3.374  -2.184  0.00  0.00    -0.378 OA
ATOM      8  C   UNL d   1      -0.442   3.206  -0.781  0.00  0.00     0.136 C 
ATOM      9  C   UNL d   1      -0.695   1.722  -0.459  0.00  0.00     0.157 C 
ATOM     10  C   UNL d   1      -1.654   4.059  -0.436  0.00  0.00     0.041 C 
ENDBRANCH   1   3
BRANCH   1  11
ATOM     11  N   UNL d   1       2.172  -0.665  -0.571  0.00  0.00    -0.331 N 
ATOM     12  H   UNL d   1       2.021  -1.070  -1.483  0.00  0.00     0.168 HD
BRANCH  11  13
ATOM     13  C   UNL d   1       3.228  -1.237   0.198  0.00  0.00     0.062 C 
ATOM     14  C   UNL d   1       3.727  -0.610   1.366  0.00  0.00     0.061 C 
ATOM     15 CL   UNL d   1       3.348   1.033   1.786  0.00  0.00    -0.082 Cl
ATOM     16  C   UNL d   1       4.675  -1.245   2.174  0.00  0.00     0.026 C 
ATOM     17  C   UNL d   1       5.180  -2.486   1.810  0.00  0.00     0.002 C 
ATOM     18  C   UNL d   1       4.783  -3.062   0.607  0.00  0.00     0.009 C 
ATOM     19  C   UNL d   1       3.834  -2.439  -0.231  0.00  0.00    -0.034 C 
ATOM     20  C   UNL d   1       3.518  -3.156  -1.517  0.00  0.00     0.050 C 
ENDBRANCH  11  13
ENDBRANCH   1  11
TORSDOF 3
