REMARK  6 active torsions:
REMARK  status: ('A' for Active; 'I' for Inactive)
REMARK    1  A    between atoms: C_8  and  C_2 
REMARK    2  A    between atoms: S_19  and  C_5 
REMARK    3  A    between atoms: C_23  and  S_19 
REMARK    4  A    between atoms: C_20  and  C_23 
REMARK       I    between atoms: N_21  and  C_20 
REMARK    5  A    between atoms: C_25  and  N_21 
REMARK    6  A    between atoms: O_31  and  C_26 
ROOT
ATOM      1  N   UNL d   1      -0.280  -0.043   1.509  0.00  0.00    -0.315 N 
ATOM      2  C   UNL d   1      -0.383   1.121   0.773  0.00  0.00     0.134 C 
ATOM      3  N   UNL d   1       0.584   1.111  -0.129  0.00  0.00    -0.283 N 
ATOM      4  HN  UNL d   1       0.817   1.880  -0.757  1.00  0.00     0.188 HD
ATOM      5  C   UNL d   1       0.662  -0.807   0.871  0.00  0.00     0.163 C 
ATOM      6  N   UNL d   1       1.221  -0.104  -0.083  0.00  0.00    -0.278 N 
ATOM      7  HN  UNL d   1       1.989  -0.405  -0.683  1.00  0.00     0.189 HD
ATOM      8  C   UNL d   1      -0.939  -0.385   2.743  0.00  0.00     0.160 C 
ENDROOT
BRANCH   5   9
ATOM      9  S   UNL d   1       0.996  -2.463   1.267  0.00  0.00    -0.083 SA
BRANCH   9  10
ATOM     10  C   UNL d   1       2.318  -2.800   0.073  0.00  0.00     0.185 C 
BRANCH  10  11
ATOM     11  C   UNL d   1       2.799  -4.242   0.002  0.00  0.00     0.231 C 
ATOM     12  N   UNL d   1       2.051  -5.198   0.669  0.00  0.00    -0.327 N 
ATOM     13  H   UNL d   1       1.182  -4.883   1.083  0.00  0.00     0.169 HD
ATOM     14  O   UNL d   1       3.789  -4.485  -0.689  0.00  0.00    -0.272 OA
BRANCH  12  15
ATOM     15  C   UNL d   1       2.305  -6.591   0.687  0.00  0.00     0.034 A 
ATOM     16  C   UNL d   1       3.512  -7.154   0.264  0.00  0.00     0.032 A 
ATOM     17  C   UNL d   1       3.686  -8.541   0.215  0.00  0.00     0.039 A 
ATOM     18  C   UNL d   1       2.652  -9.393   0.593  0.00  0.00     0.068 A 
ATOM     19  C   UNL d   1       1.467  -8.837   1.078  0.00  0.00     0.039 A 
ATOM     20  C   UNL d   1       1.295  -7.447   1.137  0.00  0.00     0.032 A 
BRANCH  18  21
ATOM     21  O   UNL d   1       2.683 -10.759   0.534  0.00  0.00    -0.356 OA
ATOM     22  C   UNL d   1       3.809 -11.339  -0.119  0.00  0.00     0.210 C 
ENDBRANCH  18  21
ENDBRANCH  12  15
ENDBRANCH  10  11
ENDBRANCH   9  10
ENDBRANCH   5   9
BRANCH   2  23
ATOM     23  C   UNL d   1      -1.385   2.189   0.908  0.00  0.00     0.012 A 
ATOM     24  C   UNL d   1      -0.979   3.528   0.685  0.00  0.00     0.049 A 
ATOM     25  C   UNL d   1      -2.002   4.492   0.768  0.00  0.00     0.086 A 
ATOM     26  N   UNL d   1      -1.941   5.820   0.597  0.00  0.00    -0.240 N 
ATOM     27  C   UNL d   1      -3.383   4.138   1.056  0.00  0.00     0.085 A 
ATOM     28  O   UNL d   1      -3.231   6.283   0.773  0.00  0.00    -0.156 OA
ATOM     29  HN  UNL d   1      -1.113   6.374   0.382  1.00  0.00     0.197 HD
ATOM     30  N   UNL d   1      -4.118   5.256   1.063  0.00  0.00    -0.240 N 
ATOM     31  HN  UNL d   1      -5.119   5.337   1.243  1.00  0.00     0.197 HD
ATOM     32  C   UNL d   1      -3.790   2.812   1.274  0.00  0.00     0.035 A 
ATOM     33  C   UNL d   1      -2.753   1.861   1.167  0.00  0.00     0.018 A 
ENDBRANCH   2  23
TORSDOF 6
