REMARK  1 active torsions:
REMARK  status: ('A' for Active; 'I' for Inactive)
REMARK    1  A    between atoms: O_12  and  C_11 
ROOT
ATOM      1  C   UNL d   1      -0.680  -0.679   0.224  0.00  0.00     0.067 A 
ATOM      2  C   UNL d   1      -0.676   0.649  -0.022  0.00  0.00     0.067 A 
ATOM      3  S   UNL d   1      -2.255  -1.455   0.309  0.00  0.00    -0.062 SA
ATOM      4  S   UNL d   1      -2.254   1.393  -0.266  0.00  0.00    -0.062 SA
ATOM      5  C   UNL d   1      -3.221  -0.046  -0.056  0.00  0.00     0.115 A 
ATOM      6  S   UNL d   1       0.655   1.758  -0.194  0.00  0.00    -0.118 SA
ATOM      7  S   UNL d   1       0.667  -1.747   0.493  0.00  0.00    -0.118 SA
ATOM      8  S   UNL d   1      -4.881  -0.072  -0.191  0.00  0.00    -0.064 SA
ATOM      9  C   UNL d   1       1.872  -1.171  -0.725  0.00  0.00     0.112 C 
ATOM     10  C   UNL d   1       2.050   1.004   0.677  0.00  0.00     0.112 C 
ATOM     11  C   UNL d   1       2.758  -0.038  -0.196  0.00  0.00     0.137 C 
ENDROOT
BRANCH  11  12
ATOM     12  O   UNL d   1       3.386   0.612  -1.312  0.00  0.00    -0.394 OA
ATOM     13  H   UNL d   1       2.727   1.214  -1.711  0.00  0.00     0.210 HD
ENDBRANCH  11  12
TORSDOF 1
