REMARK  4 active torsions:
REMARK  status: ('A' for Active; 'I' for Inactive)
REMARK    1  A    between atoms: C_6  and  C_1 
REMARK    2  A    between atoms: C_3  and  C_6 
REMARK    3  A    between atoms: C_12  and  C_4 
REMARK    4  A    between atoms: C_11  and  C_8 
ROOT
ATOM      1  C   UNL d   1      -1.053  -3.712   0.598  0.00  0.00     0.096 C 
ATOM      2  C   UNL d   1      -0.581  -4.922   0.232  0.00  0.00     0.040 C 
ATOM      3  C   UNL d   1      -0.408  -2.918   1.588  0.00  0.00     0.103 C 
ATOM      4  N   UNL d   1       0.128  -2.264   2.382  0.00  0.00    -0.191 NA
ENDROOT
BRANCH   1   5
ATOM      5  C   UNL d   1      -2.341  -3.273  -0.036  0.00  0.00     0.205 C 
ATOM      6  O   UNL d   1      -3.119  -4.095  -0.515  0.00  0.00    -0.286 OA
BRANCH   5   7
ATOM      7  C   UNL d   1      -2.626  -1.842  -0.042  0.00  0.00     0.048 A 
ATOM      8  C   UNL d   1      -1.730  -0.730  -0.085  0.00  0.00     0.056 A 
ATOM      9  C   UNL d   1      -2.491   0.417  -0.040  0.00  0.00     0.086 A 
ATOM     10  O   UNL d   1      -3.810   0.087  -0.045  0.00  0.00    -0.314 OA
ATOM     11  C   UNL d   1      -3.895  -1.275  -0.046  0.00  0.00     0.064 A 
ATOM     12  C   UNL d   1      -5.277  -1.807  -0.013  0.00  0.00     0.077 C 
BRANCH   9  13
ATOM     13  C   UNL d   1      -2.168   1.835   0.052  0.00  0.00    -0.002 A 
ATOM     14  C   UNL d   1      -2.998   2.816  -0.507  0.00  0.00     0.016 A 
ATOM     15  C   UNL d   1      -2.672   4.172  -0.397  0.00  0.00     0.024 A 
ATOM     16  C   UNL d   1      -1.517   4.555   0.281  0.00  0.00     0.034 A 
ATOM     17  C   UNL d   1      -0.680   3.594   0.842  0.00  0.00     0.024 A 
ATOM     18 CL   UNL d   1      -1.122   6.222   0.433  0.00  0.00    -0.084 Cl
ATOM     19  C   UNL d   1      -1.004   2.240   0.724  0.00  0.00     0.016 A 
ENDBRANCH   9  13
ENDBRANCH   5   7
ENDBRANCH   1   5
BRANCH   2  20
ATOM     20  C   UNL d   1       0.641  -5.543   0.770  0.00  0.00    -0.013 A 
ATOM     21  C   UNL d   1       1.912  -5.346   0.204  0.00  0.00     0.044 A 
ATOM     22 CL   UNL d   1       2.139  -4.327  -1.175  0.00  0.00    -0.083 Cl
ATOM     23  C   UNL d   1       3.036  -5.969   0.753  0.00  0.00     0.024 A 
ATOM     24  C   UNL d   1       2.904  -6.785   1.877  0.00  0.00     0.002 A 
ATOM     25  C   UNL d   1       1.651  -6.974   2.455  0.00  0.00     0.001 A 
ATOM     26  C   UNL d   1       0.524  -6.361   1.904  0.00  0.00     0.013 A 
ENDBRANCH   2  20
TORSDOF 4
