REMARK  4 active torsions:
REMARK  status: ('A' for Active; 'I' for Inactive)
REMARK    1  A    between atoms: C_1  and  C_5 
REMARK    2  A    between atoms: C_6  and  C_2 
REMARK    3  A    between atoms: O_12  and  C_5 
REMARK    4  A    between atoms: O_11  and  C_6 
ROOT
ATOM      1  C   UNL d   1       0.755   1.292  -0.128  0.00  0.00     0.098 C 
ATOM      2  C   UNL d   1       1.510   0.024   0.301  0.00  0.00     0.098 C 
ATOM      3  C   UNL d   1      -0.719   1.327   0.299  0.00  0.00     0.020 C 
ATOM      4  C   UNL d   1       0.724  -1.238  -0.081  0.00  0.00     0.020 C 
ATOM      5  C   UNL d   1      -1.456   0.065  -0.181  0.00  0.00    -0.014 C 
ATOM      6  C   UNL d   1      -0.768  -1.229   0.315  0.00  0.00    -0.014 C 
ATOM      7  C   UNL d   1      -2.940   0.124   0.185  0.00  0.00     0.010 C 
ATOM      8  C   UNL d   1      -0.974  -1.500   1.810  0.00  0.00     0.010 C 
ENDROOT
BRANCH   1   9
ATOM      9  C   UNL d   1       1.526   2.561   0.193  0.00  0.00     0.144 C 
ATOM     10  O   UNL d   1       2.283   3.081  -0.617  0.00  0.00    -0.650 OA
BRANCH   9  11
ATOM     11  O   UNL d   1       1.372   3.050   1.436  0.00  0.00    -0.776 OA
ATOM     12  H   UNL d   1       0.965   2.421   2.078  0.00  0.00     0.167 HD
ENDBRANCH   9  11
ENDBRANCH   1   9
BRANCH   2  13
ATOM     13  C   UNL d   1       1.877   0.027   1.774  0.00  0.00     0.144 C 
ATOM     14  O   UNL d   1       1.351   0.754   2.604  0.00  0.00    -0.650 OA
BRANCH  13  15
ATOM     15  O   UNL d   1       2.856  -0.845   2.090  0.00  0.00    -0.776 OA
ATOM     16  H   UNL d   1       3.235  -1.334   1.333  0.00  0.00     0.167 HD
ENDBRANCH  13  15
ENDBRANCH   2  13
TORSDOF 4
