REMARK  3 active torsions:
REMARK  status: ('A' for Active; 'I' for Inactive)
REMARK    1  A    between atoms: C_7  and  C_1 
REMARK    2  A    between atoms: C_8  and  C_3 
REMARK    3  A    between atoms: O_17  and  C_14 
ROOT
ATOM      1  C   UNL d   1       1.394   1.062   0.047  0.00  0.00     0.037 C 
ATOM      2  C   UNL d   1       1.346  -0.287  -0.019  0.00  0.00     0.022 C 
ATOM      3  C   UNL d   1       0.129   1.887  -0.037  0.00  0.00     0.158 C 
ATOM      4  C   UNL d   1      -1.093  -0.269  -0.076  0.00  0.00     0.321 C 
ATOM      5  N   UNL d   1       0.114  -0.895  -0.131  0.00  0.00    -0.312 N 
ATOM      6  N   UNL d   1      -1.058   1.072   0.083  0.00  0.00    -0.330 N 
ATOM      7  O   UNL d   1      -2.147  -0.884  -0.141  0.00  0.00    -0.247 OA
ATOM      8  C   UNL d   1       2.495  -1.260  -0.007  0.00  0.00     0.069 C 
ATOM      9  H   UNL d   1       0.053  -1.907  -0.189  0.00  0.00     0.170 HD
ATOM     10  H   UNL d   1      -1.966   1.514   0.112  0.00  0.00     0.165 HD
ENDROOT
BRANCH   3  11
ATOM     11  C   UNL d   1      -0.013   3.042   0.944  0.00  0.00    -0.031 A 
ATOM     12  C   UNL d   1      -0.704   4.200   0.548  0.00  0.00     0.012 A 
ATOM     13  C   UNL d   1      -0.914   5.255   1.442  0.00  0.00     0.037 A 
ATOM     14  C   UNL d   1      -0.435   5.170   2.747  0.00  0.00     0.068 A 
ATOM     15  C   UNL d   1       0.240   4.017   3.152  0.00  0.00     0.037 A 
ATOM     16  C   UNL d   1       0.442   2.956   2.267  0.00  0.00     0.012 A 
BRANCH  14  17
ATOM     17  O   UNL d   1      -0.592   6.115   3.721  0.00  0.00    -0.356 OA
ATOM     18  C   UNL d   1      -0.943   7.423   3.287  0.00  0.00     0.210 C 
ENDBRANCH  14  17
ENDBRANCH   3  11
BRANCH   1  19
ATOM     19  C   UNL d   1       2.699   1.788   0.209  0.00  0.00     0.156 C 
ATOM     20  O   UNL d   1       3.608   1.306   0.886  0.00  0.00    -0.293 OA
ATOM     21  C   UNL d   1       2.881   3.144  -0.426  0.00  0.00     0.096 C 
ENDBRANCH   1  19
TORSDOF 3
