REMARK  7 active torsions:
REMARK  status: ('A' for Active; 'I' for Inactive)
REMARK    1  A    between atoms: C_4  and  N_1 
REMARK    2  A    between atoms: S_7  and  O_13 
REMARK    3  A    between atoms: C_11  and  O_13 
REMARK    4  A    between atoms: C_12  and  C_21 
REMARK    5  A    between atoms: C_14  and  O_19 
REMARK    6  A    between atoms: C_18  and  C_14 
REMARK    7  A    between atoms: O_19  and  C_21 
ROOT
ATOM      1  C   UNL d   1      -1.289  -2.695  -0.336  0.00  0.00     0.235 C 
ATOM      2  O   UNL d   1      -2.126  -3.046   0.784  0.00  0.00    -0.356 OA
ATOM      3  C   UNL d   1      -2.111  -3.002  -1.571  0.00  0.00     0.090 C 
ATOM      4  C   UNL d   1      -3.013  -4.140  -1.145  0.00  0.00     0.177 C 
ATOM      5  C   UNL d   1      -3.295  -3.788   0.327  0.00  0.00     0.179 C 
ENDROOT
BRANCH   1   6
ATOM      6  N   UNL d   1       0.011  -3.381  -0.278  0.00  0.00    -0.282 N 
ATOM      7  C   UNL d   1       0.944  -3.056  -1.260  0.00  0.00     0.331 A 
ATOM      8  N   UNL d   1       2.175  -3.641  -1.137  0.00  0.00    -0.275 N 
ATOM      9  O   UNL d   1       0.720  -2.297  -2.201  0.00  0.00    -0.246 OA
ATOM     10  C   UNL d   1       2.567  -4.507  -0.157  0.00  0.00     0.256 A 
ATOM     11  H   UNL d   1       2.855  -3.423  -1.847  0.00  0.00     0.173 HD
ATOM     12  C   UNL d   1       1.559  -4.781   0.893  0.00  0.00     0.022 A 
ATOM     13  O   UNL d   1       3.680  -5.017  -0.142  0.00  0.00    -0.267 OA
ATOM     14  C   UNL d   1       0.359  -4.195   0.786  0.00  0.00     0.110 A 
ATOM     15  C   UNL d   1       1.962  -5.686   2.009  0.00  0.00     0.056 C 
ENDBRANCH   1   6
BRANCH   5  16
ATOM     16  C   UNL d   1      -3.467  -4.980   1.302  0.00  0.00     0.213 C 
BRANCH  16  17
ATOM     17  O   UNL d   1      -4.629  -5.813   1.103  0.00  0.00    -0.318 OA
BRANCH  17  18
ATOM     18  C   UNL d   1      -5.758  -5.434   1.774  0.00  0.00     0.266 C 
ATOM     19  O   UNL d   1      -5.801  -4.447   2.494  0.00  0.00    -0.264 OA
BRANCH  18  20
ATOM     20  C   UNL d   1      -6.955  -6.407   1.615  0.00  0.00     0.037 C 
ATOM     21  C   UNL d   1      -6.982  -7.279   2.877  0.00  0.00     0.025 C 
ATOM     22  C   UNL d   1      -8.243  -5.563   1.540  0.00  0.00     0.025 C 
ATOM     23  C   UNL d   1      -6.952  -7.356   0.406  0.00  0.00     0.025 C 
ENDBRANCH  18  20
ENDBRANCH  17  18
ENDBRANCH  16  17
ENDBRANCH   5  16
BRANCH   4  24
ATOM     24  O   UNL d   1      -4.111  -4.122  -2.057  0.00  0.00    -0.268 OA
BRANCH  24  25
ATOM     25  S   UNL d   1      -5.332  -5.147  -1.803  0.00  0.00     0.261 S 
ATOM     26  O   UNL d   1      -4.787  -6.477  -1.703  0.00  0.00    -0.199 OA
ATOM     27  O   UNL d   1      -6.180  -4.550  -0.794  0.00  0.00    -0.199 OA
ATOM     28  C   UNL d   1      -6.212  -5.018  -3.329  0.00  0.00     0.194 C 
ENDBRANCH  24  25
ENDBRANCH   4  24
TORSDOF 7
