REMARK  5 active torsions:
REMARK  status: ('A' for Active; 'I' for Inactive)
REMARK    1  A    between atoms: C_3  and  C_2 
REMARK    2  A    between atoms: C_7  and  C_3 
REMARK    3  A    between atoms: C_5  and  N_8 
REMARK    4  A    between atoms: N_8  and  C_6 
REMARK    5  A    between atoms: C_20  and  C_19 
ROOT
ATOM      1  C   UNL d   1      -5.575  -0.998   0.072  0.00  0.00     0.072 C 
ATOM      2  C   UNL d   1      -5.686  -2.236   0.567  0.00  0.00     0.092 C 
ENDROOT
BRANCH   1   3
ATOM      3  C   UNL d   1      -6.746  -0.078   0.129  0.00  0.00     0.183 C 
ATOM      4  O   UNL d   1      -7.891  -0.489   0.284  0.00  0.00    -0.288 OA
BRANCH   3   5
ATOM      5  C   UNL d   1      -6.479   1.375  -0.046  0.00  0.00     0.014 A 
ATOM      6  C   UNL d   1      -7.483   2.188  -0.586  0.00  0.00     0.016 A 
ATOM      7  C   UNL d   1      -7.254   3.554  -0.781  0.00  0.00     0.008 A 
ATOM      8  C   UNL d   1      -6.027   4.126  -0.421  0.00  0.00    -0.059 A 
ATOM      9  C   UNL d   1      -5.036   3.314   0.144  0.00  0.00     0.008 A 
ATOM     10  C   UNL d   1      -5.262   1.950   0.341  0.00  0.00     0.016 A 
BRANCH   8  11
ATOM     11  C   UNL d   1      -5.759   5.593  -0.650  0.00  0.00     0.034 C 
ATOM     12  C   UNL d   1      -5.122   5.851  -2.007  0.00  0.00     0.010 C 
ENDBRANCH   8  11
ENDBRANCH   3   5
ENDBRANCH   1   3
BRANCH   2  13
ATOM     13  N   UNL d   1      -4.704  -3.190   0.641  0.00  0.00    -0.363 N 
ATOM     14  H   UNL d   1      -3.755  -2.907   0.413  0.00  0.00     0.165 HD
BRANCH  13  15
ATOM     15  C   UNL d   1      -4.827  -4.503   1.139  0.00  0.00     0.071 A 
ATOM     16  C   UNL d   1      -3.692  -5.171   1.630  0.00  0.00     0.144 A 
ATOM     17  C   UNL d   1      -3.772  -6.436   2.209  0.00  0.00     0.068 A 
ATOM     18  F   UNL d   1      -2.493  -4.570   1.563  0.00  0.00    -0.204 F 
ATOM     19  C   UNL d   1      -5.010  -7.061   2.297  0.00  0.00     0.037 A 
ATOM     20 CL   UNL d   1      -5.138  -8.616   3.020  0.00  0.00    -0.084 Cl
ATOM     21  C   UNL d   1      -6.153  -6.434   1.805  0.00  0.00     0.026 A 
ATOM     22  C   UNL d   1      -6.060  -5.160   1.236  0.00  0.00     0.034 A 
ENDBRANCH  13  15
ENDBRANCH   2  13
TORSDOF 5
