REMARK  3 active torsions:
REMARK  status: ('A' for Active; 'I' for Inactive)
REMARK    1  A    between atoms: S_9  and  C_2 
REMARK    2  A    between atoms: C_14  and  C_3 
REMARK    3  A    between atoms: C_4  and  S_9 
ROOT
ATOM      1  N   UNL d   1       0.918   0.014   0.026  0.00  0.00    -0.315 N 
ATOM      2  C   UNL d   1       0.114   1.115  -0.125  0.00  0.00     0.169 A 
ATOM      3  C   UNL d   1       0.086  -1.088  -0.105  0.00  0.00     0.134 A 
ATOM      4  N   UNL d   1      -1.153  -0.642  -0.234  0.00  0.00    -0.283 N 
ATOM      5  HN  UNL d   1      -1.988  -1.225  -0.308  1.00  0.00     0.188 HD
ATOM      6  N   UNL d   1      -1.134   0.730  -0.253  0.00  0.00    -0.278 N 
ATOM      7  HN  UNL d   1      -1.944   1.341  -0.350  1.00  0.00     0.189 HD
ATOM      8  C   UNL d   1       2.326  -0.013   0.333  0.00  0.00     0.160 C 
ENDROOT
BRANCH   2   9
ATOM      9  S   UNL d   1       0.602   2.771   0.027  0.00  0.00    -0.027 SA
BRANCH   9  10
ATOM     10  C   UNL d   1       1.567   2.929  -1.431  0.00  0.00     0.120 A 
ATOM     11  N   UNL d   1       2.430   2.010  -1.797  0.00  0.00    -0.344 N 
ATOM     12  C   UNL d   1       3.106   2.417  -2.931  0.00  0.00     0.050 A 
ATOM     13  HN  UNL d   1       2.581   1.124  -1.314  1.00  0.00     0.167 HD
ATOM     14  C   UNL d   1       4.096   1.676  -3.608  0.00  0.00     0.032 A 
ATOM     15  C   UNL d   1       2.756   3.679  -3.417  0.00  0.00     0.035 A 
ATOM     16  C   UNL d   1       4.692   2.200  -4.759  0.00  0.00     0.026 A 
ATOM     17  C   UNL d   1       4.317   3.455  -5.230  0.00  0.00     0.035 A 
ATOM     18  C   UNL d   1       3.353   4.223  -4.567  0.00  0.00     0.045 A 
ATOM     19 CL   UNL d   1       5.051   4.072  -6.659  0.00  0.00    -0.084 Cl
ATOM     20  S   UNL d   1       1.547   4.350  -2.388  0.00  0.00    -0.063 SA
ENDBRANCH   9  10
ENDBRANCH   2   9
BRANCH   3  21
ATOM     21  C   UNL d   1       0.464  -2.510  -0.085  0.00  0.00     0.010 A 
ATOM     22  C   UNL d   1      -0.415  -3.461   0.461  0.00  0.00     0.027 A 
ATOM     23  C   UNL d   1      -0.108  -4.841   0.462  0.00  0.00    -0.025 A 
ATOM     24  C   UNL d   1      -0.985  -5.806   0.990  0.00  0.00     0.012 A 
ATOM     25  C   UNL d   1       1.113  -5.271  -0.096  0.00  0.00    -0.026 A 
ATOM     26  C   UNL d   1      -0.663  -7.166   0.955  0.00  0.00     0.001 A 
ATOM     27  C   UNL d   1       0.545  -7.582   0.403  0.00  0.00     0.001 A 
ATOM     28  C   UNL d   1       1.430  -6.641  -0.117  0.00  0.00     0.012 A 
ATOM     29  C   UNL d   1       1.988  -4.326  -0.642  0.00  0.00     0.013 A 
ATOM     30  C   UNL d   1       1.659  -2.969  -0.651  0.00  0.00     0.016 A 
ENDBRANCH   3  21
TORSDOF 3
