REMARK  3 active torsions:
REMARK  status: ('A' for Active; 'I' for Inactive)
REMARK    1  A    between atoms: N_4  and  C_1 
REMARK       I    between atoms: C_2  and  N_4 
REMARK       I    between atoms: N_6  and  C_2 
REMARK    2  A    between atoms: C_13  and  C_5 
REMARK    3  A    between atoms: C_8  and  N_6 
ROOT
ATOM      1  C   UNL d   1       0.780   3.552   0.034  0.00  0.00     0.326 C 
ATOM      2  N   UNL d   1      -0.193   2.611   0.086  0.00  0.00    -0.303 N 
ATOM      3  N   UNL d   1       2.071   3.182   0.238  0.00  0.00    -0.294 N 
ATOM      4  O   UNL d   1       0.404   4.718  -0.127  0.00  0.00    -0.247 OA
ATOM      5  H   UNL d   1      -1.116   3.025   0.142  0.00  0.00     0.171 HD
ATOM      6  H   UNL d   1       2.367   2.278  -0.080  0.00  0.00     0.172 HD
ENDROOT
BRANCH   2   7
ATOM      7  C   UNL d   1      -0.139   1.261   0.293  0.00  0.00     0.078 A 
ATOM      8  S   UNL d   1      -1.597   0.680   0.935  0.00  0.00    -0.072 SA
ATOM      9  C   UNL d   1      -0.993  -0.920   1.109  0.00  0.00     0.017 A 
ATOM     10  C   UNL d   1       0.277  -0.998   0.550  0.00  0.00     0.022 A 
ATOM     11  C   UNL d   1       0.780   0.265   0.095  0.00  0.00     0.039 A 
BRANCH   9  12
ATOM     12  C   UNL d   1      -1.800  -1.966   1.777  0.00  0.00    -0.019 A 
ATOM     13  C   UNL d   1      -3.167  -1.795   2.060  0.00  0.00     0.013 A 
ATOM     14  C   UNL d   1      -3.904  -2.780   2.723  0.00  0.00     0.001 A 
ATOM     15  C   UNL d   1      -3.290  -3.964   3.114  0.00  0.00     0.000 A 
ATOM     16  C   UNL d   1      -1.939  -4.160   2.844  0.00  0.00     0.001 A 
ATOM     17  C   UNL d   1      -1.202  -3.170   2.185  0.00  0.00     0.013 A 
ENDBRANCH   9  12
ENDBRANCH   2   7
BRANCH   3  18
ATOM     18  C   UNL d   1       3.136   4.079   0.357  0.00  0.00     0.109 A 
ATOM     19  N   UNL d   1       4.316   3.609  -0.096  0.00  0.00    -0.346 N 
ATOM     20  C   UNL d   1       5.367   4.466  -0.111  0.00  0.00     0.007 A 
ATOM     21  HN  UNL d   1       4.415   2.646  -0.416  1.00  0.00     0.167 HD
ATOM     22  C   UNL d   1       6.622   3.991  -0.777  0.00  0.00     0.068 C 
ATOM     23  C   UNL d   1       5.287   5.769   0.373  0.00  0.00     0.025 A 
ATOM     24  C   UNL d   1       4.083   6.208   0.904  0.00  0.00     0.006 A 
ATOM     25  C   UNL d   1       2.988   5.353   0.893  0.00  0.00     0.049 A 
ENDBRANCH   3  18
TORSDOF 3
