REMARK  5 active torsions:
REMARK  status: ('A' for Active; 'I' for Inactive)
REMARK    1  A    between atoms: N_7  and  C_1 
REMARK       I    between atoms: C_2  and  N_6 
REMARK    2  A    between atoms: O_11  and  C_2 
REMARK    3  A    between atoms: C_5  and  C_10 
REMARK    4  A    between atoms: C_8  and  C_14 
REMARK       I    between atoms: N_9  and  C_8 
REMARK    5  A    between atoms: C_23  and  O_11 
ROOT
ATOM      1  N   UNL d   1       2.214   5.026  -0.657  0.00  0.00    -0.255 NA
ATOM      2  C   UNL d   1       0.048   6.530   0.579  0.00  0.00     0.080 C 
ATOM      3  C   UNL d   1       1.450   5.967  -1.481  0.00  0.00     0.099 C 
ATOM      4  C   UNL d   1       1.470   4.413   0.440  0.00  0.00     0.099 C 
ATOM      5  C   UNL d   1       0.875   7.080  -0.598  0.00  0.00     0.029 C 
ATOM      6  C   UNL d   1       0.899   5.507   1.347  0.00  0.00     0.029 C 
ENDROOT
BRANCH   2   7
ATOM      7  C   UNL d   1      -1.285   5.951   0.070  0.00  0.00     0.224 C 
ATOM      8  N   UNL d   1      -2.227   5.501   0.977  0.00  0.00    -0.349 N 
ATOM      9  C   UNL d   1      -3.413   4.793   0.471  0.00  0.00     0.145 C 
ATOM     10  C   UNL d   1      -2.314   5.845   2.398  0.00  0.00     0.145 C 
ATOM     11  C   UNL d   1      -3.657   3.505   1.282  0.00  0.00     0.148 C 
ATOM     12  N   UNL d   1      -3.724   3.794   2.721  0.00  0.00    -0.325 N 
ATOM     13  C   UNL d   1      -4.579   3.173   3.627  0.00  0.00     0.363 C 
ATOM     14  C   UNL d   1      -2.614   4.599   3.249  0.00  0.00     0.148 C 
ATOM     15  O   UNL d   1      -4.496   3.384   4.833  0.00  0.00    -0.238 OA
ATOM     16  O   UNL d   1      -1.501   5.862  -1.134  0.00  0.00    -0.273 OA
BRANCH  13  17
ATOM     17  O   UNL d   1      -5.508   2.351   3.076  0.00  0.00    -0.294 OA
BRANCH  17  18
ATOM     18  C   UNL d   1      -6.538   1.753   3.928  0.00  0.00     0.061 C 
ATOM     19  C   UNL d   1      -7.396   2.830   4.621  0.00  0.00     0.046 C 
ATOM     20  C   UNL d   1      -7.408   0.897   2.985  0.00  0.00     0.046 C 
ATOM     21  C   UNL d   1      -5.963   0.803   4.992  0.00  0.00     0.046 C 
ENDBRANCH  17  18
ENDBRANCH  13  17
ENDBRANCH   2   7
BRANCH   1  22
ATOM     22  C   UNL d   1       2.976   4.128  -1.411  0.00  0.00     0.159 A 
ATOM     23  N   UNL d   1       3.317   4.480  -2.659  0.00  0.00    -0.329 N 
ATOM     24  C   UNL d   1       4.081   3.647  -3.406  0.00  0.00     0.120 A 
ATOM     25  HN  UNL d   1       3.002   5.370  -3.044  1.00  0.00     0.168 HD
ATOM     26  C   UNL d   1       4.529   2.442  -2.910  0.00  0.00     0.051 A 
ATOM     27  C   UNL d   1       4.147   2.154  -1.624  0.00  0.00     0.093 A 
ATOM     28  N   UNL d   1       3.382   2.969  -0.871  0.00  0.00    -0.343 N 
ATOM     29  HN  UNL d   1       3.120   2.712   0.081  1.00  0.00     0.167 HD
BRANCH  24  30
ATOM     30  C   UNL d   1       4.441   4.071  -4.816  0.00  0.00     0.432 C 
ATOM     31  F   UNL d   1       3.939   5.285  -5.182  0.00  0.00    -0.165 F 
ATOM     32  F   UNL d   1       5.789   4.153  -5.008  0.00  0.00    -0.165 F 
ATOM     33  F   UNL d   1       3.992   3.188  -5.755  0.00  0.00    -0.165 F 
ENDBRANCH  24  30
ENDBRANCH   1  22
TORSDOF 5
