REMARK  3 active torsions:
REMARK  status: ('A' for Active; 'I' for Inactive)
REMARK    1  A    between atoms: C_7  and  C_1 
REMARK    2  A    between atoms: C_8  and  C_2 
REMARK    3  A    between atoms: N_4  and  C_3 
ROOT
ATOM      1  C   UNL d   1       5.439  -0.076  -0.248  0.00  0.00     0.029 A 
ATOM      2  C   UNL d   1       4.671   1.096  -0.188  0.00  0.00     0.030 A 
ATOM      3  C   UNL d   1       4.718  -1.280  -0.178  0.00  0.00     0.030 A 
ATOM      4  C   UNL d   1       2.573  -0.142  -0.061  0.00  0.00    -0.036 A 
ATOM      5  C   UNL d   1       3.268   1.068  -0.089  0.00  0.00     0.013 A 
ATOM      6  C   UNL d   1       3.318  -1.319  -0.087  0.00  0.00     0.013 A 
ENDROOT
BRANCH   4   7
ATOM      7  C   UNL d   1       1.103  -0.119   0.019  0.00  0.00     0.012 C 
ATOM      8  C   UNL d   1       0.306  -1.064  -0.508  0.00  0.00     0.012 C 
BRANCH   8   9
ATOM      9  C   UNL d   1      -1.166  -1.006  -0.533  0.00  0.00    -0.036 A 
ATOM     10  C   UNL d   1      -1.869   0.201  -0.622  0.00  0.00     0.011 A 
ATOM     11  C   UNL d   1      -3.257   0.213  -0.740  0.00  0.00     0.001 A 
ATOM     12  C   UNL d   1      -3.966  -0.988  -0.771  0.00  0.00     0.000 A 
ATOM     13  C   UNL d   1      -3.281  -2.198  -0.689  0.00  0.00     0.001 A 
ATOM     14  C   UNL d   1      -1.889  -2.208  -0.573  0.00  0.00     0.011 A 
ENDBRANCH   8   9
ENDBRANCH   4   7
BRANCH   1  15
ATOM     15  N   UNL d   1       6.828  -0.072  -0.299  0.00  0.00    -0.390 N 
ATOM     16  C   UNL d   1       7.537  -1.095  -1.070  0.00  0.00     0.149 C 
ATOM     17  C   UNL d   1       7.604   1.140  -0.054  0.00  0.00     0.149 C 
ENDBRANCH   1  15
TORSDOF 3
