REMARK  3 active torsions:
REMARK  status: ('A' for Active; 'I' for Inactive)
REMARK    1  A    between atoms: C_2  and  N_1 
REMARK       I    between atoms: C_3  and  N_1 
REMARK    2  A    between atoms: N_5  and  C_2 
REMARK    3  A    between atoms: C_4  and  C_3 
ROOT
ATOM      1  N   UNL d   1       1.290  -0.463  -0.246  0.00  0.00    -0.299 N 
ATOM      2  C   UNL d   1       0.863  -1.135   0.899  0.00  0.00     0.260 C 
ATOM      3  O   UNL d   1      -0.169  -1.793   0.962  0.00  0.00    -0.267 OA
ATOM      4  H   UNL d   1       2.224  -0.080  -0.212  0.00  0.00     0.171 HD
ENDROOT
BRANCH   1   5
ATOM      5  C   UNL d   1       0.499   0.115  -1.243  0.00  0.00     0.176 C 
ATOM      6  S   UNL d   1      -1.146   0.415  -1.063  0.00  0.00    -0.041 SA
BRANCH   5   7
ATOM      7  N   UNL d   1       1.235   0.473  -2.389  0.00  0.00    -0.354 N 
ATOM      8  C   UNL d   1       2.468  -0.221  -2.809  0.00  0.00     0.151 C 
ATOM      9  C   UNL d   1       3.458   0.768  -3.435  0.00  0.00     0.187 C 
ATOM     10  O   UNL d   1       2.862   1.485  -4.526  0.00  0.00    -0.388 OA
ATOM     11  C   UNL d   1       1.699   2.204  -4.089  0.00  0.00     0.187 C 
ATOM     12  C   UNL d   1       0.650   1.257  -3.499  0.00  0.00     0.151 C 
ENDBRANCH   5   7
ENDBRANCH   1   5
BRANCH   2  13
ATOM     13  C   UNL d   1       1.777  -1.175   2.077  0.00  0.00     0.071 A 
ATOM     14  C   UNL d   1       3.065  -0.633   2.082  0.00  0.00     0.135 A 
ATOM     15  C   UNL d   1       3.883  -0.726   3.208  0.00  0.00     0.085 A 
ATOM     16  F   UNL d   1       3.553  -0.020   0.992  0.00  0.00    -0.205 F 
ATOM     17  C   UNL d   1       3.404  -1.365   4.346  0.00  0.00     0.119 A 
ATOM     18  C   UNL d   1       2.125  -1.906   4.377  0.00  0.00     0.043 A 
ATOM     19  F   UNL d   1       4.186  -1.463   5.428  0.00  0.00    -0.206 F 
ATOM     20  C   UNL d   1       1.313  -1.810   3.245  0.00  0.00     0.023 A 
ENDBRANCH   2  13
TORSDOF 3
