REMARK  6 active torsions:
REMARK  status: ('A' for Active; 'I' for Inactive)
REMARK    1  A    between atoms: N_3  and  C_1 
REMARK    2  A    between atoms: N_5  and  C_1 
REMARK    3  A    between atoms: C_4  and  N_3 
REMARK    4  A    between atoms: C_10  and  N_5 
REMARK    5  A    between atoms: O_8  and  C_12 
REMARK    6  A    between atoms: C_11  and  O_8 
ROOT
ATOM      1  C   UNL d   1      -1.335   1.271   0.238  0.00  0.00     0.034 A 
ATOM      2  C   UNL d   1      -4.125   1.164   0.557  0.00  0.00     0.076 A 
ATOM      3  C   UNL d   1      -1.934   0.250   0.992  0.00  0.00     0.032 A 
ATOM      4  C   UNL d   1      -2.149   2.280  -0.273  0.00  0.00     0.032 A 
ATOM      5  C   UNL d   1      -3.538   2.229  -0.113  0.00  0.00     0.039 A 
ATOM      6  C   UNL d   1      -3.322   0.198   1.160  0.00  0.00     0.039 A 
ENDROOT
BRANCH   1   7
ATOM      7  N   UNL d   1       0.065   1.188   0.078  0.00  0.00    -0.333 N 
ATOM      8  H   UNL d   1       0.508   0.534   0.708  0.00  0.00     0.168 HD
BRANCH   7   9
ATOM      9  C   UNL d   1       0.958   1.843  -0.744  0.00  0.00     0.176 C 
ATOM     10  S   UNL d   1       0.681   3.019  -1.901  0.00  0.00    -0.041 SA
BRANCH   9  11
ATOM     11  N   UNL d   1       2.279   1.529  -0.532  0.00  0.00    -0.332 N 
ATOM     12  H   UNL d   1       2.923   2.263  -0.820  0.00  0.00     0.168 HD
BRANCH  11  13
ATOM     13  C   UNL d   1       2.894   0.331  -0.099  0.00  0.00     0.058 A 
ATOM     14  C   UNL d   1       4.219   0.376   0.382  0.00  0.00     0.082 A 
ATOM     15  C   UNL d   1       4.859  -0.807   0.780  0.00  0.00     0.058 A 
ATOM     16 CL   UNL d   1       5.026   1.912   0.503  0.00  0.00    -0.080 Cl
ATOM     17 CL   UNL d   1       6.465  -0.826   1.417  0.00  0.00    -0.082 Cl
ATOM     18  C   UNL d   1       4.196  -2.032   0.669  0.00  0.00     0.026 A 
ATOM     19  C   UNL d   1       2.901  -2.085   0.158  0.00  0.00     0.004 A 
ATOM     20  C   UNL d   1       2.254  -0.910  -0.228  0.00  0.00     0.031 A 
ENDBRANCH  11  13
ENDBRANCH   9  11
ENDBRANCH   7   9
ENDBRANCH   1   7
BRANCH   2  21
ATOM     21  O   UNL d   1      -5.497   1.160   0.635  0.00  0.00    -0.311 OA
BRANCH  21  22
ATOM     22  C   UNL d   1      -6.174  -0.015   0.391  0.00  0.00     0.076 A 
ATOM     23  C   UNL d   1      -7.412  -0.143   1.025  0.00  0.00     0.039 A 
ATOM     24  C   UNL d   1      -8.173  -1.300   0.853  0.00  0.00     0.026 A 
ATOM     25  C   UNL d   1      -7.696  -2.326   0.039  0.00  0.00     0.034 A 
ATOM     26  C   UNL d   1      -6.479  -2.191  -0.628  0.00  0.00     0.026 A 
ATOM     27 CL   UNL d   1      -8.615  -3.768  -0.147  0.00  0.00    -0.084 Cl
ATOM     28  C   UNL d   1      -5.726  -1.025  -0.468  0.00  0.00     0.039 A 
ENDBRANCH  21  22
ENDBRANCH   2  21
TORSDOF 6
