REMARK  4 active torsions:
REMARK  status: ('A' for Active; 'I' for Inactive)
REMARK    1  A    between atoms: C_18  and  N_1 
REMARK    2  A    between atoms: C_10  and  C_20 
REMARK    3  A    between atoms: C_22  and  C_18 
REMARK    4  A    between atoms: C_20  and  C_22 
ROOT
ATOM      1  C   UNL d   1       0.765  -7.090  -0.024  0.00  0.00    -0.003 A 
ATOM      2  C   UNL d   1       1.783  -8.077  -0.003  0.00  0.00    -0.004 A 
ATOM      3  C   UNL d   1       3.139  -7.692   0.033  0.00  0.00    -0.024 A 
ATOM      4  C   UNL d   1       1.100  -5.706  -0.003  0.00  0.00    -0.018 A 
ATOM      5  C   UNL d   1       2.474  -5.331   0.035  0.00  0.00    -0.046 A 
ATOM      6  C   UNL d   1       3.463  -6.332   0.050  0.00  0.00     0.020 A 
ATOM      7  C   UNL d   1      -0.591  -7.509  -0.073  0.00  0.00    -0.024 A 
ATOM      8  C   UNL d   1       1.451  -9.455  -0.024  0.00  0.00    -0.024 A 
ATOM      9  C   UNL d   1      -0.902  -8.875  -0.089  0.00  0.00     0.013 A 
ATOM     10  C   UNL d   1       0.106  -9.837  -0.063  0.00  0.00     0.013 A 
ATOM     11  C   UNL d   1       4.140  -8.674   0.043  0.00  0.00     0.012 A 
ATOM     12  C   UNL d   1       0.032  -4.782  -0.036  0.00  0.00     0.013 A 
ATOM     13  C   UNL d   1       3.810 -10.027   0.023  0.00  0.00     0.002 A 
ATOM     14  C   UNL d   1      -1.301  -5.198  -0.092  0.00  0.00     0.002 A 
ATOM     15  C   UNL d   1      -1.610  -6.553  -0.108  0.00  0.00     0.012 A 
ATOM     16  C   UNL d   1       2.473 -10.415  -0.008  0.00  0.00     0.012 A 
ENDROOT
BRANCH   5  17
ATOM     17  C   UNL d   1       2.953  -3.890   0.034  0.00  0.00     0.041 C 
BRANCH  17  18
ATOM     18  C   UNL d   1       3.003  -3.208   1.407  0.00  0.00     0.025 C 
BRANCH  18  19
ATOM     19  C   UNL d   1       4.008  -3.822   2.388  0.00  0.00     0.139 C 
BRANCH  19  20
ATOM     20  N   UNL d   1       4.003  -3.110   3.653  0.00  0.00    -0.249 N 
ATOM     21  C   UNL d   1       4.797  -2.035   3.972  0.00  0.00     0.345 C 
ATOM     22  N   UNL d   1       4.359  -1.544   5.205  0.00  0.00    -0.247 N 
ATOM     23  O   UNL d   1       5.733  -1.579   3.335  0.00  0.00    -0.245 OA
ATOM     24  N   UNL d   1       3.421  -2.441   5.707  0.00  0.00    -0.247 N 
ATOM     25  H   UNL d   1       4.982  -1.012   5.799  0.00  0.00     0.192 HD
ATOM     26  C   UNL d   1       3.104  -3.322   4.670  0.00  0.00     0.345 C 
ATOM     27  H   UNL d   1       2.670  -2.142   6.318  0.00  0.00     0.192 HD
ATOM     28  O   UNL d   1       2.144  -4.078   4.675  0.00  0.00    -0.245 OA
ENDBRANCH  19  20
ENDBRANCH  18  19
ENDBRANCH  17  18
ENDBRANCH   5  17
TORSDOF 4
