REMARK  4 active torsions:
REMARK  status: ('A' for Active; 'I' for Inactive)
REMARK    1  A    between atoms: C_6  and  C_1 
REMARK    2  A    between atoms: C_2  and  C_5 
REMARK    3  A    between atoms: N_7  and  N_3 
REMARK    4  A    between atoms: N_8  and  C_11 
ROOT
ATOM      1  C   UNL d   1       0.833   3.589   1.022  0.00  0.00     0.050 A 
ATOM      2  C   UNL d   1       0.728   1.173   0.693  0.00  0.00     0.050 A 
ATOM      3  C   UNL d   1       1.149   2.444   0.275  0.00  0.00     0.032 A 
ATOM      4  C   UNL d   1      -0.329   2.188   2.659  0.00  0.00     0.051 A 
ATOM      5  C   UNL d   1      -0.015   1.063   1.879  0.00  0.00     0.047 A 
ATOM      6  C   UNL d   1       0.095   3.443   2.211  0.00  0.00     0.047 A 
ENDROOT
BRANCH   4   7
ATOM      7  N   UNL d   1      -1.112   2.112   3.831  0.00  0.00    -0.287 N 
ATOM      8  N   UNL d   1      -0.898   1.058   4.459  0.00  0.00    -0.244 N 
ATOM      9  HN  UNL d   1      -0.137   0.418   4.233  1.00  0.00     0.208 HD
ATOM     10  HN  UNL d   1      -1.773   2.831   4.126  1.00  0.00     0.188 HD
BRANCH   8  11
ATOM     11  N   UNL d   1      -1.778   0.842   5.480  0.00  0.00    -0.309 N 
ATOM     12  C   UNL d   1      -2.293   1.936   6.305  0.00  0.00     0.170 C 
ATOM     13  C   UNL d   1      -1.468   2.072   7.590  0.00  0.00     0.189 C 
ATOM     14  O   UNL d   1      -1.396   0.821   8.300  0.00  0.00    -0.388 OA
ATOM     15  C   UNL d   1      -0.792  -0.195   7.480  0.00  0.00     0.189 C 
ATOM     16  C   UNL d   1      -1.603  -0.416   6.201  0.00  0.00     0.170 C 
ENDBRANCH   8  11
ENDBRANCH   4   7
BRANCH   2  17
ATOM     17  C   UNL d   1       1.050  -0.071  -0.099  0.00  0.00     0.417 C 
ATOM     18  F   UNL d   1       1.751   0.179  -1.239  0.00  0.00    -0.166 F 
ATOM     19  F   UNL d   1      -0.068  -0.743  -0.488  0.00  0.00    -0.166 F 
ATOM     20  F   UNL d   1       1.795  -0.960   0.612  0.00  0.00    -0.166 F 
ENDBRANCH   2  17
BRANCH   1  21
ATOM     21  C   UNL d   1       1.262   4.964   0.568  0.00  0.00     0.417 C 
ATOM     22  F   UNL d   1       1.965   4.954  -0.599  0.00  0.00    -0.166 F 
ATOM     23  F   UNL d   1       0.205   5.795   0.358  0.00  0.00    -0.166 F 
ATOM     24  F   UNL d   1       2.058   5.588   1.478  0.00  0.00    -0.166 F 
ENDBRANCH   1  21
TORSDOF 4
