REMARK  8 active torsions:
REMARK  status: ('A' for Active; 'I' for Inactive)
REMARK    1  A    between atoms: C_6  and  C_2 
REMARK    2  A    between atoms: C_7  and  C_3 
REMARK    3  A    between atoms: S_9  and  C_6 
REMARK    4  A    between atoms: S_10  and  C_7 
REMARK    5  A    between atoms: C_11  and  S_9 
REMARK    6  A    between atoms: C_12  and  S_10 
REMARK    7  A    between atoms: N_15  and  C_13 
REMARK    8  A    between atoms: N_16  and  C_14 
ROOT
ATOM      1  C   UNL d   1       1.315   0.933  -0.169  0.00  0.00    -0.047 C 
ATOM      2  C   UNL d   1       1.566  -0.472  -0.058  0.00  0.00    -0.036 C 
ATOM      3  C   UNL d   1      -0.015   1.457  -0.053  0.00  0.00    -0.036 C 
ATOM      4  C   UNL d   1       0.460  -1.351  -0.065  0.00  0.00    -0.054 C 
ATOM      5  C   UNL d   1      -1.100   0.556  -0.061  0.00  0.00    -0.054 C 
ATOM      6  C   UNL d   1      -0.842  -0.823  -0.075  0.00  0.00     0.014 C 
ATOM      7  C   UNL d   1       2.449   1.901  -0.436  0.00  0.00     0.049 C 
ATOM      8  C   UNL d   1       0.570  -2.854  -0.020  0.00  0.00     0.049 C 
ATOM      9  C   UNL d   1      -2.555   0.951  -0.026  0.00  0.00     0.049 C 
ENDROOT
BRANCH   2  10
ATOM     10  C   UNL d   1       2.992  -1.034   0.017  0.00  0.00     0.119 C 
BRANCH  10  11
ATOM     11  S   UNL d   1       3.999  -0.280   1.361  0.00  0.00    -0.123 SA
BRANCH  11  12
ATOM     12  C   UNL d   1       5.636  -0.962   1.073  0.00  0.00     0.021 A 
ATOM     13  C   UNL d   1       6.369  -0.847  -0.129  0.00  0.00     0.022 A 
ATOM     14  C   UNL d   1       7.640  -1.438  -0.206  0.00  0.00     0.024 A 
ATOM     15  C   UNL d   1       8.240  -2.007   0.916  0.00  0.00     0.002 A 
ATOM     16  C   UNL d   1       7.553  -2.042   2.123  0.00  0.00     0.001 A 
ATOM     17  C   UNL d   1       6.257  -1.532   2.198  0.00  0.00     0.020 A 
BRANCH  13  18
ATOM     18  N   UNL d   1       5.818  -0.315  -1.310  0.00  0.00    -0.302 NA
ATOM     19  H   UNL d   1       5.158   0.429  -1.107  0.00  0.00     0.124 HD
ATOM     20  H   UNL d   1       6.516  -0.018  -1.985  0.00  0.00     0.124 HD
ENDBRANCH  13  18
ENDBRANCH  11  12
ENDBRANCH  10  11
ENDBRANCH   2  10
BRANCH   3  21
ATOM     21  C   UNL d   1      -0.236   2.942   0.224  0.00  0.00     0.119 C 
BRANCH  21  22
ATOM     22  S   UNL d   1       0.036   4.056  -1.186  0.00  0.00    -0.123 SA
BRANCH  22  23
ATOM     23  C   UNL d   1      -0.409   5.605  -0.393  0.00  0.00     0.021 A 
ATOM     24  C   UNL d   1      -1.634   6.218  -0.722  0.00  0.00     0.022 A 
ATOM     25  C   UNL d   1      -2.011   7.381  -0.050  0.00  0.00     0.024 A 
ATOM     26  C   UNL d   1      -1.150   7.990   0.865  0.00  0.00     0.002 A 
ATOM     27  C   UNL d   1       0.090   7.417   1.144  0.00  0.00     0.001 A 
ATOM     28  C   UNL d   1       0.462   6.220   0.518  0.00  0.00     0.020 A 
BRANCH  24  29
ATOM     29  N   UNL d   1      -2.574   5.559  -1.544  0.00  0.00    -0.302 NA
ATOM     30  H   UNL d   1      -2.105   4.895  -2.159  0.00  0.00     0.124 HD
ATOM     31  H   UNL d   1      -3.171   6.195  -2.054  0.00  0.00     0.124 HD
ENDBRANCH  24  29
ENDBRANCH  22  23
ENDBRANCH  21  22
ENDBRANCH   3  21
TORSDOF 8
