REMARK  1 active torsions:
REMARK  status: ('A' for Active; 'I' for Inactive)
REMARK    1  A    between atoms: C_7  and  N_1 
ROOT
ATOM      1  N   UNL d   1       0.582   0.686  -4.727  0.00  0.00    -0.356 N 
ATOM      2  HN  UNL d   1       1.376   0.064  -4.876  1.00  0.00     0.166 HD
ATOM      3  N   UNL d   1      -1.614   2.390  -4.321  0.00  0.00    -0.356 N 
ATOM      4  HN  UNL d   1      -2.416   3.004  -4.175  1.00  0.00     0.166 HD
ATOM      5  C   UNL d   1       0.117   0.942  -3.494  0.00  0.00     0.061 A 
ATOM      6  C   UNL d   1       0.294   0.613  -1.104  0.00  0.00     0.105 A 
ATOM      7  C   UNL d   1       0.753   0.368  -2.402  0.00  0.00     0.068 A 
ATOM      8  C   UNL d   1      -0.999   1.788  -3.290  0.00  0.00     0.059 A 
ATOM      9  C   UNL d   1      -0.047   1.289  -5.768  0.00  0.00     0.028 A 
ATOM     10  C   UNL d   1      -1.126   2.150  -5.565  0.00  0.00     0.028 A 
ATOM     11  C   UNL d   1      -0.822   1.425  -0.893  0.00  0.00     0.038 A 
ATOM     12  C   UNL d   1      -1.456   2.004  -1.995  0.00  0.00     0.034 A 
ATOM     13  C   UNL d   1       0.482   0.981  -7.136  0.00  0.00     0.070 C 
ATOM     14  C   UNL d   1      -1.790   2.873  -6.697  0.00  0.00     0.070 C 
ENDROOT
BRANCH   6  15
ATOM     15  N   UNL d   1       0.997   0.024   0.039  0.00  0.00    -0.116 N 
ATOM     16  O   UNL d   1       2.003  -0.661  -0.192  0.00  0.00    -0.532 OA
ATOM     17  O   UNL d   1       0.547   0.254   1.170  0.00  0.00    -0.532 OA
ENDBRANCH   6  15
TORSDOF 1
