REMARK  3 active torsions:
REMARK  status: ('A' for Active; 'I' for Inactive)
REMARK    1  A    between atoms: C_4  and  C_1 
REMARK    2  A    between atoms: N_11  and  C_4 
REMARK    3  A    between atoms: O_12  and  N_8 
ROOT
ATOM      1  C   UNL d   1      -4.995   0.826  -0.511  0.00  0.00     0.133 C 
ATOM      2  C   UNL d   1      -6.242   1.602  -0.132  0.00  0.00     0.172 C 
ATOM      3  C   UNL d   1      -7.551   1.176  -0.706  0.00  0.00     0.027 A 
ATOM      4  S   UNL d   1      -6.244  -0.531  -2.534  0.00  0.00    -0.128 SA
ATOM      5  C   UNL d   1      -4.942   0.623  -2.015  0.00  0.00     0.099 C 
ATOM      6  C   UNL d   1      -7.645   0.232  -1.737  0.00  0.00     0.014 A 
ATOM      7  O   UNL d   1      -6.216   2.537   0.669  0.00  0.00    -0.291 OA
ATOM      8  C   UNL d   1      -8.720   1.747  -0.174  0.00  0.00     0.016 A 
ATOM      9  C   UNL d   1      -8.915  -0.152  -2.196  0.00  0.00     0.019 A 
ATOM     10  C   UNL d   1      -9.975   1.366  -0.649  0.00  0.00     0.001 A 
ATOM     11  C   UNL d   1     -10.072   0.412  -1.656  0.00  0.00     0.001 A 
ENDROOT
BRANCH   1  12
ATOM     12  C   UNL d   1      -3.680   1.480  -0.099  0.00  0.00     0.087 C 
ATOM     13  N   UNL d   1      -2.665   0.690   0.107  0.00  0.00    -0.262 N 
ATOM     14  HN  UNL d   1      -2.695  -0.326   0.022  1.00  0.00     0.195 HD
BRANCH  13  15
ATOM     15  O   UNL d   1      -1.524   1.427   0.461  0.00  0.00    -0.289 OA
ATOM     16  H   UNL d   1      -0.836   0.736   0.490  0.00  0.00     0.244 HD
ENDBRANCH  13  15
BRANCH  12  17
ATOM     17  N   UNL d   1      -3.594   2.848  -0.005  0.00  0.00    -0.290 NA
ATOM     18  H   UNL d   1      -4.428   3.283   0.398  0.00  0.00     0.125 HD
ATOM     19  H   UNL d   1      -2.751   3.110   0.501  0.00  0.00     0.125 HD
ENDBRANCH  12  17
ENDBRANCH   1  12
TORSDOF 3
