REMARK  3 active torsions:
REMARK  status: ('A' for Active; 'I' for Inactive)
REMARK    1  A    between atoms: C_5  and  C_1 
REMARK    2  A    between atoms: N_9  and  C_2 
REMARK       I    between atoms: C_8  and  N_9 
REMARK       I    between atoms: N_10  and  C_8 
REMARK    3  A    between atoms: N_11  and  N_10 
ROOT
ATOM      1  C   UNL d   1      -1.219  -0.641  -0.532  0.00  0.00     0.097 A 
ATOM      2  C   UNL d   1      -0.196  -1.286   0.247  0.00  0.00     0.097 A 
ATOM      3  N   UNL d   1      -1.820   0.323   0.172  0.00  0.00    -0.258 N 
ATOM      4  HN  UNL d   1      -2.580   0.928  -0.138  1.00  0.00     0.195 HD
ATOM      5  C   UNL d   1      -0.241  -0.633   1.460  0.00  0.00     0.101 A 
ATOM      6  O   UNL d   1      -1.202   0.332   1.404  0.00  0.00    -0.240 OA
ATOM      7  C   UNL d   1       0.396  -0.779   2.782  0.00  0.00     0.081 C 
ENDROOT
BRANCH   2   8
ATOM      8  N   UNL d   1       0.556  -2.362  -0.190  0.00  0.00    -0.304 N 
ATOM      9  C   UNL d   1       1.778  -2.828   0.257  0.00  0.00     0.335 C 
ATOM     10  N   UNL d   1       2.063  -4.004  -0.451  0.00  0.00    -0.271 N 
ATOM     11  O   UNL d   1       2.525  -2.284   1.054  0.00  0.00    -0.246 OA
ATOM     12  H   UNL d   1       1.266  -4.564  -0.739  0.00  0.00     0.185 HD
ATOM     13  H   UNL d   1       0.307  -2.716  -1.104  0.00  0.00     0.171 HD
BRANCH  10  14
ATOM     14  N   UNL d   1       3.307  -4.606  -0.588  0.00  0.00    -0.227 NA
ATOM     15  C   UNL d   1       4.376  -3.749  -1.097  0.00  0.00     0.113 C 
ATOM     16  C   UNL d   1       5.462  -4.651  -1.689  0.00  0.00     0.016 C 
ATOM     17  C   UNL d   1       5.947  -5.704  -0.690  0.00  0.00     0.002 C 
ATOM     18  C   UNL d   1       4.788  -6.409   0.018  0.00  0.00     0.016 C 
ATOM     19  C   UNL d   1       3.744  -5.418   0.542  0.00  0.00     0.113 C 
ENDBRANCH  10  14
ENDBRANCH   2   8
BRANCH   1  20
ATOM     20  C   UNL d   1      -1.602  -0.921  -1.919  0.00  0.00     0.038 A 
ATOM     21  C   UNL d   1      -2.133  -2.172  -2.292  0.00  0.00     0.048 A 
ATOM     22 CL   UNL d   1      -2.434  -3.442  -1.151  0.00  0.00    -0.083 Cl
ATOM     23  C   UNL d   1      -2.432  -2.457  -3.630  0.00  0.00     0.025 A 
ATOM     24  C   UNL d   1      -2.228  -1.499  -4.617  0.00  0.00     0.003 A 
ATOM     25  C   UNL d   1      -1.722  -0.250  -4.265  0.00  0.00     0.025 A 
ATOM     26  C   UNL d   1      -1.405   0.038  -2.930  0.00  0.00     0.048 A 
ATOM     27 CL   UNL d   1      -0.714   1.598  -2.624  0.00  0.00    -0.083 Cl
ENDBRANCH   1  20
TORSDOF 3
