REMARK  4 active torsions:
REMARK  status: ('A' for Active; 'I' for Inactive)
REMARK    1  A    between atoms: C_4  and  C_1 
REMARK    2  A    between atoms: N_14  and  C_1 
REMARK    3  A    between atoms: N_6  and  N_2 
REMARK       I    between atoms: C_5  and  N_6 
REMARK       I    between atoms: N_7  and  C_5 
REMARK    4  A    between atoms: C_13  and  N_7 
ROOT
ATOM      1  C   UNL d   1       2.891  -0.033  -1.092  0.00  0.00     0.121 C 
ATOM      2  N   UNL d   1       2.368   0.289  -2.234  0.00  0.00    -0.284 N 
ATOM      3  HN  UNL d   1       2.945   0.436  -3.062  1.00  0.00     0.188 HD
ENDROOT
BRANCH   2   4
ATOM      4  N   UNL d   1       1.007   0.422  -2.277  0.00  0.00    -0.250 N 
ATOM      5  C   UNL d   1       0.429   0.698  -3.513  0.00  0.00     0.339 C 
ATOM      6  N   UNL d   1      -0.953   0.626  -3.466  0.00  0.00    -0.308 N 
ATOM      7  O   UNL d   1       1.099   0.995  -4.499  0.00  0.00    -0.245 OA
ATOM      8  H   UNL d   1      -1.363   0.370  -2.583  0.00  0.00     0.170 HD
ATOM      9  H   UNL d   1       0.493  -0.063  -1.556  0.00  0.00     0.192 HD
BRANCH   6  10
ATOM     10  C   UNL d   1      -1.851   0.915  -4.519  0.00  0.00     0.036 A 
ATOM     11  C   UNL d   1      -1.446   1.319  -5.796  0.00  0.00     0.036 A 
ATOM     12  C   UNL d   1      -2.381   1.652  -6.787  0.00  0.00    -0.060 A 
ATOM     13  C   UNL d   1      -1.919   2.106  -8.140  0.00  0.00     0.048 C 
ATOM     14  C   UNL d   1      -3.744   1.551  -6.499  0.00  0.00     0.007 A 
ATOM     15  C   UNL d   1      -4.162   1.127  -5.238  0.00  0.00     0.003 A 
ATOM     16  C   UNL d   1      -3.221   0.812  -4.254  0.00  0.00     0.029 A 
ENDBRANCH   6  10
ENDBRANCH   2   4
BRANCH   1  17
ATOM     17  C   UNL d   1       4.357  -0.345  -1.062  0.00  0.00     0.087 A 
ATOM     18  N   UNL d   1       4.875  -0.645   0.164  0.00  0.00    -0.361 N 
ATOM     19  C   UNL d   1       6.189  -0.973   0.149  0.00  0.00     0.105 A 
ATOM     20  HN  UNL d   1       4.320  -0.623   1.020  1.00  0.00     0.165 HD
ATOM     21  C   UNL d   1       6.949  -0.991  -1.012  0.00  0.00     0.104 A 
ATOM     22  N   UNL d   1       6.435  -0.676  -2.223  0.00  0.00    -0.372 N 
ATOM     23  C   UNL d   1       5.117  -0.352  -2.225  0.00  0.00     0.120 A 
ATOM     24  HN  UNL d   1       6.998  -0.681  -3.074  1.00  0.00     0.164 HD
ENDBRANCH   1  17
BRANCH   1  25
ATOM     25  N   UNL d   1       2.183  -0.083   0.098  0.00  0.00    -0.286 NA
ATOM     26  H   UNL d   1       1.609   0.744   0.221  0.00  0.00     0.125 HD
ATOM     27  H   UNL d   1       2.820  -0.188   0.891  0.00  0.00     0.125 HD
ENDBRANCH   1  25
TORSDOF 4
