REMARK  3 active torsions:
REMARK  status: ('A' for Active; 'I' for Inactive)
REMARK    1  A    between atoms: N_2  and  C_1 
REMARK       I    between atoms: N_4  and  C_6 
REMARK       I    between atoms: C_7  and  N_4 
REMARK    2  A    between atoms: C_6  and  C_5 
REMARK       I    between atoms: N_10  and  C_7 
REMARK    3  A    between atoms: C_15  and  N_10 
ROOT
ATOM      1  N   UNL d   1      -1.652  -3.282   0.110  0.00  0.00    -0.274 N 
ATOM      2  C   UNL d   1      -0.384  -2.776   0.339  0.00  0.00     0.266 C 
ATOM      3  C   UNL d   1      -2.896  -2.702   0.162  0.00  0.00     0.327 C 
ATOM      4  N   UNL d   1      -2.954  -1.341   0.309  0.00  0.00    -0.309 N 
ATOM      5  O   UNL d   1      -3.850  -3.472   0.084  0.00  0.00    -0.247 OA
ATOM      6  O   UNL d   1      -0.174  -1.569   0.444  0.00  0.00    -0.267 OA
ATOM      7  H   UNL d   1      -1.734  -4.286   0.039  0.00  0.00     0.173 HD
ATOM      8  H   UNL d   1      -2.064  -0.850   0.282  0.00  0.00     0.170 HD
ENDROOT
BRANCH   2   9
ATOM      9  C   UNL d   1       0.678  -3.786   0.423  0.00  0.00     0.075 A 
ATOM     10  S   UNL d   1       0.380  -5.457   0.122  0.00  0.00    -0.061 SA
ATOM     11  C   UNL d   1       1.996  -5.875   0.427  0.00  0.00     0.144 A 
ATOM     12  C   UNL d   1       2.774  -4.792   0.763  0.00  0.00     0.045 A 
ATOM     13  C   UNL d   1       2.012  -3.581   0.741  0.00  0.00     0.027 A 
BRANCH  11  14
ATOM     14  N   UNL d   1       2.425  -7.248   0.345  0.00  0.00    -0.108 N 
ATOM     15  O   UNL d   1       3.432  -7.546   1.002  0.00  0.00    -0.531 OA
ATOM     16  O   UNL d   1       1.780  -8.013  -0.379  0.00  0.00    -0.531 OA
ENDBRANCH  11  14
ENDBRANCH   2   9
BRANCH   4  17
ATOM     17  C   UNL d   1      -4.130  -0.559   0.443  0.00  0.00     0.036 A 
ATOM     18  C   UNL d   1      -5.414  -1.109   0.568  0.00  0.00     0.032 A 
ATOM     19  C   UNL d   1      -6.542  -0.291   0.706  0.00  0.00     0.044 A 
ATOM     20  C   UNL d   1      -6.391   1.086   0.719  0.00  0.00     0.116 A 
ATOM     21  C   UNL d   1      -5.132   1.658   0.599  0.00  0.00     0.044 A 
ATOM     22  F   UNL d   1      -7.469   1.868   0.852  0.00  0.00    -0.206 F 
ATOM     23  C   UNL d   1      -4.002   0.838   0.464  0.00  0.00     0.032 A 
ENDBRANCH   4  17
TORSDOF 3
