REMARK  2 active torsions:
REMARK  status: ('A' for Active; 'I' for Inactive)
REMARK    1  A    between atoms: C_7  and  C_3 
REMARK    2  A    between atoms: C_8  and  C_4 
ROOT
ATOM      1  N   UNL d   1       1.379  -0.621   0.070  0.00  0.00    -0.349 N 
ATOM      2  HN  UNL d   1       2.250  -1.147   0.135  1.00  0.00     0.166 HD
ATOM      3  C   UNL d   1       1.303   0.759  -0.010  0.00  0.00     0.051 A 
ATOM      4  C   UNL d   1       0.180  -1.168   0.051  0.00  0.00     0.084 A 
ATOM      5  S   UNL d   1      -1.117  -0.035  -0.000  0.00  0.00    -0.081 SA
ATOM      6  C   UNL d   1       0.011   1.251  -0.043  0.00  0.00     0.082 A 
ENDROOT
BRANCH   3   7
ATOM      7  C   UNL d   1       2.497   1.608  -0.055  0.00  0.00     0.013 A 
ATOM      8  C   UNL d   1       3.699   1.209  -0.672  0.00  0.00     0.046 A 
ATOM      9 CL   UNL d   1       3.908  -0.306  -1.487  0.00  0.00    -0.083 Cl
ATOM     10  C   UNL d   1       4.806   2.071  -0.693  0.00  0.00     0.025 A 
ATOM     11  C   UNL d   1       4.735   3.337  -0.117  0.00  0.00     0.002 A 
ATOM     12  C   UNL d   1       3.557   3.748   0.497  0.00  0.00     0.001 A 
ATOM     13  C   UNL d   1       2.454   2.889   0.534  0.00  0.00     0.015 A 
ENDBRANCH   3   7
BRANCH   4  14
ATOM     14  C   UNL d   1      -0.066  -2.620   0.002  0.00  0.00    -0.002 A 
ATOM     15  C   UNL d   1      -1.231  -3.214   0.516  0.00  0.00     0.016 A 
ATOM     16  C   UNL d   1      -1.432  -4.596   0.426  0.00  0.00     0.024 A 
ATOM     17  C   UNL d   1      -0.468  -5.401  -0.177  0.00  0.00     0.034 A 
ATOM     18  C   UNL d   1       0.700  -4.836  -0.681  0.00  0.00     0.024 A 
ATOM     19 CL   UNL d   1      -0.724  -7.097  -0.297  0.00  0.00    -0.084 Cl
ATOM     20  C   UNL d   1       0.900  -3.456  -0.586  0.00  0.00     0.016 A 
ENDBRANCH   4  14
TORSDOF 2
