REMARK  2 active torsions:
REMARK  status: ('A' for Active; 'I' for Inactive)
REMARK    1  A    between atoms: C_11  and  C_1 
REMARK    2  A    between atoms: C_12  and  C_9 
ROOT
ATOM      1  C   UNL d   1       0.913  -1.381  -0.030  0.00  0.00     0.144 A 
ATOM      2  N   UNL d   1      -0.277  -0.662  -0.019  0.00  0.00    -0.235 N 
ATOM      3  C   UNL d   1      -0.249   0.740  -0.007  0.00  0.00     0.130 A 
ATOM      4  N   UNL d   1       0.910   1.457   0.007  0.00  0.00    -0.339 N 
ATOM      5  HN  UNL d   1       0.902   2.477   0.024  1.00  0.00     0.167 HD
ATOM      6  C   UNL d   1       2.087  -0.714  -0.033  0.00  0.00     0.069 A 
ATOM      7  N   UNL d   1      -1.555  -1.113  -0.019  0.00  0.00    -0.297 N 
ATOM      8  HN  UNL d   1      -1.865  -2.084  -0.025  1.00  0.00     0.187 HD
ATOM      9  C   UNL d   1       2.033   0.788  -0.000  0.00  0.00     0.070 A 
ATOM     10  C   UNL d   1      -1.558   1.157  -0.005  0.00  0.00     0.076 A 
ATOM     11  C   UNL d   1      -2.323  -0.021  -0.009  0.00  0.00     0.026 A 
ATOM     12  C   UNL d   1      -3.801  -0.135  -0.001  0.00  0.00     0.070 C 
ENDROOT
BRANCH   9  13
ATOM     13  C   UNL d   1       3.306   1.502   0.038  0.00  0.00     0.101 A 
ATOM     14  N   UNL d   1       4.476   0.896  -0.038  0.00  0.00    -0.358 N 
ATOM     15  C   UNL d   1       5.489   1.834   0.042  0.00  0.00     0.096 A 
ATOM     16  HN  UNL d   1       4.613  -0.110  -0.140  1.00  0.00     0.166 HD
ATOM     17  C   UNL d   1       5.081   3.142   0.188  0.00  0.00     0.069 A 
ATOM     18  S   UNL d   1       3.371   3.213   0.210  0.00  0.00    -0.081 SA
ENDBRANCH   9  13
BRANCH   1  19
ATOM     19  C   UNL d   1       0.864  -2.863  -0.026  0.00  0.00     0.434 C 
ATOM     20  F   UNL d   1      -0.360  -3.436  -0.004  0.00  0.00    -0.165 F 
ATOM     21  F   UNL d   1       1.503  -3.368  -1.117  0.00  0.00    -0.165 F 
ATOM     22  F   UNL d   1       1.533  -3.358   1.054  0.00  0.00    -0.165 F 
ENDBRANCH   1  19
TORSDOF 2
