REMARK  5 active torsions:
REMARK  status: ('A' for Active; 'I' for Inactive)
REMARK    1  A    between atoms: C_3  and  C_1 
REMARK    2  A    between atoms: N_2  and  C_6 
REMARK       I    between atoms: N_7  and  C_3 
REMARK    3  A    between atoms: S_8  and  C_4 
REMARK    4  A    between atoms: C_16  and  N_7 
REMARK    5  A    between atoms: C_17  and  S_8 
ROOT
ATOM      1  C   UNL d   1       1.281  -0.094  -0.428  0.00  0.00     0.051 A 
ATOM      2  C   UNL d   1       0.581  -1.291  -0.171  0.00  0.00     0.021 A 
ATOM      3  C   UNL d   1       0.618   1.142  -0.447  0.00  0.00     0.054 A 
ATOM      4  C   UNL d   1      -0.759   1.188  -0.209  0.00  0.00     0.103 A 
ATOM      5  C   UNL d   1      -0.803  -1.216   0.071  0.00  0.00     0.022 A 
ATOM      6  C   UNL d   1      -1.473   0.014   0.047  0.00  0.00     0.037 A 
ENDROOT
BRANCH   1   7
ATOM      7  C   UNL d   1       2.705  -0.075  -0.814  0.00  0.00     0.257 C 
ATOM      8  N   UNL d   1       3.536   0.702  -0.025  0.00  0.00    -0.323 N 
ATOM      9  H   UNL d   1       3.193   1.002   0.880  0.00  0.00     0.169 HD
ATOM     10  O   UNL d   1       3.035  -0.716  -1.806  0.00  0.00    -0.267 OA
BRANCH   8  11
ATOM     11  C   UNL d   1       4.918   0.866  -0.278  0.00  0.00     0.037 A 
ATOM     12  C   UNL d   1       5.463   0.752  -1.556  0.00  0.00     0.046 A 
ATOM     13  C   UNL d   1       6.837   0.839  -1.699  0.00  0.00     0.090 A 
ATOM     14  N   UNL d   1       7.684   1.032  -0.669  0.00  0.00    -0.375 N 
ATOM     15  C   UNL d   1       7.129   1.172   0.553  0.00  0.00     0.090 A 
ATOM     16  HN  UNL d   1       8.694   1.072  -0.806  1.00  0.00     0.164 HD
ATOM     17  C   UNL d   1       5.764   1.127   0.795  0.00  0.00     0.046 A 
ENDBRANCH   8  11
ENDBRANCH   1   7
BRANCH   2  18
ATOM     18  S   UNL d   1       1.363  -2.889   0.030  0.00  0.00    -0.090 SA
BRANCH  18  19
ATOM     19  C   UNL d   1       1.136  -3.632  -1.576  0.00  0.00     0.005 A 
ATOM     20  C   UNL d   1       2.201  -3.650  -2.482  0.00  0.00     0.020 A 
ATOM     21  C   UNL d   1       2.063  -4.252  -3.735  0.00  0.00     0.025 A 
ATOM     22  C   UNL d   1       0.860  -4.861  -4.078  0.00  0.00     0.034 A 
ATOM     23  C   UNL d   1      -0.202  -4.877  -3.175  0.00  0.00     0.025 A 
ATOM     24 CL   UNL d   1       0.688  -5.606  -5.619  0.00  0.00    -0.084 Cl
ATOM     25  C   UNL d   1      -0.063  -4.266  -1.923  0.00  0.00     0.020 A 
ENDBRANCH  18  19
ENDBRANCH   2  18
BRANCH   4  26
ATOM     26  N   UNL d   1      -1.459   2.476  -0.232  0.00  0.00    -0.116 N 
ATOM     27  O   UNL d   1      -0.775   3.495  -0.427  0.00  0.00    -0.532 OA
ATOM     28  O   UNL d   1      -2.681   2.473  -0.050  0.00  0.00    -0.532 OA
ENDBRANCH   4  26
TORSDOF 5
