REMARK  5 active torsions:
REMARK  status: ('A' for Active; 'I' for Inactive)
REMARK    1  A    between atoms: C_7  and  N_1 
REMARK    2  A    between atoms: C_6  and  C_8 
REMARK    3  A    between atoms: C_10  and  C_7 
REMARK    4  A    between atoms: C_9  and  C_10 
REMARK       I    between atoms: N_13  and  C_9 
REMARK    5  A    between atoms: C_15  and  N_13 
ROOT
ATOM      1  C   UNL d   1       5.472   1.095  -0.311  0.00  0.00     0.223 C 
ATOM      2  N   UNL d   1       6.449   1.613   0.523  0.00  0.00    -0.327 N 
ATOM      3  O   UNL d   1       5.658   0.365  -1.281  0.00  0.00    -0.273 OA
ATOM      4  H   UNL d   1       6.132   1.949   1.428  0.00  0.00     0.169 HD
ENDROOT
BRANCH   1   5
ATOM      5  C   UNL d   1       4.072   1.529   0.048  0.00  0.00     0.123 C 
BRANCH   5   6
ATOM      6  C   UNL d   1       3.131   0.334   0.133  0.00  0.00     0.145 C 
BRANCH   6   7
ATOM      7  N   UNL d   1       3.188  -0.500   1.328  0.00  0.00    -0.279 N 
ATOM      8  C   UNL d   1       3.806  -0.213   2.515  0.00  0.00     0.261 A 
ATOM      9  C   UNL d   1       3.336  -1.206   3.487  0.00  0.00     0.048 A 
ATOM     10  O   UNL d   1       4.554   0.702   2.800  0.00  0.00    -0.267 OA
ATOM     11  C   UNL d   1       3.580  -1.321   4.842  0.00  0.00     0.018 A 
ATOM     12  C   UNL d   1       2.451  -2.041   2.834  0.00  0.00     0.048 A 
ATOM     13  C   UNL d   1       2.879  -2.313   5.537  0.00  0.00     0.001 A 
ATOM     14  C   UNL d   1       1.965  -3.155   4.872  0.00  0.00     0.001 A 
ATOM     15  C   UNL d   1       1.746  -3.027   3.497  0.00  0.00     0.018 A 
ATOM     16  C   UNL d   1       2.361  -1.590   1.451  0.00  0.00     0.261 A 
ATOM     17  O   UNL d   1       1.618  -2.085   0.625  0.00  0.00    -0.267 OA
ENDBRANCH   6   7
ENDBRANCH   5   6
ENDBRANCH   1   5
BRANCH   2  18
ATOM     18  C   UNL d   1       7.836   1.387   0.384  0.00  0.00     0.035 A 
ATOM     19  C   UNL d   1       8.410   0.926  -0.803  0.00  0.00     0.045 A 
ATOM     20  C   UNL d   1       9.756   0.538  -0.855  0.00  0.00     0.050 A 
ATOM     21  C   UNL d   1      10.550   0.693   0.289  0.00  0.00     0.016 A 
ATOM     22  C   UNL d   1      10.008   1.238   1.452  0.00  0.00     0.003 A 
ATOM     23  C   UNL d   1       8.655   1.588   1.499  0.00  0.00     0.029 A 
BRANCH  20  24
ATOM     24  C   UNL d   1      10.315  -0.108  -2.098  0.00  0.00     0.417 C 
ATOM     25  F   UNL d   1       9.451  -0.126  -3.151  0.00  0.00    -0.166 F 
ATOM     26  F   UNL d   1      11.440   0.511  -2.552  0.00  0.00    -0.166 F 
ATOM     27  F   UNL d   1      10.667  -1.408  -1.885  0.00  0.00    -0.166 F 
ENDBRANCH  20  24
ENDBRANCH   2  18
TORSDOF 5
