REMARK  4 active torsions:
REMARK  status: ('A' for Active; 'I' for Inactive)
REMARK    1  A    between atoms: C_16  and  C_1 
REMARK    2  A    between atoms: C_5  and  C_6 
REMARK       I    between atoms: C_6  and  N_14 
REMARK    3  A    between atoms: C_9  and  C_13 
REMARK    4  A    between atoms: N_14  and  C_26 
ROOT
ATOM      1  C   UNL d   1      -3.854  -0.699   0.191  0.00  0.00    -0.002 A 
ATOM      2  C   UNL d   1      -4.624   0.057  -0.708  0.00  0.00     0.016 A 
ATOM      3  C   UNL d   1      -4.523  -1.630   0.996  0.00  0.00     0.016 A 
ATOM      4  C   UNL d   1      -6.649  -1.141  -0.069  0.00  0.00     0.035 A 
ATOM      5  C   UNL d   1      -5.896  -1.850   0.862  0.00  0.00     0.030 A 
ATOM      6  C   UNL d   1      -6.007  -0.160  -0.834  0.00  0.00     0.030 A 
ENDROOT
BRANCH   4   7
ATOM      7  N   UNL d   1      -8.031  -1.369  -0.282  0.00  0.00    -0.323 N 
ATOM      8  C   UNL d   1      -8.773  -2.418   0.245  0.00  0.00     0.258 C 
ATOM      9  O   UNL d   1      -8.345  -3.308   0.969  0.00  0.00    -0.267 OA
ATOM     10  H   UNL d   1      -8.492  -0.714  -0.898  0.00  0.00     0.169 HD
BRANCH   8  11
ATOM     11  C   UNL d   1     -10.213  -2.465  -0.133  0.00  0.00     0.054 A 
ATOM     12  C   UNL d   1     -11.186  -2.934   0.759  0.00  0.00     0.021 A 
ATOM     13  N   UNL d   1     -12.508  -2.983   0.431  0.00  0.00    -0.355 N 
ATOM     14  C   UNL d   1     -10.867  -3.416   2.146  0.00  0.00     0.069 C 
ATOM     15  C   UNL d   1     -12.902  -2.593  -0.812  0.00  0.00     0.117 A 
ATOM     16  HN  UNL d   1     -13.195  -3.309   1.111  1.00  0.00     0.166 HD
ATOM     17  C   UNL d   1     -11.979  -2.155  -1.760  0.00  0.00     0.035 A 
ATOM     18  C   UNL d   1     -10.627  -2.094  -1.418  0.00  0.00     0.021 A 
BRANCH  15  19
ATOM     19  C   UNL d   1     -14.381  -2.628  -1.176  0.00  0.00     0.432 C 
ATOM     20  F   UNL d   1     -15.200  -3.069  -0.180  0.00  0.00    -0.165 F 
ATOM     21  F   UNL d   1     -14.853  -1.395  -1.526  0.00  0.00    -0.165 F 
ATOM     22  F   UNL d   1     -14.635  -3.431  -2.251  0.00  0.00    -0.165 F 
ENDBRANCH  15  19
ENDBRANCH   8  11
ENDBRANCH   4   7
BRANCH   1  23
ATOM     23  C   UNL d   1      -2.395  -0.510   0.275  0.00  0.00     0.085 A 
ATOM     24  N   UNL d   1      -1.754   0.602  -0.031  0.00  0.00    -0.349 N 
ATOM     25  C   UNL d   1      -0.393   0.450   0.200  0.00  0.00     0.050 A 
ATOM     26  HN  UNL d   1      -2.195   1.451  -0.386  1.00  0.00     0.166 HD
ATOM     27  C   UNL d   1       0.597   1.439   0.033  0.00  0.00     0.031 A 
ATOM     28  C   UNL d   1       0.001  -0.810   0.644  0.00  0.00     0.034 A 
ATOM     29  C   UNL d   1       1.936   1.142   0.324  0.00  0.00     0.009 A 
ATOM     30  C   UNL d   1       2.312  -0.127   0.774  0.00  0.00    -0.061 A 
ATOM     31  C   UNL d   1       1.339  -1.123   0.933  0.00  0.00     0.028 A 
ATOM     32  C   UNL d   1       3.751  -0.420   1.083  0.00  0.00     0.048 C 
ATOM     33  S   UNL d   1      -1.378  -1.819   0.754  0.00  0.00    -0.070 SA
ENDBRANCH   1  23
TORSDOF 4
