REMARK  7 active torsions:
REMARK  status: ('A' for Active; 'I' for Inactive)
REMARK    1  A    between atoms: C_9  and  C_1 
REMARK       I    between atoms: C_2  and  N_5 
REMARK    2  A    between atoms: O_11  and  C_2 
REMARK    3  A    between atoms: N_5  and  C_6 
REMARK    4  A    between atoms: C_6  and  C_9 
REMARK    5  A    between atoms: C_8  and  C_6 
REMARK    6  A    between atoms: O_15  and  C_8 
REMARK    7  A    between atoms: C_14  and  O_11 
ROOT
ATOM      1  C   UNL d   1      -1.170  -3.586   0.892  0.00  0.00     0.190 C 
ENDROOT
BRANCH   1   2
ATOM      2  N   UNL d   1       0.133  -3.719   1.532  0.00  0.00    -0.323 N 
ATOM      3  C   UNL d   1       0.341  -4.250   2.767  0.00  0.00     0.362 C 
ATOM      4  O   UNL d   1      -0.515  -4.603   3.554  0.00  0.00    -0.238 OA
ATOM      5  H   UNL d   1       0.966  -3.488   1.015  0.00  0.00     0.165 HD
BRANCH   3   6
ATOM      6  O   UNL d   1       1.671  -4.387   2.894  0.00  0.00    -0.294 OA
BRANCH   6   7
ATOM      7  C   UNL d   1       2.311  -5.284   3.836  0.00  0.00     0.061 C 
ATOM      8  C   UNL d   1       1.576  -6.618   4.016  0.00  0.00     0.046 C 
ATOM      9  C   UNL d   1       3.663  -5.550   3.159  0.00  0.00     0.046 C 
ATOM     10  C   UNL d   1       2.534  -4.582   5.175  0.00  0.00     0.046 C 
ENDBRANCH   6   7
ENDBRANCH   3   6
ENDBRANCH   1   2
BRANCH   1  11
ATOM     11  C   UNL d   1      -1.980  -2.390   1.409  0.00  0.00     0.076 C 
BRANCH  11  12
ATOM     12  C   UNL d   1      -1.492  -1.092   0.807  0.00  0.00    -0.028 A 
ATOM     13  C   UNL d   1      -1.995  -0.495  -0.337  0.00  0.00     0.096 A 
ATOM     14  N   UNL d   1      -1.284   0.649  -0.579  0.00  0.00    -0.365 N 
ATOM     15  C   UNL d   1      -0.313   0.816   0.379  0.00  0.00     0.042 A 
ATOM     16  H   UNL d   1      -1.440   1.282  -1.350  0.00  0.00     0.165 HD
ATOM     17  C   UNL d   1      -0.419  -0.258   1.266  0.00  0.00    -0.002 A 
ATOM     18  C   UNL d   1       0.640   1.833   0.522  0.00  0.00     0.030 A 
ATOM     19  C   UNL d   1       0.483  -0.316   2.349  0.00  0.00     0.014 A 
ATOM     20  C   UNL d   1       1.445   0.690   2.505  0.00  0.00     0.001 A 
ATOM     21  C   UNL d   1       1.520   1.749   1.604  0.00  0.00     0.002 A 
ENDBRANCH  11  12
ENDBRANCH   1  11
BRANCH   1  22
ATOM     22  C   UNL d   1      -1.862  -4.959   0.858  0.00  0.00     0.281 C 
ATOM     23  O   UNL d   1      -1.282  -5.990   0.529  0.00  0.00    -0.263 OA
BRANCH  22  24
ATOM     24  O   UNL d   1      -3.180  -4.902   1.187  0.00  0.00    -0.325 OA
ATOM     25  C   UNL d   1      -3.817  -6.181   1.202  0.00  0.00     0.213 C 
ENDBRANCH  22  24
ENDBRANCH   1  22
TORSDOF 7
