REMARK  4 active torsions:
REMARK  status: ('A' for Active; 'I' for Inactive)
REMARK    1  A    between atoms: C_9  and  C_1 
REMARK    2  A    between atoms: C_15  and  C_2 
REMARK    3  A    between atoms: C_7  and  N_3 
REMARK    4  A    between atoms: N_8  and  C_9 
ROOT
ATOM      1  C   UNL d   1       2.031   1.382   0.236  0.00  0.00     0.315 C 
ENDROOT
BRANCH   1   2
ATOM      2  N   UNL d   1       3.358   0.996  -0.254  0.00  0.00     0.096 N 
ATOM      3  C   UNL d   1       4.102   0.217   0.760  0.00  0.00     0.292 C 
ATOM      4  C   UNL d   1       3.662  -1.257   0.956  0.00  0.00     0.154 C 
ATOM      5  N   UNL d   1       3.574  -1.949  -0.328  0.00  0.00    -0.364 N 
ATOM      6  C   UNL d   1       2.856  -1.248  -1.400  0.00  0.00     0.154 C 
ATOM      7  C   UNL d   1       3.338   0.215  -1.515  0.00  0.00     0.292 C 
BRANCH   5   8
ATOM      8  C   UNL d   1       3.770  -3.308  -0.465  0.00  0.00     0.102 A 
ATOM      9  N   UNL d   1       4.017  -3.788  -1.706  0.00  0.00    -0.352 N 
ATOM     10  C   UNL d   1       4.333  -5.093  -1.856  0.00  0.00     0.089 A 
ATOM     11  HN  UNL d   1       3.965  -3.172  -2.517  1.00  0.00     0.166 HD
ATOM     12  C   UNL d   1       4.389  -5.998  -0.816  0.00  0.00     0.017 A 
ATOM     13  C   UNL d   1       4.092  -5.530   0.452  0.00  0.00     0.005 A 
ATOM     14  C   UNL d   1       3.787  -4.177   0.627  0.00  0.00     0.048 A 
ENDBRANCH   5   8
ENDBRANCH   1   2
BRANCH   1  15
ATOM     15  C   UNL d   1       1.317   2.274  -0.732  0.00  0.00     0.016 A 
ATOM     16  C   UNL d   1       1.730   3.513  -1.342  0.00  0.00     0.067 A 
ATOM     17  N   UNL d   1       0.797   3.944  -2.209  0.00  0.00    -0.300 N 
ATOM     18  N   UNL d   1      -0.197   3.056  -2.119  0.00  0.00    -0.311 N 
ATOM     19  HN  UNL d   1       0.839   4.770  -2.807  1.00  0.00     0.187 HD
ATOM     20  C   UNL d   1       0.050   2.051  -1.240  0.00  0.00     0.118 A 
ATOM     21  H   UNL d   1      -1.020   3.203  -2.691  0.00  0.00     0.186 HD
BRANCH  16  22
ATOM     22  C   UNL d   1       2.951   4.298  -1.136  0.00  0.00    -0.007 A 
ATOM     23  C   UNL d   1       3.573   4.933  -2.222  0.00  0.00     0.014 A 
ATOM     24  C   UNL d   1       4.711   5.722  -2.031  0.00  0.00     0.001 A 
ATOM     25  C   UNL d   1       5.238   5.889  -0.752  0.00  0.00     0.000 A 
ATOM     26  C   UNL d   1       4.625   5.268   0.336  0.00  0.00     0.001 A 
ATOM     27  C   UNL d   1       3.487   4.484   0.144  0.00  0.00     0.014 A 
ENDBRANCH  16  22
ENDBRANCH   1  15
TORSDOF 4
