REMARK  2 active torsions:
REMARK  status: ('A' for Active; 'I' for Inactive)
REMARK    1  A    between atoms: C_13  and  N_4 
REMARK    2  A    between atoms: C_12  and  C_13 
ROOT
ATOM      1  N   UNL d   1       6.052  -0.036   1.185  0.00  0.00    -0.197 NA
ATOM      2  C   UNL d   1       4.895  -0.044   1.275  0.00  0.00     0.060 C 
ATOM      3  C   UNL d   1       3.432  -0.053   1.366  0.00  0.00     0.144 C 
ENDROOT
BRANCH   3   4
ATOM      4  C   UNL d   1       2.824  -0.065  -0.034  0.00  0.00     0.142 C 
BRANCH   4   5
ATOM      5  N   UNL d   1       1.347  -0.031   0.021  0.00  0.00    -0.362 N 
ATOM      6  C   UNL d   1       0.653   1.177   0.021  0.00  0.00     0.118 A 
ATOM      7  C   UNL d   1      -0.683   1.289   0.017  0.00  0.00     0.101 A 
ATOM      8  C   UNL d   1      -1.510   0.043   0.015  0.00  0.00     0.217 A 
ATOM      9 CL   UNL d   1      -1.468   2.815   0.003  0.00  0.00    -0.079 Cl
ATOM     10  C   UNL d   1      -0.748  -1.245   0.019  0.00  0.00     0.101 A 
ATOM     11  O   UNL d   1      -2.738   0.074   0.012  0.00  0.00    -0.285 OA
ATOM     12 CL   UNL d   1      -1.612  -2.728   0.008  0.00  0.00    -0.079 Cl
ATOM     13  C   UNL d   1       0.593  -1.202   0.024  0.00  0.00     0.118 A 
ENDBRANCH   4   5
ENDBRANCH   3   4
TORSDOF 2
