REMARK  9 active torsions:
REMARK  status: ('A' for Active; 'I' for Inactive)
REMARK    1  A    between atoms: C_2  and  C_1 
REMARK    2  A    between atoms: C_4  and  C_1 
REMARK    3  A    between atoms: C_5  and  C_2 
REMARK    4  A    between atoms: C_3  and  C_6 
REMARK    5  A    between atoms: O_15  and  C_3 
REMARK    6  A    between atoms: C_9  and  C_4 
REMARK    7  A    between atoms: S_12  and  C_4 
REMARK    8  A    between atoms: C_6  and  C_13 
REMARK    9  A    between atoms: C_13  and  S_12 
ROOT
ATOM      1  C   UNL d   1       2.557   0.303  -0.189  0.00  0.00     0.087 C 
ENDROOT
BRANCH   1   2
ATOM      2  C   UNL d   1       1.039   0.255   0.036  0.00  0.00     0.104 C 
BRANCH   2   3
ATOM      3  C   UNL d   1       0.392  -1.002  -0.516  0.00  0.00     0.161 C 
ATOM      4  O   UNL d   1       1.012  -2.049  -0.684  0.00  0.00    -0.292 OA
BRANCH   3   5
ATOM      5  C   UNL d   1      -1.076  -0.973  -0.794  0.00  0.00     0.010 A 
ATOM      6  C   UNL d   1      -1.609  -1.893  -1.708  0.00  0.00     0.017 A 
ATOM      7  C   UNL d   1      -2.985  -1.919  -1.963  0.00  0.00     0.025 A 
ATOM      8  C   UNL d   1      -3.830  -1.033  -1.296  0.00  0.00     0.034 A 
ATOM      9  C   UNL d   1      -3.310  -0.111  -0.389  0.00  0.00     0.025 A 
ATOM     10 CL   UNL d   1      -5.525  -1.085  -1.582  0.00  0.00    -0.084 Cl
ATOM     11  C   UNL d   1      -1.933  -0.080  -0.137  0.00  0.00     0.017 A 
ENDBRANCH   3   5
ENDBRANCH   2   3
ENDBRANCH   1   2
BRANCH   1  12
ATOM     12  C   UNL d   1       2.963   0.335  -1.662  0.00  0.00    -0.044 A 
ATOM     13  C   UNL d   1       2.483   1.330  -2.534  0.00  0.00     0.008 A 
ATOM     14  C   UNL d   1       2.987   1.451  -3.829  0.00  0.00     0.001 A 
ATOM     15  C   UNL d   1       3.964   0.569  -4.282  0.00  0.00     0.000 A 
ATOM     16  C   UNL d   1       4.423  -0.448  -3.446  0.00  0.00     0.001 A 
ATOM     17  C   UNL d   1       3.925  -0.566  -2.145  0.00  0.00     0.008 A 
ENDBRANCH   1  12
BRANCH   1  18
ATOM     18  S   UNL d   1       3.299   1.847   0.563  0.00  0.00    -0.159 SA
BRANCH  18  19
ATOM     19  C   UNL d   1       2.908   1.657   2.326  0.00  0.00     0.085 C 
BRANCH  19  20
ATOM     20  C   UNL d   1       3.426   2.908   3.031  0.00  0.00     0.120 C 
BRANCH  20  21
ATOM     21  C   UNL d   1       3.118   2.871   4.501  0.00  0.00     0.140 C 
ATOM     22  O   UNL d   1       2.517   1.972   5.072  0.00  0.00    -0.650 OA
BRANCH  21  23
ATOM     23  O   UNL d   1       3.569   3.969   5.150  0.00  0.00    -0.776 OA
ATOM     24  H   UNL d   1       4.028   4.609   4.572  0.00  0.00     0.167 HD
ENDBRANCH  21  23
ENDBRANCH  20  21
ENDBRANCH  19  20
ENDBRANCH  18  19
ENDBRANCH   1  18
TORSDOF 9
