REMARK  4 active torsions:
REMARK  status: ('A' for Active; 'I' for Inactive)
REMARK    1  A    between atoms: C_6  and  C_1 
REMARK    2  A    between atoms: C_15  and  C_6 
REMARK    3  A    between atoms: C_7  and  S_10 
REMARK    4  A    between atoms: S_10  and  C_15 
ROOT
ATOM      1  C   UNL d   1       3.825  -0.144   0.129  0.00  0.00     0.176 C 
ATOM      2  O   UNL d   1       3.138   0.101   1.122  0.00  0.00    -0.291 OA
ENDROOT
BRANCH   1   3
ATOM      3  C   UNL d   1       3.819   0.757  -1.043  0.00  0.00     0.059 A 
ATOM      4  S   UNL d   1       4.969   0.564  -2.299  0.00  0.00    -0.085 SA
ATOM      5  C   UNL d   1       4.401   1.915  -3.180  0.00  0.00     0.016 A 
ATOM      6  C   UNL d   1       4.902   2.392  -4.409  0.00  0.00     0.021 A 
ATOM      7  C   UNL d   1       3.339   2.538  -2.524  0.00  0.00    -0.010 A 
ATOM      8  C   UNL d   1       4.337   3.536  -4.975  0.00  0.00     0.025 A 
ATOM      9  C   UNL d   1       3.298   4.190  -4.330  0.00  0.00     0.035 A 
ATOM     10  C   UNL d   1       2.794   3.705  -3.122  0.00  0.00     0.037 A 
ATOM     11 CL   UNL d   1       2.625   5.614  -5.024  0.00  0.00    -0.084 Cl
ATOM     12  C   UNL d   1       2.979   1.837  -1.302  0.00  0.00    -0.029 A 
ATOM     13  C   UNL d   1       1.833   2.280  -0.436  0.00  0.00     0.050 C 
ENDBRANCH   1   3
BRANCH   1  14
ATOM     14  C   UNL d   1       4.776  -1.347   0.110  0.00  0.00     0.164 C 
BRANCH  14  15
ATOM     15  S   UNL d   1       4.298  -2.659   1.298  0.00  0.00    -0.122 SA
BRANCH  15  16
ATOM     16  C   UNL d   1       5.500  -3.920   0.855  0.00  0.00     0.007 A 
ATOM     17  C   UNL d   1       5.002  -5.123   0.326  0.00  0.00     0.027 A 
ATOM     18  C   UNL d   1       5.861  -6.145  -0.119  0.00  0.00    -0.039 A 
ATOM     19  C   UNL d   1       5.287  -7.434  -0.639  0.00  0.00     0.050 C 
ATOM     20  C   UNL d   1       7.240  -5.919  -0.073  0.00  0.00     0.040 A 
ATOM     21  C   UNL d   1       7.745  -4.751   0.500  0.00  0.00     0.032 A 
ATOM     22 CL   UNL d   1       8.370  -7.063  -0.705  0.00  0.00    -0.084 Cl
ATOM     23  C   UNL d   1       6.887  -3.765   1.021  0.00  0.00    -0.044 A 
ATOM     24  C   UNL d   1       7.525  -2.598   1.725  0.00  0.00     0.049 C 
ENDBRANCH  15  16
ENDBRANCH  14  15
ENDBRANCH   1  14
TORSDOF 4
