REMARK  3 active torsions:
REMARK  status: ('A' for Active; 'I' for Inactive)
REMARK    1  A    between atoms: C_2  and  S_1 
REMARK    2  A    between atoms: N_7  and  S_1 
REMARK    3  A    between atoms: C_14  and  N_7 
ROOT
ATOM      1  N   UNL d   1       2.223  -6.723   4.053  0.00  0.00    -0.191 NA
ATOM      2  C   UNL d   1       1.943  -5.697   3.590  0.00  0.00     0.099 C 
ATOM      3  C   UNL d   1       0.834  -1.937   1.990  0.00  0.00     0.042 A 
ATOM      4  C   UNL d   1       1.582  -4.429   3.023  0.00  0.00     0.044 A 
ATOM      5  C   UNL d   1       2.072  -2.090   2.615  0.00  0.00     0.031 A 
ATOM      6  C   UNL d   1      -0.017  -3.032   1.847  0.00  0.00     0.031 A 
ATOM      7  C   UNL d   1       0.357  -4.278   2.362  0.00  0.00     0.025 A 
ATOM      8  C   UNL d   1       2.442  -3.332   3.141  0.00  0.00     0.025 A 
ENDROOT
BRANCH   3   9
ATOM      9  N   UNL d   1       0.446  -0.660   1.495  0.00  0.00    -0.281 N 
ATOM     10  H   UNL d   1      -0.548  -0.435   1.559  0.00  0.00     0.179 HD
BRANCH   9  11
ATOM     11  S   UNL d   1       1.093  -0.140   0.025  0.00  0.00     0.265 S 
ATOM     12  O   UNL d   1       0.537   1.166  -0.252  0.00  0.00    -0.200 OA
ATOM     13  O   UNL d   1       2.517  -0.388  -0.002  0.00  0.00    -0.200 OA
BRANCH  11  14
ATOM     14  C   UNL d   1       0.459  -1.111  -1.254  0.00  0.00     0.110 A 
ATOM     15  C   UNL d   1      -0.877  -1.351  -1.464  0.00  0.00     0.099 A 
ATOM     16  S   UNL d   1      -1.168  -2.333  -2.821  0.00  0.00    -0.064 SA
ATOM     17 CL   UNL d   1      -2.231  -0.808  -0.550  0.00  0.00    -0.075 Cl
ATOM     18  C   UNL d   1       0.489  -2.419  -3.157  0.00  0.00     0.077 A 
ATOM     19  C   UNL d   1       1.266  -1.734  -2.259  0.00  0.00     0.059 A 
ATOM     20 CL   UNL d   1       1.037  -3.305  -4.521  0.00  0.00    -0.076 Cl
ENDBRANCH  11  14
ENDBRANCH   9  11
ENDBRANCH   3   9
TORSDOF 3
