REMARK  4 active torsions:
REMARK  status: ('A' for Active; 'I' for Inactive)
REMARK    1  A    between atoms: C_9  and  C_1 
REMARK    2  A    between atoms: C_10  and  C_4 
REMARK    3  A    between atoms: C_5  and  N_14 
REMARK    4  A    between atoms: C_18  and  C_6 
REMARK       I    between atoms: N_15  and  C_9 
ROOT
ATOM      1  C   UNL d   1       0.146  -2.469   0.108  0.00  0.00     0.258 C 
ATOM      2  N   UNL d   1      -2.447  -5.835   0.526  0.00  0.00    -0.357 N 
ATOM      3  N   UNL d   1      -0.610  -3.648   0.158  0.00  0.00    -0.345 N 
ATOM      4  O   UNL d   1       1.038  -2.228   0.912  0.00  0.00    -0.267 OA
ATOM      5  C   UNL d   1      -1.719  -5.272   1.680  0.00  0.00     0.145 C 
ATOM      6  C   UNL d   1      -2.591  -4.923  -0.629  0.00  0.00     0.145 C 
ATOM      7  C   UNL d   1      -0.396  -4.600   1.249  0.00  0.00     0.146 C 
ATOM      8  C   UNL d   1      -1.260  -4.261  -1.010  0.00  0.00     0.146 C 
ENDROOT
BRANCH   1   9
ATOM      9  C   UNL d   1      -0.213  -1.503  -0.913  0.00  0.00     0.092 C 
ATOM     10  C   UNL d   1       0.608  -0.767  -1.831  0.00  0.00     0.086 C 
ATOM     11  N   UNL d   1      -0.174  -0.035  -2.647  0.00  0.00    -0.259 N 
ATOM     12  O   UNL d   1      -1.459  -0.158  -2.190  0.00  0.00    -0.241 OA
ATOM     13  HN  UNL d   1       0.133   0.509  -3.453  1.00  0.00     0.195 HD
ATOM     14  C   UNL d   1      -1.486  -1.011  -1.140  0.00  0.00     0.090 C 
ATOM     15  C   UNL d   1      -2.812  -1.208  -0.522  0.00  0.00     0.080 C 
BRANCH  10  16
ATOM     16  C   UNL d   1       2.064  -0.733  -2.039  0.00  0.00     0.037 A 
ATOM     17  C   UNL d   1       2.825  -1.901  -2.236  0.00  0.00     0.048 A 
ATOM     18 CL   UNL d   1       2.147  -3.494  -2.225  0.00  0.00    -0.083 Cl
ATOM     19  C   UNL d   1       4.197  -1.830  -2.534  0.00  0.00     0.025 A 
ATOM     20  C   UNL d   1       4.831  -0.602  -2.684  0.00  0.00     0.003 A 
ATOM     21  C   UNL d   1       4.102   0.565  -2.498  0.00  0.00     0.025 A 
ATOM     22  C   UNL d   1       2.742   0.506  -2.157  0.00  0.00     0.048 A 
ATOM     23 CL   UNL d   1       1.980   2.042  -1.879  0.00  0.00    -0.083 Cl
ENDBRANCH  10  16
ENDBRANCH   1   9
BRANCH   2  24
ATOM     24  C   UNL d   1      -3.522  -6.665   0.717  0.00  0.00     0.165 A 
ATOM     25  N   UNL d   1      -4.291  -7.075  -0.268  0.00  0.00    -0.320 N 
ATOM     26  C   UNL d   1      -5.287  -7.919   0.208  0.00  0.00     0.131 A 
ATOM     27  HN  UNL d   1      -4.173  -6.811  -1.246  1.00  0.00     0.169 HD
ATOM     28  N   UNL d   1      -5.366  -8.138   1.523  0.00  0.00    -0.308 N 
ATOM     29  S   UNL d   1      -4.088  -7.322   2.219  0.00  0.00     0.024 SA
ATOM     30  HN  UNL d   1      -6.070  -8.695   2.008  1.00  0.00     0.176 HD
BRANCH  26  31
ATOM     31  C   UNL d   1      -6.229  -8.577  -0.764  0.00  0.00     0.049 A 
ATOM     32  S   UNL d   1      -6.111  -8.380  -2.460  0.00  0.00    -0.098 SA
ATOM     33  C   UNL d   1      -7.414  -9.450  -2.740  0.00  0.00     0.050 A 
ATOM     34  C   UNL d   1      -7.950  -9.928  -1.565  0.00  0.00     0.009 A 
ATOM     35  C   UNL d   1      -7.266  -9.419  -0.418  0.00  0.00     0.023 A 
ENDBRANCH  26  31
ENDBRANCH   2  24
TORSDOF 4
