REMARK  6 active torsions:
REMARK  status: ('A' for Active; 'I' for Inactive)
REMARK    1  A    between atoms: C_5  and  C_1 
REMARK    2  A    between atoms: C_8  and  C_2 
REMARK       I    between atoms: N_12  and  C_8 
REMARK    3  A    between atoms: C_21  and  N_12 
REMARK    4  A    between atoms: C_15  and  O_17 
REMARK    5  A    between atoms: O_17  and  C_22 
REMARK    6  A    between atoms: C_22  and  C_21 
ROOT
ATOM      1  C   UNL d   1      -1.138  -0.885   0.559  0.00  0.00     0.086 A 
ATOM      2  C   UNL d   1       0.042  -1.341  -0.127  0.00  0.00     0.092 A 
ATOM      3  N   UNL d   1      -1.054   0.441   0.766  0.00  0.00    -0.259 N 
ATOM      4  HN  UNL d   1      -1.726   1.018   1.271  1.00  0.00     0.195 HD
ATOM      5  O   UNL d   1       0.102   0.870   0.171  0.00  0.00    -0.241 OA
ATOM      6  C   UNL d   1       0.770  -0.188  -0.349  0.00  0.00     0.090 A 
ATOM      7  C   UNL d   1       2.040   0.156  -1.022  0.00  0.00     0.080 C 
ENDROOT
BRANCH   2   8
ATOM      8  C   UNL d   1       0.412  -2.687  -0.519  0.00  0.00     0.256 C 
ATOM      9  O   UNL d   1      -0.398  -3.474  -0.996  0.00  0.00    -0.267 OA
ATOM     10  N   UNL d   1       1.722  -3.022  -0.227  0.00  0.00    -0.355 N 
ATOM     11  H   UNL d   1       2.203  -2.407   0.417  0.00  0.00     0.162 HD
BRANCH  10  12
ATOM     12  C   UNL d   1       2.164  -4.410  -0.276  0.00  0.00     0.149 C 
BRANCH  12  13
ATOM     13  C   UNL d   1       3.681  -4.547  -0.107  0.00  0.00     0.195 C 
BRANCH  13  14
ATOM     14  O   UNL d   1       4.047  -5.927  -0.174  0.00  0.00    -0.350 OA
BRANCH  14  15
ATOM     15  C   UNL d   1       5.376  -6.220  -0.015  0.00  0.00     0.068 A 
ATOM     16  C   UNL d   1       6.404  -5.295   0.173  0.00  0.00     0.037 A 
ATOM     17  C   UNL d   1       7.726  -5.728   0.326  0.00  0.00     0.003 A 
ATOM     18  C   UNL d   1       8.028  -7.087   0.290  0.00  0.00     0.000 A 
ATOM     19  C   UNL d   1       7.010  -8.015   0.099  0.00  0.00     0.003 A 
ATOM     20  C   UNL d   1       5.688  -7.583  -0.052  0.00  0.00     0.037 A 
ENDBRANCH  14  15
ENDBRANCH  13  14
ENDBRANCH  12  13
ENDBRANCH  10  12
ENDBRANCH   2   8
BRANCH   1  21
ATOM     21  C   UNL d   1      -2.296  -1.629   1.083  0.00  0.00     0.037 A 
ATOM     22  C   UNL d   1      -2.143  -2.791   1.871  0.00  0.00     0.048 A 
ATOM     23 CL   UNL d   1      -0.605  -3.388   2.407  0.00  0.00    -0.083 Cl
ATOM     24  C   UNL d   1      -3.258  -3.488   2.365  0.00  0.00     0.025 A 
ATOM     25  C   UNL d   1      -4.544  -3.006   2.156  0.00  0.00     0.003 A 
ATOM     26  C   UNL d   1      -4.721  -1.835   1.432  0.00  0.00     0.025 A 
ATOM     27  C   UNL d   1      -3.618  -1.165   0.879  0.00  0.00     0.048 A 
ATOM     28 CL   UNL d   1      -4.006   0.241  -0.064  0.00  0.00    -0.083 Cl
ENDBRANCH   1  21
TORSDOF 6
