REMARK  7 active torsions:
REMARK  status: ('A' for Active; 'I' for Inactive)
REMARK    1  A    between atoms: N_2  and  C_1 
REMARK    2  A    between atoms: N_3  and  C_1 
REMARK    3  A    between atoms: C_6  and  N_2 
REMARK    4  A    between atoms: C_9  and  N_3 
REMARK    5  A    between atoms: C_10  and  C_5 
REMARK    6  A    between atoms: C_14  and  C_6 
REMARK    7  A    between atoms: O_13  and  C_14 
ROOT
ATOM      1  N   UNL d   1       0.270  -0.826  -0.844  0.00  0.00    -0.333 N 
ATOM      2  H   UNL d   1       0.641  -1.736  -0.606  0.00  0.00     0.168 HD
ENDROOT
BRANCH   1   3
ATOM      3  C   UNL d   1       1.229   0.106  -1.108  0.00  0.00     0.172 C 
ATOM      4  S   UNL d   1       1.267   1.143  -2.420  0.00  0.00    -0.041 SA
BRANCH   3   5
ATOM      5  N   UNL d   1       2.280   0.153  -0.242  0.00  0.00    -0.356 N 
ATOM      6  H   UNL d   1       3.045   0.738  -0.569  0.00  0.00     0.162 HD
BRANCH   5   7
ATOM      7  C   UNL d   1       2.449  -0.362   1.140  0.00  0.00     0.046 C 
ATOM      8  C   UNL d   1       1.194  -0.121   1.997  0.00  0.00     0.040 C 
ATOM      9  C   UNL d   1       2.812  -1.854   1.132  0.00  0.00     0.040 C 
BRANCH   7  10
ATOM     10  C   UNL d   1       3.610   0.443   1.798  0.00  0.00     0.194 C 
BRANCH  10  11
ATOM     11  O   UNL d   1       4.822   0.283   1.064  0.00  0.00    -0.398 OA
ATOM     12  H   UNL d   1       5.508   0.790   1.533  0.00  0.00     0.209 HD
ENDBRANCH  10  11
ENDBRANCH   7  10
ENDBRANCH   5   7
ENDBRANCH   3   5
ENDBRANCH   1   3
BRANCH   1  13
ATOM     13  C   UNL d   1      -1.121  -0.769  -1.059  0.00  0.00     0.034 A 
ATOM     14  C   UNL d   1      -1.819  -1.974  -1.147  0.00  0.00     0.030 A 
ATOM     15  C   UNL d   1      -3.211  -1.984  -1.249  0.00  0.00     0.010 A 
ATOM     16  C   UNL d   1      -3.941  -0.785  -1.234  0.00  0.00    -0.055 A 
ATOM     17  C   UNL d   1      -3.232   0.421  -1.147  0.00  0.00     0.010 A 
ATOM     18  C   UNL d   1      -1.834   0.431  -1.065  0.00  0.00     0.030 A 
BRANCH  16  19
ATOM     19  C   UNL d   1      -5.458  -0.779  -1.281  0.00  0.00     0.010 C 
ATOM     20  C   UNL d   1      -5.986  -1.361  -2.594  0.00  0.00     0.015 C 
ATOM     21  C   UNL d   1      -6.057  -1.516  -0.079  0.00  0.00     0.015 C 
ENDBRANCH  16  19
ENDBRANCH   1  13
TORSDOF 7
