REMARK  5 active torsions:
REMARK  status: ('A' for Active; 'I' for Inactive)
REMARK    1  A    between atoms: C_4  and  S_1 
REMARK    2  A    between atoms: N_7  and  S_1 
REMARK    3  A    between atoms: S_2  and  N_3 
REMARK    4  A    between atoms: C_12  and  S_2 
REMARK    5  A    between atoms: N_3  and  C_5 
ROOT
ATOM      1  C   UNL d   1       0.406  -1.806  -0.479  0.00  0.00     0.081 A 
ATOM      2  C   UNL d   1      -1.099  -3.490  -1.336  0.00  0.00     0.050 A 
ATOM      3  C   UNL d   1      -0.774  -2.143  -1.150  0.00  0.00     0.055 A 
ATOM      4  C   UNL d   1      -0.272  -4.500  -0.815  0.00  0.00    -0.035 A 
ATOM      5  C   UNL d   1       1.231  -2.797   0.052  0.00  0.00     0.026 A 
ATOM      6  C   UNL d   1       0.896  -4.138  -0.125  0.00  0.00     0.010 A 
ATOM      7  C   UNL d   1      -0.614  -5.957  -0.947  0.00  0.00     0.050 C 
ENDROOT
BRANCH   2   8
ATOM      8  N   UNL d   1      -2.325  -3.833  -1.974  0.00  0.00    -0.280 N 
ATOM      9  H   UNL d   1      -3.187  -3.582  -1.489  0.00  0.00     0.179 HD
BRANCH   8  10
ATOM     10  S   UNL d   1      -2.479  -3.635  -3.643  0.00  0.00     0.263 S 
ATOM     11  O   UNL d   1      -3.904  -3.606  -3.909  0.00  0.00    -0.200 OA
ATOM     12  O   UNL d   1      -1.615  -2.564  -4.093  0.00  0.00    -0.200 OA
BRANCH  10  13
ATOM     13  C   UNL d   1      -1.857  -5.172  -4.285  0.00  0.00     0.079 A 
ATOM     14  C   UNL d   1      -2.705  -6.280  -4.379  0.00  0.00     0.025 A 
ATOM     15  C   UNL d   1      -2.221  -7.477  -4.910  0.00  0.00     0.002 A 
ATOM     16  C   UNL d   1      -0.899  -7.560  -5.354  0.00  0.00     0.000 A 
ATOM     17  C   UNL d   1      -0.059  -6.447  -5.272  0.00  0.00     0.002 A 
ATOM     18  C   UNL d   1      -0.537  -5.247  -4.743  0.00  0.00     0.025 A 
ENDBRANCH  10  13
ENDBRANCH   8  10
ENDBRANCH   2   8
BRANCH   1  19
ATOM     19  S   UNL d   1       0.837  -0.096  -0.227  0.00  0.00     0.260 S 
ATOM     20  O   UNL d   1       1.658  -0.035   0.964  0.00  0.00    -0.200 OA
ATOM     21  O   UNL d   1      -0.382   0.678  -0.333  0.00  0.00    -0.200 OA
BRANCH  19  22
ATOM     22  N   UNL d   1       1.821   0.252  -1.573  0.00  0.00    -0.315 N 
ATOM     23  C   UNL d   1       3.130  -0.421  -1.630  0.00  0.00     0.162 C 
ATOM     24  C   UNL d   1       1.145   0.324  -2.881  0.00  0.00     0.162 C 
ENDBRANCH  19  22
ENDBRANCH   1  19
TORSDOF 5
