REMARK  4 active torsions:
REMARK  status: ('A' for Active; 'I' for Inactive)
REMARK    1  A    between atoms: C_7  and  C_1 
REMARK    2  A    between atoms: C_8  and  C_2 
REMARK    3  A    between atoms: O_17  and  C_7 
REMARK    4  A    between atoms: C_20  and  O_17 
ROOT
ATOM      1  C   UNL d   1       1.440   1.056   0.065  0.00  0.00     0.066 C 
ATOM      2  C   UNL d   1       0.194   1.902  -0.067  0.00  0.00     0.161 C 
ATOM      3  C   UNL d   1       1.366  -0.293   0.017  0.00  0.00     0.024 C 
ATOM      4  C   UNL d   1      -1.069  -0.233  -0.041  0.00  0.00     0.321 C 
ATOM      5  N   UNL d   1       0.124  -0.881  -0.092  0.00  0.00    -0.312 N 
ATOM      6  N   UNL d   1      -1.011   1.109   0.102  0.00  0.00    -0.330 N 
ATOM      7  O   UNL d   1      -2.138  -0.831  -0.085  0.00  0.00    -0.247 OA
ATOM      8  C   UNL d   1       2.493  -1.295   0.038  0.00  0.00     0.069 C 
ATOM      9  H   UNL d   1       0.045  -1.891  -0.148  0.00  0.00     0.170 HD
ATOM     10  H   UNL d   1      -1.910   1.569   0.110  0.00  0.00     0.165 HD
ENDROOT
BRANCH   2  11
ATOM     11  C   UNL d   1       0.075   3.095   0.873  0.00  0.00    -0.029 A 
ATOM     12  C   UNL d   1      -0.107   4.386   0.347  0.00  0.00     0.035 A 
ATOM     13  C   UNL d   1      -0.269   5.490   1.192  0.00  0.00     0.056 A 
ATOM     14 CL   UNL d   1      -0.483   7.038   0.455  0.00  0.00    -0.083 Cl
ATOM     15  C   UNL d   1      -0.259   5.311   2.578  0.00  0.00     0.055 A 
ATOM     16  C   UNL d   1      -0.080   4.032   3.111  0.00  0.00     0.026 A 
ATOM     17 CL   UNL d   1      -0.475   6.621   3.682  0.00  0.00    -0.083 Cl
ATOM     18  C   UNL d   1       0.086   2.930   2.267  0.00  0.00     0.011 A 
ENDBRANCH   2  11
BRANCH   1  19
ATOM     19  C   UNL d   1       2.752   1.743   0.193  0.00  0.00     0.293 C 
ATOM     20  O   UNL d   1       3.740   1.250   0.721  0.00  0.00    -0.259 OA
BRANCH  19  21
ATOM     21  O   UNL d   1       2.707   2.993  -0.334  0.00  0.00    -0.318 OA
BRANCH  21  22
ATOM     22  C   UNL d   1       3.922   3.757  -0.216  0.00  0.00     0.174 C 
ATOM     23  C   UNL d   1       4.157   4.238   1.208  0.00  0.00     0.034 C 
ENDBRANCH  21  22
ENDBRANCH  19  21
ENDBRANCH   1  19
TORSDOF 4
