REMARK  3 active torsions:
REMARK  status: ('A' for Active; 'I' for Inactive)
REMARK    1  A    between atoms: C_2  and  C_1 
REMARK       I    between atoms: N_3  and  C_2 
REMARK    2  A    between atoms: N_6  and  N_3 
REMARK    3  A    between atoms: C_8  and  N_6 
ROOT
ATOM      1  C   UNL d   1       0.229   2.103   0.394  0.00  0.00     0.271 C 
ATOM      2  N   UNL d   1       1.441   2.787   0.431  0.00  0.00    -0.282 N 
ATOM      3  O   UNL d   1       0.088   1.097  -0.297  0.00  0.00    -0.266 OA
ATOM      4  H   UNL d   1       1.458   3.779   0.652  0.00  0.00     0.184 HD
ENDROOT
BRANCH   2   5
ATOM      5  N   UNL d   1       2.420   2.351  -0.488  0.00  0.00    -0.203 NA
ATOM      6  H   UNL d   1       2.149   1.433  -0.868  0.00  0.00     0.153 HD
BRANCH   5   7
ATOM      7  C   UNL d   1       3.743   2.331   0.022  0.00  0.00     0.027 A 
ATOM      8  C   UNL d   1       4.656   1.399  -0.505  0.00  0.00     0.028 A 
ATOM      9  C   UNL d   1       6.001   1.410  -0.120  0.00  0.00     0.044 A 
ATOM     10  C   UNL d   1       6.448   2.372   0.774  0.00  0.00     0.116 A 
ATOM     11  C   UNL d   1       5.578   3.322   1.288  0.00  0.00     0.044 A 
ATOM     12  F   UNL d   1       7.739   2.395   1.131  0.00  0.00    -0.206 F 
ATOM     13  C   UNL d   1       4.231   3.307   0.905  0.00  0.00     0.028 A 
ENDBRANCH   5   7
ENDBRANCH   2   5
BRANCH   1  14
ATOM     14  C   UNL d   1      -0.884   2.650   1.226  0.00  0.00     0.093 A 
ATOM     15  C   UNL d   1      -0.894   4.006   1.577  0.00  0.00     0.133 A 
ATOM     16  F   UNL d   1       0.078   4.832   1.161  0.00  0.00    -0.205 F 
ATOM     17  C   UNL d   1      -1.907   4.557   2.366  0.00  0.00     0.043 A 
ATOM     18  C   UNL d   1      -2.944   3.753   2.819  0.00  0.00     0.005 A 
ATOM     19  C   UNL d   1      -2.961   2.402   2.479  0.00  0.00     0.025 A 
ATOM     20  C   UNL d   1      -1.939   1.846   1.689  0.00  0.00     0.052 A 
ATOM     21 CL   UNL d   1      -2.062   0.144   1.403  0.00  0.00    -0.083 Cl
ENDBRANCH   1  14
TORSDOF 3
