REMARK  2 active torsions:
REMARK  status: ('A' for Active; 'I' for Inactive)
REMARK    1  A    between atoms: C_9  and  C_6 
REMARK    2  A    between atoms: C_8  and  C_7 
ROOT
ATOM      1  O   UNL d   1      -1.100  -0.008  -0.026  0.00  0.00    -0.273 OA
ATOM      2  N   UNL d   1       1.022   0.698   0.041  0.00  0.00    -0.277 N 
ATOM      3  HN  UNL d   1       1.834   1.314   0.075  1.00  0.00     0.189 HD
ATOM      4  N   UNL d   1       1.034  -0.679   0.009  0.00  0.00    -0.277 N 
ATOM      5  HN  UNL d   1       1.857  -1.282   0.015  1.00  0.00     0.189 HD
ATOM      6  C   UNL d   1      -0.226  -1.065  -0.030  0.00  0.00     0.174 A 
ATOM      7  C   UNL d   1      -0.243   1.064   0.019  0.00  0.00     0.174 A 
ENDROOT
BRANCH   6   8
ATOM      8  C   UNL d   1      -0.778  -2.412  -0.088  0.00  0.00     0.018 A 
ATOM      9  C   UNL d   1      -2.159  -2.652  -0.126  0.00  0.00     0.039 A 
ATOM     10  C   UNL d   1      -2.643  -3.960  -0.201  0.00  0.00     0.035 A 
ATOM     11 CL   UNL d   1      -4.340  -4.239  -0.256  0.00  0.00    -0.084 Cl
ATOM     12  C   UNL d   1      -1.766  -5.043  -0.237  0.00  0.00     0.024 A 
ATOM     13  C   UNL d   1      -0.393  -4.819  -0.192  0.00  0.00     0.003 A 
ATOM     14  C   UNL d   1       0.096  -3.512  -0.116  0.00  0.00     0.016 A 
ENDBRANCH   6   8
BRANCH   7  15
ATOM     15  C   UNL d   1      -0.821   2.401   0.048  0.00  0.00     0.018 A 
ATOM     16  C   UNL d   1      -2.206   2.618   0.023  0.00  0.00     0.039 A 
ATOM     17  C   UNL d   1      -2.714   3.918   0.071  0.00  0.00     0.035 A 
ATOM     18 CL   UNL d   1      -4.416   4.170   0.049  0.00  0.00    -0.084 Cl
ATOM     19  C   UNL d   1      -1.857   5.016   0.142  0.00  0.00     0.024 A 
ATOM     20  C   UNL d   1      -0.480   4.814   0.159  0.00  0.00     0.003 A 
ATOM     21  C   UNL d   1       0.033   3.516   0.111  0.00  0.00     0.016 A 
ENDBRANCH   7  15
TORSDOF 2
