REMARK  5 active torsions:
REMARK  status: ('A' for Active; 'I' for Inactive)
REMARK    1  A    between atoms: C_19  and  C_1 
REMARK    2  A    between atoms: N_5  and  C_2 
REMARK    3  A    between atoms: O_22  and  C_4 
REMARK    4  A    between atoms: C_6  and  N_5 
REMARK    5  A    between atoms: N_16  and  N_10 
ROOT
ATOM      1  N   UNL d   1      -0.534   5.556  -0.703  0.00  0.00    -0.309 N 
ATOM      2  HN  UNL d   1      -0.771   6.527  -0.906  1.00  0.00     0.186 HD
ATOM      3  C   UNL d   1      -1.379   4.594  -0.884  0.00  0.00     0.121 C 
ENDROOT
BRANCH   1   4
ATOM      4  N   UNL d   1       0.691   5.200  -0.225  0.00  0.00    -0.277 N 
ATOM      5  C   UNL d   1       1.604   6.138   0.157  0.00  0.00     0.186 C 
ATOM      6  S   UNL d   1       1.296   7.774   0.363  0.00  0.00    -0.040 SA
ATOM      7  H   UNL d   1       0.918   4.220  -0.152  0.00  0.00     0.189 HD
BRANCH   5   8
ATOM      8  N   UNL d   1       2.886   5.738   0.371  0.00  0.00    -0.361 N 
ATOM      9  H   UNL d   1       3.453   6.533   0.648  0.00  0.00     0.162 HD
BRANCH   8  10
ATOM     10  C   UNL d   1       3.651   4.565  -0.019  0.00  0.00     0.092 C 
ATOM     11  C   UNL d   1       3.588   3.273   0.840  0.00  0.00     0.031 C 
ATOM     12  C   UNL d   1       2.295   2.513   0.648  0.00  0.00    -0.024 C 
ATOM     13  C   UNL d   1       4.483   2.380  -0.042  0.00  0.00     0.019 C 
ATOM     14  C   UNL d   1       2.281   2.057  -0.617  0.00  0.00    -0.026 C 
ATOM     15  C   UNL d   1       3.567   2.506  -1.268  0.00  0.00     0.010 C 
ATOM     16  C   UNL d   1       3.485   4.039  -1.472  0.00  0.00     0.034 C 
ENDBRANCH   8  10
ENDBRANCH   5   8
ENDBRANCH   1   4
BRANCH   3  17
ATOM     17  C   UNL d   1      -2.703   4.866  -1.482  0.00  0.00     0.017 A 
ATOM     18  C   UNL d   1      -3.658   3.853  -1.587  0.00  0.00     0.099 A 
ATOM     19  C   UNL d   1      -4.895   4.128  -2.182  0.00  0.00     0.069 A 
ATOM     20 CL   UNL d   1      -6.090   2.890  -2.317  0.00  0.00    -0.081 Cl
ATOM     21  C   UNL d   1      -5.179   5.400  -2.679  0.00  0.00     0.050 A 
ATOM     22  C   UNL d   1      -4.218   6.403  -2.574  0.00  0.00     0.036 A 
ATOM     23  C   UNL d   1      -2.987   6.147  -1.976  0.00  0.00     0.039 A 
ATOM     24 CL   UNL d   1      -4.554   7.969  -3.202  0.00  0.00    -0.084 Cl
BRANCH  18  25
ATOM     25  O   UNL d   1      -3.376   2.599  -1.111  0.00  0.00    -0.358 OA
ATOM     26  H   UNL d   1      -4.163   2.040  -1.265  0.00  0.00     0.217 HD
ENDBRANCH  18  25
ENDBRANCH   3  17
TORSDOF 5
