REMARK  8 active torsions:
REMARK  status: ('A' for Active; 'I' for Inactive)
REMARK    1  A    between atoms: C_8  and  N_1 
REMARK    2  A    between atoms: S_7  and  C_2 
REMARK    3  A    between atoms: C_14  and  S_7 
REMARK    4  A    between atoms: C_11  and  C_14 
REMARK    5  A    between atoms: C_13  and  C_11 
REMARK    6  A    between atoms: O_21  and  C_22 
REMARK    7  A    between atoms: C_25  and  O_21 
REMARK    8  A    between atoms: C_28  and  C_25 
ROOT
ATOM      1  N   UNL d   1       0.552  10.869  -1.798  0.00  0.00    -0.191 NA
ATOM      2  C   UNL d   1       0.902   9.783  -1.604  0.00  0.00     0.099 C 
ATOM      3  C   UNL d   1       2.142   5.760  -0.945  0.00  0.00     0.011 A 
ATOM      4  C   UNL d   1       0.795   6.122  -0.809  0.00  0.00     0.017 A 
ATOM      5  C   UNL d   1       3.078   6.756  -1.273  0.00  0.00     0.017 A 
ATOM      6  C   UNL d   1       1.326   8.433  -1.367  0.00  0.00     0.044 A 
ATOM      7  C   UNL d   1       2.673   8.082  -1.482  0.00  0.00     0.023 A 
ATOM      8  C   UNL d   1       0.391   7.450  -1.024  0.00  0.00     0.023 A 
ENDROOT
BRANCH   3   9
ATOM      9  C   UNL d   1       2.619   4.344  -0.770  0.00  0.00     0.169 C 
ATOM     10  O   UNL d   1       3.823   4.123  -0.889  0.00  0.00    -0.291 OA
BRANCH   9  11
ATOM     11  C   UNL d   1       1.579   3.267  -0.475  0.00  0.00     0.166 C 
BRANCH  11  12
ATOM     12  S   UNL d   1       2.306   1.613  -0.264  0.00  0.00    -0.084 SA
BRANCH  12  13
ATOM     13  C   UNL d   1       0.874   0.649  -0.068  0.00  0.00     0.170 A 
ATOM     14  N   UNL d   1       0.926  -0.712   0.015  0.00  0.00    -0.241 N 
ATOM     15  C   UNL d   1      -0.383  -1.129  -0.003  0.00  0.00     0.347 A 
ATOM     16  N   UNL d   1      -1.139   0.042  -0.001  0.00  0.00    -0.249 N 
ATOM     17  O   UNL d   1      -0.839  -2.260  -0.007  0.00  0.00    -0.245 OA
ATOM     18  N   UNL d   1      -0.331   1.146  -0.068  0.00  0.00    -0.275 N 
ATOM     19  H   UNL d   1      -2.149   0.086  -0.041  0.00  0.00     0.192 HD
ATOM     20  HN  UNL d   1      -0.607   2.127  -0.108  1.00  0.00     0.189 HD
BRANCH  14  21
ATOM     21  C   UNL d   1       2.037  -1.558   0.006  0.00  0.00     0.046 C 
ATOM     22  C   UNL d   1       2.228  -2.464  -1.042  0.00  0.00     0.033 C 
ATOM     23  C   UNL d   1       3.421  -3.185  -1.128  0.00  0.00     0.039 C 
ATOM     24  C   UNL d   1       4.401  -3.032  -0.146  0.00  0.00     0.069 C 
ATOM     25  C   UNL d   1       4.140  -2.239   0.973  0.00  0.00     0.039 C 
ATOM     26  C   UNL d   1       2.976  -1.479   1.036  0.00  0.00     0.033 C 
BRANCH  24  27
ATOM     27  O   UNL d   1       5.593  -3.670  -0.370  0.00  0.00    -0.347 OA
BRANCH  27  28
ATOM     28  C   UNL d   1       6.706  -3.041   0.275  0.00  0.00     0.214 C 
BRANCH  28  29
ATOM     29  C   UNL d   1       7.985  -3.373  -0.444  0.00  0.00    -0.034 A 
ATOM     30  C   UNL d   1       8.756  -2.350  -1.017  0.00  0.00     0.009 A 
ATOM     31  C   UNL d   1       9.964  -2.647  -1.645  0.00  0.00     0.001 A 
ATOM     32  C   UNL d   1      10.410  -3.962  -1.708  0.00  0.00     0.000 A 
ATOM     33  C   UNL d   1       9.648  -4.987  -1.146  0.00  0.00     0.001 A 
ATOM     34  C   UNL d   1       8.439  -4.695  -0.516  0.00  0.00     0.009 A 
ENDBRANCH  28  29
ENDBRANCH  27  28
ENDBRANCH  24  27
ENDBRANCH  14  21
ENDBRANCH  12  13
ENDBRANCH  11  12
ENDBRANCH   9  11
ENDBRANCH   3   9
TORSDOF 8
