REMARK  6 active torsions:
REMARK  status: ('A' for Active; 'I' for Inactive)
REMARK    1  A    between atoms: C_3  and  C_1 
REMARK    2  A    between atoms: C_2  and  C_6 
REMARK    3  A    between atoms: O_10  and  C_3 
REMARK    4  A    between atoms: C_14  and  C_4 
REMARK    5  A    between atoms: C_7  and  C_13 
REMARK    6  A    between atoms: C_13  and  O_10 
ROOT
ATOM      1  S   UNL d   1       1.104   6.593  -0.019  0.00  0.00    -0.084 SA
ATOM      2  C   UNL d   1       2.410   7.692  -0.093  0.00  0.00     0.059 A 
ATOM      3  C   UNL d   1       2.153   5.237   0.011  0.00  0.00     0.008 A 
ATOM      4  C   UNL d   1       3.624   7.042  -0.123  0.00  0.00     0.029 A 
ATOM      5  C   UNL d   1       3.477   5.626  -0.061  0.00  0.00     0.019 A 
ENDROOT
BRANCH   3   6
ATOM      6  C   UNL d   1       1.610   3.844   0.068  0.00  0.00     0.225 C 
BRANCH   6   7
ATOM      7  O   UNL d   1       0.827   3.680   1.261  0.00  0.00    -0.312 OA
BRANCH   7   8
ATOM      8  C   UNL d   1       1.482   3.258   2.361  0.00  0.00     0.295 C 
ATOM      9  O   UNL d   1       2.696   3.122   2.439  0.00  0.00    -0.259 OA
BRANCH   8  10
ATOM     10  C   UNL d   1       0.570   2.938   3.503  0.00  0.00     0.061 A 
ATOM     11  C   UNL d   1      -0.833   2.875   3.467  0.00  0.00     0.050 A 
ATOM     12 CL   UNL d   1      -1.806   3.176   2.069  0.00  0.00    -0.083 Cl
ATOM     13  C   UNL d   1      -1.550   2.518   4.623  0.00  0.00     0.025 A 
ATOM     14  C   UNL d   1      -0.892   2.219   5.814  0.00  0.00     0.002 A 
ATOM     15  C   UNL d   1       0.494   2.275   5.864  0.00  0.00     0.001 A 
ATOM     16  C   UNL d   1       1.216   2.631   4.721  0.00  0.00     0.019 A 
ENDBRANCH   8  10
ENDBRANCH   7   8
ENDBRANCH   6   7
ENDBRANCH   3   6
BRANCH   2  17
ATOM     17  C   UNL d   1       2.248   9.108  -0.118  0.00  0.00    -0.054 C 
ATOM     18  C   UNL d   1       2.121  10.300  -0.123  0.00  0.00    -0.061 C 
BRANCH  18  19
ATOM     19  C   UNL d   1       1.956  11.722  -0.107  0.00  0.00     0.018 A 
ATOM     20  C   UNL d   1       0.673  12.272  -0.058  0.00  0.00     0.020 A 
ATOM     21  C   UNL d   1       0.506  13.657  -0.029  0.00  0.00     0.001 A 
ATOM     22  C   UNL d   1       1.621  14.494  -0.048  0.00  0.00     0.000 A 
ATOM     23  C   UNL d   1       2.904  13.948  -0.099  0.00  0.00     0.001 A 
ATOM     24  C   UNL d   1       3.072  12.562  -0.130  0.00  0.00     0.020 A 
ENDBRANCH  18  19
ENDBRANCH   2  17
TORSDOF 6
