REMARK  4 active torsions:
REMARK  status: ('A' for Active; 'I' for Inactive)
REMARK    1  A    between atoms: C_4  and  N_1 
REMARK    2  A    between atoms: C_2  and  C_3 
REMARK    3  A    between atoms: C_5  and  C_2 
REMARK    4  A    between atoms: O_11  and  C_5 
ROOT
ATOM      1  C   UNL d   1       1.884   2.702   0.075  0.00  0.00     0.227 C 
ATOM      2  C   UNL d   1       2.626   3.865   0.601  0.00  0.00     0.079 C 
ATOM      3  N   UNL d   1       3.192   4.784   1.031  0.00  0.00    -0.196 NA
ENDROOT
BRANCH   1   4
ATOM      4  C   UNL d   1       0.685   2.306   0.950  0.00  0.00     0.002 A 
ATOM      5  C   UNL d   1       0.183   0.986   1.035  0.00  0.00     0.111 A 
ATOM      6  C   UNL d   1      -0.930   0.662   1.832  0.00  0.00     0.037 A 
ATOM      7  C   UNL d   1      -1.579   1.660   2.551  0.00  0.00     0.002 A 
ATOM      8  C   UNL d   1      -1.132   2.974   2.460  0.00  0.00     0.001 A 
ATOM      9  C   UNL d   1      -0.025   3.295   1.665  0.00  0.00     0.011 A 
BRANCH   5  10
ATOM     10  N   UNL d   1       0.787  -0.121   0.300  0.00  0.00    -0.115 N 
ATOM     11  O   UNL d   1       2.007  -0.287   0.425  0.00  0.00    -0.532 OA
ATOM     12  O   UNL d   1       0.035  -0.827  -0.383  0.00  0.00    -0.532 OA
ENDBRANCH   5  10
ENDBRANCH   1   4
BRANCH   1  13
ATOM     13  C   UNL d   1       1.485   2.978  -1.367  0.00  0.00     0.280 C 
ATOM     14  O   UNL d   1       0.352   2.858  -1.816  0.00  0.00    -0.263 OA
BRANCH  13  15
ATOM     15  O   UNL d   1       2.573   3.330  -2.113  0.00  0.00    -0.325 OA
ATOM     16  C   UNL d   1       2.285   3.652  -3.476  0.00  0.00     0.213 C 
ENDBRANCH  13  15
ENDBRANCH   1  13
TORSDOF 4
