REMARK  4 active torsions:
REMARK  status: ('A' for Active; 'I' for Inactive)
REMARK    1  A    between atoms: N_22  and  C_7 
REMARK    2  A    between atoms: N_21  and  C_8 
REMARK    3  A    between atoms: C_20  and  C_11 
REMARK    4  A    between atoms: C_19  and  C_12 
ROOT
ATOM      1  C   UNL d   1       2.861   1.631  -0.084  0.00  0.00     0.080 A 
ATOM      2  C   UNL d   1      -0.405  -4.487  -0.035  0.00  0.00     0.080 C 
ATOM      3  C   UNL d   1       1.269  -0.659  -0.274  0.00  0.00     0.120 A 
ATOM      4  C   UNL d   1       0.617  -1.893  -0.296  0.00  0.00     0.120 A 
ATOM      5  C   UNL d   1      -0.774  -1.988  -0.220  0.00  0.00     0.004 A 
ATOM      6  C   UNL d   1       0.557   0.525  -0.084  0.00  0.00     0.004 A 
ATOM      7  C   UNL d   1       0.913  -4.223   0.045  0.00  0.00     0.138 C 
ATOM      8  C   UNL d   1       3.405   0.421  -0.297  0.00  0.00     0.138 A 
ATOM      9  O   UNL d   1       1.425  -3.003  -0.355  0.00  0.00    -0.294 OA
ATOM     10  O   UNL d   1       2.632  -0.714  -0.436  0.00  0.00    -0.294 OA
ATOM     11  C   UNL d   1       1.358   1.828  -0.008  0.00  0.00     0.103 A 
ATOM     12  C   UNL d   1      -1.394  -3.384  -0.343  0.00  0.00     0.103 C 
ATOM     13  C   UNL d   1      -0.867   0.457   0.071  0.00  0.00    -0.015 A 
ATOM     14  C   UNL d   1      -1.535  -0.802  -0.032  0.00  0.00    -0.015 A 
ATOM     15  C   UNL d   1       3.698   2.768   0.111  0.00  0.00     0.100 C 
ATOM     16  C   UNL d   1      -0.916  -5.782   0.273  0.00  0.00     0.100 C 
ATOM     17  N   UNL d   1       4.373   3.699   0.259  0.00  0.00    -0.191 NA
ATOM     18  N   UNL d   1      -1.352  -6.822   0.531  0.00  0.00    -0.191 NA
ATOM     19  C   UNL d   1      -2.947  -0.821   0.079  0.00  0.00     0.013 A 
ATOM     20  C   UNL d   1      -1.669   1.595   0.329  0.00  0.00     0.013 A 
ATOM     21  C   UNL d   1      -3.703   0.331   0.276  0.00  0.00     0.001 A 
ATOM     22  C   UNL d   1      -3.060   1.542   0.411  0.00  0.00     0.001 A 
ENDROOT
BRANCH   8  23
ATOM     23  N   UNL d   1       4.751   0.147  -0.399  0.00  0.00    -0.282 NA
ATOM     24  H   UNL d   1       5.336   0.918  -0.716  0.00  0.00     0.126 HD
ATOM     25  H   UNL d   1       4.924  -0.715  -0.911  0.00  0.00     0.126 HD
ENDBRANCH   8  23
BRANCH  11  26
ATOM     26  C   UNL d   1       0.906   2.886  -1.023  0.00  0.00    -0.044 A 
ATOM     27  C   UNL d   1       0.573   4.178  -0.574  0.00  0.00     0.010 A 
ATOM     28  C   UNL d   1       0.098   5.142  -1.463  0.00  0.00     0.024 A 
ATOM     29  C   UNL d   1      -0.013   4.835  -2.815  0.00  0.00     0.034 A 
ATOM     30  C   UNL d   1       0.358   3.576  -3.287  0.00  0.00     0.024 A 
ATOM     31 CL   UNL d   1      -0.621   6.016  -3.908  0.00  0.00    -0.084 Cl
ATOM     32  C   UNL d   1       0.818   2.603  -2.396  0.00  0.00     0.010 A 
ENDBRANCH  11  26
BRANCH  12  33
ATOM     33  C   UNL d   1      -2.156  -3.576  -1.658  0.00  0.00    -0.044 A 
ATOM     34  C   UNL d   1      -1.550  -3.370  -2.908  0.00  0.00     0.010 A 
ATOM     35  C   UNL d   1      -2.317  -3.386  -4.079  0.00  0.00     0.024 A 
ATOM     36  C   UNL d   1      -3.690  -3.615  -4.011  0.00  0.00     0.034 A 
ATOM     37  C   UNL d   1      -4.298  -3.877  -2.788  0.00  0.00     0.024 A 
ATOM     38 CL   UNL d   1      -4.644  -3.552  -5.441  0.00  0.00    -0.084 Cl
ATOM     39  C   UNL d   1      -3.531  -3.878  -1.622  0.00  0.00     0.010 A 
ENDBRANCH  12  33
BRANCH   7  40
ATOM     40  N   UNL d   1       1.887  -5.072   0.524  0.00  0.00    -0.282 NA
ATOM     41  H   UNL d   1       1.607  -5.535   1.390  0.00  0.00     0.126 HD
ATOM     42  H   UNL d   1       2.753  -4.555   0.674  0.00  0.00     0.126 HD
ENDBRANCH   7  40
TORSDOF 4
