REMARK  1 active torsions:
REMARK  status: ('A' for Active; 'I' for Inactive)
REMARK    1  A    between atoms: C_12  and  C_11 
ROOT
ATOM      1  C   UNL d   1       0.204  -0.710   0.012  0.00  0.00     0.715 A 
ATOM      2  N   UNL d   1       0.227   0.690  -0.007  0.00  0.00    -0.076 N 
ATOM      3  N   UNL d   1      -0.969  -1.413   0.023  0.00  0.00    -0.188 N 
ATOM      4  HN  UNL d   1      -0.980  -2.433   0.043  1.00  0.00     0.184 HD
ATOM      5  N   UNL d   1       1.451  -1.134   0.022  0.00  0.00    -0.116 N 
ATOM      6  HN  UNL d   1       1.764  -2.104   0.039  1.00  0.00     0.202 HD
ATOM      7  N   UNL d   1       2.245  -0.018   0.007  0.00  0.00     0.007 NA
ATOM      8  N   UNL d   1       1.520   1.089  -0.012  0.00  0.00     0.014 NA
ATOM      9  C   UNL d   1      -0.953   1.438  -0.006  0.00  0.00     0.048 A 
ATOM     10  C   UNL d   1      -2.128   0.785   0.007  0.00  0.00     0.058 A 
ATOM     11  C   UNL d   1      -2.070  -0.718   0.006  0.00  0.00     0.061 A 
ATOM     12  C   UNL d   1      -0.886   2.933  -0.001  0.00  0.00     0.070 C 
ENDROOT
BRANCH  11  13
ATOM     13  C   UNL d   1      -3.385  -1.424   0.028  0.00  0.00    -0.009 A 
ATOM     14  C   UNL d   1      -4.514  -0.902  -0.619  0.00  0.00     0.014 A 
ATOM     15  C   UNL d   1      -5.742  -1.561  -0.527  0.00  0.00     0.001 A 
ATOM     16  C   UNL d   1      -5.845  -2.749   0.195  0.00  0.00     0.000 A 
ATOM     17  C   UNL d   1      -4.718  -3.292   0.810  0.00  0.00     0.001 A 
ATOM     18  C   UNL d   1      -3.488  -2.636   0.723  0.00  0.00     0.014 A 
ENDBRANCH  11  13
TORSDOF 1
