REMARK  6 active torsions:
REMARK  status: ('A' for Active; 'I' for Inactive)
REMARK    1  A    between atoms: C_3  and  C_1 
REMARK    2  A    between atoms: N_4  and  C_2 
REMARK    3  A    between atoms: O_8  and  C_3 
REMARK    4  A    between atoms: C_6  and  N_4 
REMARK    5  A    between atoms: O_13  and  C_7 
REMARK    6  A    between atoms: C_15  and  O_8 
ROOT
ATOM      1  N   UNL d   1       1.047  -1.318   1.882  0.00  0.00    -0.360 N 
ATOM      2  H   UNL d   1       0.528  -2.030   2.395  0.00  0.00     0.166 HD
ENDROOT
BRANCH   1   3
ATOM      3  C   UNL d   1       0.276  -0.613   0.959  0.00  0.00     0.011 C 
ATOM      4  C   UNL d   1       0.827   0.055  -0.073  0.00  0.00     0.106 C 
ATOM      5  C   UNL d   1      -1.211  -0.765   1.183  0.00  0.00     0.068 C 
BRANCH   4   6
ATOM      6  C   UNL d   1       0.134   0.733  -1.192  0.00  0.00     0.284 C 
ATOM      7  O   UNL d   1      -1.068   0.834  -1.353  0.00  0.00    -0.260 OA
BRANCH   6   8
ATOM      8  O   UNL d   1       1.094   1.143  -2.062  0.00  0.00    -0.318 OA
BRANCH   8   9
ATOM      9  C   UNL d   1       0.625   1.510  -3.367  0.00  0.00     0.174 C 
ATOM     10  C   UNL d   1       0.585   0.263  -4.232  0.00  0.00     0.034 C 
ENDBRANCH   8   9
ENDBRANCH   6   8
ENDBRANCH   4   6
ENDBRANCH   1   3
BRANCH   1  11
ATOM     11  C   UNL d   1       2.157  -0.862   2.625  0.00  0.00     0.032 A 
ATOM     12  C   UNL d   1       2.600   0.466   2.626  0.00  0.00     0.032 A 
ATOM     13  C   UNL d   1       3.734   0.848   3.350  0.00  0.00     0.039 A 
ATOM     14  C   UNL d   1       4.457  -0.099   4.073  0.00  0.00     0.068 A 
ATOM     15  C   UNL d   1       4.022  -1.422   4.088  0.00  0.00     0.039 A 
ATOM     16  C   UNL d   1       2.893  -1.802   3.358  0.00  0.00     0.032 A 
BRANCH  14  17
ATOM     17  O   UNL d   1       5.571   0.163   4.819  0.00  0.00    -0.356 OA
ATOM     18  C   UNL d   1       6.366   1.252   4.361  0.00  0.00     0.210 C 
ENDBRANCH  14  17
ENDBRANCH   1  11
TORSDOF 6
