REMARK  3 active torsions:
REMARK  status: ('A' for Active; 'I' for Inactive)
REMARK    1  A    between atoms: C_3  and  C_1 
REMARK    2  A    between atoms: N_22  and  C_2 
REMARK    3  A    between atoms: C_10  and  C_8 
ROOT
ATOM      1  C   UNL d   1       0.625   1.395   0.881  0.00  0.00     0.155 A 
ATOM      2  C   UNL d   1       0.497   3.301  -0.388  0.00  0.00     0.121 A 
ATOM      3  N   UNL d   1       1.137   2.144  -0.094  0.00  0.00    -0.329 N 
ATOM      4  HN  UNL d   1       1.977   1.858  -0.598  1.00  0.00     0.168 HD
ATOM      5  N   UNL d   1      -0.488   1.683   1.554  0.00  0.00    -0.332 N 
ATOM      6  HN  UNL d   1      -0.843   1.056   2.276  1.00  0.00     0.168 HD
ATOM      7  C   UNL d   1      -1.132   2.831   1.252  0.00  0.00     0.046 A 
ATOM      8  C   UNL d   1      -0.654   3.685   0.278  0.00  0.00     0.064 A 
ENDROOT
BRANCH   7   9
ATOM      9  C   UNL d   1      -2.366   3.100   2.023  0.00  0.00    -0.006 A 
ATOM     10  C   UNL d   1      -3.439   3.830   1.474  0.00  0.00     0.053 A 
ATOM     11  C   UNL d   1      -4.570   4.036   2.239  0.00  0.00     0.105 A 
ATOM     12  O   UNL d   1      -5.682   4.710   1.839  0.00  0.00    -0.323 OA
ATOM     13  C   UNL d   1      -4.682   3.552   3.518  0.00  0.00     0.105 A 
ATOM     14  C   UNL d   1      -6.522   4.560   3.003  0.00  0.00     0.352 A 
ATOM     15  O   UNL d   1      -5.878   3.859   4.087  0.00  0.00    -0.323 OA
ATOM     16  C   UNL d   1      -3.667   2.834   4.105  0.00  0.00     0.040 A 
ATOM     17  C   UNL d   1      -2.510   2.608   3.349  0.00  0.00     0.016 A 
ENDBRANCH   7   9
BRANCH   1  18
ATOM     18  N   UNL d   1       1.273   0.219   1.185  0.00  0.00    -0.274 NA
ATOM     19  H   UNL d   1       1.813  -0.098   0.392  0.00  0.00     0.127 HD
ATOM     20  H   UNL d   1       0.626  -0.437   1.599  0.00  0.00     0.127 HD
ENDBRANCH   1  18
BRANCH   2  21
ATOM     21  C   UNL d   1       1.048   4.208  -1.473  0.00  0.00     0.432 C 
ATOM     22  F   UNL d   1       2.168   3.740  -2.089  0.00  0.00    -0.165 F 
ATOM     23  F   UNL d   1       1.370   5.447  -1.000  0.00  0.00    -0.165 F 
ATOM     24  F   UNL d   1       0.140   4.427  -2.470  0.00  0.00    -0.165 F 
ENDBRANCH   2  21
TORSDOF 3
