REMARK  5 active torsions:
REMARK  status: ('A' for Active; 'I' for Inactive)
REMARK    1  A    between atoms: N_7  and  C_1 
REMARK    2  A    between atoms: C_10  and  C_6 
REMARK       I    between atoms: C_8  and  N_7 
REMARK       I    between atoms: N_11  and  C_8 
REMARK    3  A    between atoms: C_9  and  O_12 
REMARK    4  A    between atoms: C_17  and  N_11 
REMARK    5  A    between atoms: O_12  and  C_18 
ROOT
ATOM      1  N   UNL d   1      -0.392  -2.389  -0.017  0.00  0.00    -0.293 N 
ATOM      2  C   UNL d   1       0.011  -3.408  -0.916  0.00  0.00     0.326 C 
ATOM      3  N   UNL d   1      -0.776  -4.529  -0.925  0.00  0.00    -0.309 N 
ATOM      4  O   UNL d   1       1.046  -3.341  -1.555  0.00  0.00    -0.247 OA
ATOM      5  H   UNL d   1      -1.203  -2.548   0.555  0.00  0.00     0.172 HD
ATOM      6  H   UNL d   1      -0.279  -5.311  -1.340  0.00  0.00     0.170 HD
ENDROOT
BRANCH   1   7
ATOM      7  C   UNL d   1       0.278  -1.186   0.179  0.00  0.00     0.127 A 
ATOM      8  C   UNL d   1       1.508  -0.796  -0.314  0.00  0.00     0.077 A 
ATOM      9  C   UNL d   1       1.712   0.526   0.168  0.00  0.00     0.037 A 
ATOM     10  N   UNL d   1       0.675   0.918   0.920  0.00  0.00    -0.301 N 
ATOM     11  N   UNL d   1      -0.156  -0.132   0.929  0.00  0.00    -0.281 N 
ATOM     12  HN  UNL d   1       0.548   1.817   1.385  1.00  0.00     0.187 HD
ATOM     13  C   UNL d   1      -1.385  -0.036   1.678  0.00  0.00     0.179 C 
BRANCH   9  14
ATOM     14  C   UNL d   1       2.862   1.488  -0.083  0.00  0.00    -0.007 C 
ATOM     15  C   UNL d   1       4.061   0.800  -0.766  0.00  0.00     0.021 C 
ATOM     16  C   UNL d   1       2.379   2.633  -0.997  0.00  0.00     0.021 C 
ATOM     17  C   UNL d   1       3.363   2.089   1.248  0.00  0.00     0.021 C 
ENDBRANCH   9  14
ENDBRANCH   1   7
BRANCH   3  18
ATOM     18  C   UNL d   1      -2.004  -4.818  -0.311  0.00  0.00     0.036 A 
ATOM     19  C   UNL d   1      -2.995  -3.868  -0.051  0.00  0.00     0.032 A 
ATOM     20  C   UNL d   1      -4.128  -4.207   0.709  0.00  0.00     0.039 A 
ATOM     21  C   UNL d   1      -4.311  -5.511   1.158  0.00  0.00     0.078 A 
ATOM     22  C   UNL d   1      -3.365  -6.483   0.804  0.00  0.00     0.039 A 
ATOM     23  C   UNL d   1      -2.232  -6.144   0.061  0.00  0.00     0.032 A 
BRANCH  21  24
ATOM     24  O   UNL d   1      -5.347  -6.003   1.888  0.00  0.00    -0.255 OA
BRANCH  24  25
ATOM     25  C   UNL d   1      -6.385  -5.145   2.312  0.00  0.00     0.530 C 
ATOM     26  F   UNL d   1      -6.809  -4.322   1.329  0.00  0.00    -0.144 F 
ATOM     27  F   UNL d   1      -7.436  -5.903   2.701  0.00  0.00    -0.144 F 
ATOM     28  F   UNL d   1      -5.986  -4.403   3.368  0.00  0.00    -0.144 F 
ENDBRANCH  24  25
ENDBRANCH  21  24
ENDBRANCH   3  18
TORSDOF 5
