REMARK  4 active torsions:
REMARK  status: ('A' for Active; 'I' for Inactive)
REMARK    1  A    between atoms: S_2  and  C_1 
REMARK    2  A    between atoms: N_12  and  S_2 
REMARK    3  A    between atoms: C_6  and  C_16 
REMARK    4  A    between atoms: C_16  and  N_12 
ROOT
ATOM      1  N   UNL d   1      -2.802  -2.677  -1.403  0.00  0.00    -0.210 NA
ATOM      2  H   UNL d   1      -3.526  -3.390  -1.343  0.00  0.00     0.140 HD
ENDROOT
BRANCH   1   3
ATOM      3  S   UNL d   1      -2.795  -1.745   0.000  0.00  0.00     0.258 S 
ATOM      4  O   UNL d   1      -2.866  -2.658   1.121  0.00  0.00    -0.204 OA
ATOM      5  O   UNL d   1      -3.757  -0.677  -0.169  0.00  0.00    -0.204 OA
BRANCH   3   6
ATOM      6  C   UNL d   1      -1.264  -0.936   0.178  0.00  0.00     0.160 A 
ATOM      7  N   UNL d   1      -0.241  -1.012  -0.757  0.00  0.00    -0.341 N 
ATOM      8  C   UNL d   1       0.729  -0.277  -0.259  0.00  0.00     0.183 A 
ATOM      9  HN  UNL d   1      -0.241  -1.526  -1.638  1.00  0.00     0.167 HD
ATOM     10  N   UNL d   1       0.374   0.281   0.936  0.00  0.00    -0.354 N 
ATOM     11  C   UNL d   1      -0.895  -0.122   1.232  0.00  0.00     0.134 A 
ATOM     12  C   UNL d   1       1.208   1.144   1.734  0.00  0.00     0.156 C 
ENDBRANCH   3   6
ENDBRANCH   1   3
BRANCH   1  13
ATOM     13  C   UNL d   1      -2.813  -1.910  -2.649  0.00  0.00     0.144 C 
BRANCH  13  14
ATOM     14  C   UNL d   1      -2.751  -2.885  -3.789  0.00  0.00    -0.026 A 
ATOM     15  C   UNL d   1      -1.529  -3.376  -4.398  0.00  0.00    -0.009 A 
ATOM     16  C   UNL d   1      -1.797  -4.237  -5.468  0.00  0.00     0.015 A 
ATOM     17  C   UNL d   1      -0.169  -3.113  -4.087  0.00  0.00     0.037 A 
ATOM     18  C   UNL d   1      -0.765  -4.820  -6.231  0.00  0.00     0.021 A 
ATOM     19  S   UNL d   1      -3.487  -4.459  -5.691  0.00  0.00    -0.101 SA
ATOM     20  C   UNL d   1       0.563  -4.533  -5.906  0.00  0.00     0.025 A 
ATOM     21  C   UNL d   1       0.854  -3.692  -4.843  0.00  0.00     0.035 A 
ATOM     22 CL   UNL d   1       2.496  -3.350  -4.454  0.00  0.00    -0.084 Cl
ATOM     23  C   UNL d   1      -3.869  -3.417  -4.403  0.00  0.00     0.059 A 
ENDBRANCH  13  14
ENDBRANCH   1  13
TORSDOF 4
