REMARK  2 active torsions:
REMARK  status: ('A' for Active; 'I' for Inactive)
REMARK       I    between atoms: C_2  and  N_1 
REMARK    1  A    between atoms: C_7  and  C_2 
REMARK    2  A    between atoms: C_8  and  C_3 
ROOT
ATOM      1  N   UNL d   1       0.987  -0.514  -0.113  0.00  0.00    -0.222 N 
ATOM      2  C   UNL d   1       2.097  -1.419  -0.112  0.00  0.00     0.283 C 
ATOM      3  C   UNL d   1       0.900   0.888  -0.055  0.00  0.00     0.064 A 
ATOM      4  N   UNL d   1      -0.275  -1.063  -0.155  0.00  0.00    -0.301 N 
ATOM      5  HN  UNL d   1      -0.514  -2.053  -0.216  1.00  0.00     0.186 HD
ATOM      6  C   UNL d   1      -0.456   1.184  -0.050  0.00  0.00     0.086 A 
ATOM      7  C   UNL d   1      -1.117  -0.040  -0.100  0.00  0.00     0.132 A 
ATOM      8  C   UNL d   1      -1.081   2.463  -0.002  0.00  0.00     0.103 C 
ATOM      9  N   UNL d   1      -1.595   3.504   0.033  0.00  0.00    -0.191 NA
ATOM     10  O   UNL d   1       3.180  -0.953   0.232  0.00  0.00    -0.265 OA
ENDROOT
BRANCH   3  11
ATOM     11  C   UNL d   1       1.940   2.018  -0.042  0.00  0.00     0.039 A 
ATOM     12  C   UNL d   1       3.308   1.875  -0.653  0.00  0.00     0.011 A 
ATOM     13  C   UNL d   1       3.163   1.939   0.834  0.00  0.00     0.011 A 
ENDBRANCH   3  11
BRANCH   2  14
ATOM     14  C   UNL d   1       1.955  -2.837  -0.486  0.00  0.00     0.074 A 
ATOM     15  S   UNL d   1       3.217  -3.934  -0.067  0.00  0.00    -0.097 SA
ATOM     16  C   UNL d   1       2.398  -5.266  -0.753  0.00  0.00     0.050 A 
ATOM     17  C   UNL d   1       1.201  -4.899  -1.318  0.00  0.00     0.009 A 
ATOM     18  C   UNL d   1       0.957  -3.501  -1.183  0.00  0.00     0.025 A 
ENDBRANCH   2  14
TORSDOF 2
