REMARK  2 active torsions:
REMARK  status: ('A' for Active; 'I' for Inactive)
REMARK    1  A    between atoms: C_9  and  C_5 
REMARK    2  A    between atoms: N_6  and  C_8 
ROOT
ATOM      1  N   UNL d   1      -1.584  -1.092   0.070  0.00  0.00    -0.340 N 
ATOM      2  HN  UNL d   1      -1.925  -2.052   0.107  1.00  0.00     0.167 HD
ATOM      3  N   UNL d   1      -0.242   0.693   0.018  0.00  0.00    -0.317 N 
ATOM      4  C   UNL d   1      -0.330  -0.693   0.055  0.00  0.00     0.111 A 
ATOM      5  C   UNL d   1      -2.341   0.060   0.025  0.00  0.00     0.060 A 
ATOM      6  C   UNL d   1      -1.526   1.174   0.001  0.00  0.00     0.128 A 
ATOM      7  C   UNL d   1       0.965   1.389  -0.006  0.00  0.00     0.098 A 
ATOM      8  C   UNL d   1       0.893  -1.421   0.060  0.00  0.00     0.049 A 
ATOM      9  C   UNL d   1       2.118   0.698   0.002  0.00  0.00     0.018 A 
ATOM     10  C   UNL d   1       2.066  -0.758   0.032  0.00  0.00     0.005 A 
ENDROOT
BRANCH   5  11
ATOM     11  C   UNL d   1      -3.796   0.044  -0.015  0.00  0.00    -0.008 A 
ATOM     12  C   UNL d   1      -4.471  -1.185   0.059  0.00  0.00     0.016 A 
ATOM     13  C   UNL d   1      -5.867  -1.247  -0.011  0.00  0.00     0.037 A 
ATOM     14  C   UNL d   1      -6.599  -0.065  -0.154  0.00  0.00     0.102 A 
ATOM     15  C   UNL d   1      -5.946   1.172  -0.220  0.00  0.00     0.037 A 
ATOM     16  C   UNL d   1      -4.549   1.221  -0.149  0.00  0.00     0.016 A 
BRANCH  14  17
ATOM     17  N   UNL d   1      -8.063  -0.119  -0.242  0.00  0.00    -0.116 N 
ATOM     18  O   UNL d   1      -8.605  -1.232  -0.188  0.00  0.00    -0.532 OA
ATOM     19  O   UNL d   1      -8.672   0.954  -0.366  0.00  0.00    -0.532 OA
ENDBRANCH  14  17
ENDBRANCH   5  11
TORSDOF 2
