REMARK  5 active torsions:
REMARK  status: ('A' for Active; 'I' for Inactive)
REMARK    1  A    between atoms: C_4  and  S_1 
REMARK    2  A    between atoms: N_10  and  S_1 
REMARK    3  A    between atoms: N_6  and  C_2 
REMARK    4  A    between atoms: N_7  and  C_3 
REMARK    5  A    between atoms: O_18  and  C_5 
ROOT
ATOM      1  C   UNL d   1       0.559   2.374   3.263  0.00  0.00     0.140 A 
ATOM      2  C   UNL d   1      -0.255   0.253   3.955  0.00  0.00     0.140 A 
ATOM      3  C   UNL d   1       0.646   0.491   1.735  0.00  0.00     0.084 A 
ATOM      4  C   UNL d   1      -0.081   1.617   4.254  0.00  0.00     0.134 A 
ATOM      5  C   UNL d   1       0.078  -0.319   2.715  0.00  0.00     0.064 A 
ATOM      6  C   UNL d   1       0.941   1.824   2.022  0.00  0.00     0.064 A 
ENDROOT
BRANCH   3   7
ATOM      7  S   UNL d   1       1.108  -0.205   0.160  0.00  0.00     0.261 S 
ATOM      8  O   UNL d   1       1.082  -1.641   0.326  0.00  0.00    -0.200 OA
ATOM      9  O   UNL d   1       2.307   0.487  -0.252  0.00  0.00    -0.200 OA
BRANCH   7  10
ATOM     10  N   UNL d   1      -0.150   0.231  -0.861  0.00  0.00    -0.303 N 
ATOM     11  C   UNL d   1      -1.491  -0.388  -0.717  0.00  0.00     0.161 C 
ATOM     12  C   UNL d   1      -2.460   0.570  -0.014  0.00  0.00     0.188 C 
ATOM     13  O   UNL d   1      -2.519   1.842  -0.673  0.00  0.00    -0.388 OA
ATOM     14  C   UNL d   1      -1.230   2.466  -0.730  0.00  0.00     0.188 C 
ATOM     15  C   UNL d   1      -0.213   1.586  -1.461  0.00  0.00     0.161 C 
ENDBRANCH   7  10
ENDBRANCH   3   7
BRANCH   2  16
ATOM     16  N   UNL d   1      -0.816  -0.641   4.955  0.00  0.00    -0.113 N 
ATOM     17  O   UNL d   1      -0.156  -0.829   5.983  0.00  0.00    -0.532 OA
ATOM     18  O   UNL d   1      -1.883  -1.196   4.660  0.00  0.00    -0.532 OA
ENDBRANCH   2  16
BRANCH   1  19
ATOM     19  N   UNL d   1       0.899   3.768   3.446  0.00  0.00    -0.113 N 
ATOM     20  O   UNL d   1       1.701   4.047   4.346  0.00  0.00    -0.532 OA
ATOM     21  O   UNL d   1       0.383   4.569   2.656  0.00  0.00    -0.532 OA
ENDBRANCH   1  19
BRANCH   4  22
ATOM     22  O   UNL d   1      -0.547   2.006   5.473  0.00  0.00    -0.351 OA
ATOM     23  C   UNL d   1      -0.936   3.350   5.728  0.00  0.00     0.210 C 
ENDBRANCH   4  22
TORSDOF 5
