REMARK  7 active torsions:
REMARK  status: ('A' for Active; 'I' for Inactive)
REMARK    1  A    between atoms: N_3  and  C_1 
REMARK    2  A    between atoms: N_6  and  C_1 
REMARK    3  A    between atoms: C_2  and  N_3 
REMARK    4  A    between atoms: CA_11  and  N_6 
REMARK    5  A    between atoms: C_16  and  CA_11 
REMARK    6  A    between atoms: C_17  and  CA_11 
REMARK    7  A    between atoms: O_14  and  C_16 
ROOT
ATOM      1  N   UNL d   1       0.647   0.974  -0.273  0.00  0.00    -0.332 N 
ATOM      2  H   UNL d   1       0.210   1.080   0.634  0.00  0.00     0.168 HD
ENDROOT
BRANCH   1   3
ATOM      3  C   UNL d   1       1.131   2.169  -0.869  0.00  0.00     0.046 A 
ATOM      4  C   UNL d   1       0.631   3.405  -0.387  0.00  0.00    -0.034 A 
ATOM      5  C   UNL d   1       1.217   4.615  -0.814  0.00  0.00     0.015 A 
ATOM      6  C   UNL d   1      -0.536   3.540   0.560  0.00  0.00     0.050 C 
ATOM      7  C   UNL d   1       2.284   4.629  -1.710  0.00  0.00    -0.061 A 
ATOM      8  C   UNL d   1       2.749   3.412  -2.207  0.00  0.00     0.015 A 
ATOM      9  C   UNL d   1       2.921   5.926  -2.110  0.00  0.00     0.048 C 
ATOM     10  C   UNL d   1       2.199   2.178  -1.794  0.00  0.00    -0.034 A 
ATOM     11  C   UNL d   1       2.927   0.966  -2.314  0.00  0.00     0.050 C 
ENDBRANCH   1   3
BRANCH   1  12
ATOM     12  C   UNL d   1       0.258  -0.194  -0.866  0.00  0.00     0.172 C 
ATOM     13  S   UNL d   1      -0.342  -0.398  -2.411  0.00  0.00    -0.041 SA
BRANCH  12  14
ATOM     14  N   UNL d   1       0.335  -1.300  -0.056  0.00  0.00    -0.360 N 
ATOM     15  H   UNL d   1      -0.003  -2.153  -0.492  0.00  0.00     0.162 HD
BRANCH  14  16
ATOM     16  CA  UNL d   1       0.927  -1.403   1.288  0.00  0.00     0.107 C 
BRANCH  16  17
ATOM     17  C   UNL d   1      -0.175  -1.629   2.341  0.00  0.00     0.189 C 
BRANCH  17  18
ATOM     18  O   UNL d   1      -1.048  -0.503   2.390  0.00  0.00    -0.399 OA
ATOM     19  H   UNL d   1      -1.845  -0.788   2.875  0.00  0.00     0.209 HD
ENDBRANCH  17  18
ENDBRANCH  16  17
BRANCH  16  20
ATOM     20  C   UNL d   1       1.947  -2.551   1.332  0.00  0.00     0.023 C 
ATOM     21  C   UNL d   1       3.141  -2.311   0.416  0.00  0.00     0.007 C 
ENDBRANCH  16  20
ENDBRANCH  14  16
ENDBRANCH  12  14
ENDBRANCH   1  12
TORSDOF 7
