REMARK  5 active torsions:
REMARK  status: ('A' for Active; 'I' for Inactive)
REMARK       I    between atoms: N_2  and  C_1 
REMARK       I    between atoms: N_4  and  C_1 
REMARK    1  A    between atoms: C_3  and  C_6 
REMARK    2  A    between atoms: C_11  and  N_4 
REMARK    3  A    between atoms: C_5  and  C_10 
REMARK    4  A    between atoms: O_19  and  C_5 
REMARK    5  A    between atoms: C_23  and  O_19 
ROOT
ATOM      1  C   UNL d   1       0.862  -0.151   0.032  0.00  0.00     0.322 C 
ATOM      2  N   UNL d   1       0.171  -1.075  -0.753  0.00  0.00    -0.334 N 
ATOM      3  N   UNL d   1       0.510   1.165  -0.158  0.00  0.00    -0.309 N 
ATOM      4  O   UNL d   1       1.712  -0.521   0.842  0.00  0.00    -0.247 OA
ATOM      5  C   UNL d   1       0.515  -2.492  -0.620  0.00  0.00     0.128 C 
ATOM      6  C   UNL d   1      -0.928  -0.818  -1.684  0.00  0.00     0.128 C 
ATOM      7  C   UNL d   1      -1.936  -3.055  -0.983  0.00  0.00     0.088 C 
ATOM      8  C   UNL d   1      -2.187  -1.565  -1.250  0.00  0.00     0.034 C 
ATOM      9  C   UNL d   1      -0.686  -3.302  -0.138  0.00  0.00     0.034 C 
ATOM     10  H   UNL d   1       0.005   1.383  -0.998  0.00  0.00     0.170 HD
ENDROOT
BRANCH   3  11
ATOM     11  C   UNL d   1       0.890   2.284   0.614  0.00  0.00     0.037 A 
ATOM     12  C   UNL d   1       1.594   2.199   1.817  0.00  0.00     0.045 A 
ATOM     13  C   UNL d   1       1.846   3.346   2.591  0.00  0.00     0.050 A 
ATOM     14  C   UNL d   1       1.425   4.597   2.116  0.00  0.00     0.016 A 
ATOM     15  C   UNL d   1       0.747   4.696   0.904  0.00  0.00     0.003 A 
ATOM     16  C   UNL d   1       0.474   3.544   0.163  0.00  0.00     0.029 A 
BRANCH  13  17
ATOM     17  C   UNL d   1       2.519   3.239   3.937  0.00  0.00     0.417 C 
ATOM     18  F   UNL d   1       2.776   1.961   4.330  0.00  0.00    -0.166 F 
ATOM     19  F   UNL d   1       3.713   3.893   3.981  0.00  0.00    -0.166 F 
ATOM     20  F   UNL d   1       1.761   3.784   4.931  0.00  0.00    -0.166 F 
ENDBRANCH  13  17
ENDBRANCH   3  11
BRANCH   7  21
ATOM     21  C   UNL d   1      -1.907  -3.825  -2.293  0.00  0.00     0.263 C 
ATOM     22  O   UNL d   1      -1.547  -3.368  -3.364  0.00  0.00    -0.265 OA
BRANCH  21  23
ATOM     23  O   UNL d   1      -2.453  -5.060  -2.095  0.00  0.00    -0.322 OA
BRANCH  23  24
ATOM     24  C   UNL d   1      -2.970  -5.687  -3.280  0.00  0.00     0.174 C 
ATOM     25  C   UNL d   1      -4.401  -5.213  -3.470  0.00  0.00     0.034 C 
ENDBRANCH  23  24
ENDBRANCH  21  23
ENDBRANCH   7  21
TORSDOF 5
