REMARK  9 active torsions:
REMARK  status: ('A' for Active; 'I' for Inactive)
REMARK    1  A    between atoms: C_6  and  C_3 
REMARK    2  A    between atoms: C_5  and  C_4 
REMARK    3  A    between atoms: O_16  and  C_5 
REMARK    4  A    between atoms: O_17  and  C_6 
REMARK    5  A    between atoms: S_10  and  C_7 
REMARK    6  A    between atoms: C_11  and  S_10 
REMARK    7  A    between atoms: O_18  and  C_15 
REMARK    8  A    between atoms: C_22  and  O_16 
REMARK    9  A    between atoms: C_23  and  O_17 
ROOT
ATOM      1  N   UNL d   1      -1.329  -0.042  -0.030  0.00  0.00    -0.346 N 
ATOM      2  HN  UNL d   1      -2.347  -0.083  -0.000  1.00  0.00     0.166 HD
ATOM      3  C   UNL d   1      -0.676   1.141  -0.077  0.00  0.00     0.110 A 
ATOM      4  C   UNL d   1      -0.581  -1.170  -0.025  0.00  0.00     0.110 A 
ATOM      5  C   UNL d   1       1.459   0.066  -0.125  0.00  0.00     0.010 A 
ATOM      6  C   UNL d   1       0.710   1.242  -0.126  0.00  0.00     0.054 A 
ATOM      7  C   UNL d   1       0.806  -1.165  -0.068  0.00  0.00     0.054 A 
ENDROOT
BRANCH   5   8
ATOM      8  S   UNL d   1       3.239   0.136  -0.101  0.00  0.00    -0.090 SA
BRANCH   8   9
ATOM      9  C   UNL d   1       3.654   0.024  -1.835  0.00  0.00     0.008 A 
ATOM     10  C   UNL d   1       3.272   1.024  -2.739  0.00  0.00     0.055 A 
ATOM     11  C   UNL d   1       3.671   0.960  -4.077  0.00  0.00     0.069 A 
ATOM     12  C   UNL d   1       4.464  -0.106  -4.505  0.00  0.00     0.037 A 
ATOM     13  C   UNL d   1       4.857  -1.103  -3.610  0.00  0.00     0.004 A 
ATOM     14  C   UNL d   1       4.452  -1.037  -2.277  0.00  0.00     0.019 A 
BRANCH  11  15
ATOM     15  O   UNL d   1       3.370   1.873  -5.050  0.00  0.00    -0.356 OA
ATOM     16  C   UNL d   1       2.560   2.978  -4.669  0.00  0.00     0.210 C 
ENDBRANCH  11  15
ENDBRANCH   8   9
ENDBRANCH   5   8
BRANCH   4  17
ATOM     17  C   UNL d   1      -1.310  -2.471  -0.046  0.00  0.00     0.310 C 
ATOM     18  O   UNL d   1      -0.759  -3.556  -0.142  0.00  0.00    -0.258 OA
BRANCH  17  19
ATOM     19  O   UNL d   1      -2.648  -2.240  -0.060  0.00  0.00    -0.317 OA
BRANCH  19  20
ATOM     20  C   UNL d   1      -3.457  -3.302  -0.572  0.00  0.00     0.175 C 
ATOM     21  C   UNL d   1      -3.515  -3.159  -2.083  0.00  0.00     0.034 C 
ENDBRANCH  19  20
ENDBRANCH  17  19
ENDBRANCH   4  17
BRANCH   3  22
ATOM     22  C   UNL d   1      -1.502   2.380   0.020  0.00  0.00     0.310 C 
ATOM     23  O   UNL d   1      -1.035   3.507   0.060  0.00  0.00    -0.258 OA
BRANCH  22  24
ATOM     24  O   UNL d   1      -2.809   2.041   0.160  0.00  0.00    -0.317 OA
BRANCH  24  25
ATOM     25  C   UNL d   1      -3.670   3.042   0.714  0.00  0.00     0.175 C 
ATOM     26  C   UNL d   1      -3.626   2.915   2.226  0.00  0.00     0.034 C 
ENDBRANCH  24  25
ENDBRANCH  22  24
ENDBRANCH   3  22
TORSDOF 9
