REMARK  5 active torsions:
REMARK  status: ('A' for Active; 'I' for Inactive)
REMARK    1  A    between atoms: C_7  and  N_2 
REMARK    2  A    between atoms: C_8  and  N_3 
REMARK    3  A    between atoms: N_12  and  C_4 
REMARK    4  A    between atoms: C_14  and  C_8 
REMARK    5  A    between atoms: O_16  and  C_13 
ROOT
ATOM      1  C   UNL d   1      -0.732   1.145  -0.239  0.00  0.00     0.338 C 
ATOM      2  N   UNL d   1      -1.384  -0.094  -0.057  0.00  0.00    -0.254 N 
ATOM      3  N   UNL d   1       0.648   1.146  -0.046  0.00  0.00    -0.262 N 
ATOM      4  C   UNL d   1      -0.684  -1.282   0.158  0.00  0.00     0.094 C 
ATOM      5  C   UNL d   1       1.397   0.009   0.124  0.00  0.00     0.254 C 
ATOM      6  C   UNL d   1       0.653  -1.250   0.217  0.00  0.00     0.117 C 
ATOM      7  O   UNL d   1      -1.331   2.184  -0.537  0.00  0.00    -0.246 OA
ATOM      8  O   UNL d   1       2.626  -0.032   0.179  0.00  0.00    -0.268 OA
ENDROOT
BRANCH   2   9
ATOM      9  C   UNL d   1      -2.821  -0.072  -0.051  0.00  0.00     0.048 A 
ATOM     10  C   UNL d   1      -3.532   0.376  -1.176  0.00  0.00     0.066 A 
ATOM     11  C   UNL d   1      -4.928   0.379  -1.171  0.00  0.00     0.070 A 
ATOM     12  C   UNL d   1      -5.613  -0.037  -0.026  0.00  0.00     0.037 A 
ATOM     13  C   UNL d   1      -4.916  -0.477   1.099  0.00  0.00     0.005 A 
ATOM     14  C   UNL d   1      -3.523  -0.509   1.081  0.00  0.00     0.030 A 
BRANCH  11  15
ATOM     15  O   UNL d   1      -5.735   0.757  -2.210  0.00  0.00    -0.356 OA
ATOM     16  C   UNL d   1      -5.087   1.152  -3.413  0.00  0.00     0.210 C 
ENDBRANCH  11  15
ENDBRANCH   2   9
BRANCH   4  17
ATOM     17  N   UNL d   1      -1.324  -2.510   0.247  0.00  0.00    -0.288 NA
ATOM     18  H   UNL d   1      -2.217  -2.519  -0.243  0.00  0.00     0.125 HD
ATOM     19  H   UNL d   1      -0.746  -3.305  -0.012  0.00  0.00     0.125 HD
ENDBRANCH   4  17
BRANCH   3  20
ATOM     20  C   UNL d   1       1.346   2.427  -0.065  0.00  0.00     0.175 C 
BRANCH  20  21
ATOM     21  C   UNL d   1       1.345   3.105   1.293  0.00  0.00    -0.040 A 
ATOM     22  C   UNL d   1       2.361   2.848   2.225  0.00  0.00     0.009 A 
ATOM     23  C   UNL d   1       2.342   3.461   3.482  0.00  0.00     0.001 A 
ATOM     24  C   UNL d   1       1.305   4.329   3.822  0.00  0.00     0.000 A 
ATOM     25  C   UNL d   1       0.291   4.591   2.903  0.00  0.00     0.001 A 
ATOM     26  C   UNL d   1       0.310   3.983   1.648  0.00  0.00     0.009 A 
ENDBRANCH  20  21
ENDBRANCH   3  20
TORSDOF 5
