REMARK  5 active torsions:
REMARK  status: ('A' for Active; 'I' for Inactive)
REMARK    1  A    between atoms: S_8  and  C_3 
REMARK    2  A    between atoms: C_7  and  C_4 
REMARK    3  A    between atoms: C_13  and  S_8 
REMARK    4  A    between atoms: C_17  and  C_13 
REMARK    5  A    between atoms: O_18  and  C_14 
ROOT
ATOM      1  N   UNL d   1       1.226   0.566   0.066  0.00  0.00    -0.336 N 
ATOM      2  HN  UNL d   1       2.154   0.989   0.083  1.00  0.00     0.168 HD
ATOM      3  C   UNL d   1       0.119   1.326   0.060  0.00  0.00     0.144 A 
ATOM      4  C   UNL d   1       1.071  -0.777   0.049  0.00  0.00     0.045 A 
ATOM      5  N   UNL d   1      -1.134   0.851   0.051  0.00  0.00    -0.347 N 
ATOM      6  HN  UNL d   1      -1.946   1.468   0.052  1.00  0.00     0.167 HD
ATOM      7  C   UNL d   1      -0.185  -1.351   0.043  0.00  0.00     0.047 A 
ATOM      8  C   UNL d   1      -1.256  -0.488   0.042  0.00  0.00     0.092 A 
ENDROOT
BRANCH   3   9
ATOM      9  S   UNL d   1       0.382   3.077  -0.030  0.00  0.00    -0.089 SA
BRANCH   9  10
ATOM     10  C   UNL d   1      -1.115   3.671   0.812  0.00  0.00     0.121 C 
BRANCH  10  11
ATOM     11  C   UNL d   1      -1.116   5.182   0.893  0.00  0.00    -0.049 A 
ATOM     12  C   UNL d   1      -1.693   5.949  -0.131  0.00  0.00     0.008 A 
ATOM     13  C   UNL d   1      -1.658   7.344  -0.079  0.00  0.00     0.001 A 
ATOM     14  C   UNL d   1      -1.042   7.987   0.993  0.00  0.00     0.000 A 
ATOM     15  C   UNL d   1      -0.461   7.237   2.014  0.00  0.00     0.001 A 
ATOM     16  C   UNL d   1      -0.496   5.842   1.964  0.00  0.00     0.008 A 
ENDBRANCH  10  11
ENDBRANCH   9  10
ENDBRANCH   3   9
BRANCH   4  17
ATOM     17  C   UNL d   1       2.324  -1.565   0.019  0.00  0.00    -0.009 A 
ATOM     18  C   UNL d   1       3.511  -1.060   0.583  0.00  0.00     0.016 A 
ATOM     19  C   UNL d   1       4.712  -1.784   0.549  0.00  0.00     0.037 A 
ATOM     20  C   UNL d   1       4.754  -3.035  -0.058  0.00  0.00     0.068 A 
ATOM     21  C   UNL d   1       3.589  -3.562  -0.609  0.00  0.00     0.037 A 
ATOM     22  C   UNL d   1       2.394  -2.835  -0.582  0.00  0.00     0.016 A 
BRANCH  20  23
ATOM     23  O   UNL d   1       5.855  -3.841  -0.140  0.00  0.00    -0.356 OA
ATOM     24  C   UNL d   1       7.107  -3.165  -0.194  0.00  0.00     0.210 C 
ENDBRANCH  20  23
ENDBRANCH   4  17
TORSDOF 5
