REMARK  5 active torsions:
REMARK  status: ('A' for Active; 'I' for Inactive)
REMARK    1  A    between atoms: S_18  and  C_2 
REMARK    2  A    between atoms: C_17  and  C_3 
REMARK    3  A    between atoms: C_10  and  C_11 
REMARK    4  A    between atoms: C_12  and  S_16 
REMARK    5  A    between atoms: S_16  and  C_17 
ROOT
ATOM      1  N   UNL d   1      -7.887  -1.944   0.180  0.00  0.00    -0.352 N 
ATOM      2  HN  UNL d   1      -8.888  -2.053   0.342  1.00  0.00     0.166 HD
ATOM      3  C   UNL d   1      -7.088  -3.036   0.073  0.00  0.00     0.118 A 
ATOM      4  C   UNL d   1      -5.137  -1.644  -0.164  0.00  0.00     0.015 A 
ATOM      5  C   UNL d   1      -5.712  -2.918  -0.080  0.00  0.00     0.053 A 
ATOM      6  C   UNL d   1      -7.349  -0.719   0.070  0.00  0.00     0.044 A 
ATOM      7  C   UNL d   1      -5.971  -0.497  -0.130  0.00  0.00     0.007 A 
ATOM      8  C   UNL d   1      -5.528   0.840  -0.309  0.00  0.00     0.015 A 
ATOM      9  C   UNL d   1      -8.210   0.368   0.142  0.00  0.00     0.030 A 
ATOM     10  C   UNL d   1      -6.411   1.915  -0.232  0.00  0.00     0.001 A 
ATOM     11  C   UNL d   1      -7.756   1.679   0.001  0.00  0.00     0.002 A 
ENDROOT
BRANCH   4  12
ATOM     12  S   UNL d   1      -3.355  -1.608  -0.401  0.00  0.00    -0.121 SA
BRANCH  12  13
ATOM     13  C   UNL d   1      -2.810  -0.739   1.115  0.00  0.00     0.157 C 
BRANCH  13  14
ATOM     14  C   UNL d   1      -1.325  -0.590   1.118  0.00  0.00     0.109 A 
ATOM     15  N   UNL d   1      -0.428  -1.494   1.652  0.00  0.00    -0.319 N 
ATOM     16  C   UNL d   1       0.810  -0.962   1.417  0.00  0.00     0.159 A 
ATOM     17  C   UNL d   1      -0.792  -2.728   2.297  0.00  0.00     0.159 C 
ATOM     18  N   UNL d   1       0.682   0.192   0.804  0.00  0.00    -0.279 N 
ATOM     19  N   UNL d   1      -0.655   0.431   0.622  0.00  0.00    -0.286 N 
ATOM     20  HN  UNL d   1       1.445   0.804   0.515  1.00  0.00     0.189 HD
ATOM     21  HN  UNL d   1      -1.061   1.255   0.178  1.00  0.00     0.188 HD
BRANCH  16  22
ATOM     22  S   UNL d   1       2.333  -1.670   1.826  0.00  0.00    -0.105 SA
ATOM     23  H   UNL d   1       1.963  -2.606   2.704  0.00  0.00     0.110 HD
ENDBRANCH  16  22
ENDBRANCH  13  14
ENDBRANCH  12  13
ENDBRANCH   4  12
BRANCH   3  24
ATOM     24  C   UNL d   1      -7.710  -4.425   0.109  0.00  0.00     0.432 C 
ATOM     25  F   UNL d   1      -9.071  -4.433   0.158  0.00  0.00    -0.165 F 
ATOM     26  F   UNL d   1      -7.373  -5.174  -0.982  0.00  0.00    -0.165 F 
ATOM     27  F   UNL d   1      -7.294  -5.151   1.189  0.00  0.00    -0.165 F 
ENDBRANCH   3  24
TORSDOF 5
