REMARK  4 active torsions:
REMARK  status: ('A' for Active; 'I' for Inactive)
REMARK    1  A    between atoms: N_5  and  C_3 
REMARK       I    between atoms: C_4  and  N_5 
REMARK    2  A    between atoms: C_8  and  C_4 
REMARK    3  A    between atoms: C_7  and  C_8 
REMARK    4  A    between atoms: O_14  and  C_10 
ROOT
ATOM      1  C   UNL d   1      -3.821   2.467   0.074  0.00  0.00     0.227 C 
ATOM      2  N   UNL d   1      -3.625   1.650   1.166  0.00  0.00    -0.313 N 
ATOM      3  O   UNL d   1      -4.927   2.757  -0.384  0.00  0.00    -0.273 OA
ATOM      4  H   UNL d   1      -2.872   1.842   1.810  0.00  0.00     0.170 HD
ENDROOT
BRANCH   2   5
ATOM      5  C   UNL d   1      -4.505   0.635   1.559  0.00  0.00     0.108 A 
ATOM      6  N   UNL d   1      -4.381   0.195   2.831  0.00  0.00    -0.342 N 
ATOM      7  C   UNL d   1      -5.181  -0.817   3.238  0.00  0.00     0.043 A 
ATOM      8  HN  UNL d   1      -3.702   0.615   3.467  1.00  0.00     0.167 HD
ATOM      9  C   UNL d   1      -6.069  -1.483   2.365  0.00  0.00    -0.009 A 
ATOM     10  C   UNL d   1      -5.156  -1.241   4.563  0.00  0.00     0.030 A 
ATOM     11  C   UNL d   1      -6.140  -1.038   1.045  0.00  0.00     0.017 A 
ATOM     12  C   UNL d   1      -6.864  -2.550   2.812  0.00  0.00     0.013 A 
ATOM     13  C   UNL d   1      -5.365   0.042   0.644  0.00  0.00     0.049 A 
ATOM     14  C   UNL d   1      -6.815  -2.950   4.143  0.00  0.00     0.001 A 
ATOM     15  C   UNL d   1      -5.967  -2.288   5.024  0.00  0.00     0.002 A 
ENDBRANCH   2   5
BRANCH   1  16
ATOM     16  C   UNL d   1      -2.558   2.877  -0.644  0.00  0.00     0.144 C 
BRANCH  16  17
ATOM     17  C   UNL d   1      -1.710   3.958  -0.027  0.00  0.00    -0.016 A 
ATOM     18  C   UNL d   1      -0.310   3.853  -0.045  0.00  0.00     0.074 A 
ATOM     19  C   UNL d   1       0.506   4.935   0.290  0.00  0.00     0.037 A 
ATOM     20  C   UNL d   1      -0.071   6.132   0.701  0.00  0.00     0.003 A 
ATOM     21  C   UNL d   1      -1.459   6.243   0.773  0.00  0.00     0.001 A 
ATOM     22  C   UNL d   1      -2.276   5.168   0.403  0.00  0.00     0.010 A 
BRANCH  18  23
ATOM     23  O   UNL d   1       0.295   2.708  -0.496  0.00  0.00    -0.355 OA
ATOM     24  C   UNL d   1       0.587   1.849   0.608  0.00  0.00     0.210 C 
ENDBRANCH  18  23
ENDBRANCH  16  17
ENDBRANCH   1  16
TORSDOF 4
