REMARK  5 active torsions:
REMARK  status: ('A' for Active; 'I' for Inactive)
REMARK    1  A    between atoms: C_7  and  C_1 
REMARK    2  A    between atoms: C_11  and  N_4 
REMARK       I    between atoms: N_9  and  C_7 
REMARK    3  A    between atoms: C_10  and  C_15 
REMARK    4  A    between atoms: O_19  and  C_10 
REMARK    5  A    between atoms: C_23  and  O_19 
ROOT
ATOM      1  C   UNL d   1      -0.277  -1.618  -0.979  0.00  0.00     0.141 C 
ATOM      2  N   UNL d   1      -1.210  -0.681  -1.231  0.00  0.00    -0.272 N 
ATOM      3  HN  UNL d   1      -2.115  -0.549  -0.780  1.00  0.00     0.189 HD
ATOM      4  N   UNL d   1      -0.652   0.041  -2.230  0.00  0.00    -0.196 N 
ATOM      5  N   UNL d   1       0.616  -0.297  -2.572  0.00  0.00    -0.281 N 
ATOM      6  HN  UNL d   1       1.218   0.117  -3.283  1.00  0.00     0.189 HD
ATOM      7  C   UNL d   1       0.878  -1.315  -1.740  0.00  0.00     0.057 C 
ATOM      8  C   UNL d   1       2.204  -1.971  -1.738  0.00  0.00     0.072 C 
ENDROOT
BRANCH   1   9
ATOM      9  C   UNL d   1      -0.488  -2.715  -0.024  0.00  0.00     0.273 C 
ATOM     10  N   UNL d   1      -1.768  -3.298   0.017  0.00  0.00    -0.347 N 
ATOM     11  C   UNL d   1      -2.132  -4.162   1.133  0.00  0.00     0.127 C 
ATOM     12  C   UNL d   1      -2.789  -3.148  -1.025  0.00  0.00     0.127 C 
ATOM     13  C   UNL d   1      -2.576  -5.538   0.640  0.00  0.00     0.034 C 
ATOM     14  C   UNL d   1      -3.680  -5.443  -0.426  0.00  0.00     0.088 C 
ATOM     15  C   UNL d   1      -3.214  -4.517  -1.557  0.00  0.00     0.034 C 
ATOM     16  O   UNL d   1       0.431  -3.106   0.691  0.00  0.00    -0.266 OA
BRANCH  14  17
ATOM     17  C   UNL d   1      -5.031  -4.973   0.098  0.00  0.00     0.263 C 
ATOM     18  O   UNL d   1      -5.858  -4.386  -0.589  0.00  0.00    -0.265 OA
BRANCH  17  19
ATOM     19  O   UNL d   1      -5.222  -5.325   1.397  0.00  0.00    -0.322 OA
BRANCH  19  20
ATOM     20  C   UNL d   1      -6.480  -4.928   1.965  0.00  0.00     0.174 C 
ATOM     21  C   UNL d   1      -6.422  -3.481   2.420  0.00  0.00     0.034 C 
ENDBRANCH  19  20
ENDBRANCH  17  19
ENDBRANCH  14  17
ENDBRANCH   1   9
BRANCH   4  22
ATOM     22  C   UNL d   1      -1.376   1.068  -2.885  0.00  0.00     0.074 A 
ATOM     23  C   UNL d   1      -2.623   1.472  -2.381  0.00  0.00     0.033 A 
ATOM     24  C   UNL d   1      -3.329   2.498  -3.010  0.00  0.00     0.002 A 
ATOM     25  C   UNL d   1      -2.806   3.106  -4.150  0.00  0.00     0.000 A 
ATOM     26  C   UNL d   1      -1.577   2.690  -4.667  0.00  0.00     0.002 A 
ATOM     27  C   UNL d   1      -0.856   1.677  -4.034  0.00  0.00     0.033 A 
ENDBRANCH   4  22
TORSDOF 5
