REMARK  6 active torsions:
REMARK  status: ('A' for Active; 'I' for Inactive)
REMARK    1  A    between atoms: C_7  and  C_1 
REMARK    2  A    between atoms: C_9  and  N_4 
REMARK    3  A    between atoms: S_11  and  C_5 
REMARK    4  A    between atoms: O_8  and  C_7 
REMARK    5  A    between atoms: C_12  and  O_8 
REMARK    6  A    between atoms: O_18  and  C_13 
ROOT
ATOM      1  C   UNL d   1      -0.287   1.081   0.343  0.00  0.00     0.092 A 
ATOM      2  N   UNL d   1       0.870  -0.854   0.718  0.00  0.00    -0.287 N 
ATOM      3  HN  UNL d   1       1.610  -1.508   0.973  1.00  0.00     0.188 HD
ATOM      4  N   UNL d   1      -0.351  -1.148   0.211  0.00  0.00    -0.266 N 
ATOM      5  C   UNL d   1       0.895   0.476   0.810  0.00  0.00     0.102 A 
ATOM      6  C   UNL d   1      -1.060   0.000  -0.056  0.00  0.00     0.137 A 
ENDROOT
BRANCH   1   7
ATOM      7  C   UNL d   1      -0.701   2.470   0.213  0.00  0.00     0.302 C 
ATOM      8  O   UNL d   1      -1.721   2.775  -0.401  0.00  0.00    -0.259 OA
BRANCH   7   9
ATOM      9  O   UNL d   1       0.160   3.380   0.830  0.00  0.00    -0.275 OA
BRANCH   9  10
ATOM     10  C   UNL d   1      -0.060   4.770   0.722  0.00  0.00     0.079 A 
ATOM     11  C   UNL d   1      -1.326   5.351   0.795  0.00  0.00     0.040 A 
ATOM     12  C   UNL d   1      -1.466   6.734   0.640  0.00  0.00     0.039 A 
ATOM     13  C   UNL d   1      -0.344   7.539   0.435  0.00  0.00     0.068 A 
ATOM     14  C   UNL d   1       0.925   6.953   0.435  0.00  0.00     0.039 A 
ATOM     15  C   UNL d   1       1.073   5.570   0.581  0.00  0.00     0.040 A 
BRANCH  13  16
ATOM     16  O   UNL d   1      -0.355   8.892   0.232  0.00  0.00    -0.356 OA
ATOM     17  C   UNL d   1      -1.626   9.498   0.022  0.00  0.00     0.210 C 
ENDBRANCH  13  16
ENDBRANCH   9  10
ENDBRANCH   7   9
ENDBRANCH   1   7
BRANCH   5  18
ATOM     18  S   UNL d   1       2.319   1.270   1.442  0.00  0.00    -0.114 SA
ATOM     19  C   UNL d   1       3.614   0.355   0.577  0.00  0.00     0.097 C 
ENDBRANCH   5  18
BRANCH   4  20
ATOM     20  C   UNL d   1      -0.755  -2.502   0.020  0.00  0.00     0.056 A 
ATOM     21  C   UNL d   1      -2.038  -2.829  -0.445  0.00  0.00     0.031 A 
ATOM     22  C   UNL d   1      -2.405  -4.172  -0.595  0.00  0.00     0.002 A 
ATOM     23  C   UNL d   1      -1.502  -5.189  -0.289  0.00  0.00     0.000 A 
ATOM     24  C   UNL d   1      -0.225  -4.871   0.166  0.00  0.00     0.002 A 
ATOM     25  C   UNL d   1       0.149  -3.534   0.322  0.00  0.00     0.031 A 
ENDBRANCH   4  20
TORSDOF 6
