REMARK  3 active torsions:
REMARK  status: ('A' for Active; 'I' for Inactive)
REMARK       I    between atoms: N_3  and  C_1 
REMARK       I    between atoms: N_5  and  C_1 
REMARK    1  A    between atoms: C_2  and  N_4 
REMARK    2  A    between atoms: C_15  and  N_5 
REMARK    3  A    between atoms: C_11  and  C_12 
ROOT
ATOM      1  C   UNL d   1       0.833  -0.029  -0.068  0.00  0.00     0.322 C 
ATOM      2  N   UNL d   1      -0.031  -0.032  -1.159  0.00  0.00    -0.332 N 
ATOM      3  N   UNL d   1      -1.127   1.475  -3.486  0.00  0.00    -0.376 N 
ATOM      4  N   UNL d   1       0.217  -0.011   1.167  0.00  0.00    -0.309 N 
ATOM      5  O   UNL d   1       2.050  -0.043  -0.230  0.00  0.00    -0.247 OA
ATOM      6  C   UNL d   1       0.550  -0.113  -2.506  0.00  0.00     0.147 C 
ATOM      7  C   UNL d   1       0.310   1.121  -3.396  0.00  0.00     0.143 C 
ATOM      8  C   UNL d   1      -2.045   1.429  -1.158  0.00  0.00     0.040 C 
ATOM      9  C   UNL d   1      -1.491   0.007  -1.121  0.00  0.00     0.129 C 
ATOM     10  C   UNL d   1      -1.627   2.285  -2.362  0.00  0.00     0.125 C 
ATOM     11  H   UNL d   1      -0.753   0.238   1.182  0.00  0.00     0.170 HD
ENDROOT
BRANCH   4  12
ATOM     12  C   UNL d   1       0.837  -0.086   2.434  0.00  0.00     0.036 A 
ATOM     13  C   UNL d   1       2.182  -0.383   2.628  0.00  0.00     0.030 A 
ATOM     14  C   UNL d   1       2.745  -0.329   3.910  0.00  0.00     0.010 A 
ATOM     15  C   UNL d   1       1.981   0.018   5.038  0.00  0.00    -0.051 A 
ATOM     16  C   UNL d   1       0.608   0.222   4.839  0.00  0.00     0.010 A 
ATOM     17  C   UNL d   1       0.045   0.167   3.556  0.00  0.00     0.030 A 
BRANCH  15  18
ATOM     18  C   UNL d   1       2.671   0.227   6.397  0.00  0.00    -0.024 C 
ATOM     19  C   UNL d   1       1.702   0.624   7.534  0.00  0.00     0.019 C 
ATOM     20  C   UNL d   1       3.398  -1.059   6.840  0.00  0.00     0.019 C 
ATOM     21  C   UNL d   1       3.701   1.371   6.258  0.00  0.00     0.019 C 
ENDBRANCH  15  18
ENDBRANCH   4  12
BRANCH   3  22
ATOM     22  C   UNL d   1      -1.704   1.757  -4.742  0.00  0.00     0.077 A 
ATOM     23  C   UNL d   1      -3.020   1.307  -5.024  0.00  0.00     0.077 A 
ATOM     24 CL   UNL d   1      -3.987   0.438  -3.881  0.00  0.00    -0.080 Cl
ATOM     25  C   UNL d   1      -3.582   1.524  -6.281  0.00  0.00     0.113 A 
ATOM     26  N   UNL d   1      -2.952   2.148  -7.297  0.00  0.00    -0.372 N 
ATOM     27  C   UNL d   1      -1.710   2.600  -7.021  0.00  0.00     0.113 A 
ATOM     28  HN  UNL d   1      -3.385   2.269  -8.212  1.00  0.00     0.164 HD
ATOM     29  C   UNL d   1      -1.064   2.458  -5.790  0.00  0.00     0.077 A 
ATOM     30 CL   UNL d   1       0.461   3.262  -5.636  0.00  0.00    -0.080 Cl
ENDBRANCH   3  22
TORSDOF 3
