REMARK  7 active torsions:
REMARK  status: ('A' for Active; 'I' for Inactive)
REMARK    1  A    between atoms: N_2  and  C_1 
REMARK    2  A    between atoms: N_8  and  C_1 
REMARK    3  A    between atoms: C_3  and  N_2 
REMARK    4  A    between atoms: C_15  and  N_8 
REMARK    5  A    between atoms: C_12  and  C_15 
REMARK    6  A    between atoms: C_16  and  C_12 
REMARK    7  A    between atoms: O_13  and  C_16 
ROOT
ATOM      1  N   UNL d   1       0.548   0.283   1.311  0.00  0.00    -0.333 N 
ATOM      2  H   UNL d   1       1.042   1.048   1.764  0.00  0.00     0.168 HD
ENDROOT
BRANCH   1   3
ATOM      3  C   UNL d   1       1.130  -0.194   0.168  0.00  0.00     0.172 C 
ATOM      4  S   UNL d   1       0.343  -0.650  -1.236  0.00  0.00    -0.041 SA
BRANCH   3   5
ATOM      5  N   UNL d   1       2.498  -0.243   0.175  0.00  0.00    -0.367 N 
ATOM      6  H   UNL d   1       2.883  -0.595  -0.696  0.00  0.00     0.161 HD
BRANCH   5   7
ATOM      7  C   UNL d   1       3.327  -0.415   1.359  0.00  0.00     0.124 C 
BRANCH   7   8
ATOM      8  C   UNL d   1       4.351   0.700   1.519  0.00  0.00     0.046 C 
BRANCH   8   9
ATOM      9  C   UNL d   1       3.720   2.057   1.802  0.00  0.00     0.168 C 
BRANCH   9  10
ATOM     10  O   UNL d   1       2.850   1.951   2.928  0.00  0.00    -0.396 OA
ATOM     11  C   UNL d   1       2.307   3.212   3.295  0.00  0.00     0.201 C 
ENDBRANCH   9  10
ENDBRANCH   8   9
ENDBRANCH   7   8
ENDBRANCH   5   7
ENDBRANCH   3   5
ENDBRANCH   1   3
BRANCH   1  12
ATOM     12  C   UNL d   1      -0.695  -0.090   1.862  0.00  0.00     0.040 A 
ATOM     13  C   UNL d   1      -1.482   0.835   2.571  0.00  0.00    -0.034 A 
ATOM     14  C   UNL d   1      -2.617   0.375   3.266  0.00  0.00     0.032 A 
ATOM     15  C   UNL d   1      -1.213   2.314   2.587  0.00  0.00     0.050 C 
ATOM     16  C   UNL d   1      -2.972  -0.972   3.237  0.00  0.00     0.034 A 
ATOM     17  C   UNL d   1      -2.217  -1.880   2.504  0.00  0.00     0.026 A 
ATOM     18 CL   UNL d   1      -4.345  -1.516   4.120  0.00  0.00    -0.084 Cl
ATOM     19  C   UNL d   1      -1.085  -1.439   1.820  0.00  0.00     0.032 A 
ENDBRANCH   1  12
TORSDOF 7
