REMARK  5 active torsions:
REMARK  status: ('A' for Active; 'I' for Inactive)
REMARK    1  A    between atoms: S_6  and  C_1 
REMARK    2  A    between atoms: C_14  and  S_6 
REMARK       I    between atoms: C_7  and  N_9 
REMARK       I    between atoms: N_10  and  C_7 
REMARK    3  A    between atoms: C_8  and  C_14 
REMARK       I    between atoms: N_11  and  C_8 
REMARK    4  A    between atoms: N_9  and  N_11 
REMARK    5  A    between atoms: C_15  and  N_10 
ROOT
ATOM      1  C   UNL d   1      -3.794  -4.400   0.240  0.00  0.00     0.245 C 
ATOM      2  N   UNL d   1      -2.904  -5.230   0.917  0.00  0.00    -0.265 N 
ATOM      3  O   UNL d   1      -4.921  -4.781  -0.079  0.00  0.00    -0.271 OA
ATOM      4  H   UNL d   1      -2.205  -4.782   1.501  0.00  0.00     0.190 HD
ENDROOT
BRANCH   1   5
ATOM      5  C   UNL d   1      -3.357  -2.954   0.022  0.00  0.00     0.184 C 
BRANCH   5   6
ATOM      6  S   UNL d   1      -1.591  -2.826  -0.317  0.00  0.00    -0.118 SA
BRANCH   6   7
ATOM      7  C   UNL d   1      -1.272  -1.109  -0.485  0.00  0.00     0.035 A 
ATOM      8  C   UNL d   1      -2.038  -0.107  -1.056  0.00  0.00     0.023 A 
ATOM      9  N   UNL d   1      -1.264   1.037  -1.054  0.00  0.00    -0.358 N 
ATOM     10  C   UNL d   1      -3.395  -0.070  -1.657  0.00  0.00     0.069 C 
ATOM     11  C   UNL d   1      -0.029   0.797  -0.505  0.00  0.00     0.044 A 
ATOM     12  H   UNL d   1      -1.548   1.927  -1.438  0.00  0.00     0.166 HD
ATOM     13  C   UNL d   1      -0.013  -0.538  -0.107  0.00  0.00     0.009 A 
ATOM     14  C   UNL d   1       1.070   1.652  -0.347  0.00  0.00     0.030 A 
ATOM     15  C   UNL d   1       1.156  -1.035   0.511  0.00  0.00     0.015 A 
ATOM     16  C   UNL d   1       2.259  -0.192   0.691  0.00  0.00     0.001 A 
ATOM     17  C   UNL d   1       2.217   1.129   0.259  0.00  0.00     0.002 A 
ENDBRANCH   6   7
ENDBRANCH   5   6
ENDBRANCH   1   5
BRANCH   2  18
ATOM     18  N   UNL d   1      -3.456  -6.432   1.405  0.00  0.00    -0.249 N 
ATOM     19  C   UNL d   1      -2.817  -7.652   1.389  0.00  0.00     0.339 C 
ATOM     20  N   UNL d   1      -1.461  -7.612   1.177  0.00  0.00    -0.308 N 
ATOM     21  O   UNL d   1      -3.494  -8.658   1.586  0.00  0.00    -0.245 OA
ATOM     22  H   UNL d   1      -1.064  -6.688   1.098  0.00  0.00     0.170 HD
ATOM     23  H   UNL d   1      -4.471  -6.513   1.317  0.00  0.00     0.192 HD
BRANCH  20  24
ATOM     24  C   UNL d   1      -0.596  -8.717   1.009  0.00  0.00     0.036 A 
ATOM     25  C   UNL d   1      -1.040 -10.042   0.926  0.00  0.00     0.031 A 
ATOM     26  C   UNL d   1      -0.148 -11.090   0.678  0.00  0.00     0.026 A 
ATOM     27  C   UNL d   1       1.208 -10.822   0.526  0.00  0.00     0.034 A 
ATOM     28  C   UNL d   1       1.677  -9.517   0.638  0.00  0.00     0.026 A 
ATOM     29 CL   UNL d   1       2.299 -12.105   0.177  0.00  0.00    -0.084 Cl
ATOM     30  C   UNL d   1       0.778  -8.467   0.879  0.00  0.00     0.031 A 
ENDBRANCH  20  24
ENDBRANCH   2  18
TORSDOF 5
