REMARK  6 active torsions:
REMARK  status: ('A' for Active; 'I' for Inactive)
REMARK    1  A    between atoms: C_2  and  S_1 
REMARK    2  A    between atoms: C_3  and  S_1 
REMARK    3  A    between atoms: C_6  and  C_4 
REMARK    4  A    between atoms: C_7  and  C_5 
REMARK    5  A    between atoms: O_8  and  C_6 
REMARK    6  A    between atoms: O_9  and  C_7 
ROOT
ATOM      1  S   UNL d   1       1.092  -0.121   0.274  0.00  0.00    -0.089 SA
ENDROOT
BRANCH   1   2
ATOM      2  C   UNL d   1       0.320   1.408  -0.272  0.00  0.00     0.014 A 
ATOM      3  C   UNL d   1      -0.161   2.391   0.620  0.00  0.00    -0.018 A 
ATOM      4  C   UNL d   1      -0.911   3.467   0.097  0.00  0.00     0.011 A 
ATOM      5  C   UNL d   1      -1.144   3.592  -1.270  0.00  0.00     0.001 A 
ATOM      6  C   UNL d   1      -0.650   2.636  -2.149  0.00  0.00     0.001 A 
ATOM      7  C   UNL d   1       0.066   1.546  -1.647  0.00  0.00     0.019 A 
BRANCH   3   8
ATOM      8  C   UNL d   1      -0.006   2.266   2.117  0.00  0.00     0.204 C 
BRANCH   8   9
ATOM      9  O   UNL d   1       0.019   3.543   2.754  0.00  0.00    -0.396 OA
ATOM     10  H   UNL d   1       0.911   3.903   2.608  0.00  0.00     0.209 HD
ENDBRANCH   8   9
ENDBRANCH   3   8
ENDBRANCH   1   2
BRANCH   1  11
ATOM     11  C   UNL d   1       2.855   0.204   0.186  0.00  0.00     0.014 A 
ATOM     12  C   UNL d   1       3.733  -0.101   1.250  0.00  0.00    -0.018 A 
ATOM     13  C   UNL d   1       5.113   0.160   1.098  0.00  0.00     0.011 A 
ATOM     14  C   UNL d   1       5.627   0.664  -0.094  0.00  0.00     0.001 A 
ATOM     15  C   UNL d   1       4.771   0.914  -1.156  0.00  0.00     0.001 A 
ATOM     16  C   UNL d   1       3.401   0.685  -1.016  0.00  0.00     0.019 A 
BRANCH  12  17
ATOM     17  C   UNL d   1       3.299  -0.710   2.563  0.00  0.00     0.204 C 
BRANCH  17  18
ATOM     18  O   UNL d   1       4.003  -1.927   2.813  0.00  0.00    -0.396 OA
ATOM     19  H   UNL d   1       4.257  -2.300   1.951  0.00  0.00     0.209 HD
ENDBRANCH  17  18
ENDBRANCH  12  17
ENDBRANCH   1  11
TORSDOF 6
