REMARK  2 active torsions:
REMARK  status: ('A' for Active; 'I' for Inactive)
REMARK    1  A    between atoms: C_6  and  C_1 
REMARK    2  A    between atoms: N_7  and  C_2 
REMARK       I    between atoms: N_9  and  C_6 
ROOT
ATOM      1  C   UNL d   1      -0.936  -1.484  -0.088  0.00  0.00     0.067 A 
ATOM      2  C   UNL d   1      -1.915  -0.496  -0.056  0.00  0.00     0.064 A 
ATOM      3  S   UNL d   1      -1.254   1.085  -0.079  0.00  0.00    -0.082 SA
ATOM      4  C   UNL d   1       0.386  -0.881  -0.039  0.00  0.00    -0.027 A 
ATOM      5  C   UNL d   1       0.333   0.498  -0.031  0.00  0.00    -0.008 A 
ATOM      6  C   UNL d   1       1.706  -1.607  -0.030  0.00  0.00     0.041 C 
ATOM      7  C   UNL d   1       1.514   1.418   0.049  0.00  0.00     0.046 C 
ATOM      8  C   UNL d   1       2.858  -0.702   0.431  0.00  0.00     0.005 C 
ATOM      9  C   UNL d   1       2.815   0.666  -0.259  0.00  0.00     0.005 C 
ENDROOT
BRANCH   1  10
ATOM     10  C   UNL d   1      -1.168  -2.932  -0.155  0.00  0.00     0.252 C 
ATOM     11  O   UNL d   1      -0.273  -3.772  -0.152  0.00  0.00    -0.268 OA
ATOM     12  N   UNL d   1      -2.464  -3.356  -0.263  0.00  0.00    -0.366 N 
ATOM     13  H   UNL d   1      -3.148  -2.708  -0.632  0.00  0.00     0.159 HD
ATOM     14  H   UNL d   1      -2.579  -4.340  -0.466  0.00  0.00     0.159 HD
ENDBRANCH   1  10
BRANCH   2  15
ATOM     15  N   UNL d   1      -3.272  -0.621  -0.001  0.00  0.00    -0.296 NA
ATOM     16  H   UNL d   1      -3.627  -1.295   0.678  0.00  0.00     0.124 HD
ATOM     17  H   UNL d   1      -3.765   0.263   0.116  0.00  0.00     0.124 HD
ENDBRANCH   2  15
TORSDOF 2
