REMARK  8 active torsions:
REMARK  status: ('A' for Active; 'I' for Inactive)
REMARK    1  A    between atoms: C_2  and  C_1 
REMARK    2  A    between atoms: N_7  and  C_1 
REMARK    3  A    between atoms: O_9  and  N_3 
REMARK    4  A    between atoms: C_5  and  O_12 
REMARK    5  A    between atoms: C_6  and  O_9 
REMARK       I    between atoms: N_8  and  C_6 
REMARK    6  A    between atoms: C_14  and  N_7 
REMARK    7  A    between atoms: C_18  and  N_8 
REMARK    8  A    between atoms: O_12  and  C_19 
ROOT
ATOM      1  C   UNL d   1       1.124   0.059   0.002  0.00  0.00     0.140 C 
ATOM      2  N   UNL d   1       0.462  -0.812   0.730  0.00  0.00    -0.239 N 
ATOM      3  HN  UNL d   1       0.892  -1.454   1.395  1.00  0.00     0.196 HD
ENDROOT
BRANCH   1   4
ATOM      4  C   UNL d   1       2.617   0.035   0.192  0.00  0.00     0.053 C 
ATOM      5  C   UNL d   1       3.329  -1.163  -0.004  0.00  0.00     0.049 C 
ATOM      6 CL   UNL d   1       2.572  -2.699  -0.272  0.00  0.00    -0.083 Cl
ATOM      7  C   UNL d   1       4.731  -1.166   0.007  0.00  0.00     0.025 C 
ATOM      8  C   UNL d   1       5.436   0.023   0.161  0.00  0.00     0.003 C 
ATOM      9  C   UNL d   1       4.744   1.200   0.427  0.00  0.00     0.025 C 
ATOM     10  C   UNL d   1       3.346   1.189   0.525  0.00  0.00     0.049 C 
ATOM     11 CL   UNL d   1       2.618   2.615   1.183  0.00  0.00    -0.083 Cl
ENDBRANCH   1   4
BRANCH   1  12
ATOM     12  N   UNL d   1       0.489   0.924  -0.896  0.00  0.00    -0.340 N 
ATOM     13  H   UNL d   1      -0.513   0.978  -0.740  0.00  0.00     0.167 HD
BRANCH  12  14
ATOM     14  C   UNL d   1       1.023   2.050  -1.566  0.00  0.00     0.033 C 
ATOM     15  C   UNL d   1       2.227   2.004  -2.275  0.00  0.00     0.032 C 
ATOM     16  C   UNL d   1       2.914   3.178  -2.612  0.00  0.00     0.039 C 
ATOM     17  C   UNL d   1       2.402   4.419  -2.239  0.00  0.00     0.078 C 
ATOM     18  C   UNL d   1       1.120   4.483  -1.689  0.00  0.00     0.039 C 
ATOM     19  C   UNL d   1       0.434   3.306  -1.354  0.00  0.00     0.032 C 
BRANCH  17  20
ATOM     20  O   UNL d   1       3.046   5.607  -2.391  0.00  0.00    -0.255 OA
BRANCH  20  21
ATOM     21  C   UNL d   1       4.438   5.643  -2.090  0.00  0.00     0.530 C 
ATOM     22  F   UNL d   1       4.912   4.516  -1.512  0.00  0.00    -0.144 F 
ATOM     23  F   UNL d   1       5.135   5.869  -3.225  0.00  0.00    -0.144 F 
ATOM     24  F   UNL d   1       4.677   6.671  -1.241  0.00  0.00    -0.144 F 
ENDBRANCH  20  21
ENDBRANCH  17  20
ENDBRANCH  12  14
ENDBRANCH   1  12
BRANCH   2  25
ATOM     25  O   UNL d   1      -0.927  -0.740   0.468  0.00  0.00    -0.179 OA
BRANCH  25  26
ATOM     26  C   UNL d   1      -1.641  -1.783   1.046  0.00  0.00     0.387 C 
ATOM     27  N   UNL d   1      -0.867  -2.807   1.538  0.00  0.00    -0.301 N 
ATOM     28  H   UNL d   1       0.122  -2.656   1.376  0.00  0.00     0.171 HD
ATOM     29  O   UNL d   1      -2.865  -1.734   1.044  0.00  0.00    -0.236 OA
BRANCH  27  30
ATOM     30  C   UNL d   1      -1.290  -3.974   2.219  0.00  0.00     0.037 A 
ATOM     31  C   UNL d   1      -2.619  -4.229   2.562  0.00  0.00     0.031 A 
ATOM     32  C   UNL d   1      -2.967  -5.387   3.278  0.00  0.00     0.026 A 
ATOM     33  C   UNL d   1      -1.993  -6.299   3.644  0.00  0.00     0.034 A 
ATOM     34  C   UNL d   1      -0.665  -6.067   3.296  0.00  0.00     0.026 A 
ATOM     35 CL   UNL d   1      -2.421  -7.700   4.537  0.00  0.00    -0.084 Cl
ATOM     36  C   UNL d   1      -0.312  -4.912   2.587  0.00  0.00     0.031 A 
ENDBRANCH  27  30
ENDBRANCH  25  26
ENDBRANCH   2  25
TORSDOF 8
