REMARK  12 active torsions:
REMARK  status: ('A' for Active; 'I' for Inactive)
REMARK    1  A    between atoms: C_2  and  C_1 
REMARK    2  A    between atoms: C_3  and  S_14 
REMARK    3  A    between atoms: C_6  and  O_16 
REMARK       I    between atoms: N_15  and  C_6 
REMARK    4  A    between atoms: C_18  and  C_7 
REMARK    5  A    between atoms: O_16  and  N_10 
REMARK    6  A    between atoms: C_12  and  C_26 
REMARK    7  A    between atoms: N_29  and  C_12 
REMARK    8  A    between atoms: S_14  and  C_28 
REMARK    9  A    between atoms: C_27  and  N_15 
REMARK   10  A    between atoms: O_25  and  C_18 
REMARK   11  A    between atoms: C_31  and  O_25 
REMARK   12  A    between atoms: C_26  and  C_32 
ROOT
ATOM      1  N   UNL d   1      -2.391  -3.864 -11.031  0.00  0.00    -0.244 N 
ATOM      2  HN  UNL d   1      -2.158  -4.782 -11.410  1.00  0.00     0.196 HD
ATOM      3  C   UNL d   1      -3.244  -3.017 -11.550  0.00  0.00     0.100 C 
ENDROOT
BRANCH   3   4
ATOM      4  C   UNL d   1      -3.897  -3.355 -12.885  0.00  0.00     0.116 C 
BRANCH   4   5
ATOM      5  C   UNL d   1      -5.266  -4.007 -12.877  0.00  0.00    -0.051 A 
ATOM      6  C   UNL d   1      -6.207  -3.826 -11.860  0.00  0.00     0.010 A 
ATOM      7  C   UNL d   1      -7.535  -4.242 -12.042  0.00  0.00     0.037 A 
ATOM      8  C   UNL d   1      -7.948  -4.855 -13.230  0.00  0.00     0.069 A 
ATOM      9  C   UNL d   1      -7.003  -5.120 -14.213  0.00  0.00     0.037 A 
ATOM     10  C   UNL d   1      -5.678  -4.691 -14.038  0.00  0.00     0.010 A 
BRANCH   8  11
ATOM     11  O   UNL d   1      -9.297  -5.033 -13.362  0.00  0.00    -0.345 OA
BRANCH  11  12
ATOM     12  C   UNL d   1      -9.771  -6.116 -14.169  0.00  0.00     0.234 C 
BRANCH  12  13
ATOM     13  C   UNL d   1     -10.079  -5.804 -15.622  0.00  0.00     0.055 A 
ATOM     14  N   UNL d   1      -9.514  -6.660 -16.529  0.00  0.00    -0.365 N 
ATOM     15  C   UNL d   1      -9.866  -6.541 -17.832  0.00  0.00     0.104 A 
ATOM     16  HN  UNL d   1      -8.845  -7.371 -16.230  1.00  0.00     0.165 HD
ATOM     17  C   UNL d   1     -10.757  -5.597 -18.309  0.00  0.00     0.064 A 
ATOM     18  C   UNL d   1     -11.305  -4.705 -17.382  0.00  0.00     0.043 A 
ATOM     19  C   UNL d   1     -10.973  -4.813 -16.023  0.00  0.00     0.059 A 
ATOM     20 CL   UNL d   1     -11.746  -3.740 -14.921  0.00  0.00    -0.082 Cl
BRANCH  17  21
ATOM     21  C   UNL d   1     -11.112  -5.589 -19.765  0.00  0.00     0.418 C 
ATOM     22  F   UNL d   1     -12.055  -4.662 -20.090  0.00  0.00    -0.166 F 
ATOM     23  F   UNL d   1     -11.607  -6.785 -20.185  0.00  0.00    -0.166 F 
ATOM     24  F   UNL d   1     -10.040  -5.328 -20.561  0.00  0.00    -0.166 F 
ENDBRANCH  17  21
ENDBRANCH  12  13
ENDBRANCH  11  12
ENDBRANCH   8  11
ENDBRANCH   4   5
ENDBRANCH   3   4
BRANCH   3  25
ATOM     25  N   UNL d   1      -3.548  -1.799 -10.987  0.00  0.00    -0.387 N 
ATOM     26  H   UNL d   1      -3.247  -1.673 -10.027  0.00  0.00     0.157 HD
ATOM     27  H   UNL d   1      -4.417  -1.342 -11.236  0.00  0.00     0.157 HD
ENDBRANCH   3  25
BRANCH   1  28
ATOM     28  O   UNL d   1      -1.845  -3.290  -9.852  0.00  0.00    -0.179 OA
BRANCH  28  29
ATOM     29  C   UNL d   1      -0.820  -4.022  -9.281  0.00  0.00     0.387 C 
ATOM     30  N   UNL d   1      -0.595  -5.246  -9.867  0.00  0.00    -0.301 N 
ATOM     31  H   UNL d   1      -1.205  -5.406 -10.662  0.00  0.00     0.171 HD
ATOM     32  O   UNL d   1      -0.215  -3.550  -8.323  0.00  0.00    -0.236 OA
BRANCH  30  33
ATOM     33  C   UNL d   1       0.379  -6.204  -9.524  0.00  0.00     0.036 A 
ATOM     34  C   UNL d   1       1.272  -6.053  -8.459  0.00  0.00     0.031 A 
ATOM     35  C   UNL d   1       2.269  -7.009  -8.213  0.00  0.00     0.021 A 
ATOM     36  C   UNL d   1       2.392  -8.131  -9.033  0.00  0.00     0.009 A 
ATOM     37  C   UNL d   1       1.455  -8.324 -10.050  0.00  0.00     0.021 A 
ATOM     38  C   UNL d   1       0.463  -7.362 -10.299  0.00  0.00     0.031 A 
BRANCH  36  39
ATOM     39  S   UNL d   1       3.694  -9.303  -8.718  0.00  0.00    -0.016 SA
BRANCH  39  40
ATOM     40  C   UNL d   1       4.632  -9.219 -10.255  0.00  0.00     0.448 C 
ATOM     41  F   UNL d   1       4.056  -8.456 -11.213  0.00  0.00    -0.160 F 
ATOM     42  F   UNL d   1       5.874  -8.720 -10.041  0.00  0.00    -0.160 F 
ATOM     43  F   UNL d   1       4.790 -10.459 -10.782  0.00  0.00    -0.160 F 
ENDBRANCH  39  40
ENDBRANCH  36  39
ENDBRANCH  30  33
ENDBRANCH  28  29
ENDBRANCH   1  28
TORSDOF 12
