REMARK  4 active torsions:
REMARK  status: ('A' for Active; 'I' for Inactive)
REMARK    1  A    between atoms: C_2  and  S_1 
REMARK    2  A    between atoms: N_12  and  S_1 
REMARK    3  A    between atoms: C_9  and  C_3 
REMARK    4  A    between atoms: C_5  and  C_10 
ROOT
ATOM      1  C   UNL d   1       0.422   0.988   1.265  0.00  0.00     0.116 A 
ATOM      2  S   UNL d   1      -1.096   0.524   1.898  0.00  0.00    -0.075 SA
ATOM      3  C   UNL d   1      -1.119   1.817   3.013  0.00  0.00     0.035 A 
ATOM      4  C   UNL d   1       0.903   2.119   1.900  0.00  0.00     0.034 A 
ATOM      5  C   UNL d   1       0.008   2.605   2.904  0.00  0.00     0.023 A 
ENDROOT
BRANCH   3   6
ATOM      6  C   UNL d   1      -2.242   2.053   3.978  0.00  0.00     0.074 A 
ATOM      7  C   UNL d   1      -3.395   1.249   4.120  0.00  0.00     0.077 A 
ATOM      8  C   UNL d   1      -4.122   1.858   5.115  0.00  0.00     0.184 A 
ATOM      9  O   UNL d   1      -3.450   2.960   5.543  0.00  0.00    -0.233 OA
ATOM     10  N   UNL d   1      -2.267   3.085   4.832  0.00  0.00    -0.260 N 
ATOM     11  HN  UNL d   1      -1.561   3.813   4.936  1.00  0.00     0.195 HD
BRANCH   8  12
ATOM     12  C   UNL d   1      -5.408   1.561   5.768  0.00  0.00     0.441 C 
ATOM     13  F   UNL d   1      -5.962   0.420   5.278  0.00  0.00    -0.164 F 
ATOM     14  F   UNL d   1      -5.279   1.385   7.106  0.00  0.00    -0.164 F 
ATOM     15  F   UNL d   1      -6.321   2.546   5.578  0.00  0.00    -0.164 F 
ENDBRANCH   8  12
ENDBRANCH   3   6
BRANCH   1  16
ATOM     16  S   UNL d   1       1.099  -0.049  -0.019  0.00  0.00     0.250 S 
ATOM     17  O   UNL d   1       0.515  -1.363   0.170  0.00  0.00    -0.205 OA
ATOM     18  O   UNL d   1       2.528   0.147   0.071  0.00  0.00    -0.205 OA
BRANCH  16  19
ATOM     19  N   UNL d   1       0.588   0.549  -1.559  0.00  0.00    -0.206 NA
ATOM     20  C   UNL d   1       1.188   1.873  -1.910  0.00  0.00     0.107 C 
ATOM     21  C   UNL d   1       0.690   2.360  -3.271  0.00  0.00     0.015 C 
ATOM     22  C   UNL d   1       0.959   1.331  -4.362  0.00  0.00     0.002 C 
ATOM     23  C   UNL d   1       0.326   0.002  -3.979  0.00  0.00     0.015 C 
ATOM     24  C   UNL d   1       0.831  -0.476  -2.623  0.00  0.00     0.107 C 
ENDBRANCH  16  19
ENDBRANCH   1  16
TORSDOF 4
