REMARK  4 active torsions:
REMARK  status: ('A' for Active; 'I' for Inactive)
REMARK    1  A    between atoms: S_3  and  C_1 
REMARK    2  A    between atoms: C_8  and  S_3 
REMARK    3  A    between atoms: N_4  and  C_9 
REMARK    4  A    between atoms: C_11  and  C_7 
ROOT
ATOM      1  C   UNL d   1      -0.036   1.090   0.078  0.00  0.00     0.153 A 
ATOM      2  N   UNL d   1       0.790  -0.009   0.143  0.00  0.00    -0.330 N 
ATOM      3  N   UNL d   1      -1.297   0.748  -0.036  0.00  0.00    -0.344 N 
ATOM      4  HN  UNL d   1      -2.105   1.367  -0.104  1.00  0.00     0.167 HD
ATOM      5  C   UNL d   1      -0.011  -1.145   0.036  0.00  0.00     0.061 A 
ATOM      6  C   UNL d   1      -1.293  -0.619  -0.046  0.00  0.00     0.120 A 
ATOM      7  C   UNL d   1       2.223   0.006   0.331  0.00  0.00     0.158 C 
ENDROOT
BRANCH   1   8
ATOM      8  S   UNL d   1       0.485   2.736   0.253  0.00  0.00    -0.033 SA
BRANCH   8   9
ATOM      9  C   UNL d   1       0.723   3.131  -1.468  0.00  0.00     0.110 A 
ATOM     10  C   UNL d   1       0.022   4.111  -2.168  0.00  0.00     0.136 A 
ATOM     11  C   UNL d   1       0.308   4.360  -3.518  0.00  0.00     0.040 A 
ATOM     12  C   UNL d   1       1.313   3.624  -4.137  0.00  0.00     0.020 A 
ATOM     13  C   UNL d   1       1.985   2.680  -3.379  0.00  0.00     0.089 A 
ATOM     14  N   UNL d   1       1.717   2.422  -2.075  0.00  0.00    -0.358 N 
ATOM     15  HN  UNL d   1       2.245   1.716  -1.561  1.00  0.00     0.166 HD
BRANCH  10  16
ATOM     16  N   UNL d   1      -0.983   4.928  -1.538  0.00  0.00    -0.113 N 
ATOM     17  O   UNL d   1      -0.630   5.630  -0.579  0.00  0.00    -0.532 OA
ATOM     18  O   UNL d   1      -2.102   4.951  -2.070  0.00  0.00    -0.532 OA
ENDBRANCH  10  16
ENDBRANCH   8   9
ENDBRANCH   1   8
BRANCH   5  19
ATOM     19  C   UNL d   1       0.410  -2.557   0.029  0.00  0.00    -0.008 A 
ATOM     20  C   UNL d   1      -0.421  -3.543   0.592  0.00  0.00     0.015 A 
ATOM     21  C   UNL d   1      -0.071  -4.900   0.548  0.00  0.00     0.024 A 
ATOM     22  C   UNL d   1       1.123  -5.286  -0.051  0.00  0.00     0.034 A 
ATOM     23  C   UNL d   1       1.963  -4.331  -0.609  0.00  0.00     0.024 A 
ATOM     24 CL   UNL d   1       1.553  -6.951  -0.121  0.00  0.00    -0.084 Cl
ATOM     25  C   UNL d   1       1.599  -2.980  -0.583  0.00  0.00     0.015 A 
ENDBRANCH   5  19
TORSDOF 4
