REMARK  3 active torsions:
REMARK  status: ('A' for Active; 'I' for Inactive)
REMARK    1  A    between atoms: C_2  and  C_1 
REMARK    2  A    between atoms: O_12  and  C_3 
REMARK    3  A    between atoms: N_10  and  N_4 
ROOT
ATOM      1  C   UNL d   1       0.917   4.317  -0.018  0.00  0.00     0.024 A 
ATOM      2  C   UNL d   1       0.698   5.543  -0.677  0.00  0.00     0.099 A 
ATOM      3  C   UNL d   1       1.708   6.514  -0.707  0.00  0.00     0.069 A 
ATOM      4  C   UNL d   1       2.929   6.287  -0.073  0.00  0.00     0.050 A 
ATOM      5  C   UNL d   1       2.140   4.112   0.637  0.00  0.00     0.040 A 
ATOM      6  C   UNL d   1       3.134   5.086   0.600  0.00  0.00     0.036 A 
ATOM      7 CL   UNL d   1       1.477   8.032  -1.498  0.00  0.00    -0.081 Cl
ATOM      8 CL   UNL d   1       4.628   4.809   1.409  0.00  0.00    -0.084 Cl
ENDROOT
BRANCH   1   9
ATOM      9  C   UNL d   1      -0.168   3.279   0.064  0.00  0.00     0.030 C 
ATOM     10  N   UNL d   1      -1.402   3.698  -0.052  0.00  0.00    -0.323 N 
ATOM     11  HN  UNL d   1      -1.615   4.655  -0.333  1.00  0.00     0.180 HD
ATOM     12  C   UNL d   1       0.217   1.825   0.284  0.00  0.00     0.070 C 
BRANCH  10  13
ATOM     13  N   UNL d   1      -2.387   2.802   0.217  0.00  0.00    -0.240 NA
ATOM     14  C   UNL d   1      -2.872   1.955  -0.883  0.00  0.00     0.135 C 
ATOM     15  C   UNL d   1      -3.562   3.408   0.866  0.00  0.00     0.135 C 
ENDBRANCH  10  13
ENDBRANCH   1   9
BRANCH   2  16
ATOM     16  O   UNL d   1      -0.492   5.818  -1.297  0.00  0.00    -0.358 OA
ATOM     17  H   UNL d   1      -1.157   5.154  -0.996  0.00  0.00     0.217 HD
ENDBRANCH   2  16
TORSDOF 3
