REMARK  6 active torsions:
REMARK  status: ('A' for Active; 'I' for Inactive)
REMARK    1  A    between atoms: C_7  and  C_1 
REMARK    2  A    between atoms: N_2  and  C_10 
REMARK    3  A    between atoms: C_13  and  N_4 
REMARK    4  A    between atoms: N_6  and  C_7 
REMARK    5  A    between atoms: O_16  and  C_8 
REMARK    6  A    between atoms: O_21  and  C_14 
ROOT
ATOM      1  C   UNL d   1       0.023   1.204   0.048  0.00  0.00     0.005 A 
ATOM      2  C   UNL d   1       0.351  -0.124   0.375  0.00  0.00     0.073 A 
ATOM      3  C   UNL d   1      -1.344   1.496  -0.165  0.00  0.00     0.042 A 
ATOM      4  C   UNL d   1      -2.320   0.486  -0.105  0.00  0.00     0.048 A 
ATOM      5  C   UNL d   1      -0.594  -1.139   0.377  0.00  0.00     0.039 A 
ATOM      6  C   UNL d   1      -1.929  -0.835   0.131  0.00  0.00     0.034 A 
ENDROOT
BRANCH   4   7
ATOM      7  N   UNL d   1      -3.697   0.758  -0.129  0.00  0.00    -0.300 N 
ATOM      8  N   UNL d   1      -4.069   1.331  -1.176  0.00  0.00    -0.300 N 
ATOM      9  HN  UNL d   1      -3.458   1.647  -1.929  1.00  0.00     0.187 HD
ATOM     10  HN  UNL d   1      -4.331   0.512   0.632  1.00  0.00     0.187 HD
BRANCH   8  11
ATOM     11  C   UNL d   1      -5.472   1.470  -1.144  0.00  0.00     0.048 A 
ATOM     12  C   UNL d   1      -6.053   2.737  -1.234  0.00  0.00     0.034 A 
ATOM     13  C   UNL d   1      -7.444   2.883  -1.181  0.00  0.00     0.039 A 
ATOM     14  C   UNL d   1      -8.273   1.763  -1.067  0.00  0.00     0.068 A 
ATOM     15  C   UNL d   1      -7.701   0.500  -0.974  0.00  0.00     0.039 A 
ATOM     16  C   UNL d   1      -6.312   0.351  -1.030  0.00  0.00     0.034 A 
BRANCH  14  17
ATOM     17  O   UNL d   1      -9.615   2.026  -1.002  0.00  0.00    -0.356 OA
ATOM     18  C   UNL d   1     -10.453   1.000  -1.522  0.00  0.00     0.210 C 
ENDBRANCH  14  17
ENDBRANCH   8  11
ENDBRANCH   4   7
BRANCH   1  19
ATOM     19  C   UNL d   1       1.044   2.340   0.004  0.00  0.00     0.314 C 
BRANCH  19  20
ATOM     20  N   UNL d   1       2.426   1.849  -0.090  0.00  0.00     0.096 N 
ATOM     21  C   UNL d   1       2.821   1.409  -1.449  0.00  0.00     0.299 C 
ATOM     22  C   UNL d   1       3.543   2.442  -2.328  0.00  0.00     0.198 C 
ATOM     23  O   UNL d   1       4.568   3.140  -1.617  0.00  0.00    -0.388 OA
ATOM     24  C   UNL d   1       4.024   3.777  -0.458  0.00  0.00     0.198 C 
ATOM     25  C   UNL d   1       3.440   2.736   0.500  0.00  0.00     0.299 C 
ENDBRANCH  19  20
ENDBRANCH   1  19
BRANCH   2  26
ATOM     26  O   UNL d   1       1.614  -0.500   0.739  0.00  0.00    -0.360 OA
ATOM     27  H   UNL d   1       2.169   0.306   0.669  0.00  0.00     0.217 HD
ENDBRANCH   2  26
TORSDOF 6
