REMARK  3 active torsions:
REMARK  status: ('A' for Active; 'I' for Inactive)
REMARK    1  A    between atoms: C_12  and  C_2 
REMARK    2  A    between atoms: C_13  and  C_9 
REMARK    3  A    between atoms: C_14  and  C_11 
ROOT
ATOM      1  N   UNL d   1       0.280   0.617   0.075  0.00  0.00    -0.235 N 
ATOM      2  C   UNL d   1      -0.844   1.435   0.068  0.00  0.00     0.144 A 
ATOM      3  C   UNL d   1       0.138  -0.775   0.032  0.00  0.00     0.130 A 
ATOM      4  N   UNL d   1       1.586   0.967   0.119  0.00  0.00    -0.291 N 
ATOM      5  HN  UNL d   1       1.970   1.906   0.219  1.00  0.00     0.187 HD
ATOM      6  N   UNL d   1      -1.081  -1.391   0.060  0.00  0.00    -0.340 N 
ATOM      7  HN  UNL d   1      -1.164  -2.407   0.070  1.00  0.00     0.167 HD
ATOM      8  C   UNL d   1       1.409  -1.290  -0.064  0.00  0.00     0.082 A 
ATOM      9  C   UNL d   1       2.267  -0.176   0.004  0.00  0.00     0.069 A 
ATOM     10  C   UNL d   1      -2.070   0.876   0.059  0.00  0.00     0.067 A 
ATOM     11  C   UNL d   1      -2.131  -0.622   0.073  0.00  0.00     0.046 A 
ENDROOT
BRANCH  11  12
ATOM     12  C   UNL d   1      -3.488  -1.245   0.136  0.00  0.00    -0.009 A 
ATOM     13  C   UNL d   1      -3.635  -2.457   0.831  0.00  0.00     0.021 A 
ATOM     14  C   UNL d   1      -4.891  -3.040   0.891  0.00  0.00    -0.051 A 
ATOM     15  C   UNL d   1      -5.300  -4.290   1.607  0.00  0.00     0.039 C 
ATOM     16  C   UNL d   1      -5.993  -2.442   0.272  0.00  0.00    -0.052 A 
ATOM     17  C   UNL d   1      -6.641  -4.597   0.925  0.00  0.00     0.009 C 
ATOM     18  C   UNL d   1      -7.235  -3.247   0.497  0.00  0.00     0.039 C 
ATOM     19  C   UNL d   1      -5.867  -1.247  -0.413  0.00  0.00     0.008 A 
ATOM     20  C   UNL d   1      -4.604  -0.652  -0.490  0.00  0.00     0.014 A 
ENDBRANCH  11  12
BRANCH   2  21
ATOM     21  C   UNL d   1      -0.661   2.907   0.050  0.00  0.00     0.434 C 
ATOM     22  F   UNL d   1       0.611   3.368   0.021  0.00  0.00    -0.165 F 
ATOM     23  F   UNL d   1      -1.283   3.448  -1.036  0.00  0.00    -0.165 F 
ATOM     24  F   UNL d   1      -1.252   3.478   1.134  0.00  0.00    -0.165 F 
ENDBRANCH   2  21
BRANCH   9  25
ATOM     25  C   UNL d   1       3.765  -0.196  -0.043  0.00  0.00     0.033 A 
ATOM     26  S   UNL d   1       4.704  -1.599  -0.305  0.00  0.00    -0.100 SA
ATOM     27  C   UNL d   1       6.163  -0.709  -0.257  0.00  0.00     0.050 A 
ATOM     28  C   UNL d   1       5.945   0.628  -0.010  0.00  0.00     0.008 A 
ATOM     29  C   UNL d   1       4.555   0.926   0.110  0.00  0.00     0.021 A 
ENDBRANCH   9  25
TORSDOF 3
