REMARK  1 active torsions:
REMARK  status: ('A' for Active; 'I' for Inactive)
REMARK    1  A    between atoms: C_5  and  C_1 
ROOT
ATOM      1  C   UNL d   1      -2.294   0.063   0.004  0.00  0.00     0.191 A 
ATOM      2  N   UNL d   1      -1.535   1.148  -0.002  0.00  0.00    -0.337 N 
ATOM      3  HN  UNL d   1      -1.849   2.118  -0.005  1.00  0.00     0.167 HD
ATOM      4  N   UNL d   1      -1.513  -1.071   0.002  0.00  0.00    -0.337 N 
ATOM      5  C   UNL d   1      -0.238   0.698  -0.006  0.00  0.00     0.060 A 
ATOM      6  C   UNL d   1      -0.195  -0.691  -0.002  0.00  0.00     0.060 A 
ATOM      7  C   UNL d   1       0.961   1.423  -0.011  0.00  0.00     0.032 A 
ATOM      8  C   UNL d   1       0.996  -1.420  -0.003  0.00  0.00     0.032 A 
ATOM      9  C   UNL d   1       2.185  -0.679  -0.007  0.00  0.00     0.002 A 
ATOM     10  C   UNL d   1       2.171   0.718  -0.011  0.00  0.00     0.002 A 
ATOM     11  H   UNL d   1      -1.854  -2.022   0.006  0.00  0.00     0.167 HD
ENDROOT
BRANCH   1  12
ATOM     12  C   UNL d   1      -3.781  -0.046   0.015  0.00  0.00     0.449 C 
ATOM     13  F   UNL d   1      -4.417   1.151   0.003  0.00  0.00    -0.163 F 
ATOM     14  F   UNL d   1      -4.231  -0.749  -1.058  0.00  0.00    -0.163 F 
ATOM     15  F   UNL d   1      -4.217  -0.718   1.115  0.00  0.00    -0.163 F 
ENDBRANCH   1  12
TORSDOF 1
