REMARK  3 active torsions:
REMARK  status: ('A' for Active; 'I' for Inactive)
REMARK    1  A    between atoms: C_10  and  N_4 
REMARK    2  A    between atoms: C_11  and  C_10 
REMARK    3  A    between atoms: C_12  and  C_11 
ROOT
ATOM      1  C   UNL d   1      -3.406  -0.867  -0.258  0.00  0.00     0.170 C 
ATOM      2  N   UNL d   1      -2.558   0.179  -0.130  0.00  0.00    -0.342 N 
ATOM      3  N   UNL d   1      -2.841  -2.098  -0.255  0.00  0.00    -0.342 N 
ATOM      4  N   UNL d   1      -0.697  -1.239   0.242  0.00  0.00     0.123 N 
ATOM      5  C   UNL d   1      -1.138   0.048  -0.270  0.00  0.00     0.399 C 
ATOM      6  C   UNL d   1      -1.435  -2.282  -0.445  0.00  0.00     0.399 C 
ATOM      7  S   UNL d   1      -5.048  -0.661  -0.358  0.00  0.00    -0.041 SA
ATOM      8  H   UNL d   1      -2.970   1.101  -0.200  0.00  0.00     0.163 HD
ATOM      9  H   UNL d   1      -3.464  -2.873  -0.431  0.00  0.00     0.163 HD
ENDROOT
BRANCH   4  10
ATOM     10  C   UNL d   1      -0.749  -1.304   1.717  0.00  0.00     0.282 C 
BRANCH  10  11
ATOM     11  C   UNL d   1      -0.077  -2.561   2.290  0.00  0.00     0.087 C 
BRANCH  11  12
ATOM     12  C   UNL d   1      -0.124  -2.597   3.797  0.00  0.00     0.010 A 
ATOM     13  N   UNL d   1       0.927  -2.062   4.463  0.00  0.00    -0.369 N 
ATOM     14  C   UNL d   1       0.909  -2.135   5.813  0.00  0.00     0.088 A 
ATOM     15  HN  UNL d   1       1.701  -1.621   3.966  1.00  0.00     0.165 HD
ATOM     16  C   UNL d   1      -0.115  -2.716   6.541  0.00  0.00     0.017 A 
ATOM     17  C   UNL d   1      -1.194  -3.246   5.844  0.00  0.00     0.003 A 
ATOM     18  C   UNL d   1      -1.205  -3.183   4.454  0.00  0.00     0.025 A 
ENDBRANCH  11  12
ENDBRANCH  10  11
ENDBRANCH   4  10
TORSDOF 3
