REMARK  6 active torsions:
REMARK  status: ('A' for Active; 'I' for Inactive)
REMARK    1  A    between atoms: C_3  and  S_1 
REMARK    2  A    between atoms: N_10  and  S_1 
REMARK       I    between atoms: C_2  and  N_5 
REMARK       I    between atoms: N_4  and  C_2 
REMARK    3  A    between atoms: C_9  and  N_4 
REMARK    4  A    between atoms: N_5  and  C_11 
REMARK    5  A    between atoms: O_14  and  C_13 
REMARK    6  A    between atoms: C_20  and  O_14 
ROOT
ATOM      1  C   UNL d   1      -0.636  -4.154   2.526  0.00  0.00     0.303 C 
ATOM      2  N   UNL d   1       0.110  -4.292   1.383  0.00  0.00    -0.208 NA
ATOM      3  N   UNL d   1      -0.701  -2.996   3.209  0.00  0.00    -0.313 N 
ATOM      4  O   UNL d   1      -1.254  -5.081   3.061  0.00  0.00    -0.253 OA
ATOM      5  H   UNL d   1       0.954  -3.750   1.470  0.00  0.00     0.138 HD
ATOM      6  H   UNL d   1      -1.243  -3.228   4.036  0.00  0.00     0.170 HD
ENDROOT
BRANCH   3   7
ATOM      7  C   UNL d   1      -0.303  -1.657   3.158  0.00  0.00     0.037 A 
ATOM      8  C   UNL d   1       0.413  -1.015   2.155  0.00  0.00     0.054 A 
ATOM      9  C   UNL d   1       0.715   0.358   2.320  0.00  0.00     0.076 A 
ATOM     10  C   UNL d   1       0.296   1.087   3.439  0.00  0.00     0.025 A 
ATOM     11  C   UNL d   1      -0.434   0.448   4.425  0.00  0.00     0.004 A 
ATOM     12  C   UNL d   1      -0.719  -0.907   4.283  0.00  0.00     0.029 A 
BRANCH   9  13
ATOM     13  S   UNL d   1       1.684   1.235   1.116  0.00  0.00     0.239 S 
ATOM     14  O   UNL d   1       2.104   0.312   0.085  0.00  0.00    -0.206 OA
ATOM     15  O   UNL d   1       2.599   2.106   1.804  0.00  0.00    -0.206 OA
BRANCH  13  16
ATOM     16  N   UNL d   1       0.526   2.220   0.405  0.00  0.00    -0.225 NA
ATOM     17  H   UNL d   1       0.348   1.927  -0.557  0.00  0.00     0.136 HD
ATOM     18  H   UNL d   1       0.803   3.203   0.493  0.00  0.00     0.136 HD
ENDBRANCH  13  16
ENDBRANCH   9  13
ENDBRANCH   3   7
BRANCH   2  19
ATOM     19  C   UNL d   1       0.349  -5.673   1.048  0.00  0.00     0.050 A 
ATOM     20  C   UNL d   1      -0.514  -6.402   0.204  0.00  0.00     0.090 A 
ATOM     21  C   UNL d   1      -0.499  -7.804   0.267  0.00  0.00     0.038 A 
ATOM     22  C   UNL d   1       0.390  -8.474   1.109  0.00  0.00     0.003 A 
ATOM     23  C   UNL d   1       1.313  -7.753   1.859  0.00  0.00     0.002 A 
ATOM     24  C   UNL d   1       1.305  -6.358   1.818  0.00  0.00     0.027 A 
BRANCH  20  25
ATOM     25  O   UNL d   1      -1.360  -5.707  -0.632  0.00  0.00    -0.350 OA
BRANCH  25  26
ATOM     26  C   UNL d   1      -1.702  -6.405  -1.840  0.00  0.00     0.171 C 
ATOM     27  C   UNL d   1      -2.322  -5.432  -2.826  0.00  0.00     0.034 C 
ENDBRANCH  25  26
ENDBRANCH  20  25
ENDBRANCH   2  19
TORSDOF 6
