REMARK  4 active torsions:
REMARK  status: ('A' for Active; 'I' for Inactive)
REMARK    1  A    between atoms: C_4  and  C_2 
REMARK    2  A    between atoms: C_7  and  C_6 
REMARK    3  A    between atoms: O_12  and  C_7 
REMARK    4  A    between atoms: C_10  and  C_8 
ROOT
ATOM      1  N   UNL d   1       2.195  -9.344   0.180  0.00  0.00    -0.364 N 
ATOM      2  C   UNL d   1       0.158  -8.448   0.104  0.00  0.00    -0.008 A 
ATOM      3  C   UNL d   1       1.506  -8.161   0.149  0.00  0.00     0.100 A 
ATOM      4  C   UNL d   1       0.029  -9.876   0.109  0.00  0.00     0.002 A 
ATOM      5  C   UNL d   1       1.321 -10.405   0.158  0.00  0.00     0.043 A 
ATOM      6  C   UNL d   1      -1.056 -10.779   0.076  0.00  0.00     0.014 A 
ATOM      7  C   UNL d   1       1.583 -11.780   0.176  0.00  0.00     0.030 A 
ATOM      8  C   UNL d   1      -0.812 -12.159   0.094  0.00  0.00     0.001 A 
ATOM      9  C   UNL d   1       0.491 -12.649   0.143  0.00  0.00     0.002 A 
ATOM     10  H   UNL d   1       3.200  -9.432   0.215  0.00  0.00     0.165 HD
ENDROOT
BRANCH   2  11
ATOM     11  C   UNL d   1      -0.907  -7.487   0.061  0.00  0.00     0.014 C 
ATOM     12  C   UNL d   1      -0.752  -6.151   0.039  0.00  0.00     0.008 C 
BRANCH  12  13
ATOM     13  C   UNL d   1      -1.807  -5.131  -0.004  0.00  0.00    -0.056 C 
ATOM     14  C   UNL d   1      -1.421  -3.837  -0.043  0.00  0.00     0.087 C 
ATOM     15  C   UNL d   1      -3.239  -5.604   0.010  0.00  0.00     0.048 C 
BRANCH  14  16
ATOM     16  C   UNL d   1      -2.306  -2.653  -0.122  0.00  0.00     0.165 C 
ATOM     17  O   UNL d   1      -3.438  -2.638  -0.568  0.00  0.00    -0.647 OA
BRANCH  16  18
ATOM     18  O   UNL d   1      -1.690  -1.547   0.346  0.00  0.00    -0.773 OA
ATOM     19  H   UNL d   1      -0.807  -1.688   0.733  0.00  0.00     0.167 HD
ENDBRANCH  16  18
ENDBRANCH  14  16
ENDBRANCH  12  13
ENDBRANCH   2  11
TORSDOF 4
