REMARK  5 active torsions:
REMARK  status: ('A' for Active; 'I' for Inactive)
REMARK    1  A    between atoms: C_3  and  C_1 
REMARK    2  A    between atoms: N_7  and  C_2 
REMARK       I    between atoms: C_6  and  N_7 
REMARK       I    between atoms: N_9  and  C_6 
REMARK    3  A    between atoms: C_10  and  N_9 
REMARK    4  A    between atoms: O_12  and  C_11 
REMARK    5  A    between atoms: C_17  and  O_12 
ROOT
ATOM      1  C   UNL d   1       3.332  -3.366  -0.534  0.00  0.00     0.325 C 
ATOM      2  N   UNL d   1       4.588  -3.267   0.003  0.00  0.00    -0.306 N 
ATOM      3  N   UNL d   1       2.434  -2.457  -0.032  0.00  0.00    -0.306 N 
ATOM      4  O   UNL d   1       2.948  -4.266  -1.272  0.00  0.00    -0.247 OA
ATOM      5  H   UNL d   1       4.825  -2.376   0.415  0.00  0.00     0.171 HD
ATOM      6  H   UNL d   1       1.479  -2.802  -0.011  0.00  0.00     0.171 HD
ENDROOT
BRANCH   3   7
ATOM      7  C   UNL d   1       2.568  -1.070   0.189  0.00  0.00     0.070 A 
ATOM      8  C   UNL d   1       1.674  -0.435   1.070  0.00  0.00     0.102 A 
ATOM      9  C   UNL d   1       1.593   0.963   1.109  0.00  0.00     0.039 A 
ATOM     10  C   UNL d   1       2.465   1.732   0.342  0.00  0.00     0.003 A 
ATOM     11  C   UNL d   1       3.405   1.109  -0.474  0.00  0.00     0.002 A 
ATOM     12  C   UNL d   1       3.457  -0.292  -0.557  0.00  0.00     0.032 A 
BRANCH   8  13
ATOM     13  O   UNL d   1       0.888  -1.235   1.879  0.00  0.00    -0.309 OA
BRANCH  13  14
ATOM     14  C   UNL d   1       0.662  -0.823   3.180  0.00  0.00     0.076 A 
ATOM     15  C   UNL d   1      -0.604  -1.093   3.700  0.00  0.00     0.037 A 
ATOM     16  C   UNL d   1      -0.941  -0.660   4.984  0.00  0.00     0.003 A 
ATOM     17  C   UNL d   1      -0.009   0.034   5.755  0.00  0.00     0.000 A 
ATOM     18  C   UNL d   1       1.274   0.261   5.259  0.00  0.00     0.003 A 
ATOM     19  C   UNL d   1       1.621  -0.187   3.981  0.00  0.00     0.037 A 
ENDBRANCH  13  14
ENDBRANCH   8  13
ENDBRANCH   3   7
BRANCH   2  20
ATOM     20  C   UNL d   1       5.563  -4.256   0.063  0.00  0.00     0.077 A 
ATOM     21  C   UNL d   1       5.534  -5.633  -0.139  0.00  0.00     0.186 A 
ATOM     22  O   UNL d   1       6.802  -6.135   0.073  0.00  0.00    -0.308 OA
ATOM     23  C   UNL d   1       7.608  -5.121   0.459  0.00  0.00     0.052 A 
ATOM     24  C   UNL d   1       9.007  -5.474   0.778  0.00  0.00     0.077 C 
ATOM     25  C   UNL d   1       6.894  -3.950   0.481  0.00  0.00     0.064 A 
BRANCH  21  26
ATOM     26  C   UNL d   1       4.545  -6.708  -0.440  0.00  0.00     0.441 C 
ATOM     27  F   UNL d   1       3.245  -6.390  -0.249  0.00  0.00    -0.164 F 
ATOM     28  F   UNL d   1       4.677  -7.182  -1.709  0.00  0.00    -0.164 F 
ATOM     29  F   UNL d   1       4.755  -7.787   0.377  0.00  0.00    -0.164 F 
ENDBRANCH  21  26
ENDBRANCH   2  20
TORSDOF 5
