REMARK  7 active torsions:
REMARK  status: ('A' for Active; 'I' for Inactive)
REMARK    1  A    between atoms: C_2  and  S_1 
REMARK    2  A    between atoms: C_5  and  S_1 
REMARK    3  A    between atoms: C_3  and  C_2 
REMARK    4  A    between atoms: C_6  and  C_2 
REMARK    5  A    between atoms: C_4  and  C_3 
REMARK    6  A    between atoms: C_10  and  C_4 
REMARK    7  A    between atoms: N_12  and  C_8 
ROOT
ATOM      1  C   UNL d   1       0.321   1.590  -0.114  0.00  0.00     0.092 C 
ENDROOT
BRANCH   1   2
ATOM      2  S   UNL d   1       1.010  -0.048   0.419  0.00  0.00    -0.118 SA
BRANCH   2   3
ATOM      3  C   UNL d   1       2.784   0.197   0.546  0.00  0.00     0.027 A 
ATOM      4  C   UNL d   1       3.431   1.137   1.378  0.00  0.00     0.042 A 
ATOM      5  C   UNL d   1       4.839   1.171   1.389  0.00  0.00     0.030 A 
ATOM      6  C   UNL d   1       5.598   0.310   0.597  0.00  0.00     0.002 A 
ATOM      7  C   UNL d   1       4.961  -0.636  -0.193  0.00  0.00     0.002 A 
ATOM      8  C   UNL d   1       3.566  -0.699  -0.206  0.00  0.00     0.021 A 
BRANCH   4   9
ATOM      9  N   UNL d   1       2.763   1.862   2.369  0.00  0.00    -0.398 N 
ATOM     10  H   UNL d   1       1.754   1.893   2.310  0.00  0.00     0.156 HD
ATOM     11  H   UNL d   1       3.207   2.713   2.685  0.00  0.00     0.156 HD
ENDBRANCH   4   9
ENDBRANCH   2   3
ENDBRANCH   1   2
BRANCH   1  12
ATOM     12  C   UNL d   1       0.827   2.185  -1.438  0.00  0.00     0.104 C 
BRANCH  12  13
ATOM     13  C   UNL d   1       0.564   1.402  -2.718  0.00  0.00     0.161 C 
ATOM     14  O   UNL d   1      -0.576   1.276  -3.164  0.00  0.00    -0.292 OA
BRANCH  13  15
ATOM     15  C   UNL d   1       1.697   0.864  -3.533  0.00  0.00     0.010 A 
ATOM     16  C   UNL d   1       3.026   0.883  -3.105  0.00  0.00     0.015 A 
ATOM     17  C   UNL d   1       4.043   0.374  -3.916  0.00  0.00     0.001 A 
ATOM     18  C   UNL d   1       3.745  -0.139  -5.175  0.00  0.00     0.000 A 
ATOM     19  C   UNL d   1       2.425  -0.156  -5.621  0.00  0.00     0.001 A 
ATOM     20  C   UNL d   1       1.406   0.335  -4.801  0.00  0.00     0.015 A 
ENDBRANCH  13  15
ENDBRANCH  12  13
ENDBRANCH   1  12
BRANCH   1  21
ATOM     21  C   UNL d   1      -1.207   1.576  -0.013  0.00  0.00    -0.042 A 
ATOM     22  C   UNL d   1      -1.863   2.563   0.743  0.00  0.00     0.032 A 
ATOM     23  C   UNL d   1      -3.258   2.599   0.807  0.00  0.00     0.034 A 
ATOM     24 CL   UNL d   1      -4.034   3.824   1.736  0.00  0.00    -0.084 Cl
ATOM     25  C   UNL d   1      -4.027   1.665   0.120  0.00  0.00     0.024 A 
ATOM     26  C   UNL d   1      -3.394   0.675  -0.627  0.00  0.00     0.002 A 
ATOM     27  C   UNL d   1      -1.998   0.627  -0.683  0.00  0.00     0.008 A 
ENDBRANCH   1  21
TORSDOF 7
