REMARK  2 active torsions:
REMARK  status: ('A' for Active; 'I' for Inactive)
REMARK    1  A    between atoms: C_8  and  C_1 
REMARK    2  A    between atoms: C_7  and  C_2 
ROOT
ATOM      1  C   UNL d   1       1.402   1.071   0.044  0.00  0.00     0.039 C 
ATOM      2  C   UNL d   1       0.150   1.911   0.007  0.00  0.00     0.182 C 
ATOM      3  C   UNL d   1       1.340  -0.276  -0.019  0.00  0.00     0.022 C 
ATOM      4  C   UNL d   1      -1.099  -0.224  -0.012  0.00  0.00     0.321 C 
ATOM      5  N   UNL d   1       0.097  -0.867  -0.102  0.00  0.00    -0.312 N 
ATOM      6  N   UNL d   1      -1.042   1.113   0.179  0.00  0.00    -0.328 N 
ATOM      7  O   UNL d   1      -2.166  -0.823  -0.063  0.00  0.00    -0.247 OA
ATOM      8  C   UNL d   1       2.478  -1.261  -0.024  0.00  0.00     0.069 C 
ATOM      9  H   UNL d   1       0.021  -1.876  -0.172  0.00  0.00     0.170 HD
ATOM     10  H   UNL d   1      -1.942   1.577   0.192  0.00  0.00     0.165 HD
ENDROOT
BRANCH   2  11
ATOM     11  C   UNL d   1       0.069   3.011   1.019  0.00  0.00     0.080 A 
ATOM     12  O   UNL d   1      -0.087   4.276   0.530  0.00  0.00    -0.325 OA
ATOM     13  C   UNL d   1      -0.080   5.117   1.596  0.00  0.00     0.142 A 
ATOM     14  C   UNL d   1       0.070   4.410   2.766  0.00  0.00     0.027 A 
ATOM     15  C   UNL d   1       0.158   3.047   2.397  0.00  0.00     0.037 A 
ENDBRANCH   2  11
BRANCH   1  16
ATOM     16  C   UNL d   1       2.707   1.803   0.181  0.00  0.00     0.156 C 
ATOM     17  O   UNL d   1       3.641   1.313   0.819  0.00  0.00    -0.293 OA
ATOM     18  C   UNL d   1       2.865   3.173  -0.434  0.00  0.00     0.096 C 
ENDBRANCH   1  16
TORSDOF 2
