REMARK  9 active torsions:
REMARK  status: ('A' for Active; 'I' for Inactive)
REMARK    1  A    between atoms: S_8  and  C_2 
REMARK    2  A    between atoms: C_20  and  C_7 
REMARK    3  A    between atoms: C_17  and  S_8 
REMARK    4  A    between atoms: C_9  and  C_17 
REMARK       I    between atoms: N_11  and  C_9 
REMARK    5  A    between atoms: C_10  and  C_24 
REMARK       I    between atoms: N_12  and  C_10 
REMARK    6  A    between atoms: C_13  and  N_11 
REMARK    7  A    between atoms: C_22  and  N_12 
REMARK    8  A    between atoms: S_18  and  C_20 
REMARK    9  A    between atoms: C_24  and  S_18 
ROOT
ATOM      1  N   UNL d   1       0.670  -0.155  -0.610  0.00  0.00    -0.319 N 
ATOM      2  C   UNL d   1      -0.153   0.916  -0.811  0.00  0.00     0.162 A 
ATOM      3  N   UNL d   1      -1.381   0.595  -0.479  0.00  0.00    -0.278 N 
ATOM      4  HN  UNL d   1      -2.184   1.225  -0.466  1.00  0.00     0.189 HD
ATOM      5  N   UNL d   1      -1.393  -0.735  -0.153  0.00  0.00    -0.286 N 
ATOM      6  HN  UNL d   1      -2.212  -1.275   0.129  1.00  0.00     0.188 HD
ATOM      7  C   UNL d   1      -0.162  -1.199  -0.269  0.00  0.00     0.109 A 
ATOM      8  C   UNL d   1       2.104  -0.190  -0.733  0.00  0.00     0.159 C 
ENDROOT
BRANCH   2   9
ATOM      9  S   UNL d   1       0.344   2.401  -1.538  0.00  0.00    -0.083 SA
BRANCH   9  10
ATOM     10  C   UNL d   1      -0.999   3.529  -1.074  0.00  0.00     0.185 C 
BRANCH  10  11
ATOM     11  C   UNL d   1      -2.191   3.498  -2.024  0.00  0.00     0.231 C 
ATOM     12  N   UNL d   1      -2.858   2.289  -2.062  0.00  0.00    -0.326 N 
ATOM     13  H   UNL d   1      -2.461   1.538  -1.499  0.00  0.00     0.169 HD
ATOM     14  O   UNL d   1      -2.540   4.524  -2.605  0.00  0.00    -0.272 OA
BRANCH  12  15
ATOM     15  C   UNL d   1      -4.090   1.990  -2.674  0.00  0.00     0.036 A 
ATOM     16  C   UNL d   1      -4.814   2.885  -3.462  0.00  0.00     0.053 A 
ATOM     17  C   UNL d   1      -6.076   2.526  -3.939  0.00  0.00     0.036 A 
ATOM     18 CL   UNL d   1      -6.984   3.645  -4.883  0.00  0.00    -0.084 Cl
ATOM     19  C   UNL d   1      -6.622   1.276  -3.649  0.00  0.00     0.024 A 
ATOM     20  C   UNL d   1      -5.888   0.364  -2.895  0.00  0.00     0.004 A 
ATOM     21  C   UNL d   1      -4.625   0.718  -2.417  0.00  0.00     0.029 A 
ENDBRANCH  12  15
ENDBRANCH  10  11
ENDBRANCH   9  10
ENDBRANCH   2   9
BRANCH   7  22
ATOM     22  C   UNL d   1       0.249  -2.622  -0.128  0.00  0.00     0.152 C 
BRANCH  22  23
ATOM     23  S   UNL d   1       0.897  -3.004   1.530  0.00  0.00    -0.152 SA
BRANCH  23  24
ATOM     24  C   UNL d   1      -0.670  -2.904   2.460  0.00  0.00     0.177 C 
BRANCH  24  25
ATOM     25  C   UNL d   1      -0.550  -3.218   3.948  0.00  0.00     0.231 C 
ATOM     26  N   UNL d   1       0.673  -3.704   4.364  0.00  0.00    -0.327 N 
ATOM     27  H   UNL d   1       1.377  -3.787   3.637  0.00  0.00     0.169 HD
ATOM     28  O   UNL d   1      -1.535  -3.051   4.664  0.00  0.00    -0.272 OA
BRANCH  26  29
ATOM     29  C   UNL d   1       1.058  -4.075   5.670  0.00  0.00     0.034 A 
ATOM     30  C   UNL d   1       0.217  -3.996   6.783  0.00  0.00     0.029 A 
ATOM     31  C   UNL d   1       0.673  -4.376   8.049  0.00  0.00     0.002 A 
ATOM     32  C   UNL d   1       1.975  -4.839   8.216  0.00  0.00     0.000 A 
ATOM     33  C   UNL d   1       2.823  -4.923   7.115  0.00  0.00     0.002 A 
ATOM     34  C   UNL d   1       2.367  -4.543   5.848  0.00  0.00     0.029 A 
ENDBRANCH  26  29
ENDBRANCH  24  25
ENDBRANCH  23  24
ENDBRANCH  22  23
ENDBRANCH   7  22
TORSDOF 9
