REMARK  2 active torsions:
REMARK  status: ('A' for Active; 'I' for Inactive)
REMARK    1  A    between atoms: N_4  and  N_1 
REMARK    2  A    between atoms: C_7  and  N_4 
ROOT
ATOM      1  N   UNL d   1      -0.030   0.141   1.276  0.00  0.00    -0.199 NA
ATOM      2  C   UNL d   1      -0.021  -1.068   0.411  0.00  0.00     0.151 C 
ATOM      3  C   UNL d   1      -0.117   1.191   0.227  0.00  0.00     0.151 C 
ATOM      4  S   UNL d   1      -1.486  -0.904  -0.696  0.00  0.00    -0.144 SA
ATOM      5  S   UNL d   1       1.392   0.860  -0.778  0.00  0.00    -0.144 SA
ATOM      6  C   UNL d   1      -1.373   0.920  -0.628  0.00  0.00     0.108 C 
ATOM      7  C   UNL d   1       1.273  -0.932  -0.422  0.00  0.00     0.108 C 
ENDROOT
BRANCH   1   8
ATOM      8  N   UNL d   1      -1.126   0.170   2.176  0.00  0.00    -0.293 N 
ATOM      9  H   UNL d   1      -2.003  -0.291   1.926  0.00  0.00     0.183 HD
BRANCH   8  10
ATOM     10  C   UNL d   1      -1.036   0.739   3.412  0.00  0.00     0.180 C 
ATOM     11  S   UNL d   1      -2.312   0.733   4.476  0.00  0.00    -0.040 SA
ATOM     12  N   UNL d   1       0.142   1.328   3.717  0.00  0.00    -0.375 N 
ATOM     13  H   UNL d   1       0.883   1.316   3.029  0.00  0.00     0.158 HD
ATOM     14  H   UNL d   1       0.286   1.772   4.612  0.00  0.00     0.158 HD
ENDBRANCH   8  10
ENDBRANCH   1   8
TORSDOF 2
