REMARK  6 active torsions:
REMARK  status: ('A' for Active; 'I' for Inactive)
REMARK    1  A    between atoms: C_15  and  N_1 
REMARK    2  A    between atoms: C_8  and  C_2 
REMARK    3  A    between atoms: S_16  and  C_5 
REMARK    4  A    between atoms: C_9  and  C_17 
REMARK    5  A    between atoms: C_17  and  S_16 
REMARK    6  A    between atoms: O_22  and  C_19 
ROOT
ATOM      1  N   UNL d   1      -0.447  -1.700   0.274  0.00  0.00    -0.272 N 
ATOM      2  C   UNL d   1       0.615  -0.782   0.257  0.00  0.00     0.141 A 
ATOM      3  N   UNL d   1       0.166   0.369   0.738  0.00  0.00    -0.282 N 
ATOM      4  HN  UNL d   1       0.724   1.216   0.849  1.00  0.00     0.188 HD
ATOM      5  C   UNL d   1      -1.520  -0.973   0.767  0.00  0.00     0.168 A 
ATOM      6  N   UNL d   1      -1.153   0.249   1.060  0.00  0.00    -0.278 N 
ATOM      7  HN  UNL d   1      -1.746   0.979   1.456  1.00  0.00     0.189 HD
ENDROOT
BRANCH   5   8
ATOM      8  S   UNL d   1      -3.107  -1.605   1.113  0.00  0.00    -0.087 SA
BRANCH   8   9
ATOM      9  C   UNL d   1      -3.200  -1.203   2.876  0.00  0.00     0.122 C 
BRANCH   9  10
ATOM     10  C   UNL d   1      -4.599  -1.284   3.478  0.00  0.00    -0.035 C 
ATOM     11  C   UNL d   1      -5.019  -2.466   4.146  0.00  0.00    -0.048 C 
ATOM     12  C   UNL d   1      -6.124  -2.412   5.031  0.00  0.00    -0.049 C 
ATOM     13  C   UNL d   1      -4.261  -3.761   3.954  0.00  0.00     0.049 C 
ATOM     14  C   UNL d   1      -6.482  -3.592   5.912  0.00  0.00     0.049 C 
ATOM     15  C   UNL d   1      -6.902  -1.228   5.125  0.00  0.00    -0.049 C 
ATOM     16  C   UNL d   1      -6.574  -0.097   4.334  0.00  0.00    -0.049 C 
ATOM     17  C   UNL d   1      -8.049  -1.180   6.114  0.00  0.00     0.049 C 
ATOM     18  C   UNL d   1      -5.435  -0.135   3.488  0.00  0.00    -0.048 C 
ATOM     19  C   UNL d   1      -7.422   1.152   4.442  0.00  0.00     0.049 C 
ATOM     20  C   UNL d   1      -5.103   1.071   2.635  0.00  0.00     0.049 C 
ENDBRANCH   9  10
ENDBRANCH   8   9
ENDBRANCH   5   8
BRANCH   1  21
ATOM     21  C   UNL d   1      -0.465  -3.067  -0.119  0.00  0.00     0.076 A 
ATOM     22  C   UNL d   1       0.479  -3.983   0.372  0.00  0.00     0.095 A 
ATOM     23  C   UNL d   1       0.374  -5.326  -0.019  0.00  0.00     0.039 A 
ATOM     24  C   UNL d   1      -0.653  -5.744  -0.874  0.00  0.00     0.003 A 
ATOM     25  C   UNL d   1      -1.579  -4.830  -1.360  0.00  0.00     0.002 A 
ATOM     26  C   UNL d   1      -1.484  -3.490  -0.989  0.00  0.00     0.033 A 
BRANCH  22  27
ATOM     27  O   UNL d   1       1.411  -3.517   1.261  0.00  0.00    -0.354 OA
ATOM     28  C   UNL d   1       2.370  -4.445   1.758  0.00  0.00     0.210 C 
ENDBRANCH  22  27
ENDBRANCH   1  21
BRANCH   2  29
ATOM     29  C   UNL d   1       1.966  -0.932  -0.327  0.00  0.00     0.032 A 
ATOM     30  C   UNL d   1       3.087  -0.239   0.179  0.00  0.00     0.048 A 
ATOM     31 CL   UNL d   1       3.036   0.728   1.618  0.00  0.00    -0.083 Cl
ATOM     32  C   UNL d   1       4.335  -0.311  -0.461  0.00  0.00     0.025 A 
ATOM     33  C   UNL d   1       4.499  -1.091  -1.602  0.00  0.00     0.002 A 
ATOM     34  C   UNL d   1       3.414  -1.794  -2.112  0.00  0.00     0.001 A 
ATOM     35  C   UNL d   1       2.162  -1.702  -1.494  0.00  0.00     0.017 A 
ENDBRANCH   2  29
TORSDOF 6
