REMARK  2 active torsions:
REMARK  status: ('A' for Active; 'I' for Inactive)
REMARK       I    between atoms: N_3  and  C_1 
REMARK    1  A    between atoms: C_6  and  C_1 
REMARK    2  A    between atoms: C_5  and  N_4 
ROOT
ATOM      1  C   UNL d   1       0.942   0.097  -0.017  0.00  0.00     0.277 C 
ATOM      2  N   UNL d   1       0.171   0.507   1.069  0.00  0.00    -0.343 N 
ATOM      3  N   UNL d   1      -0.332   0.594   3.871  0.00  0.00    -0.377 N 
ATOM      4  C   UNL d   1       0.588   1.670   1.862  0.00  0.00     0.146 C 
ATOM      5  C   UNL d   1      -0.956  -0.248   1.641  0.00  0.00     0.146 C 
ATOM      6  C   UNL d   1       0.846   1.296   3.333  0.00  0.00     0.143 C 
ATOM      7  C   UNL d   1      -0.724  -0.605   3.125  0.00  0.00     0.143 C 
ATOM      8  O   UNL d   1       2.066   0.571  -0.201  0.00  0.00    -0.265 OA
ENDROOT
BRANCH   3   9
ATOM      9  C   UNL d   1      -0.893   0.920   5.098  0.00  0.00     0.043 A 
ATOM     10  C   UNL d   1      -1.402  -0.018   6.048  0.00  0.00     0.018 A 
ATOM     11  C   UNL d   1      -2.002   0.440   7.228  0.00  0.00     0.044 A 
ATOM     12  C   UNL d   1      -1.438  -1.449   6.130  0.00  0.00     0.033 A 
ATOM     13  N   UNL d   1      -2.414  -0.660   7.947  0.00  0.00    -0.365 N 
ATOM     14  C   UNL d   1      -2.131   1.793   7.548  0.00  0.00     0.030 A 
ATOM     15  C   UNL d   1      -2.082  -1.811   7.291  0.00  0.00     0.089 A 
ATOM     16  H   UNL d   1      -2.888  -0.613   8.838  0.00  0.00     0.165 HD
ATOM     17  C   UNL d   1      -1.633   2.713   6.635  0.00  0.00     0.005 A 
ATOM     18  C   UNL d   1      -1.037   2.285   5.449  0.00  0.00     0.030 A 
ENDBRANCH   3   9
BRANCH   1  19
ATOM     19  C   UNL d   1       0.401  -0.903  -0.923  0.00  0.00     0.142 A 
ATOM     20  O   UNL d   1      -0.951  -0.992  -1.139  0.00  0.00    -0.317 OA
ATOM     21  C   UNL d   1      -1.155  -1.985  -2.040  0.00  0.00     0.143 A 
ATOM     22  C   UNL d   1       0.041  -2.525  -2.439  0.00  0.00     0.027 A 
ATOM     23  C   UNL d   1       1.046  -1.815  -1.738  0.00  0.00     0.045 A 
ENDBRANCH   1  19
TORSDOF 2
