REMARK  6 active torsions:
REMARK  status: ('A' for Active; 'I' for Inactive)
REMARK    1  A    between atoms: C_7  and  C_1 
REMARK    2  A    between atoms: C_10  and  C_2 
REMARK    3  A    between atoms: C_15  and  N_3 
REMARK    4  A    between atoms: S_4  and  N_9 
REMARK    5  A    between atoms: C_12  and  S_4 
REMARK    6  A    between atoms: N_9  and  N_11 
REMARK       I    between atoms: N_11  and  C_10 
ROOT
ATOM      1  C   UNL d   1       1.131  -0.814  -0.040  0.00  0.00     0.157 C 
ATOM      2  C   UNL d   1      -0.167  -1.323   0.052  0.00  0.00     0.084 C 
ATOM      3  N   UNL d   1       1.016   0.572  -0.043  0.00  0.00    -0.251 N 
ATOM      4  N   UNL d   1      -0.250   0.959   0.246  0.00  0.00    -0.303 N 
ATOM      5  HN  UNL d   1      -0.584   1.902   0.441  1.00  0.00     0.186 HD
ATOM      6  C   UNL d   1      -0.959  -0.165   0.218  0.00  0.00     0.127 C 
ENDROOT
BRANCH   2   7
ATOM      7  C   UNL d   1      -0.718  -2.679   0.040  0.00  0.00     0.274 C 
ATOM      8  N   UNL d   1       0.158  -3.744   0.034  0.00  0.00    -0.256 N 
ATOM      9  H   UNL d   1       1.162  -3.658   0.180  0.00  0.00     0.191 HD
ATOM     10  O   UNL d   1      -1.936  -2.861   0.029  0.00  0.00    -0.266 OA
BRANCH   8  11
ATOM     11  N   UNL d   1      -0.372  -5.090  -0.034  0.00  0.00    -0.220 N 
ATOM     12  H   UNL d   1      -1.387  -5.242  -0.021  0.00  0.00     0.200 HD
BRANCH  11  13
ATOM     13  S   UNL d   1       0.634  -6.429   0.124  0.00  0.00     0.276 S 
ATOM     14  O   UNL d   1       1.649  -6.086   1.104  0.00  0.00    -0.199 OA
ATOM     15  O   UNL d   1      -0.206  -7.595   0.255  0.00  0.00    -0.199 OA
BRANCH  13  16
ATOM     16  C   UNL d   1       1.417  -6.507  -1.469  0.00  0.00     0.081 A 
ATOM     17  C   UNL d   1       2.811  -6.524  -1.564  0.00  0.00     0.026 A 
ATOM     18  C   UNL d   1       3.411  -6.569  -2.823  0.00  0.00     0.008 A 
ATOM     19  C   UNL d   1       2.627  -6.590  -3.987  0.00  0.00    -0.062 A 
ATOM     20  C   UNL d   1       1.230  -6.582  -3.871  0.00  0.00     0.008 A 
ATOM     21  C   UNL d   1       3.282  -6.637  -5.335  0.00  0.00     0.048 C 
ATOM     22  C   UNL d   1       0.624  -6.543  -2.616  0.00  0.00     0.026 A 
ENDBRANCH  13  16
ENDBRANCH  11  13
ENDBRANCH   8  11
ENDBRANCH   2   7
BRANCH   1  23
ATOM     23  C   UNL d   1       2.456  -1.451  -0.010  0.00  0.00     0.435 C 
ATOM     24  F   UNL d   1       2.374  -2.764   0.332  0.00  0.00    -0.165 F 
ATOM     25  F   UNL d   1       3.076  -1.439  -1.212  0.00  0.00    -0.165 F 
ATOM     26  F   UNL d   1       3.284  -0.887   0.898  0.00  0.00    -0.165 F 
ENDBRANCH   1  23
BRANCH   3  27
ATOM     27  C   UNL d   1       2.017   1.571  -0.232  0.00  0.00     0.057 A 
ATOM     28  C   UNL d   1       3.077   1.384  -1.127  0.00  0.00     0.031 A 
ATOM     29  C   UNL d   1       4.127   2.303  -1.179  0.00  0.00     0.002 A 
ATOM     30  C   UNL d   1       4.103   3.435  -0.371  0.00  0.00     0.000 A 
ATOM     31  C   UNL d   1       3.003   3.677   0.452  0.00  0.00     0.002 A 
ATOM     32  C   UNL d   1       1.952   2.757   0.512  0.00  0.00     0.031 A 
ENDBRANCH   3  27
TORSDOF 6
