REMARK  12 active torsions:
REMARK  status: ('A' for Active; 'I' for Inactive)
REMARK    1  A    between atoms: C_13  and  N_1 
REMARK    2  A    between atoms: C_8  and  C_2 
REMARK    3  A    between atoms: S_16  and  C_5 
REMARK    4  A    between atoms: C_11  and  C_26 
REMARK    5  A    between atoms: C_12  and  C_27 
REMARK    6  A    between atoms: C_17  and  C_13 
REMARK    7  A    between atoms: O_25  and  C_14 
REMARK    8  A    between atoms: O_24  and  C_15 
REMARK    9  A    between atoms: C_34  and  S_16 
REMARK   10  A    between atoms: C_26  and  O_24 
REMARK   11  A    between atoms: C_27  and  O_25 
REMARK   12  A    between atoms: C_35  and  C_34 
ROOT
ATOM      1  N   UNL d   1      -0.259  -1.207  -0.025  0.00  0.00    -0.305 N 
ATOM      2  C   UNL d   1       0.978  -0.578  -0.105  0.00  0.00     0.135 A 
ATOM      3  N   UNL d   1       0.765   0.728  -0.119  0.00  0.00    -0.283 N 
ATOM      4  HN  UNL d   1       1.490   1.445  -0.124  1.00  0.00     0.188 HD
ATOM      5  C   UNL d   1      -1.188  -0.196  -0.084  0.00  0.00     0.163 A 
ATOM      6  N   UNL d   1      -0.583   0.964  -0.123  0.00  0.00    -0.278 N 
ATOM      7  HN  UNL d   1      -1.034   1.879  -0.152  1.00  0.00     0.189 HD
ENDROOT
BRANCH   2   8
ATOM      8  C   UNL d   1       2.325  -1.169  -0.116  0.00  0.00     0.018 A 
ATOM      9  C   UNL d   1       2.632  -2.363  -0.772  0.00  0.00     0.071 A 
ATOM     10  C   UNL d   1       3.925  -2.861  -0.698  0.00  0.00     0.145 A 
ATOM     11  N   UNL d   1       4.912  -2.215  -0.053  0.00  0.00    -0.318 N 
ATOM     12  C   UNL d   1       4.633  -1.036   0.528  0.00  0.00     0.145 A 
ATOM     13  HN  UNL d   1       5.851  -2.611  -0.006  1.00  0.00     0.170 HD
ATOM     14  C   UNL d   1       3.362  -0.487   0.531  0.00  0.00     0.071 A 
BRANCH  10  15
ATOM     15  O   UNL d   1       4.329  -4.063  -1.199  0.00  0.00    -0.327 OA
BRANCH  15  16
ATOM     16  C   UNL d   1       3.601  -4.592  -2.308  0.00  0.00     0.294 C 
BRANCH  16  17
ATOM     17  C   UNL d   1       4.158  -5.946  -2.743  0.00  0.00     0.408 C 
ATOM     18  F   UNL d   1       5.041  -6.467  -1.867  0.00  0.00    -0.169 F 
ATOM     19  F   UNL d   1       3.149  -6.843  -2.876  0.00  0.00    -0.169 F 
ATOM     20  F   UNL d   1       4.770  -5.857  -3.946  0.00  0.00    -0.169 F 
ENDBRANCH  16  17
ENDBRANCH  15  16
ENDBRANCH  10  15
BRANCH  12  21
ATOM     21  O   UNL d   1       5.705  -0.480   1.166  0.00  0.00    -0.327 OA
BRANCH  21  22
ATOM     22  C   UNL d   1       5.809   0.946   1.054  0.00  0.00     0.294 C 
BRANCH  22  23
ATOM     23  C   UNL d   1       7.258   1.412   1.181  0.00  0.00     0.408 C 
ATOM     24  F   UNL d   1       8.153   0.405   1.115  0.00  0.00    -0.169 F 
ATOM     25  F   UNL d   1       7.562   2.287   0.192  0.00  0.00    -0.169 F 
ATOM     26  F   UNL d   1       7.455   2.058   2.356  0.00  0.00    -0.169 F 
ENDBRANCH  22  23
ENDBRANCH  21  22
ENDBRANCH  12  21
ENDBRANCH   2   8
BRANCH   1  27
ATOM     27  C   UNL d   1      -0.553  -2.628   0.036  0.00  0.00     0.198 C 
BRANCH  27  28
ATOM     28  C   UNL d   1       0.126  -3.335   1.150  0.00  0.00     0.070 A 
ATOM     29  O   UNL d   1       0.529  -4.609   0.871  0.00  0.00    -0.325 OA
ATOM     30  C   UNL d   1       1.095  -5.107   2.000  0.00  0.00     0.142 A 
ATOM     31  C   UNL d   1       1.068  -4.168   3.003  0.00  0.00     0.027 A 
ATOM     32  C   UNL d   1       0.436  -3.022   2.459  0.00  0.00     0.036 A 
ENDBRANCH  27  28
ENDBRANCH   1  27
BRANCH   5  33
ATOM     33  S   UNL d   1      -2.903  -0.434  -0.107  0.00  0.00    -0.088 SA
BRANCH  33  34
ATOM     34  C   UNL d   1      -3.463   1.163  -0.771  0.00  0.00     0.121 C 
BRANCH  34  35
ATOM     35  C   UNL d   1      -4.969   1.253  -0.826  0.00  0.00    -0.049 A 
ATOM     36  C   UNL d   1      -5.688   1.788   0.254  0.00  0.00     0.008 A 
ATOM     37  C   UNL d   1      -7.080   1.889   0.204  0.00  0.00     0.001 A 
ATOM     38  C   UNL d   1      -7.774   1.449  -0.925  0.00  0.00     0.000 A 
ATOM     39  C   UNL d   1      -7.071   0.898  -2.000  0.00  0.00     0.001 A 
ATOM     40  C   UNL d   1      -5.678   0.800  -1.950  0.00  0.00     0.008 A 
ENDBRANCH  34  35
ENDBRANCH  33  34
ENDBRANCH   5  33
TORSDOF 12
