REMARK  4 active torsions:
REMARK  status: ('A' for Active; 'I' for Inactive)
REMARK    1  A    between atoms: C_3  and  N_1 
REMARK    2  A    between atoms: S_7  and  C_2 
REMARK    3  A    between atoms: C_12  and  S_7 
REMARK    4  A    between atoms: C_15  and  C_12 
ROOT
ATOM      1  N   UNL d   1      -0.355  -1.118  -0.007  0.00  0.00    -0.300 N 
ATOM      2  C   UNL d   1       0.966  -0.658   0.012  0.00  0.00     0.151 A 
ATOM      3  N   UNL d   1       1.037   0.654   0.102  0.00  0.00    -0.345 N 
ATOM      4  HN  UNL d   1       1.882   1.225   0.137  1.00  0.00     0.167 HD
ATOM      5  C   UNL d   1      -1.123   0.028   0.103  0.00  0.00     0.116 A 
ATOM      6  C   UNL d   1      -0.253   1.090   0.139  0.00  0.00     0.108 A 
ENDROOT
BRANCH   2   7
ATOM      7  S   UNL d   1       2.378  -1.647  -0.238  0.00  0.00    -0.089 SA
BRANCH   7   8
ATOM      8  C   UNL d   1       3.708  -0.437   0.040  0.00  0.00     0.121 C 
BRANCH   8   9
ATOM      9  C   UNL d   1       5.071  -1.071  -0.132  0.00  0.00    -0.048 A 
ATOM     10  C   UNL d   1       5.681  -1.103  -1.397  0.00  0.00     0.009 A 
ATOM     11  C   UNL d   1       6.930  -1.704  -1.569  0.00  0.00     0.019 A 
ATOM     12  C   UNL d   1       7.576  -2.280  -0.480  0.00  0.00     0.011 A 
ATOM     13  C   UNL d   1       6.988  -2.260   0.782  0.00  0.00     0.019 A 
ATOM     14 BR   UNL d   1       9.264  -3.101  -0.718  0.00  0.00    -0.051 Br
ATOM     15  C   UNL d   1       5.737  -1.658   0.956  0.00  0.00     0.009 A 
ENDBRANCH   8   9
ENDBRANCH   7   8
ENDBRANCH   2   7
BRANCH   1  16
ATOM     16  C   UNL d   1      -0.859  -2.460  -0.046  0.00  0.00     0.064 A 
ATOM     17  C   UNL d   1      -2.041  -2.819  -0.736  0.00  0.00     0.083 A 
ATOM     18  C   UNL d   1      -2.477  -4.163  -0.705  0.00  0.00     0.058 A 
ATOM     19 CL   UNL d   1      -2.913  -1.703  -1.748  0.00  0.00    -0.080 Cl
ATOM     20 CL   UNL d   1      -3.918  -4.702  -1.506  0.00  0.00    -0.082 Cl
ATOM     21  C   UNL d   1      -1.745  -5.137  -0.024  0.00  0.00     0.026 A 
ATOM     22  C   UNL d   1      -0.587  -4.785   0.657  0.00  0.00     0.004 A 
ATOM     23  C   UNL d   1      -0.161  -3.456   0.661  0.00  0.00     0.032 A 
ENDBRANCH   1  16
TORSDOF 4
