REMARK  4 active torsions:
REMARK  status: ('A' for Active; 'I' for Inactive)
REMARK    1  A    between atoms: C_5  and  C_1 
REMARK    2  A    between atoms: C_7  and  C_2 
REMARK       I    between atoms: N_9  and  C_7 
REMARK    3  A    between atoms: N_12  and  N_9 
REMARK    4  A    between atoms: C_16  and  N_12 
ROOT
ATOM      1  C   UNL d   1      -1.343  -0.716   0.364  0.00  0.00     0.086 A 
ATOM      2  C   UNL d   1      -0.067  -1.307   0.083  0.00  0.00     0.094 A 
ATOM      3  N   UNL d   1      -1.194   0.593   0.635  0.00  0.00    -0.259 N 
ATOM      4  HN  UNL d   1      -1.923   1.239   0.936  1.00  0.00     0.195 HD
ATOM      5  O   UNL d   1       0.126   0.892   0.429  0.00  0.00    -0.241 OA
ATOM      6  C   UNL d   1       0.804  -0.230   0.084  0.00  0.00     0.090 A 
ATOM      7  C   UNL d   1       2.237  -0.009  -0.204  0.00  0.00     0.080 C 
ENDROOT
BRANCH   2   8
ATOM      8  C   UNL d   1       0.260  -2.701  -0.157  0.00  0.00     0.271 C 
ATOM      9  N   UNL d   1       1.459  -3.083   0.416  0.00  0.00    -0.282 N 
ATOM     10  H   UNL d   1       2.092  -2.412   0.824  0.00  0.00     0.184 HD
ATOM     11  O   UNL d   1      -0.491  -3.473  -0.750  0.00  0.00    -0.266 OA
BRANCH   9  12
ATOM     12  N   UNL d   1       1.958  -4.370   0.223  0.00  0.00    -0.203 NA
ATOM     13  H   UNL d   1       1.252  -5.025  -0.134  0.00  0.00     0.153 HD
BRANCH  12  14
ATOM     14  C   UNL d   1       2.711  -4.915   1.295  0.00  0.00     0.027 A 
ATOM     15  C   UNL d   1       3.165  -4.171   2.397  0.00  0.00     0.025 A 
ATOM     16  C   UNL d   1       4.009  -4.736   3.359  0.00  0.00     0.002 A 
ATOM     17  C   UNL d   1       4.431  -6.054   3.229  0.00  0.00     0.000 A 
ATOM     18  C   UNL d   1       4.006  -6.807   2.139  0.00  0.00     0.002 A 
ATOM     19  C   UNL d   1       3.159  -6.240   1.180  0.00  0.00     0.025 A 
ENDBRANCH  12  14
ENDBRANCH   9  12
ENDBRANCH   2   8
BRANCH   1  20
ATOM     20  C   UNL d   1      -2.679  -1.312   0.446  0.00  0.00     0.037 A 
ATOM     21  C   UNL d   1      -2.965  -2.385   1.311  0.00  0.00     0.048 A 
ATOM     22 CL   UNL d   1      -1.788  -3.082   2.376  0.00  0.00    -0.083 Cl
ATOM     23  C   UNL d   1      -4.264  -2.908   1.404  0.00  0.00     0.025 A 
ATOM     24  C   UNL d   1      -5.308  -2.346   0.675  0.00  0.00     0.003 A 
ATOM     25  C   UNL d   1      -5.052  -1.271  -0.168  0.00  0.00     0.025 A 
ATOM     26  C   UNL d   1      -3.750  -0.768  -0.298  0.00  0.00     0.048 A 
ATOM     27 CL   UNL d   1      -3.555   0.532  -1.433  0.00  0.00    -0.083 Cl
ENDBRANCH   1  20
TORSDOF 4
