REMARK  7 active torsions:
REMARK  status: ('A' for Active; 'I' for Inactive)
REMARK    1  A    between atoms: N_2  and  S_1 
REMARK    2  A    between atoms: C_9  and  S_1 
REMARK       I    between atoms: C_5  and  N_2 
REMARK    3  A    between atoms: C_3  and  C_4 
REMARK       I    between atoms: N_19  and  C_5 
REMARK    4  A    between atoms: C_8  and  N_22 
REMARK    5  A    between atoms: C_27  and  N_19 
REMARK    6  A    between atoms: N_22  and  C_28 
REMARK    7  A    between atoms: C_28  and  C_27 
ROOT
ATOM      1  N   UNL d   1       0.437  -0.081   1.767  0.00  0.00    -0.232 N 
ATOM      2  C   UNL d   1       0.920  -0.904   2.765  0.00  0.00     0.329 C 
ATOM      3  O   UNL d   1       1.735  -1.792   2.568  0.00  0.00    -0.246 OA
ATOM      4  N   UNL d   1       0.372  -0.643   3.989  0.00  0.00    -0.341 N 
ATOM      5  H   UNL d   1      -0.269   0.622   1.934  0.00  0.00     0.183 HD
ATOM      6  H   UNL d   1      -0.379   0.026   4.050  0.00  0.00     0.164 HD
ENDROOT
BRANCH   4   7
ATOM      7  C   UNL d   1       0.598  -1.547   5.104  0.00  0.00     0.139 C 
BRANCH   7   8
ATOM      8  C   UNL d   1       0.708  -0.832   6.455  0.00  0.00     0.113 C 
BRANCH   8   9
ATOM      9  N   UNL d   1       0.958  -1.811   7.513  0.00  0.00    -0.276 NA
ATOM     10  H   UNL d   1       1.750  -2.421   7.315  0.00  0.00     0.129 HD
BRANCH   9  11
ATOM     11  C   UNL d   1       1.125  -1.267   8.801  0.00  0.00     0.102 A 
ATOM     12  N   UNL d   1       0.887   0.051   8.991  0.00  0.00    -0.355 N 
ATOM     13  C   UNL d   1       1.020   0.557  10.240  0.00  0.00     0.105 A 
ATOM     14  HN  UNL d   1       0.614   0.650   8.212  1.00  0.00     0.166 HD
ATOM     15  C   UNL d   1       1.372  -0.194  11.350  0.00  0.00     0.065 A 
ATOM     16  C   UNL d   1       1.601  -1.557  11.156  0.00  0.00     0.044 A 
ATOM     17  C   UNL d   1       1.475  -2.100   9.877  0.00  0.00     0.073 A 
ATOM     18 CL   UNL d   1       1.781  -3.787   9.663  0.00  0.00    -0.081 Cl
BRANCH  15  19
ATOM     19  C   UNL d   1       1.493   0.472  12.684  0.00  0.00     0.418 C 
ATOM     20  F   UNL d   1       1.812  -0.385  13.692  0.00  0.00    -0.166 F 
ATOM     21  F   UNL d   1       2.454   1.436  12.694  0.00  0.00    -0.166 F 
ATOM     22  F   UNL d   1       0.341   1.088  13.064  0.00  0.00    -0.166 F 
ENDBRANCH  15  19
ENDBRANCH   9  11
ENDBRANCH   8   9
ENDBRANCH   7   8
ENDBRANCH   4   7
BRANCH   1  23
ATOM     23  S   UNL d   1       0.961  -0.110   0.188  0.00  0.00     0.266 S 
ATOM     24  O   UNL d   1       2.394   0.074   0.156  0.00  0.00    -0.200 OA
ATOM     25  O   UNL d   1       0.089   0.814  -0.512  0.00  0.00    -0.200 OA
BRANCH  23  26
ATOM     26  C   UNL d   1       0.566  -1.745  -0.384  0.00  0.00     0.080 A 
ATOM     27  C   UNL d   1      -0.683  -2.000  -0.955  0.00  0.00     0.026 A 
ATOM     28  C   UNL d   1      -0.953  -3.263  -1.489  0.00  0.00     0.008 A 
ATOM     29  C   UNL d   1       0.023  -4.270  -1.466  0.00  0.00    -0.062 A 
ATOM     30  C   UNL d   1       1.270  -4.002  -0.888  0.00  0.00     0.008 A 
ATOM     31  C   UNL d   1      -0.264  -5.607  -2.084  0.00  0.00     0.048 C 
ATOM     32  C   UNL d   1       1.546  -2.740  -0.357  0.00  0.00     0.026 A 
ENDBRANCH  23  26
ENDBRANCH   1  23
TORSDOF 7
