REMARK  6 active torsions:
REMARK  status: ('A' for Active; 'I' for Inactive)
REMARK    1  A    between atoms: C_14  and  C_2 
REMARK    2  A    between atoms: S_10  and  C_5 
REMARK       I    between atoms: C_8  and  N_11 
REMARK       I    between atoms: N_12  and  C_8 
REMARK    3  A    between atoms: C_9  and  C_17 
REMARK       I    between atoms: N_13  and  C_9 
REMARK    4  A    between atoms: C_17  and  S_10 
REMARK    5  A    between atoms: N_11  and  N_13 
REMARK    6  A    between atoms: C_19  and  N_12 
ROOT
ATOM      1  C   UNL d   1       2.582  -4.286  -0.273  0.00  0.00     0.245 C 
ATOM      2  N   UNL d   1       1.767  -5.117  -1.014  0.00  0.00    -0.265 N 
ATOM      3  O   UNL d   1       3.648  -4.678   0.207  0.00  0.00    -0.271 OA
ATOM      4  H   UNL d   1       0.964  -4.773  -1.542  0.00  0.00     0.190 HD
ENDROOT
BRANCH   1   5
ATOM      5  C   UNL d   1       2.121  -2.841  -0.159  0.00  0.00     0.186 C 
BRANCH   5   6
ATOM      6  S   UNL d   1       0.367  -2.730   0.311  0.00  0.00    -0.083 SA
BRANCH   6   7
ATOM      7  C   UNL d   1       0.182  -1.016   0.459  0.00  0.00     0.163 A 
ATOM      8  N   UNL d   1      -0.999  -0.399   0.786  0.00  0.00    -0.315 N 
ATOM      9  C   UNL d   1      -0.715   0.954   0.847  0.00  0.00     0.134 A 
ATOM     10  C   UNL d   1      -2.274  -1.044   0.961  0.00  0.00     0.160 C 
ATOM     11  N   UNL d   1       0.556   1.113   0.512  0.00  0.00    -0.283 N 
ATOM     12  N   UNL d   1       1.118  -0.119   0.282  0.00  0.00    -0.278 N 
ATOM     13  HN  UNL d   1       1.041   2.007   0.436  1.00  0.00     0.188 HD
ATOM     14  HN  UNL d   1       2.087  -0.301   0.021  1.00  0.00     0.189 HD
BRANCH   9  15
ATOM     15  C   UNL d   1      -1.636   2.056   1.156  0.00  0.00     0.009 A 
ATOM     16  C   UNL d   1      -2.635   1.963   2.135  0.00  0.00     0.015 A 
ATOM     17  C   UNL d   1      -3.505   3.033   2.375  0.00  0.00     0.001 A 
ATOM     18  C   UNL d   1      -3.366   4.222   1.663  0.00  0.00     0.000 A 
ATOM     19  C   UNL d   1      -2.353   4.346   0.717  0.00  0.00     0.001 A 
ATOM     20  C   UNL d   1      -1.494   3.271   0.469  0.00  0.00     0.015 A 
ENDBRANCH   9  15
ENDBRANCH   6   7
ENDBRANCH   5   6
ENDBRANCH   1   5
BRANCH   2  21
ATOM     21  N   UNL d   1       2.247  -6.386  -1.375  0.00  0.00    -0.249 N 
ATOM     22  C   UNL d   1       1.582  -7.059  -2.386  0.00  0.00     0.339 C 
ATOM     23  N   UNL d   1       2.113  -8.311  -2.611  0.00  0.00    -0.308 N 
ATOM     24  O   UNL d   1       0.647  -6.530  -2.982  0.00  0.00    -0.245 OA
ATOM     25  H   UNL d   1       2.920  -8.556  -2.057  0.00  0.00     0.170 HD
ATOM     26  H   UNL d   1       2.827  -6.854  -0.684  0.00  0.00     0.192 HD
BRANCH  23  27
ATOM     27  C   UNL d   1       1.674  -9.271  -3.548  0.00  0.00     0.036 A 
ATOM     28  C   UNL d   1       0.606  -9.073  -4.426  0.00  0.00     0.031 A 
ATOM     29  C   UNL d   1       0.214 -10.081  -5.315  0.00  0.00     0.026 A 
ATOM     30  C   UNL d   1       0.890 -11.296  -5.329  0.00  0.00     0.034 A 
ATOM     31  C   UNL d   1       1.964 -11.509  -4.468  0.00  0.00     0.026 A 
ATOM     32 CL   UNL d   1       0.397 -12.540  -6.409  0.00  0.00    -0.084 Cl
ATOM     33  C   UNL d   1       2.356 -10.497  -3.583  0.00  0.00     0.031 A 
ENDBRANCH  23  27
ENDBRANCH   2  21
TORSDOF 6
