REMARK  4 active torsions:
REMARK  status: ('A' for Active; 'I' for Inactive)
REMARK    1  A    between atoms: N_2  and  C_1 
REMARK    2  A    between atoms: N_5  and  C_1 
REMARK    3  A    between atoms: C_4  and  C_7 
REMARK    4  A    between atoms: C_10  and  N_5 
ROOT
ATOM      1  C   UNL d   1       1.015   0.042  -0.184  0.00  0.00     0.179 C 
ATOM      2  S   UNL d   1       2.676   0.298  -0.057  0.00  0.00    -0.040 SA
ENDROOT
BRANCH   1   3
ATOM      3  N   UNL d   1       0.413  -1.102  -0.718  0.00  0.00    -0.323 N 
ATOM      4  C   UNL d   1       0.844  -2.451  -0.453  0.00  0.00     0.043 A 
ATOM      5  C   UNL d   1       0.506  -3.495  -1.337  0.00  0.00    -0.031 A 
ATOM      6  C   UNL d   1       1.560  -2.779   0.708  0.00  0.00     0.031 A 
ATOM      7  C   UNL d   1       0.914  -4.813  -1.069  0.00  0.00     0.016 A 
ATOM      8  C   UNL d   1      -0.319  -3.257  -2.577  0.00  0.00     0.042 C 
ATOM      9  C   UNL d   1       1.665  -5.119   0.069  0.00  0.00    -0.061 A 
ATOM     10  C   UNL d   1       1.975  -4.093   0.961  0.00  0.00     0.009 A 
ATOM     11  C   UNL d   1       2.117  -6.527   0.310  0.00  0.00     0.048 C 
ATOM     12  C   UNL d   1      -0.281  -1.802  -2.996  0.00  0.00     0.025 C 
ATOM     13  C   UNL d   1      -0.587  -0.940  -1.789  0.00  0.00     0.132 C 
ENDBRANCH   1   3
BRANCH   1  14
ATOM     14  N   UNL d   1       0.221   1.137   0.063  0.00  0.00    -0.333 N 
ATOM     15  H   UNL d   1       0.725   2.018   0.048  0.00  0.00     0.168 HD
BRANCH  14  16
ATOM     16  C   UNL d   1      -1.153   1.199   0.351  0.00  0.00     0.035 A 
ATOM     17  C   UNL d   1      -1.845   0.135   0.935  0.00  0.00     0.045 A 
ATOM     18  C   UNL d   1      -3.236   0.197   1.112  0.00  0.00     0.050 A 
ATOM     19  C   UNL d   1      -3.920   1.353   0.706  0.00  0.00     0.016 A 
ATOM     20  C   UNL d   1      -3.223   2.438   0.175  0.00  0.00     0.003 A 
ATOM     21  C   UNL d   1      -1.839   2.372   0.023  0.00  0.00     0.029 A 
BRANCH  18  22
ATOM     22  C   UNL d   1      -3.995  -0.969   1.692  0.00  0.00     0.417 C 
ATOM     23  F   UNL d   1      -3.196  -1.959   2.177  0.00  0.00    -0.166 F 
ATOM     24  F   UNL d   1      -4.806  -0.605   2.723  0.00  0.00    -0.166 F 
ATOM     25  F   UNL d   1      -4.806  -1.563   0.771  0.00  0.00    -0.166 F 
ENDBRANCH  18  22
ENDBRANCH  14  16
ENDBRANCH   1  14
TORSDOF 4
