REMARK  9 active torsions:
REMARK  status: ('A' for Active; 'I' for Inactive)
REMARK    1  A    between atoms: S_9  and  C_2 
REMARK    2  A    between atoms: C_12  and  C_3 
REMARK       I    between atoms: C_8  and  N_11 
REMARK    3  A    between atoms: O_14  and  C_8 
REMARK    4  A    between atoms: C_21  and  S_9 
REMARK    5  A    between atoms: C_10  and  C_13 
REMARK    6  A    between atoms: O_22  and  C_10 
REMARK    7  A    between atoms: N_11  and  C_12 
REMARK    8  A    between atoms: C_17  and  O_14 
REMARK    9  A    between atoms: C_23  and  C_21 
ROOT
ATOM      1  N   UNL d   1       0.900   0.275  -0.079  0.00  0.00    -0.318 N 
ATOM      2  C   UNL d   1       0.052   1.349  -0.115  0.00  0.00     0.162 A 
ATOM      3  C   UNL d   1       0.089  -0.843  -0.123  0.00  0.00     0.117 A 
ATOM      4  N   UNL d   1      -1.191   0.929  -0.133  0.00  0.00    -0.278 N 
ATOM      5  HN  UNL d   1      -2.024   1.518  -0.139  1.00  0.00     0.189 HD
ATOM      6  N   UNL d   1      -1.170  -0.445  -0.142  0.00  0.00    -0.285 N 
ATOM      7  HN  UNL d   1      -1.988  -1.054  -0.161  1.00  0.00     0.188 HD
ATOM      8  C   UNL d   1       2.336   0.271   0.032  0.00  0.00     0.160 C 
ENDROOT
BRANCH   2   9
ATOM      9  S   UNL d   1       0.562   3.003  -0.168  0.00  0.00    -0.088 SA
BRANCH   9  10
ATOM     10  C   UNL d   1      -0.896   3.832   0.540  0.00  0.00     0.121 C 
BRANCH  10  11
ATOM     11  C   UNL d   1      -0.793   5.339   0.442  0.00  0.00    -0.048 A 
ATOM     12  C   UNL d   1      -1.369   6.022  -0.638  0.00  0.00     0.009 A 
ATOM     13  C   UNL d   1      -1.267   7.415  -0.737  0.00  0.00     0.018 A 
ATOM     14  C   UNL d   1      -0.583   8.149   0.241  0.00  0.00     0.039 A 
ATOM     15  C   UNL d   1      -0.010   7.473   1.324  0.00  0.00     0.018 A 
ATOM     16  C   UNL d   1      -0.113   6.079   1.421  0.00  0.00     0.009 A 
BRANCH  14  17
ATOM     17  C   UNL d   1      -0.489   9.626   0.069  0.00  0.00     0.292 C 
ATOM     18  O   UNL d   1      -0.968  10.224  -0.875  0.00  0.00    -0.259 OA
BRANCH  17  19
ATOM     19  O   UNL d   1       0.199  10.191   1.098  0.00  0.00    -0.323 OA
ATOM     20  C   UNL d   1       0.336  11.609   0.983  0.00  0.00     0.213 C 
ENDBRANCH  17  19
ENDBRANCH  14  17
ENDBRANCH  10  11
ENDBRANCH   9  10
ENDBRANCH   2   9
BRANCH   3  21
ATOM     21  C   UNL d   1       0.549  -2.260  -0.061  0.00  0.00     0.203 C 
BRANCH  21  22
ATOM     22  N   UNL d   1       1.240  -2.645  -1.272  0.00  0.00    -0.330 N 
ATOM     23  C   UNL d   1       2.578  -2.901  -1.303  0.00  0.00     0.361 C 
ATOM     24  O   UNL d   1       3.330  -2.719  -0.360  0.00  0.00    -0.238 OA
ATOM     25  H   UNL d   1       0.708  -2.895  -2.093  0.00  0.00     0.165 HD
BRANCH  23  26
ATOM     26  O   UNL d   1       2.937  -3.358  -2.525  0.00  0.00    -0.294 OA
BRANCH  26  27
ATOM     27  C   UNL d   1       4.322  -3.718  -2.797  0.00  0.00     0.061 C 
ATOM     28  C   UNL d   1       4.821  -4.808  -1.835  0.00  0.00     0.046 C 
ATOM     29  C   UNL d   1       4.327  -4.269  -4.235  0.00  0.00     0.046 C 
ATOM     30  C   UNL d   1       5.229  -2.482  -2.752  0.00  0.00     0.046 C 
ENDBRANCH  26  27
ENDBRANCH  23  26
ENDBRANCH  21  22
ENDBRANCH   3  21
TORSDOF 9
