REMARK  6 active torsions:
REMARK  status: ('A' for Active; 'I' for Inactive)
REMARK    1  A    between atoms: N_2  and  S_1 
REMARK    2  A    between atoms: C_3  and  S_1 
REMARK    3  A    between atoms: C_8  and  N_2 
REMARK    4  A    between atoms: C_15  and  N_2 
REMARK    5  A    between atoms: C_11  and  C_8 
REMARK    6  A    between atoms: C_14  and  C_15 
ROOT
ATOM      1  N   UNL d   1       2.955  -4.106   0.758  0.00  0.00    -0.197 NA
ATOM      2  C   UNL d   1       2.691  -3.477  -0.181  0.00  0.00     0.060 C 
ATOM      3  C   UNL d   1       2.380  -2.682  -1.372  0.00  0.00     0.139 C 
ENDROOT
BRANCH   3   4
ATOM      4  C   UNL d   1       0.912  -2.244  -1.415  0.00  0.00     0.122 C 
BRANCH   4   5
ATOM      5  N   UNL d   1       0.425  -1.474  -0.211  0.00  0.00    -0.201 NA
BRANCH   5   6
ATOM      6  S   UNL d   1       1.098   0.123  -0.068  0.00  0.00     0.243 S 
ATOM      7  O   UNL d   1       0.121   1.056  -0.588  0.00  0.00    -0.206 OA
ATOM      8  O   UNL d   1       2.447   0.111  -0.594  0.00  0.00    -0.206 OA
BRANCH   6   9
ATOM      9  C   UNL d   1       1.278   0.409   1.678  0.00  0.00     0.074 A 
ATOM     10  C   UNL d   1       2.059  -0.464   2.441  0.00  0.00     0.025 A 
ATOM     11  C   UNL d   1       2.453  -0.089   3.730  0.00  0.00     0.008 A 
ATOM     12  C   UNL d   1       2.083   1.158   4.254  0.00  0.00    -0.062 A 
ATOM     13  C   UNL d   1       1.244   1.992   3.504  0.00  0.00     0.008 A 
ATOM     14  C   UNL d   1       2.600   1.597   5.594  0.00  0.00     0.048 C 
ATOM     15  C   UNL d   1       0.842   1.623   2.217  0.00  0.00     0.025 A 
ENDBRANCH   6   9
ENDBRANCH   5   6
BRANCH   5  16
ATOM     16  C   UNL d   1      -1.083  -1.411  -0.148  0.00  0.00     0.147 C 
BRANCH  16  17
ATOM     17  C   UNL d   1      -1.838  -2.716  -0.224  0.00  0.00    -0.029 A 
ATOM     18  C   UNL d   1      -2.713  -2.966  -1.283  0.00  0.00     0.096 A 
ATOM     19  N   UNL d   1      -3.478  -4.076  -1.404  0.00  0.00    -0.375 N 
ATOM     20  C   UNL d   1      -3.381  -4.984  -0.409  0.00  0.00     0.087 A 
ATOM     21  HN  UNL d   1      -4.095  -4.218  -2.203  1.00  0.00     0.164 HD
ATOM     22  C   UNL d   1      -2.544  -4.840   0.682  0.00  0.00     0.018 A 
ATOM     23  C   UNL d   1      -1.755  -3.690   0.773  0.00  0.00     0.011 A 
ENDBRANCH  16  17
ENDBRANCH   5  16
ENDBRANCH   4   5
ENDBRANCH   3   4
TORSDOF 6
