REMARK  2 active torsions:
REMARK  status: ('A' for Active; 'I' for Inactive)
REMARK    1  A    between atoms: N_3  and  C_1 
REMARK    2  A    between atoms: C_2  and  N_3 
ROOT
ATOM      1  C   UNL d   1      -0.347   0.649   0.008  0.00  0.00     0.078 A 
ATOM      2  C   UNL d   1      -1.401  -0.280   0.040  0.00  0.00     0.062 A 
ATOM      3  C   UNL d   1       0.969   0.125  -0.017  0.00  0.00     0.062 A 
ATOM      4 CL   UNL d   1      -3.073   0.122  -0.146  0.00  0.00    -0.082 Cl
ATOM      5 CL   UNL d   1       2.351   1.176  -0.095  0.00  0.00    -0.082 Cl
ATOM      6  C   UNL d   1       0.168  -2.146   0.088  0.00  0.00     0.003 A 
ATOM      7  C   UNL d   1      -1.137  -1.662   0.092  0.00  0.00     0.026 A 
ATOM      8  C   UNL d   1       1.225  -1.250   0.028  0.00  0.00     0.026 A 
ENDROOT
BRANCH   1   9
ATOM      9  N   UNL d   1      -0.446   2.064  -0.094  0.00  0.00    -0.331 N 
ATOM     10  H   UNL d   1       0.411   2.508  -0.417  0.00  0.00     0.168 HD
BRANCH   9  11
ATOM     11  C   UNL d   1      -1.374   2.989   0.224  0.00  0.00     0.170 C 
ATOM     12  S   UNL d   1      -1.166   4.563  -0.279  0.00  0.00    -0.041 SA
ATOM     13  N   UNL d   1      -2.381   2.694   1.054  0.00  0.00    -0.376 N 
ATOM     14  H   UNL d   1      -2.690   1.738   1.168  0.00  0.00     0.158 HD
ATOM     15  H   UNL d   1      -3.082   3.408   1.206  0.00  0.00     0.158 HD
ENDBRANCH   9  11
ENDBRANCH   1   9
TORSDOF 2
