REMARK  2 active torsions:
REMARK  status: ('A' for Active; 'I' for Inactive)
REMARK    1  A    between atoms: N_13  and  C_3 
REMARK    2  A    between atoms: C_12  and  C_9 
ROOT
ATOM      1  C   UNL d   1      -1.501  -0.823   0.006  0.00  0.00     0.090 A 
ATOM      2  C   UNL d   1      -0.982   0.437  -0.255  0.00  0.00     0.043 A 
ATOM      3  C   UNL d   1      -1.935   1.476  -0.250  0.00  0.00     0.093 A 
ATOM      4  N   UNL d   1      -2.777  -1.131   0.274  0.00  0.00    -0.335 N 
ATOM      5  HN  UNL d   1      -3.094  -2.081   0.467  1.00  0.00     0.168 HD
ATOM      6  N   UNL d   1      -3.225   1.194   0.010  0.00  0.00    -0.332 N 
ATOM      7  HN  UNL d   1      -3.921   1.940   0.016  1.00  0.00     0.168 HD
ATOM      8  S   UNL d   1      -0.334  -2.055  -0.028  0.00  0.00    -0.075 SA
ATOM      9  C   UNL d   1      -3.593  -0.075   0.263  0.00  0.00     0.117 A 
ATOM     10  C   UNL d   1       0.456   0.356  -0.465  0.00  0.00    -0.029 A 
ATOM     11  C   UNL d   1       0.914  -0.949  -0.361  0.00  0.00    -0.008 A 
ATOM     12  C   UNL d   1       1.408   1.491  -0.715  0.00  0.00     0.040 C 
ATOM     13  C   UNL d   1       2.334  -1.417  -0.468  0.00  0.00     0.046 C 
ATOM     14  C   UNL d   1       2.396   1.661   0.444  0.00  0.00     0.005 C 
ATOM     15  C   UNL d   1       3.202  -0.807   0.636  0.00  0.00     0.005 C 
ATOM     16  C   UNL d   1       3.565   0.667   0.417  0.00  0.00     0.001 C 
ENDROOT
BRANCH   9  17
ATOM     17  C   UNL d   1      -5.015  -0.324   0.567  0.00  0.00     0.011 A 
ATOM     18  C   UNL d   1      -5.969   0.706   0.522  0.00  0.00     0.032 A 
ATOM     19  C   UNL d   1      -7.293   0.420   0.813  0.00  0.00     0.088 A 
ATOM     20  N   UNL d   1      -7.743  -0.806   1.146  0.00  0.00    -0.375 N 
ATOM     21  C   UNL d   1      -6.824  -1.792   1.190  0.00  0.00     0.088 A 
ATOM     22  HN  UNL d   1      -8.726  -0.980   1.354  1.00  0.00     0.164 HD
ATOM     23  C   UNL d   1      -5.479  -1.602   0.914  0.00  0.00     0.032 A 
ENDBRANCH   9  17
BRANCH   3  24
ATOM     24  N   UNL d   1      -1.665   2.819  -0.484  0.00  0.00    -0.288 NA
ATOM     25  H   UNL d   1      -0.799   3.149  -0.084  0.00  0.00     0.125 HD
ATOM     26  H   UNL d   1      -2.477   3.374  -0.233  0.00  0.00     0.125 HD
ENDBRANCH   3  24
TORSDOF 2
