REMARK  12 active torsions:
REMARK  status: ('A' for Active; 'I' for Inactive)
REMARK    1  A    between atoms: C_2  and  C_1 
REMARK    2  A    between atoms: C_3  and  C_1 
REMARK    3  A    between atoms: C_4  and  C_1 
REMARK    4  A    between atoms: C_5  and  C_1 
REMARK    5  A    between atoms: O_15  and  C_2 
REMARK    6  A    between atoms: O_14  and  C_3 
REMARK    7  A    between atoms: C_12  and  C_4 
REMARK    8  A    between atoms: C_13  and  C_5 
REMARK    9  A    between atoms: C_6  and  C_12 
REMARK   10  A    between atoms: O_17  and  C_6 
REMARK   11  A    between atoms: C_7  and  C_13 
REMARK   12  A    between atoms: O_16  and  C_7 
ROOT
ATOM      1  C   UNL d   1       0.896  -0.123  -0.029  0.00  0.00     0.136 C 
ENDROOT
BRANCH   1   2
ATOM      2  C   UNL d   1       0.429   0.459  -1.360  0.00  0.00     0.277 C 
ATOM      3  O   UNL d   1      -0.238   1.481  -1.472  0.00  0.00    -0.264 OA
BRANCH   2   4
ATOM      4  O   UNL d   1       0.891  -0.256  -2.425  0.00  0.00    -0.325 OA
ATOM      5  C   UNL d   1       0.433   0.231  -3.689  0.00  0.00     0.213 C 
ENDBRANCH   2   4
ENDBRANCH   1   2
BRANCH   1   6
ATOM      6  C   UNL d   1       0.442  -1.562   0.202  0.00  0.00     0.277 C 
ATOM      7  O   UNL d   1       0.744  -2.208   1.201  0.00  0.00    -0.264 OA
BRANCH   6   8
ATOM      8  O   UNL d   1      -0.348  -2.041  -0.792  0.00  0.00    -0.325 OA
ATOM      9  C   UNL d   1      -0.720  -3.418  -0.661  0.00  0.00     0.213 C 
ENDBRANCH   6   8
ENDBRANCH   1   6
BRANCH   1  10
ATOM     10  C   UNL d   1       0.366   0.740   1.155  0.00  0.00     0.040 C 
BRANCH  10  11
ATOM     11  C   UNL d   1      -1.161   0.783   1.323  0.00  0.00     0.113 C 
BRANCH  11  12
ATOM     12  C   UNL d   1      -1.558   1.687   2.467  0.00  0.00     0.258 C 
ATOM     13  O   UNL d   1      -0.784   2.262   3.223  0.00  0.00    -0.265 OA
BRANCH  12  14
ATOM     14  O   UNL d   1      -2.918   1.766   2.528  0.00  0.00    -0.326 OA
ATOM     15  C   UNL d   1      -3.405   2.612   3.569  0.00  0.00     0.213 C 
ENDBRANCH  12  14
ENDBRANCH  11  12
ENDBRANCH  10  11
ENDBRANCH   1  10
BRANCH   1  16
ATOM     16  C   UNL d   1       2.457  -0.132  -0.017  0.00  0.00     0.040 C 
BRANCH  16  17
ATOM     17  C   UNL d   1       3.113   1.248  -0.161  0.00  0.00     0.113 C 
BRANCH  17  18
ATOM     18  C   UNL d   1       4.623   1.175  -0.152  0.00  0.00     0.258 C 
ATOM     19  O   UNL d   1       5.285   0.154  -0.037  0.00  0.00    -0.265 OA
BRANCH  18  20
ATOM     20  O   UNL d   1       5.129   2.433  -0.294  0.00  0.00    -0.326 OA
ATOM     21  C   UNL d   1       6.556   2.494  -0.299  0.00  0.00     0.213 C 
ENDBRANCH  18  20
ENDBRANCH  17  18
ENDBRANCH  16  17
ENDBRANCH   1  16
TORSDOF 12
