REMARK  6 active torsions:
REMARK  status: ('A' for Active; 'I' for Inactive)
REMARK       I    between atoms: N_8  and  C_1 
REMARK    1  A    between atoms: O_10  and  C_1 
REMARK    2  A    between atoms: C_2  and  C_4 
REMARK    3  A    between atoms: C_5  and  C_2 
REMARK    4  A    between atoms: C_3  and  N_8 
REMARK    5  A    between atoms: N_20  and  C_4 
REMARK    6  A    between atoms: N_6  and  O_10 
ROOT
ATOM      1  O   UNL d   1      -1.874  -0.158   0.060  0.00  0.00    -0.180 OA
ENDROOT
BRANCH   1   2
ATOM      2  N   UNL d   1      -0.953  -0.284   1.125  0.00  0.00    -0.249 N 
ATOM      3  C   UNL d   1      -1.614  -0.180   2.248  0.00  0.00     0.080 C 
ATOM      4  HN  UNL d   1       0.053  -0.431   1.033  1.00  0.00     0.196 HD
BRANCH   3   5
ATOM      5  C   UNL d   1      -0.856  -0.279   3.567  0.00  0.00     0.117 C 
BRANCH   5   6
ATOM      6  C   UNL d   1      -0.793  -1.716   3.987  0.00  0.00    -0.011 A 
ATOM      7  S   UNL d   1      -2.047  -2.408   4.929  0.00  0.00    -0.106 SA
ATOM      8  C   UNL d   1      -1.276  -3.934   4.949  0.00  0.00     0.050 A 
ATOM      9  C   UNL d   1      -0.081  -3.917   4.264  0.00  0.00     0.008 A 
ATOM     10  C   UNL d   1       0.200  -2.635   3.713  0.00  0.00     0.015 A 
ENDBRANCH   5   6
ENDBRANCH   3   5
BRANCH   3  11
ATOM     11  N   UNL d   1      -2.979  -0.001   2.321  0.00  0.00    -0.290 NA
ATOM     12  H   UNL d   1      -3.442  -0.398   3.132  0.00  0.00     0.125 HD
ATOM     13  H   UNL d   1      -3.460  -0.204   1.450  0.00  0.00     0.125 HD
ENDBRANCH   3  11
ENDBRANCH   1   2
BRANCH   1  14
ATOM     14  C   UNL d   1      -1.302  -0.141  -1.195  0.00  0.00     0.387 C 
ATOM     15  N   UNL d   1       0.046  -0.417  -1.225  0.00  0.00    -0.301 N 
ATOM     16  H   UNL d   1       0.411  -0.678  -0.315  0.00  0.00     0.171 HD
ATOM     17  O   UNL d   1      -2.019   0.065  -2.170  0.00  0.00    -0.236 OA
BRANCH  15  18
ATOM     18  C   UNL d   1       0.874  -0.455  -2.368  0.00  0.00     0.040 A 
ATOM     19  C   UNL d   1       0.476   0.053  -3.611  0.00  0.00     0.053 A 
ATOM     20  C   UNL d   1       1.326  -0.021  -4.716  0.00  0.00     0.037 A 
ATOM     21 CL   UNL d   1       0.812   0.620  -6.230  0.00  0.00    -0.084 Cl
ATOM     22  C   UNL d   1       2.582  -0.604  -4.608  0.00  0.00     0.048 A 
ATOM     23  C   UNL d   1       2.986  -1.099  -3.373  0.00  0.00     0.037 A 
ATOM     24  C   UNL d   1       2.150  -1.017  -2.252  0.00  0.00     0.053 A 
ATOM     25 CL   UNL d   1       4.537  -1.835  -3.228  0.00  0.00    -0.084 Cl
ENDBRANCH  15  18
ENDBRANCH   1  14
TORSDOF 6
