REMARK  8 active torsions:
REMARK  status: ('A' for Active; 'I' for Inactive)
REMARK    1  A    between atoms: S_9  and  C_1 
REMARK       I    between atoms: C_4  and  N_10 
REMARK       I    between atoms: N_15  and  C_4 
REMARK    2  A    between atoms: C_11  and  C_5 
REMARK    3  A    between atoms: C_8  and  O_17 
REMARK    4  A    between atoms: C_14  and  S_9 
REMARK    5  A    between atoms: N_10  and  C_13 
REMARK    6  A    between atoms: O_25  and  C_11 
REMARK    7  A    between atoms: C_23  and  N_15 
REMARK    8  A    between atoms: O_17  and  C_24 
ROOT
ATOM      1  C   UNL d   1       4.367   1.454  -1.444  0.00  0.00     0.053 C 
ATOM      2  C   UNL d   1       3.538   2.543  -1.116  0.00  0.00     0.035 C 
ATOM      3  C   UNL d   1       5.758   1.618  -1.376  0.00  0.00     0.031 C 
ATOM      4  C   UNL d   1       4.117   3.695  -0.559  0.00  0.00     0.021 C 
ATOM      5  C   UNL d   1       6.324   2.774  -0.843  0.00  0.00     0.002 C 
ATOM      6  C   UNL d   1       5.500   3.796  -0.394  0.00  0.00     0.002 C 
ENDROOT
BRANCH   1   7
ATOM      7  N   UNL d   1       3.790   0.193  -1.761  0.00  0.00    -0.307 N 
ATOM      8  C   UNL d   1       4.411  -1.008  -1.459  0.00  0.00     0.325 C 
ATOM      9  N   UNL d   1       3.560  -2.086  -1.604  0.00  0.00    -0.309 N 
ATOM     10  O   UNL d   1       5.572  -1.112  -1.077  0.00  0.00    -0.247 OA
ATOM     11  H   UNL d   1       2.728  -1.953  -2.174  0.00  0.00     0.170 HD
ATOM     12  H   UNL d   1       2.776   0.161  -1.776  0.00  0.00     0.170 HD
BRANCH   9  13
ATOM     13  C   UNL d   1       3.910  -3.414  -1.292  0.00  0.00     0.036 A 
ATOM     14  C   UNL d   1       4.925  -3.734  -0.380  0.00  0.00     0.032 A 
ATOM     15  C   UNL d   1       5.362  -5.047  -0.235  0.00  0.00     0.039 A 
ATOM     16  C   UNL d   1       4.774  -6.041  -1.010  0.00  0.00     0.078 A 
ATOM     17  C   UNL d   1       3.669  -5.760  -1.811  0.00  0.00     0.039 A 
ATOM     18  C   UNL d   1       3.236  -4.444  -1.951  0.00  0.00     0.032 A 
BRANCH  16  19
ATOM     19  O   UNL d   1       5.281  -7.308  -0.997  0.00  0.00    -0.255 OA
BRANCH  19  20
ATOM     20  C   UNL d   1       6.339  -7.405  -1.952  0.00  0.00     0.530 C 
ATOM     21  F   UNL d   1       5.969  -6.933  -3.164  0.00  0.00    -0.144 F 
ATOM     22  F   UNL d   1       7.436  -6.743  -1.527  0.00  0.00    -0.144 F 
ATOM     23  F   UNL d   1       6.666  -8.709  -2.100  0.00  0.00    -0.144 F 
ENDBRANCH  19  20
ENDBRANCH  16  19
ENDBRANCH   9  13
ENDBRANCH   1   7
BRANCH   2  24
ATOM     24  S   UNL d   1       1.784   2.593  -1.463  0.00  0.00    -0.052 SA
BRANCH  24  25
ATOM     25  C   UNL d   1       1.127   1.490  -0.247  0.00  0.00     0.150 A 
ATOM     26  N   UNL d   1       1.114   0.187  -0.555  0.00  0.00    -0.332 N 
ATOM     27  C   UNL d   1       0.512  -0.621   0.347  0.00  0.00     0.112 A 
ATOM     28  HN  UNL d   1       1.531  -0.173  -1.414  1.00  0.00     0.168 HD
ATOM     29  C   UNL d   1      -0.082  -0.163   1.507  0.00  0.00     0.060 A 
ATOM     30  C   UNL d   1      -0.018   1.195   1.723  0.00  0.00     0.009 A 
ATOM     31  N   UNL d   1       0.577   2.031   0.851  0.00  0.00    -0.340 N 
ATOM     32  C   UNL d   1      -0.696   1.818   2.905  0.00  0.00     0.068 C 
ATOM     33  HN  UNL d   1       0.608   3.036   1.018  1.00  0.00     0.167 HD
BRANCH  27  34
ATOM     34  C   UNL d   1       0.475  -2.069  -0.019  0.00  0.00     0.309 C 
ATOM     35  O   UNL d   1       0.614  -2.488  -1.159  0.00  0.00    -0.258 OA
BRANCH  34  36
ATOM     36  O   UNL d   1       0.291  -2.820   1.098  0.00  0.00    -0.321 OA
ATOM     37  C   UNL d   1       0.315  -4.234   0.890  0.00  0.00     0.213 C 
ENDBRANCH  34  36
ENDBRANCH  27  34
ENDBRANCH  24  25
ENDBRANCH   2  24
TORSDOF 8
