REMARK  3 active torsions:
REMARK  status: ('A' for Active; 'I' for Inactive)
REMARK    1  A    between atoms: C_4  and  C_1 
REMARK    2  A    between atoms: N_6  and  C_5 
REMARK    3  A    between atoms: N_8  and  C_12 
ROOT
ATOM      1  C   UNL d   1       0.027   1.146  -0.166  0.00  0.00     0.112 C 
ATOM      2  C   UNL d   1       1.308   0.328   0.086  0.00  0.00     0.058 C 
ATOM      3  C   UNL d   1      -1.261   0.327  -0.013  0.00  0.00     0.058 C 
ATOM      4  N   UNL d   1       0.018  -1.657   0.229  0.00  0.00    -0.361 N 
ATOM      5  C   UNL d   1      -1.206  -1.017   0.144  0.00  0.00     0.023 C 
ATOM      6  C   UNL d   1       1.246  -1.017   0.232  0.00  0.00     0.023 C 
ATOM      7  C   UNL d   1      -2.505   1.018  -0.086  0.00  0.00     0.098 C 
ATOM      8  C   UNL d   1       2.544   1.039   0.085  0.00  0.00     0.098 C 
ATOM      9  N   UNL d   1       3.537   1.638   0.046  0.00  0.00    -0.192 NA
ATOM     10  N   UNL d   1      -3.515   1.583  -0.184  0.00  0.00    -0.192 NA
ATOM     11  C   UNL d   1      -2.438  -1.888   0.183  0.00  0.00     0.069 C 
ATOM     12  C   UNL d   1       2.451  -1.917   0.348  0.00  0.00     0.069 C 
ATOM     13  H   UNL d   1       0.015  -2.667   0.364  0.00  0.00     0.165 HD
ENDROOT
BRANCH   1  14
ATOM     14  C   UNL d   1       0.080   1.781  -1.578  0.00  0.00    -0.011 A 
ATOM     15  C   UNL d   1      -0.050   3.156  -1.900  0.00  0.00     0.112 A 
ATOM     16  C   UNL d   1       0.061   3.585  -3.245  0.00  0.00     0.072 A 
ATOM     17  C   UNL d   1       0.293   2.658  -4.269  0.00  0.00     0.105 A 
ATOM     18  C   UNL d   1       0.395   1.300  -3.980  0.00  0.00     0.037 A 
ATOM     19  C   UNL d   1       0.280   0.875  -2.657  0.00  0.00     0.013 A 
BRANCH  15  20
ATOM     20  N   UNL d   1      -0.312   4.220  -0.903  0.00  0.00    -0.115 N 
ATOM     21  O   UNL d   1      -0.560   3.892   0.261  0.00  0.00    -0.532 OA
ATOM     22  O   UNL d   1      -0.278   5.394  -1.296  0.00  0.00    -0.532 OA
ENDBRANCH  15  20
BRANCH  17  23
ATOM     23  N   UNL d   1       0.428   3.115  -5.659  0.00  0.00    -0.116 N 
ATOM     24  O   UNL d   1       0.322   4.328  -5.878  0.00  0.00    -0.532 OA
ATOM     25  O   UNL d   1       0.644   2.256  -6.526  0.00  0.00    -0.532 OA
ENDBRANCH  17  23
ENDBRANCH   1  14
TORSDOF 3
