REMARK  5 active torsions:
REMARK  status: ('A' for Active; 'I' for Inactive)
REMARK    1  A    between atoms: C_2  and  C_1 
REMARK    2  A    between atoms: N_3  and  N_11 
REMARK    3  A    between atoms: N_6  and  C_5 
REMARK    4  A    between atoms: N_11  and  C_15 
REMARK    5  A    between atoms: C_16  and  C_14 
ROOT
ATOM      1  N   UNL d   1      -2.214   2.295   5.751  0.00  0.00    -0.311 N 
ATOM      2  HN  UNL d   1      -3.110   2.272   6.239  1.00  0.00     0.186 HD
ATOM      3  C   UNL d   1      -1.427   1.267   5.712  0.00  0.00     0.118 C 
ENDROOT
BRANCH   1   4
ATOM      4  N   UNL d   1      -1.776   3.401   5.106  0.00  0.00    -0.301 N 
ATOM      5  H   UNL d   1      -1.092   3.330   4.355  0.00  0.00     0.187 HD
BRANCH   4   6
ATOM      6  C   UNL d   1      -2.655   4.500   5.000  0.00  0.00     0.048 A 
ATOM      7  C   UNL d   1      -3.912   4.509   5.625  0.00  0.00     0.047 A 
ATOM      8  C   UNL d   1      -4.748   5.635   5.581  0.00  0.00     0.050 A 
ATOM      9  C   UNL d   1      -4.297   6.788   4.926  0.00  0.00     0.016 A 
ATOM     10  C   UNL d   1      -3.036   6.809   4.327  0.00  0.00     0.003 A 
ATOM     11  C   UNL d   1      -2.224   5.673   4.369  0.00  0.00     0.031 A 
BRANCH   8  12
ATOM     12  C   UNL d   1      -6.104   5.615   6.237  0.00  0.00     0.417 C 
ATOM     13  F   UNL d   1      -6.445   4.411   6.774  0.00  0.00    -0.166 F 
ATOM     14  F   UNL d   1      -7.107   5.930   5.369  0.00  0.00    -0.166 F 
ATOM     15  F   UNL d   1      -6.203   6.516   7.255  0.00  0.00    -0.166 F 
ENDBRANCH   8  12
ENDBRANCH   4   6
ENDBRANCH   1   4
BRANCH   3  16
ATOM     16  C   UNL d   1      -1.778   0.013   6.407  0.00  0.00    -0.019 A 
ATOM     17  C   UNL d   1      -2.948  -0.083   7.156  0.00  0.00     0.015 A 
ATOM     18  C   UNL d   1      -3.270  -1.283   7.806  0.00  0.00     0.030 A 
ATOM     19  C   UNL d   1      -2.445  -2.418   7.728  0.00  0.00     0.029 A 
ATOM     20  C   UNL d   1      -1.273  -2.283   6.958  0.00  0.00     0.030 A 
ATOM     21  C   UNL d   1      -0.932  -1.087   6.310  0.00  0.00     0.015 A 
BRANCH  19  22
ATOM     22  N   UNL d   1      -2.788  -3.644   8.302  0.00  0.00    -0.390 N 
ATOM     23  C   UNL d   1      -1.742  -4.424   8.968  0.00  0.00     0.149 C 
ATOM     24  C   UNL d   1      -4.120  -3.828   8.876  0.00  0.00     0.149 C 
ENDBRANCH  19  22
ENDBRANCH   3  16
TORSDOF 5
