REMARK  2 active torsions:
REMARK  status: ('A' for Active; 'I' for Inactive)
REMARK    1  A    between atoms: C_8  and  C_2 
REMARK    2  A    between atoms: S_15  and  C_3 
ROOT
ATOM      1  C   UNL d   1       2.500   0.740   0.213  0.00  0.00     0.090 A 
ATOM      2  C   UNL d   1       1.291   1.475   0.155  0.00  0.00     0.013 A 
ATOM      3  C   UNL d   1       2.475  -0.651   0.115  0.00  0.00     0.091 A 
ATOM      4  N   UNL d   1       1.321  -1.340   0.022  0.00  0.00    -0.352 N 
ATOM      5  HN  UNL d   1       1.328  -2.358  -0.043  1.00  0.00     0.166 HD
ATOM      6  C   UNL d   1       0.078   0.745   0.033  0.00  0.00    -0.022 A 
ATOM      7  C   UNL d   1       0.151  -0.659   0.015  0.00  0.00     0.017 A 
ATOM      8  C   UNL d   1       3.770   1.406   0.402  0.00  0.00     0.103 C 
ATOM      9  N   UNL d   1       4.785   1.949   0.541  0.00  0.00    -0.191 NA
ATOM     10  C   UNL d   1      -1.281   1.414  -0.021  0.00  0.00     0.041 C 
ATOM     11  C   UNL d   1      -1.078  -1.530  -0.077  0.00  0.00     0.057 C 
ATOM     12  C   UNL d   1      -2.440   0.508  -0.435  0.00  0.00     0.005 C 
ATOM     13  C   UNL d   1      -2.361  -0.812   0.314  0.00  0.00     0.006 C 
ENDROOT
BRANCH   2  14
ATOM     14  C   UNL d   1       1.331   2.966   0.171  0.00  0.00     0.017 A 
ATOM     15  S   UNL d   1       0.358   3.880   1.260  0.00  0.00    -0.101 SA
ATOM     16  C   UNL d   1       0.889   5.372   0.624  0.00  0.00     0.050 A 
ATOM     17  C   UNL d   1       1.902   5.202  -0.289  0.00  0.00     0.008 A 
ATOM     18  C   UNL d   1       2.142   3.823  -0.562  0.00  0.00     0.020 A 
ENDBRANCH   2  14
BRANCH   3  19
ATOM     19  S   UNL d   1       3.986  -1.627   0.069  0.00  0.00    -0.115 SA
ATOM     20  C   UNL d   1       3.333  -3.308  -0.106  0.00  0.00     0.097 C 
ENDBRANCH   3  19
TORSDOF 2
