REMARK  4 active torsions:
REMARK  status: ('A' for Active; 'I' for Inactive)
REMARK    1  A    between atoms: C_6  and  C_1 
REMARK    2  A    between atoms: C_8  and  C_3 
REMARK       I    between atoms: N_9  and  C_6 
REMARK    3  A    between atoms: C_18  and  N_9 
REMARK    4  A    between atoms: C_17  and  C_18 
ROOT
ATOM      1  C   UNL d   1      -2.750  -1.330  -0.035  0.00  0.00     0.254 C 
ATOM      2  N   UNL d   1      -3.988  -0.717   0.043  0.00  0.00    -0.353 N 
ATOM      3  O   UNL d   1      -2.672  -2.556  -0.131  0.00  0.00    -0.268 OA
ATOM      4  H   UNL d   1      -4.070   0.238   0.347  0.00  0.00     0.163 HD
ENDROOT
BRANCH   1   5
ATOM      5  C   UNL d   1      -1.528  -0.531   0.013  0.00  0.00     0.063 A 
ATOM      6  C   UNL d   1      -0.225  -1.141   0.023  0.00  0.00     0.053 A 
ATOM      7  C   UNL d   1       0.718  -0.141   0.022  0.00  0.00     0.062 A 
ATOM      8  O   UNL d   1       0.076   1.059   0.036  0.00  0.00    -0.318 OA
ATOM      9  C   UNL d   1      -1.275   0.834   0.024  0.00  0.00     0.065 A 
ATOM     10  C   UNL d   1      -2.053   2.089   0.008  0.00  0.00     0.077 C 
BRANCH   7  11
ATOM     11  C   UNL d   1       2.224  -0.109  -0.006  0.00  0.00    -0.002 C 
ATOM     12  C   UNL d   1       2.810  -1.534  -0.003  0.00  0.00     0.021 C 
ATOM     13  C   UNL d   1       2.700   0.609  -1.282  0.00  0.00     0.021 C 
ATOM     14  C   UNL d   1       2.754   0.637   1.230  0.00  0.00     0.021 C 
ENDBRANCH   7  11
ENDBRANCH   1   5
BRANCH   2  15
ATOM     15  C   UNL d   1      -5.143  -1.591   0.088  0.00  0.00     0.161 C 
BRANCH  15  16
ATOM     16  C   UNL d   1      -6.501  -0.943   0.185  0.00  0.00    -0.038 A 
ATOM     17  C   UNL d   1      -6.813   0.279  -0.433  0.00  0.00     0.048 A 
ATOM     18  C   UNL d   1      -8.123   0.725  -0.365  0.00  0.00     0.105 A 
ATOM     19  O   UNL d   1      -8.597   1.876  -0.914  0.00  0.00    -0.323 OA
ATOM     20  C   UNL d   1      -9.109   0.005   0.266  0.00  0.00     0.105 A 
ATOM     21  C   UNL d   1      -9.996   1.785  -0.574  0.00  0.00     0.352 A 
ATOM     22  O   UNL d   1     -10.323   0.610   0.196  0.00  0.00    -0.323 OA
ATOM     23  C   UNL d   1      -8.852  -1.204   0.868  0.00  0.00     0.040 A 
ATOM     24  C   UNL d   1      -7.539  -1.677   0.820  0.00  0.00     0.012 A 
ENDBRANCH  15  16
ENDBRANCH   2  15
TORSDOF 4
