REMARK  6 active torsions:
REMARK  status: ('A' for Active; 'I' for Inactive)
REMARK    1  A    between atoms: C_7  and  C_1 
REMARK    2  A    between atoms: C_10  and  C_2 
REMARK    3  A    between atoms: C_13  and  N_3 
REMARK    4  A    between atoms: S_4  and  N_9 
REMARK    5  A    between atoms: C_12  and  S_4 
REMARK    6  A    between atoms: N_9  and  N_11 
REMARK       I    between atoms: N_11  and  C_10 
ROOT
ATOM      1  C   UNL d   1       1.137  -0.809   0.020  0.00  0.00     0.157 A 
ATOM      2  C   UNL d   1      -0.161  -1.328   0.100  0.00  0.00     0.084 A 
ATOM      3  N   UNL d   1       1.018   0.579  -0.050  0.00  0.00    -0.251 N 
ATOM      4  N   UNL d   1      -0.288   0.946  -0.083  0.00  0.00    -0.303 N 
ATOM      5  HN  UNL d   1      -0.662   1.888  -0.201  1.00  0.00     0.186 HD
ATOM      6  C   UNL d   1      -0.974  -0.177   0.072  0.00  0.00     0.127 A 
ENDROOT
BRANCH   2   7
ATOM      7  C   UNL d   1      -0.722  -2.682   0.155  0.00  0.00     0.274 C 
ATOM      8  N   UNL d   1       0.139  -3.758   0.147  0.00  0.00    -0.256 N 
ATOM      9  H   UNL d   1       1.154  -3.682   0.103  0.00  0.00     0.191 HD
ATOM     10  O   UNL d   1      -1.941  -2.856   0.197  0.00  0.00    -0.266 OA
BRANCH   8  11
ATOM     11  N   UNL d   1      -0.406  -5.110   0.128  0.00  0.00    -0.220 N 
ATOM     12  H   UNL d   1      -1.422  -5.247   0.116  0.00  0.00     0.200 HD
BRANCH  11  13
ATOM     13  S   UNL d   1       0.658  -6.420   0.125  0.00  0.00     0.276 S 
ATOM     14  O   UNL d   1       1.248  -6.479  -1.196  0.00  0.00    -0.199 OA
ATOM     15  O   UNL d   1       1.487  -6.305   1.308  0.00  0.00    -0.199 OA
BRANCH  13  16
ATOM     16  C   UNL d   1      -0.404  -7.824   0.337  0.00  0.00     0.081 A 
ATOM     17  C   UNL d   1      -0.413  -8.848  -0.614  0.00  0.00     0.026 A 
ATOM     18  C   UNL d   1      -1.216  -9.974  -0.407  0.00  0.00     0.008 A 
ATOM     19  C   UNL d   1      -2.013 -10.080   0.742  0.00  0.00    -0.062 A 
ATOM     20  C   UNL d   1      -1.987  -9.048   1.690  0.00  0.00     0.008 A 
ATOM     21  C   UNL d   1      -2.864 -11.299   0.953  0.00  0.00     0.048 C 
ATOM     22  C   UNL d   1      -1.182  -7.923   1.494  0.00  0.00     0.026 A 
ENDBRANCH  13  16
ENDBRANCH  11  13
ENDBRANCH   8  11
ENDBRANCH   2   7
BRANCH   1  23
ATOM     23  C   UNL d   1       2.446  -1.467  -0.078  0.00  0.00     0.435 C 
ATOM     24  F   UNL d   1       2.329  -2.784  -0.385  0.00  0.00    -0.165 F 
ATOM     25  F   UNL d   1       3.240  -0.933  -1.034  0.00  0.00    -0.165 F 
ATOM     26  F   UNL d   1       3.118  -1.427   1.097  0.00  0.00    -0.165 F 
ENDBRANCH   1  23
BRANCH   3  27
ATOM     27  C   UNL d   1       1.992   1.633  -0.095  0.00  0.00     0.057 A 
ATOM     28  C   UNL d   1       1.623   2.861  -0.681  0.00  0.00     0.033 A 
ATOM     29  C   UNL d   1       2.522   3.933  -0.738  0.00  0.00     0.026 A 
ATOM     30  C   UNL d   1       3.792   3.797  -0.191  0.00  0.00     0.034 A 
ATOM     31  C   UNL d   1       4.169   2.597   0.405  0.00  0.00     0.026 A 
ATOM     32 CL   UNL d   1       4.892   5.118  -0.228  0.00  0.00    -0.084 Cl
ATOM     33  C   UNL d   1       3.273   1.518   0.456  0.00  0.00     0.033 A 
ENDBRANCH   3  27
TORSDOF 6
