REMARK  4 active torsions:
REMARK  status: ('A' for Active; 'I' for Inactive)
REMARK    1  A    between atoms: C_10  and  C_7 
REMARK    2  A    between atoms: C_9  and  C_8 
REMARK    3  A    between atoms: O_15  and  C_9 
REMARK    4  A    between atoms: O_16  and  C_10 
ROOT
ATOM      1  C   UNL d   1      -0.003   0.787  -1.266  0.00  0.00     0.059 C 
ATOM      2  C   UNL d   1       0.021  -1.487   0.080  0.00  0.00     0.059 C 
ATOM      3  C   UNL d   1       1.228   0.615  -0.376  0.00  0.00    -0.042 A 
ATOM      4  C   UNL d   1      -1.230  -0.635   0.325  0.00  0.00    -0.042 A 
ATOM      5  C   UNL d   1       1.242  -0.607   0.346  0.00  0.00    -0.042 A 
ATOM      6  C   UNL d   1      -1.232   0.592  -0.386  0.00  0.00    -0.042 A 
ATOM      7  C   UNL d   1       0.026  -1.788  -1.453  0.00  0.00     0.029 C 
ATOM      8  C   UNL d   1       0.036  -0.419  -2.262  0.00  0.00     0.029 C 
ATOM      9  C   UNL d   1      -2.292   1.483  -0.276  0.00  0.00     0.008 A 
ATOM     10  C   UNL d   1      -2.305  -0.974   1.136  0.00  0.00     0.008 A 
ATOM     11  C   UNL d   1       2.321  -0.943   1.153  0.00  0.00     0.008 A 
ATOM     12  C   UNL d   1       2.282   1.511  -0.265  0.00  0.00     0.008 A 
ATOM     13  C   UNL d   1       3.364   1.172   0.551  0.00  0.00     0.001 A 
ATOM     14  C   UNL d   1      -3.376  -0.079   1.238  0.00  0.00     0.001 A 
ATOM     15  C   UNL d   1       3.387  -0.047   1.247  0.00  0.00     0.001 A 
ATOM     16  C   UNL d   1      -3.367   1.139   0.543  0.00  0.00     0.001 A 
ENDROOT
BRANCH   7  17
ATOM     17  C   UNL d   1       1.205  -2.686  -1.861  0.00  0.00     0.170 C 
BRANCH  17  18
ATOM     18  O   UNL d   1       1.174  -2.957  -3.260  0.00  0.00    -0.400 OA
ATOM     19  H   UNL d   1       0.275  -3.272  -3.471  0.00  0.00     0.209 HD
ENDBRANCH  17  18
ENDBRANCH   7  17
BRANCH   8  20
ATOM     20  C   UNL d   1      -1.116  -0.370  -3.275  0.00  0.00     0.170 C 
BRANCH  20  21
ATOM     21  O   UNL d   1      -1.006  -1.443  -4.208  0.00  0.00    -0.400 OA
ATOM     22  H   UNL d   1      -0.101  -1.411  -4.572  0.00  0.00     0.209 HD
ENDBRANCH  20  21
ENDBRANCH   8  20
TORSDOF 4
