REMARK  1 active torsions:
REMARK  status: ('A' for Active; 'I' for Inactive)
REMARK    1  A    between atoms: C_6  and  C_3 
REMARK       I    between atoms: N_8  and  C_6 
ROOT
ATOM      1  C   UNL d   1      -0.645   0.662   0.193  0.00  0.00     0.005 A 
ATOM      2  C   UNL d   1      -1.164  -0.639  -0.012  0.00  0.00     0.027 A 
ATOM      3  C   UNL d   1      -1.546   1.730   0.151  0.00  0.00     0.044 A 
ATOM      4  C   UNL d   1      -0.042  -1.582  -0.131  0.00  0.00     0.194 A 
ATOM      5  C   UNL d   1       0.810   0.538   0.301  0.00  0.00    -0.010 A 
ATOM      6  C   UNL d   1       1.186  -0.791   0.023  0.00  0.00     0.026 A 
ATOM      7  O   UNL d   1      -0.121  -2.778  -0.333  0.00  0.00    -0.287 OA
ATOM      8  C   UNL d   1      -2.502  -0.946  -0.178  0.00  0.00     0.016 A 
ATOM      9  C   UNL d   1      -2.902   1.434  -0.134  0.00  0.00     0.018 A 
ATOM     10  C   UNL d   1       1.819   1.439   0.603  0.00  0.00     0.013 A 
ATOM     11  C   UNL d   1       2.492  -1.234  -0.083  0.00  0.00     0.016 A 
ATOM     12  C   UNL d   1      -3.384   0.118  -0.243  0.00  0.00     0.002 A 
ATOM     13  C   UNL d   1       3.159   1.015   0.525  0.00  0.00     0.001 A 
ATOM     14  C   UNL d   1       3.493  -0.300   0.157  0.00  0.00     0.001 A 
ENDROOT
BRANCH   3  15
ATOM     15  C   UNL d   1      -1.127   3.162   0.194  0.00  0.00     0.254 C 
ATOM     16  N   UNL d   1      -1.861   4.120   0.926  0.00  0.00    -0.348 N 
ATOM     17  C   UNL d   1      -1.568   5.529   0.644  0.00  0.00     0.126 C 
ATOM     18  C   UNL d   1      -3.122   3.866   1.630  0.00  0.00     0.126 C 
ATOM     19  C   UNL d   1      -1.756   6.425   1.865  0.00  0.00     0.020 C 
ATOM     20  C   UNL d   1      -3.135   6.233   2.484  0.00  0.00     0.003 C 
ATOM     21  C   UNL d   1      -3.335   4.768   2.840  0.00  0.00     0.020 C 
ATOM     22  O   UNL d   1      -0.140   3.471  -0.471  0.00  0.00    -0.267 OA
ENDBRANCH   3  15
TORSDOF 1
