REMARK  6 active torsions:
REMARK  status: ('A' for Active; 'I' for Inactive)
REMARK    1  A    between atoms: C_8  and  C_2 
REMARK    2  A    between atoms: S_9  and  C_5 
REMARK    3  A    between atoms: C_23  and  S_9 
REMARK    4  A    between atoms: C_10  and  C_12 
REMARK    5  A    between atoms: O_24  and  C_10 
REMARK    6  A    between atoms: C_25  and  C_23 
ROOT
ATOM      1  N   UNL d   1       0.829  -0.014  -0.036  0.00  0.00    -0.315 N 
ATOM      2  C   UNL d   1      -0.004   1.091  -0.100  0.00  0.00     0.134 A 
ATOM      3  N   UNL d   1      -1.252   0.648  -0.109  0.00  0.00    -0.283 N 
ATOM      4  HN  UNL d   1      -2.088   1.232  -0.089  1.00  0.00     0.188 HD
ATOM      5  C   UNL d   1       0.011  -1.112  -0.126  0.00  0.00     0.162 A 
ATOM      6  N   UNL d   1      -1.241  -0.729  -0.147  0.00  0.00    -0.278 N 
ATOM      7  HN  UNL d   1      -2.058  -1.338  -0.186  1.00  0.00     0.189 HD
ATOM      8  C   UNL d   1       2.259  -0.047   0.142  0.00  0.00     0.160 C 
ENDROOT
BRANCH   5   9
ATOM      9  S   UNL d   1       0.601  -2.741  -0.181  0.00  0.00    -0.088 SA
BRANCH   9  10
ATOM     10  C   UNL d   1      -0.808  -3.617  -0.929  0.00  0.00     0.121 C 
BRANCH  10  11
ATOM     11  C   UNL d   1      -0.545  -5.106  -1.045  0.00  0.00    -0.048 A 
ATOM     12  C   UNL d   1      -0.924  -5.976  -0.011  0.00  0.00     0.009 A 
ATOM     13  C   UNL d   1      -0.668  -7.349  -0.100  0.00  0.00     0.018 A 
ATOM     14  C   UNL d   1      -0.033  -7.879  -1.229  0.00  0.00     0.039 A 
ATOM     15  C   UNL d   1       0.349  -7.021  -2.267  0.00  0.00     0.018 A 
ATOM     16  C   UNL d   1       0.099  -5.645  -2.172  0.00  0.00     0.009 A 
BRANCH  14  17
ATOM     17  C   UNL d   1       0.231  -9.344  -1.262  0.00  0.00     0.292 C 
ATOM     18  O   UNL d   1       0.299 -10.037  -0.259  0.00  0.00    -0.259 OA
BRANCH  17  19
ATOM     19  O   UNL d   1       0.315  -9.776  -2.546  0.00  0.00    -0.323 OA
ATOM     20  C   UNL d   1       0.500 -11.188  -2.670  0.00  0.00     0.213 C 
ENDBRANCH  17  19
ENDBRANCH  14  17
ENDBRANCH  10  11
ENDBRANCH   9  10
ENDBRANCH   5   9
BRANCH   2  21
ATOM     21  C   UNL d   1       0.385   2.510  -0.126  0.00  0.00     0.010 A 
ATOM     22  C   UNL d   1      -0.407   3.474   0.511  0.00  0.00     0.029 A 
ATOM     23  C   UNL d   1      -0.040   4.838   0.521  0.00  0.00    -0.009 A 
ATOM     24  C   UNL d   1      -0.818   5.826   1.146  0.00  0.00     0.015 A 
ATOM     25  C   UNL d   1       1.149   5.255  -0.111  0.00  0.00     0.042 A 
ATOM     26  C   UNL d   1      -0.397   7.154   1.138  0.00  0.00     0.018 A 
ATOM     27  C   UNL d   1       0.797   7.452   0.509  0.00  0.00     0.088 A 
ATOM     28  N   UNL d   1       1.569   6.534  -0.110  0.00  0.00    -0.365 N 
ATOM     29  HN  UNL d   1       2.443   6.800  -0.562  1.00  0.00     0.165 HD
ATOM     30  C   UNL d   1       1.903   4.302  -0.771  0.00  0.00     0.031 A 
ATOM     31  C   UNL d   1       1.524   2.955  -0.808  0.00  0.00     0.017 A 
ENDBRANCH   2  21
TORSDOF 6
