REMARK  3 active torsions:
REMARK  status: ('A' for Active; 'I' for Inactive)
REMARK    1  A    between atoms: C_10  and  C_2 
REMARK       I    between atoms: N_15  and  C_10 
REMARK    2  A    between atoms: N_13  and  N_15 
REMARK    3  A    between atoms: C_18  and  C_17 
ROOT
ATOM      1  C   UNL d   1      -3.487  -1.500   0.011  0.00  0.00     0.270 C 
ATOM      2  N   UNL d   1      -3.629  -2.883   0.055  0.00  0.00    -0.266 N 
ATOM      3  O   UNL d   1      -2.400  -0.928   0.080  0.00  0.00    -0.266 OA
ATOM      4  H   UNL d   1      -4.520  -3.357   0.010  0.00  0.00     0.190 HD
ENDROOT
BRANCH   1   5
ATOM      5  C   UNL d   1      -4.720  -0.658  -0.128  0.00  0.00     0.036 A 
ATOM      6  C   UNL d   1      -6.011  -1.217  -0.231  0.00  0.00     0.051 A 
ATOM      7  C   UNL d   1      -7.053  -0.274  -0.368  0.00  0.00     0.086 A 
ATOM      8  C   UNL d   1      -6.822   1.163  -0.399  0.00  0.00     0.085 A 
ATOM      9  N   UNL d   1      -8.368  -0.489  -0.489  0.00  0.00    -0.240 N 
ATOM     10  N   UNL d   1      -8.002   1.776  -0.539  0.00  0.00    -0.240 N 
ATOM     11  C   UNL d   1      -5.539   1.718  -0.294  0.00  0.00     0.035 A 
ATOM     12  O   UNL d   1      -8.947   0.765  -0.595  0.00  0.00    -0.156 OA
ATOM     13  HN  UNL d   1      -8.171   2.780  -0.594  1.00  0.00     0.197 HD
ATOM     14  C   UNL d   1      -4.511   0.762  -0.159  0.00  0.00     0.019 A 
ATOM     15  HN  UNL d   1      -8.846  -1.390  -0.501  1.00  0.00     0.197 HD
ENDBRANCH   1   5
BRANCH   2  16
ATOM     16  N   UNL d   1      -2.493  -3.628   0.157  0.00  0.00    -0.308 N 
ATOM     17  C   UNL d   1      -2.612  -4.914   0.220  0.00  0.00     0.118 C 
ATOM     18  HN  UNL d   1      -1.575  -3.184   0.183  1.00  0.00     0.186 HD
BRANCH  17  19
ATOM     19  C   UNL d   1      -1.406  -5.764   0.327  0.00  0.00    -0.019 A 
ATOM     20  C   UNL d   1      -0.133  -5.179   0.313  0.00  0.00     0.014 A 
ATOM     21  C   UNL d   1       1.007  -5.978   0.416  0.00  0.00     0.024 A 
ATOM     22  C   UNL d   1       0.872  -7.359   0.535  0.00  0.00     0.034 A 
ATOM     23  C   UNL d   1      -0.395  -7.948   0.549  0.00  0.00     0.024 A 
ATOM     24 CL   UNL d   1       2.275  -8.345   0.666  0.00  0.00    -0.084 Cl
ATOM     25  C   UNL d   1      -1.540  -7.150   0.444  0.00  0.00     0.014 A 
ENDBRANCH  17  19
ENDBRANCH   2  16
TORSDOF 3
