REMARK  5 active torsions:
REMARK  status: ('A' for Active; 'I' for Inactive)
REMARK    1  A    between atoms: C_2  and  C_1 
REMARK    2  A    between atoms: O_11  and  C_1 
REMARK    3  A    between atoms: N_9  and  C_3 
REMARK    4  A    between atoms: N_10  and  C_5 
REMARK    5  A    between atoms: C_13  and  O_11 
ROOT
ATOM      1  C   UNL d   1       0.273   1.257  -0.254  0.00  0.00     0.041 A 
ATOM      2  C   UNL d   1      -0.044   3.314  -1.511  0.00  0.00     0.028 A 
ATOM      3  C   UNL d   1       0.663   2.127  -1.280  0.00  0.00     0.042 A 
ATOM      4  C   UNL d   1      -1.093   3.706  -0.637  0.00  0.00     0.029 A 
ATOM      5  C   UNL d   1      -0.812   1.598   0.555  0.00  0.00     0.019 A 
ATOM      6  C   UNL d   1      -1.489   2.806   0.358  0.00  0.00     0.026 A 
ENDROOT
BRANCH   1   7
ATOM      7  C   UNL d   1       1.030  -0.011  -0.076  0.00  0.00     0.293 C 
ATOM      8  O   UNL d   1       1.884  -0.399  -0.854  0.00  0.00    -0.259 OA
BRANCH   7   9
ATOM      9  O   UNL d   1       0.649  -0.634   1.070  0.00  0.00    -0.318 OA
BRANCH   9  10
ATOM     10  C   UNL d   1       1.329  -1.860   1.370  0.00  0.00     0.174 C 
ATOM     11  C   UNL d   1       2.626  -1.575   2.105  0.00  0.00     0.034 C 
ENDBRANCH   9  10
ENDBRANCH   7   9
ENDBRANCH   1   7
BRANCH   2  12
ATOM     12  N   UNL d   1       0.426   4.218  -2.497  0.00  0.00    -0.301 NA
ATOM     13  H   UNL d   1       0.965   3.757  -3.224  0.00  0.00     0.124 HD
ATOM     14  H   UNL d   1      -0.356   4.736  -2.892  0.00  0.00     0.124 HD
ENDBRANCH   2  12
BRANCH   4  15
ATOM     15  N   UNL d   1      -1.771   4.908  -0.914  0.00  0.00    -0.296 NA
ATOM     16  C   UNL d   1      -2.683   5.491   0.055  0.00  0.00     0.113 C 
ATOM     17  H   UNL d   1      -1.089   5.589  -1.251  0.00  0.00     0.127 HD
ENDBRANCH   4  15
TORSDOF 5
