REMARK  3 active torsions:
REMARK  status: ('A' for Active; 'I' for Inactive)
REMARK    1  A    between atoms: C_7  and  C_1 
REMARK    2  A    between atoms: C_8  and  C_2 
REMARK    3  A    between atoms: C_10  and  C_7 
ROOT
ATOM      1  C   UNL d   1       2.168   0.646  -0.432  0.00  0.00     0.015 C 
ATOM      2  C   UNL d   1       2.330  -0.680  -0.237  0.00  0.00     0.026 C 
ATOM      3  S   UNL d   1       1.098  -1.802   0.231  0.00  0.00    -0.088 SA
ATOM      4  C   UNL d   1       0.848   1.315  -0.194  0.00  0.00     0.191 C 
ATOM      5  C   UNL d   1      -0.396   0.525  -0.138  0.00  0.00     0.032 A 
ATOM      6  C   UNL d   1      -0.379  -0.858   0.002  0.00  0.00     0.019 A 
ATOM      7  O   UNL d   1       0.777   2.536  -0.069  0.00  0.00    -0.287 OA
ATOM      8  C   UNL d   1      -1.620   1.211  -0.230  0.00  0.00     0.017 A 
ATOM      9  C   UNL d   1      -1.602  -1.551   0.017  0.00  0.00     0.020 A 
ATOM     10  C   UNL d   1      -2.827   0.515  -0.207  0.00  0.00     0.001 A 
ATOM     11  C   UNL d   1      -2.817  -0.871  -0.093  0.00  0.00     0.001 A 
ENDROOT
BRANCH   1  12
ATOM     12  C   UNL d   1       3.277   1.613  -0.822  0.00  0.00     0.082 C 
BRANCH  12  13
ATOM     13  C   UNL d   1       3.890   1.466  -2.206  0.00  0.00    -0.054 A 
ATOM     14  C   UNL d   1       3.312   0.716  -3.241  0.00  0.00     0.009 A 
ATOM     15  C   UNL d   1       3.993   0.524  -4.447  0.00  0.00     0.024 A 
ATOM     16  C   UNL d   1       5.225   1.137  -4.655  0.00  0.00     0.034 A 
ATOM     17  C   UNL d   1       5.771   1.962  -3.677  0.00  0.00     0.024 A 
ATOM     18 CL   UNL d   1       6.080   0.867  -6.123  0.00  0.00    -0.084 Cl
ATOM     19  C   UNL d   1       5.107   2.123  -2.460  0.00  0.00     0.009 A 
ENDBRANCH  12  13
ENDBRANCH   1  12
BRANCH   2  20
ATOM     20  C   UNL d   1       3.649  -1.338  -0.383  0.00  0.00    -0.018 A 
ATOM     21  C   UNL d   1       4.587  -1.290   0.659  0.00  0.00     0.013 A 
ATOM     22  C   UNL d   1       5.845  -1.875   0.502  0.00  0.00     0.001 A 
ATOM     23  C   UNL d   1       6.181  -2.506  -0.693  0.00  0.00     0.000 A 
ATOM     24  C   UNL d   1       5.251  -2.576  -1.729  0.00  0.00     0.001 A 
ATOM     25  C   UNL d   1       3.986  -2.012  -1.566  0.00  0.00     0.013 A 
ENDBRANCH   2  20
TORSDOF 3
