REMARK  3 active torsions:
REMARK  status: ('A' for Active; 'I' for Inactive)
REMARK    1  A    between atoms: C_8  and  N_4 
REMARK    2  A    between atoms: C_7  and  C_8 
REMARK       I    between atoms: N_13  and  C_7 
REMARK    3  A    between atoms: N_14  and  N_13 
ROOT
ATOM      1  C   UNL d   1      -0.635   1.340  -0.014  0.00  0.00     0.101 A 
ATOM      2  C   UNL d   1      -0.850  -1.186  -0.038  0.00  0.00     0.101 A 
ATOM      3  C   UNL d   1      -1.536   0.145  -0.034  0.00  0.00     0.217 A 
ATOM      4  N   UNL d   1       1.314  -0.099  -0.100  0.00  0.00    -0.354 N 
ATOM      5  C   UNL d   1       0.491  -1.223  -0.067  0.00  0.00     0.119 A 
ATOM      6  C   UNL d   1       0.692   1.148  -0.036  0.00  0.00     0.119 A 
ATOM      7  O   UNL d   1      -2.759   0.249  -0.041  0.00  0.00    -0.285 OA
ATOM      8 CL   UNL d   1      -1.326   2.909   0.046  0.00  0.00    -0.079 Cl
ATOM      9 CL   UNL d   1      -1.799  -2.615   0.007  0.00  0.00    -0.079 Cl
ENDROOT
BRANCH   4  10
ATOM     10  C   UNL d   1       2.792  -0.225   0.010  0.00  0.00     0.231 C 
BRANCH  10  11
ATOM     11  C   UNL d   1       3.538   0.469  -1.129  0.00  0.00     0.249 C 
ATOM     12  O   UNL d   1       4.649   0.982  -0.974  0.00  0.00    -0.270 OA
ATOM     13  N   UNL d   1       2.901   0.426  -2.362  0.00  0.00    -0.293 N 
ATOM     14  H   UNL d   1       2.018  -0.074  -2.461  0.00  0.00     0.183 HD
BRANCH  13  15
ATOM     15  N   UNL d   1       3.528   0.978  -3.498  0.00  0.00    -0.247 NA
ATOM     16  H   UNL d   1       4.519   1.127  -3.255  0.00  0.00     0.143 HD
ATOM     17  H   UNL d   1       3.167   1.927  -3.633  0.00  0.00     0.143 HD
ENDBRANCH  13  15
ENDBRANCH  10  11
ENDBRANCH   4  10
TORSDOF 3
