REMARK  2 active torsions:
REMARK  status: ('A' for Active; 'I' for Inactive)
REMARK    1  A    between atoms: N_2  and  C_1 
REMARK       I    between atoms: C_5  and  N_2 
REMARK    2  A    between atoms: C_9  and  C_5 
ROOT
ATOM      1  C   UNL d   1      -1.020   2.950  -1.014  0.00  0.00     0.082 C 
ATOM      2  C   UNL d   1      -1.335   2.999  -2.389  0.00  0.00     0.084 C 
ATOM      3  C   UNL d   1      -2.021   3.269  -0.069  0.00  0.00     0.084 C 
ATOM      4  C   UNL d   1      -2.574   3.504  -2.809  0.00  0.00     0.059 C 
ATOM      5  C   UNL d   1      -3.241   3.808  -0.506  0.00  0.00     0.059 C 
ATOM      6  C   UNL d   1      -3.505   3.946  -1.870  0.00  0.00     0.051 C 
ATOM      7 CL   UNL d   1      -1.843   2.805   1.601  0.00  0.00    -0.080 Cl
ATOM      8 CL   UNL d   1      -0.154   2.464  -3.549  0.00  0.00    -0.080 Cl
ATOM      9 CL   UNL d   1      -3.010   3.628  -4.477  0.00  0.00    -0.082 Cl
ATOM     10 CL   UNL d   1      -4.482   4.317   0.588  0.00  0.00    -0.082 Cl
ENDROOT
BRANCH   1  11
ATOM     11  N   UNL d   1       0.319   2.605  -0.653  0.00  0.00    -0.324 N 
ATOM     12  C   UNL d   1       1.041   3.353   0.275  0.00  0.00     0.230 C 
ATOM     13  O   UNL d   1       0.590   4.349   0.829  0.00  0.00    -0.272 OA
ATOM     14  H   UNL d   1       0.875   2.191  -1.396  0.00  0.00     0.169 HD
BRANCH  12  15
ATOM     15  C   UNL d   1       2.525   2.959   0.418  0.00  0.00     0.030 C 
ATOM     16  C   UNL d   1       3.308   3.580  -0.748  0.00  0.00     0.025 C 
ATOM     17  C   UNL d   1       3.064   3.530   1.743  0.00  0.00     0.025 C 
ATOM     18  C   UNL d   1       2.717   1.435   0.432  0.00  0.00     0.025 C 
ENDBRANCH  12  15
ENDBRANCH   1  11
TORSDOF 2
