REMARK  6 active torsions:
REMARK  status: ('A' for Active; 'I' for Inactive)
REMARK    1  A    between atoms: C_10  and  N_1 
REMARK    2  A    between atoms: C_5  and  C_3 
REMARK    3  A    between atoms: C_7  and  C_5 
REMARK    4  A    between atoms: O_14  and  C_7 
REMARK    5  A    between atoms: N_13  and  C_8 
REMARK    6  A    between atoms: C_18  and  O_14 
ROOT
ATOM      1  N   UNL d   1       0.822  -4.747  -1.819  0.00  0.00    -0.252 N 
ATOM      2  C   UNL d   1      -0.440  -4.233  -2.039  0.00  0.00     0.240 C 
ATOM      3  C   UNL d   1      -0.354  -2.723  -2.102  0.00  0.00     0.128 C 
ATOM      4  C   UNL d   1       1.769  -3.749  -1.726  0.00  0.00     0.232 C 
ATOM      5  C   UNL d   1       1.137  -2.434  -2.084  0.00  0.00     0.123 C 
ATOM      6  O   UNL d   1      -1.498  -4.834  -2.172  0.00  0.00    -0.272 OA
ATOM      7  O   UNL d   1       2.972  -3.838  -1.511  0.00  0.00    -0.273 OA
ENDROOT
BRANCH   3   8
ATOM      8  C   UNL d   1      -1.314  -2.094  -1.094  0.00  0.00     0.047 C 
ATOM      9  C   UNL d   1      -2.586  -1.728  -1.425  0.00  0.00    -0.008 C 
ATOM     10  C   UNL d   1      -3.213  -1.970  -2.791  0.00  0.00     0.062 C 
BRANCH   8  11
ATOM     11  C   UNL d   1      -0.890  -1.879   0.337  0.00  0.00     0.291 C 
ATOM     12  O   UNL d   1      -1.622  -1.465   1.230  0.00  0.00    -0.260 OA
BRANCH  11  13
ATOM     13  O   UNL d   1       0.426  -2.149   0.513  0.00  0.00    -0.318 OA
BRANCH  13  14
ATOM     14  C   UNL d   1       1.054  -1.522   1.648  0.00  0.00     0.174 C 
ATOM     15  C   UNL d   1       1.376  -2.537   2.723  0.00  0.00     0.034 C 
ENDBRANCH  13  14
ENDBRANCH  11  13
ENDBRANCH   8  11
BRANCH   9  16
ATOM     16  N   UNL d   1      -3.477  -1.095  -0.566  0.00  0.00    -0.306 NA
ATOM     17  H   UNL d   1      -3.190  -1.125   0.420  0.00  0.00     0.124 HD
ATOM     18  H   UNL d   1      -4.445  -1.385  -0.682  0.00  0.00     0.124 HD
ENDBRANCH   9  16
ENDBRANCH   3   8
BRANCH   1  19
ATOM     19  C   UNL d   1       1.122  -6.145  -1.765  0.00  0.00     0.045 A 
ATOM     20  C   UNL d   1       0.296  -7.095  -2.391  0.00  0.00     0.030 A 
ATOM     21  C   UNL d   1       0.623  -8.457  -2.396  0.00  0.00     0.002 A 
ATOM     22  C   UNL d   1       1.774  -8.902  -1.755  0.00  0.00     0.000 A 
ATOM     23  C   UNL d   1       2.594  -7.984  -1.109  0.00  0.00     0.002 A 
ATOM     24  C   UNL d   1       2.273  -6.621  -1.120  0.00  0.00     0.030 A 
ENDBRANCH   1  19
TORSDOF 6
