REMARK  5 active torsions:
REMARK  status: ('A' for Active; 'I' for Inactive)
REMARK    1  A    between atoms: C_17  and  C_3 
REMARK    2  A    between atoms: S_13  and  C_6 
REMARK    3  A    between atoms: C_7  and  S_13 
REMARK    4  A    between atoms: C_12  and  C_8 
REMARK    5  A    between atoms: O_24  and  C_17 
ROOT
ATOM      1  C   UNL d   1      -0.287  -0.707  -0.032  0.00  0.00     0.068 A 
ATOM      2  C   UNL d   1      -0.236   0.741  -0.058  0.00  0.00     0.016 A 
ATOM      3  C   UNL d   1      -1.573  -1.209  -0.009  0.00  0.00     0.107 A 
ATOM      4  N   UNL d   1       0.839  -1.467  -0.020  0.00  0.00    -0.350 N 
ATOM      5  HN  UNL d   1       0.824  -2.487   0.003  1.00  0.00     0.166 HD
ATOM      6  C   UNL d   1       0.943   1.501  -0.085  0.00  0.00     0.023 A 
ATOM      7  C   UNL d   1       2.003  -0.732  -0.044  0.00  0.00     0.118 A 
ATOM      8  S   UNL d   1      -2.715   0.088  -0.009  0.00  0.00    -0.093 SA
ATOM      9  C   UNL d   1       2.083   0.688  -0.071  0.00  0.00     0.054 A 
ATOM     10  C   UNL d   1      -1.498   1.287  -0.046  0.00  0.00     0.065 A 
ENDROOT
BRANCH   6  11
ATOM     11  S   UNL d   1       1.012   3.260  -0.028  0.00  0.00    -0.053 SA
BRANCH  11  12
ATOM     12  C   UNL d   1       0.881   3.643  -1.717  0.00  0.00     0.150 A 
ATOM     13  N   UNL d   1       0.834   4.931  -2.190  0.00  0.00    -0.341 N 
ATOM     14  C   UNL d   1       0.734   4.860  -3.557  0.00  0.00     0.109 A 
ATOM     15  C   UNL d   1       0.876   6.177  -1.463  0.00  0.00     0.158 C 
ATOM     16  C   UNL d   1       0.724   3.517  -3.848  0.00  0.00     0.107 A 
ATOM     17  N   UNL d   1       0.818   2.772  -2.701  0.00  0.00    -0.345 N 
ATOM     18  HN  UNL d   1       0.835   1.755  -2.626  1.00  0.00     0.167 HD
ENDBRANCH  11  12
ENDBRANCH   6  11
BRANCH   7  19
ATOM     19  C   UNL d   1       3.332  -1.488  -0.020  0.00  0.00     0.432 C 
ATOM     20  F   UNL d   1       3.214  -2.845   0.000  0.00  0.00    -0.165 F 
ATOM     21  F   UNL d   1       4.118  -1.199  -1.098  0.00  0.00    -0.165 F 
ATOM     22  F   UNL d   1       4.087  -1.167   1.073  0.00  0.00    -0.165 F 
ENDBRANCH   7  19
BRANCH   3  23
ATOM     23  C   UNL d   1      -2.101  -2.558   0.015  0.00  0.00     0.302 C 
ATOM     24  O   UNL d   1      -3.295  -2.853   0.037  0.00  0.00    -0.259 OA
BRANCH  23  25
ATOM     25  O   UNL d   1      -1.111  -3.495   0.011  0.00  0.00    -0.322 OA
ATOM     26  C   UNL d   1      -1.588  -4.842   0.023  0.00  0.00     0.213 C 
ENDBRANCH  23  25
ENDBRANCH   3  23
TORSDOF 5
