REMARK  4 active torsions:
REMARK  status: ('A' for Active; 'I' for Inactive)
REMARK    1  A    between atoms: C_6  and  C_1 
REMARK    2  A    between atoms: C_5  and  C_4 
REMARK    3  A    between atoms: C_10  and  C_13 
REMARK    4  A    between atoms: C_21  and  C_16 
ROOT
ATOM      1  C   UNL d   1       0.256  -1.196  -0.005  0.00  0.00     0.103 A 
ATOM      2  N   UNL d   1       1.411  -0.584  -0.189  0.00  0.00    -0.346 N 
ATOM      3  HN  UNL d   1       2.289  -1.054  -0.412  1.00  0.00     0.167 HD
ATOM      4  C   UNL d   1       1.268   0.781  -0.039  0.00  0.00     0.076 A 
ATOM      5  S   UNL d   1      -1.077  -0.127   0.268  0.00  0.00    -0.080 SA
ATOM      6  C   UNL d   1      -0.015   1.218   0.203  0.00  0.00     0.084 A 
ENDROOT
BRANCH   1   7
ATOM      7  C   UNL d   1       0.066  -2.658   0.010  0.00  0.00     0.088 A 
ATOM      8  N   UNL d   1      -1.151  -3.094  -0.433  0.00  0.00    -0.361 N 
ATOM      9  C   UNL d   1      -1.381  -4.428  -0.455  0.00  0.00     0.104 A 
ATOM     10  HN  UNL d   1      -1.866  -2.434  -0.739  1.00  0.00     0.165 HD
ATOM     11  C   UNL d   1      -0.455  -5.378  -0.054  0.00  0.00     0.065 A 
ATOM     12  C   UNL d   1       0.785  -4.917   0.399  0.00  0.00     0.043 A 
ATOM     13  C   UNL d   1       1.057  -3.548   0.435  0.00  0.00     0.064 A 
ATOM     14 CL   UNL d   1       2.597  -3.072   1.055  0.00  0.00    -0.082 Cl
BRANCH  11  15
ATOM     15  C   UNL d   1      -0.803  -6.833  -0.107  0.00  0.00     0.418 C 
ATOM     16  F   UNL d   1       0.208  -7.645   0.306  0.00  0.00    -0.166 F 
ATOM     17  F   UNL d   1      -1.873  -7.139   0.675  0.00  0.00    -0.166 F 
ATOM     18  F   UNL d   1      -1.124  -7.245  -1.364  0.00  0.00    -0.166 F 
ENDBRANCH  11  15
ENDBRANCH   1   7
BRANCH   4  19
ATOM     19  C   UNL d   1       2.439   1.688  -0.131  0.00  0.00     0.128 A 
ATOM     20  C   UNL d   1       3.729   1.307  -0.410  0.00  0.00     0.074 A 
ATOM     21  C   UNL d   1       4.479   2.511  -0.423  0.00  0.00     0.068 A 
ATOM     22  N   UNL d   1       3.679   3.553  -0.136  0.00  0.00    -0.260 N 
ATOM     23  O   UNL d   1       2.413   3.035   0.045  0.00  0.00    -0.235 OA
ATOM     24  HN  UNL d   1       3.955   4.533  -0.065  1.00  0.00     0.195 HD
BRANCH  21  25
ATOM     25  C   UNL d   1       5.898   2.687  -0.730  0.00  0.00    -0.007 A 
ATOM     26  C   UNL d   1       6.366   3.917  -1.220  0.00  0.00     0.014 A 
ATOM     27  C   UNL d   1       7.711   4.086  -1.558  0.00  0.00     0.001 A 
ATOM     28  C   UNL d   1       8.606   3.030  -1.404  0.00  0.00     0.000 A 
ATOM     29  C   UNL d   1       8.160   1.808  -0.908  0.00  0.00     0.001 A 
ATOM     30  C   UNL d   1       6.812   1.636  -0.573  0.00  0.00     0.014 A 
ENDBRANCH  21  25
ENDBRANCH   4  19
TORSDOF 4
