REMARK  6 active torsions:
REMARK  status: ('A' for Active; 'I' for Inactive)
REMARK    1  A    between atoms: C_14  and  N_9 
REMARK    2  A    between atoms: C_11  and  N_12 
REMARK    3  A    between atoms: N_13  and  C_24 
REMARK    4  A    between atoms: C_21  and  C_14 
REMARK    5  A    between atoms: C_24  and  C_21 
REMARK    6  A    between atoms: O_29  and  C_21 
ROOT
ATOM      1  C   UNL d   1       3.619   2.468  -0.072  0.00  0.00     0.164 C 
ENDROOT
BRANCH   1   2
ATOM      2  C   UNL d   1       2.088   2.440   0.050  0.00  0.00     0.163 C 
BRANCH   2   3
ATOM      3  N   UNL d   1       1.561   3.018   1.274  0.00  0.00    -0.333 N 
ATOM      4  C   UNL d   1       0.850   4.177   1.415  0.00  0.00     0.149 C 
ATOM      5  C   UNL d   1       0.218   4.054   2.621  0.00  0.00     0.145 C 
ATOM      6  C   UNL d   1       0.674   5.307   0.570  0.00  0.00     0.282 C 
ATOM      7  N   UNL d   1      -0.722   4.960   3.037  0.00  0.00    -0.287 N 
ATOM      8  N   UNL d   1       0.621   2.939   3.288  0.00  0.00    -0.336 N 
ATOM      9  C   UNL d   1      -0.923   6.130   2.303  0.00  0.00     0.332 C 
ATOM     10  C   UNL d   1      -1.508   4.746   4.239  0.00  0.00     0.163 C 
ATOM     11  N   UNL d   1      -0.148   6.293   1.138  0.00  0.00    -0.269 N 
ATOM     12  O   UNL d   1      -1.747   6.981   2.658  0.00  0.00    -0.246 OA
ATOM     13  C   UNL d   1      -0.228   7.557   0.434  0.00  0.00     0.164 C 
ATOM     14  C   UNL d   1       1.485   2.363   2.478  0.00  0.00     0.185 C 
ATOM     15  HN  UNL d   1       0.320   2.621   4.209  1.00  0.00     0.168 HD
ATOM     16  O   UNL d   1       1.205   5.412  -0.534  0.00  0.00    -0.265 OA
ENDBRANCH   2   3
ENDBRANCH   1   2
BRANCH   1  17
ATOM     17  C   UNL d   1       4.053   1.728  -1.375  0.00  0.00     0.305 C 
BRANCH  17  18
ATOM     18  N   UNL d   1       5.499   1.433  -1.502  0.00  0.00     0.094 N 
ATOM     19  C   UNL d   1       6.302   2.676  -1.642  0.00  0.00     0.293 C 
ATOM     20  C   UNL d   1       7.804   2.424  -1.906  0.00  0.00     0.171 C 
ATOM     21  N   UNL d   1       7.948   1.571  -3.081  0.00  0.00    -0.214 N 
ATOM     22  C   UNL d   1       7.245   0.296  -2.990  0.00  0.00     0.171 C 
ATOM     23  C   UNL d   1       5.745   0.569  -2.693  0.00  0.00     0.293 C 
BRANCH  21  24
ATOM     24  C   UNL d   1       9.078   1.692  -3.854  0.00  0.00     0.679 A 
ATOM     25  N   UNL d   1       9.427   0.684  -4.672  0.00  0.00    -0.202 N 
ATOM     26  C   UNL d   1      10.466   0.886  -5.507  0.00  0.00     0.107 A 
ATOM     27  HN  UNL d   1       8.924  -0.202  -4.662  1.00  0.00     0.183 HD
ATOM     28  C   UNL d   1      11.175   2.058  -5.571  0.00  0.00     0.035 A 
ATOM     29  C   UNL d   1      10.763   3.026  -4.696  0.00  0.00     0.107 A 
ATOM     30  N   UNL d   1       9.740   2.863  -3.837  0.00  0.00    -0.202 N 
ATOM     31  HN  UNL d   1       9.473   3.606  -3.192  1.00  0.00     0.183 HD
ENDBRANCH  21  24
ENDBRANCH  17  18
ENDBRANCH   1  17
BRANCH   1  32
ATOM     32  O   UNL d   1       4.057   3.832  -0.076  0.00  0.00    -0.392 OA
ATOM     33  H   UNL d   1       3.623   4.299  -0.812  0.00  0.00     0.210 HD
ENDBRANCH   1  32
TORSDOF 6
