REMARK  2 active torsions:
REMARK  status: ('A' for Active; 'I' for Inactive)
REMARK       I    between atoms: N_2  and  C_1 
REMARK    1  A    between atoms: C_6  and  C_1 
REMARK    2  A    between atoms: C_4  and  N_2 
ROOT
ATOM      1  C   UNL d   1       2.711  -0.218   0.667  0.00  0.00     0.252 C 
ATOM      2  N   UNL d   1       3.058  -1.198  -0.234  0.00  0.00    -0.344 N 
ATOM      3  O   UNL d   1       1.857  -0.389   1.537  0.00  0.00    -0.268 OA
ATOM      4  H   UNL d   1       3.910  -1.118  -0.781  0.00  0.00     0.163 HD
ENDROOT
BRANCH   2   5
ATOM      5  C   UNL d   1       2.425  -2.517  -0.224  0.00  0.00     0.177 C 
ATOM      6  C   UNL d   1       3.450  -3.547  -0.718  0.00  0.00     0.240 C 
ATOM      7  N   UNL d   1       3.078  -4.862  -0.732  0.00  0.00    -0.359 N 
ATOM      8  O   UNL d   1       4.568  -3.225  -1.129  0.00  0.00    -0.271 OA
ATOM      9  C   UNL d   1       1.880  -5.419  -0.141  0.00  0.00     0.122 C 
ATOM     10  H   UNL d   1       3.802  -5.491  -1.059  0.00  0.00     0.162 HD
ATOM     11  C   UNL d   1       0.606  -5.043  -0.890  0.00  0.00     0.020 C 
ATOM     12  C   UNL d   1       0.165  -3.590  -0.706  0.00  0.00     0.004 C 
ATOM     13  C   UNL d   1       1.194  -2.545  -1.140  0.00  0.00     0.035 C 
ENDBRANCH   2   5
BRANCH   1  14
ATOM     14  C   UNL d   1       3.402   1.103   0.552  0.00  0.00     0.032 A 
ATOM     15  C   UNL d   1       4.003   1.530  -0.638  0.00  0.00     0.017 A 
ATOM     16  C   UNL d   1       4.509   2.831  -0.745  0.00  0.00     0.007 A 
ATOM     17  C   UNL d   1       4.406   3.728   0.325  0.00  0.00    -0.062 A 
ATOM     18  C   UNL d   1       3.866   3.280   1.535  0.00  0.00     0.007 A 
ATOM     19  C   UNL d   1       4.874   5.146   0.173  0.00  0.00     0.048 C 
ATOM     20  C   UNL d   1       3.361   1.980   1.646  0.00  0.00     0.017 A 
ENDBRANCH   1  14
TORSDOF 2
