REMARK  6 active torsions:
REMARK  status: ('A' for Active; 'I' for Inactive)
REMARK    1  A    between atoms: N_2  and  C_1 
REMARK    2  A    between atoms: C_3  and  N_2 
REMARK    3  A    between atoms: C_12  and  N_6 
REMARK    4  A    between atoms: C_9  and  C_12 
REMARK    5  A    between atoms: C_15  and  C_9 
REMARK    6  A    between atoms: O_11  and  C_15 
ROOT
ATOM      1  N   UNL d   1       0.487  -1.130  -0.712  0.00  0.00    -0.333 N 
ATOM      2  H   UNL d   1      -0.505  -0.949  -0.778  0.00  0.00     0.168 HD
ENDROOT
BRANCH   1   3
ATOM      3  C   UNL d   1       1.229  -0.228   0.007  0.00  0.00     0.172 C 
ATOM      4  S   UNL d   1       2.719  -0.473   0.735  0.00  0.00    -0.041 SA
ATOM      5  N   UNL d   1       0.690   1.014   0.189  0.00  0.00    -0.367 N 
ATOM      6  H   UNL d   1       1.315   1.633   0.694  0.00  0.00     0.161 HD
BRANCH   5   7
ATOM      7  C   UNL d   1      -0.679   1.483   0.033  0.00  0.00     0.124 C 
BRANCH   7   8
ATOM      8  C   UNL d   1      -0.855   2.483  -1.107  0.00  0.00     0.046 C 
BRANCH   8   9
ATOM      9  C   UNL d   1      -0.650   1.873  -2.485  0.00  0.00     0.168 C 
BRANCH   9  10
ATOM     10  O   UNL d   1      -1.497   0.732  -2.624  0.00  0.00    -0.396 OA
ATOM     11  C   UNL d   1      -1.259   0.058  -3.854  0.00  0.00     0.201 C 
ENDBRANCH   9  10
ENDBRANCH   8   9
ENDBRANCH   7   8
ENDBRANCH   5   7
ENDBRANCH   1   3
BRANCH   1  12
ATOM     12  C   UNL d   1       0.912  -2.322  -1.375  0.00  0.00     0.045 A 
ATOM     13  C   UNL d   1       0.006  -3.406  -1.563  0.00  0.00     0.001 A 
ATOM     14  C   UNL d   1       0.418  -4.506  -2.362  0.00  0.00    -0.024 A 
ATOM     15  C   UNL d   1      -1.271  -3.496  -0.958  0.00  0.00     0.014 A 
ATOM     16  C   UNL d   1      -0.438  -5.602  -2.568  0.00  0.00     0.012 A 
ATOM     17  C   UNL d   1       1.692  -4.516  -2.944  0.00  0.00     0.012 A 
ATOM     18  C   UNL d   1      -1.690  -5.653  -1.962  0.00  0.00     0.001 A 
ATOM     19  C   UNL d   1      -2.103  -4.606  -1.149  0.00  0.00     0.001 A 
ATOM     20  C   UNL d   1       2.576  -3.468  -2.727  0.00  0.00     0.003 A 
ATOM     21  C   UNL d   1       2.187  -2.378  -1.953  0.00  0.00     0.030 A 
ENDBRANCH   1  12
TORSDOF 6
