REMARK  6 active torsions:
REMARK  status: ('A' for Active; 'I' for Inactive)
REMARK    1  A    between atoms: S_3  and  C_1 
REMARK    2  A    between atoms: C_7  and  S_3 
REMARK    3  A    between atoms: C_4  and  C_7 
REMARK       I    between atoms: N_10  and  C_4 
REMARK    4  A    between atoms: C_16  and  C_7 
REMARK    5  A    between atoms: C_17  and  N_10 
REMARK    6  A    between atoms: C_20  and  C_15 
ROOT
ATOM      1  C   UNL d   1      -0.197   1.425   0.756  0.00  0.00     0.092 A 
ATOM      2  C   UNL d   1       0.451   0.506   1.595  0.00  0.00     0.084 A 
ATOM      3  N   UNL d   1      -1.483   1.278   0.345  0.00  0.00    -0.353 N 
ATOM      4  HN  UNL d   1      -1.917   1.956  -0.282  1.00  0.00     0.166 HD
ATOM      5  C   UNL d   1      -0.272  -0.613   2.047  0.00  0.00    -0.037 A 
ATOM      6  C   UNL d   1       1.822   0.694   1.976  0.00  0.00     0.103 C 
ATOM      7  N   UNL d   1       2.934   0.791   2.299  0.00  0.00    -0.191 NA
ATOM      8  C   UNL d   1      -2.169   0.204   0.796  0.00  0.00     0.006 A 
ATOM      9  C   UNL d   1      -1.604  -0.751   1.636  0.00  0.00     0.033 A 
ATOM     10  C   UNL d   1       0.302  -1.666   2.958  0.00  0.00     0.050 C 
ATOM     11  C   UNL d   1      -3.599   0.069   0.365  0.00  0.00     0.068 C 
ENDROOT
BRANCH   1  12
ATOM     12  S   UNL d   1       0.661   2.828   0.072  0.00  0.00    -0.091 SA
BRANCH  12  13
ATOM     13  C   UNL d   1      -0.662   4.155   0.062  0.00  0.00     0.179 C 
BRANCH  13  14
ATOM     14  C   UNL d   1      -1.353   4.284   1.446  0.00  0.00     0.240 C 
ATOM     15  N   UNL d   1      -2.483   5.114   1.468  0.00  0.00    -0.326 N 
ATOM     16  H   UNL d   1      -2.717   5.604   0.612  0.00  0.00     0.169 HD
ATOM     17  O   UNL d   1      -0.904   3.714   2.444  0.00  0.00    -0.272 OA
BRANCH  15  18
ATOM     18  C   UNL d   1      -3.214   5.502   2.630  0.00  0.00     0.034 A 
ATOM     19  C   UNL d   1      -2.958   4.996   3.903  0.00  0.00     0.030 A 
ATOM     20  C   UNL d   1      -3.565   5.533   5.044  0.00  0.00     0.010 A 
ATOM     21  C   UNL d   1      -4.457   6.604   4.950  0.00  0.00    -0.055 A 
ATOM     22  C   UNL d   1      -4.830   7.020   3.663  0.00  0.00     0.010 A 
ATOM     23  C   UNL d   1      -4.213   6.480   2.515  0.00  0.00     0.030 A 
BRANCH  21  24
ATOM     24  C   UNL d   1      -4.951   7.343   6.186  0.00  0.00     0.010 C 
ATOM     25  C   UNL d   1      -6.192   6.699   6.802  0.00  0.00     0.015 C 
ATOM     26  C   UNL d   1      -3.860   7.500   7.260  0.00  0.00     0.015 C 
ENDBRANCH  21  24
ENDBRANCH  15  18
ENDBRANCH  13  14
BRANCH  13  27
ATOM     27  C   UNL d   1       0.063   5.427  -0.393  0.00  0.00    -0.035 A 
ATOM     28  C   UNL d   1       0.593   6.350   0.525  0.00  0.00     0.009 A 
ATOM     29  C   UNL d   1       1.423   7.390   0.097  0.00  0.00     0.001 A 
ATOM     30  C   UNL d   1       1.749   7.519  -1.250  0.00  0.00     0.000 A 
ATOM     31  C   UNL d   1       1.228   6.620  -2.177  0.00  0.00     0.001 A 
ATOM     32  C   UNL d   1       0.385   5.588  -1.755  0.00  0.00     0.009 A 
ENDBRANCH  13  27
ENDBRANCH  12  13
ENDBRANCH   1  12
TORSDOF 6
