REMARK  2 active torsions:
REMARK  status: ('A' for Active; 'I' for Inactive)
REMARK    1  A    between atoms: C_3  and  C_1 
REMARK    2  A    between atoms: C_13  and  N_2 
ROOT
ATOM      1  C   UNL d   1      -0.181  -1.347  -0.110  0.00  0.00     0.150 C 
ATOM      2  N   UNL d   1      -1.057  -0.413  -0.667  0.00  0.00    -0.224 N 
ATOM      3  N   UNL d   1      -0.384   0.750  -0.828  0.00  0.00     0.001 NA
ATOM      4  N   UNL d   1       0.784   0.582  -0.233  0.00  0.00    -0.007 NA
ATOM      5  N   UNL d   1       0.929  -0.703   0.209  0.00  0.00    -0.269 N 
ATOM      6  HN  UNL d   1       1.738  -1.091   0.693  1.00  0.00     0.185 HD
ENDROOT
BRANCH   1   7
ATOM      7  C   UNL d   1      -0.355  -2.804  -0.056  0.00  0.00     0.033 A 
ATOM      8  C   UNL d   1       0.052  -3.607   1.032  0.00  0.00    -0.034 A 
ATOM      9  C   UNL d   1      -0.113  -5.028   0.943  0.00  0.00    -0.003 A 
ATOM     10  C   UNL d   1       0.695  -3.011   2.260  0.00  0.00     0.050 C 
ATOM     11  C   UNL d   1       0.306  -5.942   1.941  0.00  0.00     0.014 A 
ATOM     12  C   UNL d   1      -0.736  -5.555  -0.212  0.00  0.00     0.042 A 
ATOM     13  C   UNL d   1       0.100  -7.318   1.808  0.00  0.00     0.001 A 
ATOM     14  C   UNL d   1      -0.540  -7.806   0.681  0.00  0.00     0.002 A 
ATOM     15  C   UNL d   1      -0.951  -6.921  -0.315  0.00  0.00     0.030 A 
ATOM     16  N   UNL d   1      -1.124  -4.793  -1.237  0.00  0.00    -0.364 N 
ATOM     17  C   UNL d   1      -0.898  -3.466  -1.155  0.00  0.00     0.104 A 
ATOM     18  HN  UNL d   1      -1.576  -5.201  -2.055  1.00  0.00     0.165 HD
ENDBRANCH   1   7
BRANCH   2  19
ATOM     19  C   UNL d   1      -2.403  -0.543  -1.087  0.00  0.00     0.056 A 
ATOM     20  C   UNL d   1      -3.271  -1.451  -0.466  0.00  0.00     0.031 A 
ATOM     21  C   UNL d   1      -4.563  -1.630  -0.965  0.00  0.00     0.002 A 
ATOM     22  C   UNL d   1      -4.991  -0.906  -2.076  0.00  0.00     0.000 A 
ATOM     23  C   UNL d   1      -4.143   0.026  -2.672  0.00  0.00     0.002 A 
ATOM     24  C   UNL d   1      -2.857   0.226  -2.169  0.00  0.00     0.031 A 
ENDBRANCH   2  19
TORSDOF 2
