REMARK  7 active torsions:
REMARK  status: ('A' for Active; 'I' for Inactive)
REMARK    1  A    between atoms: C_2  and  C_1 
REMARK       I    between atoms: C_5  and  N_15 
REMARK    2  A    between atoms: C_11  and  C_5 
REMARK    3  A    between atoms: C_18  and  C_7 
REMARK    4  A    between atoms: N_15  and  C_19 
REMARK    5  A    between atoms: S_17  and  C_18 
REMARK    6  A    between atoms: C_22  and  S_17 
REMARK    7  A    between atoms: C_19  and  C_22 
ROOT
ATOM      1  S   UNL d   1      -1.460  -4.439   4.452  0.00  0.00    -0.161 SA
ENDROOT
BRANCH   1   2
ATOM      2  C   UNL d   1      -0.609  -3.377   5.670  0.00  0.00     0.132 C 
BRANCH   2   3
ATOM      3  C   UNL d   1       0.668  -3.930   6.255  0.00  0.00     0.040 A 
ATOM      4  N   UNL d   1       0.636  -4.175   7.596  0.00  0.00    -0.366 N 
ATOM      5  C   UNL d   1       1.752  -4.648   8.196  0.00  0.00     0.104 A 
ATOM      6  HN  UNL d   1      -0.213  -4.006   8.136  1.00  0.00     0.165 HD
ATOM      7  C   UNL d   1       2.946  -4.875   7.527  0.00  0.00     0.064 A 
ATOM      8  C   UNL d   1       2.972  -4.609   6.156  0.00  0.00     0.043 A 
ATOM      9  C   UNL d   1       1.832  -4.127   5.509  0.00  0.00     0.058 A 
ATOM     10 CL   UNL d   1       1.954  -3.762   3.828  0.00  0.00    -0.082 Cl
BRANCH   7  11
ATOM     11  C   UNL d   1       4.147  -5.356   8.278  0.00  0.00     0.418 C 
ATOM     12  F   UNL d   1       5.237  -5.549   7.482  0.00  0.00    -0.166 F 
ATOM     13  F   UNL d   1       3.936  -6.540   8.913  0.00  0.00    -0.166 F 
ATOM     14  F   UNL d   1       4.543  -4.479   9.241  0.00  0.00    -0.166 F 
ENDBRANCH   7  11
ENDBRANCH   2   3
ENDBRANCH   1   2
BRANCH   1  15
ATOM     15  C   UNL d   1      -1.793  -5.929   5.456  0.00  0.00     0.094 C 
BRANCH  15  16
ATOM     16  C   UNL d   1      -2.779  -5.667   6.592  0.00  0.00     0.133 C 
BRANCH  16  17
ATOM     17  N   UNL d   1      -3.099  -6.875   7.330  0.00  0.00    -0.356 N 
ATOM     18  C   UNL d   1      -2.283  -7.314   8.350  0.00  0.00     0.251 C 
ATOM     19  O   UNL d   1      -1.219  -6.781   8.648  0.00  0.00    -0.268 OA
ATOM     20  H   UNL d   1      -4.021  -7.274   7.217  0.00  0.00     0.162 HD
BRANCH  18  21
ATOM     21  C   UNL d   1      -2.766  -8.478   9.136  0.00  0.00     0.032 A 
ATOM     22  C   UNL d   1      -3.544  -9.489   8.560  0.00  0.00     0.017 A 
ATOM     23  C   UNL d   1      -3.960 -10.574   9.340  0.00  0.00     0.001 A 
ATOM     24  C   UNL d   1      -3.599 -10.649  10.684  0.00  0.00     0.000 A 
ATOM     25  C   UNL d   1      -2.817  -9.646  11.259  0.00  0.00     0.001 A 
ATOM     26  C   UNL d   1      -2.398  -8.564  10.484  0.00  0.00     0.017 A 
ENDBRANCH  18  21
ENDBRANCH  16  17
ENDBRANCH  15  16
ENDBRANCH   1  15
TORSDOF 7
