REMARK  6 active torsions:
REMARK  status: ('A' for Active; 'I' for Inactive)
REMARK    1  A    between atoms: C_8  and  S_1 
REMARK    2  A    between atoms: N_12  and  S_1 
REMARK    3  A    between atoms: S_2  and  C_9 
REMARK    4  A    between atoms: N_13  and  S_2 
REMARK    5  A    between atoms: C_23  and  N_12 
REMARK    6  A    between atoms: C_24  and  N_13 
ROOT
ATOM      1  C   UNL d   1      -0.946   1.987   2.995  0.00  0.00     0.027 A 
ATOM      2  C   UNL d   1      -1.914   3.373   4.671  0.00  0.00     0.027 A 
ATOM      3  C   UNL d   1      -1.899   1.993   4.132  0.00  0.00     0.194 A 
ATOM      4  C   UNL d   1      -1.017   4.135   3.899  0.00  0.00    -0.011 A 
ATOM      5  C   UNL d   1      -0.419   3.289   2.889  0.00  0.00    -0.011 A 
ATOM      6  C   UNL d   1       0.352   1.254   1.157  0.00  0.00     0.080 A 
ATOM      7  C   UNL d   1      -2.452   5.260   5.998  0.00  0.00     0.080 A 
ATOM      8  C   UNL d   1      -0.585   0.952   2.153  0.00  0.00     0.041 A 
ATOM      9  C   UNL d   1      -2.643   3.900   5.722  0.00  0.00     0.041 A 
ATOM     10  C   UNL d   1      -0.850   5.484   4.166  0.00  0.00     0.015 A 
ATOM     11  C   UNL d   1       0.528   3.571   1.918  0.00  0.00     0.015 A 
ATOM     12  O   UNL d   1      -2.540   1.049   4.544  0.00  0.00    -0.287 OA
ATOM     13  C   UNL d   1      -1.585   6.052   5.214  0.00  0.00     0.026 A 
ATOM     14  C   UNL d   1       0.918   2.543   1.051  0.00  0.00     0.026 A 
ENDROOT
BRANCH   6  15
ATOM     15  S   UNL d   1       0.912  -0.022   0.045  0.00  0.00     0.263 S 
ATOM     16  O   UNL d   1       0.721  -1.288   0.719  0.00  0.00    -0.200 OA
ATOM     17  O   UNL d   1       2.211   0.366  -0.462  0.00  0.00    -0.200 OA
BRANCH  15  18
ATOM     18  N   UNL d   1      -0.204   0.023  -1.192  0.00  0.00    -0.281 N 
ATOM     19  H   UNL d   1      -0.838  -0.767  -1.277  0.00  0.00     0.179 HD
BRANCH  18  20
ATOM     20  C   UNL d   1      -0.352   1.141  -2.044  0.00  0.00     0.042 A 
ATOM     21  C   UNL d   1       0.440   1.272  -3.182  0.00  0.00     0.030 A 
ATOM     22  C   UNL d   1       0.181   2.300  -4.095  0.00  0.00     0.009 A 
ATOM     23  C   UNL d   1      -0.869   3.201  -3.873  0.00  0.00    -0.062 A 
ATOM     24  C   UNL d   1      -1.637   3.076  -2.709  0.00  0.00     0.009 A 
ATOM     25  C   UNL d   1      -1.185   4.259  -4.890  0.00  0.00     0.048 C 
ATOM     26  C   UNL d   1      -1.385   2.044  -1.803  0.00  0.00     0.030 A 
ENDBRANCH  18  20
ENDBRANCH  15  18
ENDBRANCH   6  15
BRANCH   7  27
ATOM     27  S   UNL d   1      -3.354   6.027   7.336  0.00  0.00     0.263 S 
ATOM     28  O   UNL d   1      -3.475   7.436   7.034  0.00  0.00    -0.200 OA
ATOM     29  O   UNL d   1      -4.522   5.208   7.583  0.00  0.00    -0.200 OA
BRANCH  27  30
ATOM     30  N   UNL d   1      -2.338   5.818   8.668  0.00  0.00    -0.281 N 
ATOM     31  H   UNL d   1      -2.442   4.908   9.112  0.00  0.00     0.179 HD
BRANCH  30  32
ATOM     32  C   UNL d   1      -1.046   6.407   8.651  0.00  0.00     0.042 A 
ATOM     33  C   UNL d   1      -0.882   7.716   9.099  0.00  0.00     0.030 A 
ATOM     34  C   UNL d   1       0.379   8.316   9.050  0.00  0.00     0.009 A 
ATOM     35  C   UNL d   1       1.476   7.622   8.523  0.00  0.00    -0.062 A 
ATOM     36  C   UNL d   1       1.297   6.309   8.071  0.00  0.00     0.009 A 
ATOM     37  C   UNL d   1       2.821   8.284   8.451  0.00  0.00     0.048 C 
ATOM     38  C   UNL d   1       0.044   5.698   8.148  0.00  0.00     0.030 A 
ENDBRANCH  30  32
ENDBRANCH  27  30
ENDBRANCH   7  27
TORSDOF 6
