REMARK  3 active torsions:
REMARK  status: ('A' for Active; 'I' for Inactive)
REMARK    1  A    between atoms: C_2  and  S_1 
REMARK    2  A    between atoms: N_3  and  S_1 
REMARK    3  A    between atoms: C_4  and  N_3 
ROOT
ATOM      1  C   UNL d   1       0.982   0.188  -2.403  0.00  0.00     0.126 C 
ATOM      2  C   UNL d   1       0.787   1.690  -2.289  0.00  0.00    -0.029 A 
ATOM      3  C   UNL d   1       1.864   2.549  -2.000  0.00  0.00    -0.050 A 
ATOM      4  C   UNL d   1       2.416  -0.132  -2.840  0.00  0.00     0.031 C 
ATOM      5  C   UNL d   1       3.443   0.531  -1.933  0.00  0.00     0.007 C 
ATOM      6  C   UNL d   1      -0.507   2.226  -2.411  0.00  0.00     0.010 A 
ATOM      7  C   UNL d   1       3.284   2.050  -1.893  0.00  0.00     0.039 C 
ATOM      8  C   UNL d   1       1.626   3.926  -1.859  0.00  0.00     0.007 A 
ATOM      9  C   UNL d   1      -0.728   3.596  -2.271  0.00  0.00     0.001 A 
ATOM     10  C   UNL d   1       0.339   4.445  -1.995  0.00  0.00     0.001 A 
ENDROOT
BRANCH   1  11
ATOM     11  N   UNL d   1       0.613  -0.428  -1.123  0.00  0.00    -0.306 N 
ATOM     12  H   UNL d   1       0.794   0.106  -0.275  0.00  0.00     0.173 HD
BRANCH  11  13
ATOM     13  S   UNL d   1       0.523  -2.080  -0.939  0.00  0.00     0.266 S 
ATOM     14  O   UNL d   1      -0.504  -2.350   0.045  0.00  0.00    -0.200 OA
ATOM     15  O   UNL d   1       0.514  -2.703  -2.245  0.00  0.00    -0.200 OA
BRANCH  13  16
ATOM     16  C   UNL d   1       2.035  -2.633  -0.173  0.00  0.00     0.119 A 
ATOM     17  S   UNL d   1       2.347  -2.031   1.402  0.00  0.00    -0.088 SA
ATOM     18  C   UNL d   1       3.775  -2.962   1.546  0.00  0.00     0.051 A 
ATOM     19  C   UNL d   1       4.040  -3.682   0.402  0.00  0.00     0.009 A 
ATOM     20  C   UNL d   1       3.039  -3.486  -0.594  0.00  0.00     0.033 A 
ENDBRANCH  13  16
ENDBRANCH  11  13
ENDBRANCH   1  11
TORSDOF 3
