REMARK  3 active torsions:
REMARK  status: ('A' for Active; 'I' for Inactive)
REMARK    1  A    between atoms: C_7  and  C_1 
REMARK    2  A    between atoms: C_5  and  O_9 
REMARK    3  A    between atoms: O_9  and  C_7 
ROOT
ATOM      1  C   UNL d   1      -0.813   5.006  -0.886  0.00  0.00     0.026 A 
ATOM      2  N   UNL d   1      -2.113   6.857  -0.031  0.00  0.00    -0.359 N 
ATOM      3  HN  UNL d   1      -2.321   7.855  -0.012  1.00  0.00     0.166 HD
ATOM      4  C   UNL d   1      -1.519   4.132  -0.031  0.00  0.00     0.083 A 
ATOM      5  C   UNL d   1      -1.149   6.375  -0.831  0.00  0.00     0.045 A 
ATOM      6  C   UNL d   1      -2.538   4.633   0.774  0.00  0.00     0.062 A 
ATOM      7  C   UNL d   1      -2.801   5.995   0.748  0.00  0.00     0.008 A 
ATOM      8  C   UNL d   1       0.204   4.581  -1.770  0.00  0.00     0.040 A 
ATOM      9  C   UNL d   1      -0.456   7.270  -1.636  0.00  0.00     0.032 A 
ATOM     10  C   UNL d   1       0.874   5.500  -2.575  0.00  0.00     0.035 A 
ATOM     11  C   UNL d   1       0.551   6.848  -2.506  0.00  0.00     0.026 A 
ATOM     12 CL   UNL d   1       2.101   4.968  -3.655  0.00  0.00    -0.084 Cl
ATOM     13  C   UNL d   1      -3.883   6.567   1.615  0.00  0.00     0.068 C 
ENDROOT
BRANCH   4  14
ATOM     14  O   UNL d   1      -1.162   2.802  -0.064  0.00  0.00    -0.346 OA
BRANCH  14  15
ATOM     15  C   UNL d   1      -1.483   2.043   1.103  0.00  0.00     0.217 C 
BRANCH  15  16
ATOM     16  C   UNL d   1      -0.746   0.725   1.068  0.00  0.00     0.009 A 
ATOM     17  C   UNL d   1       0.576   0.622   1.542  0.00  0.00     0.044 A 
ATOM     18 CL   UNL d   1       1.445   1.993   2.141  0.00  0.00    -0.084 Cl
ATOM     19  C   UNL d   1       1.247  -0.607   1.554  0.00  0.00     0.024 A 
ATOM     20  C   UNL d   1       0.620  -1.754   1.079  0.00  0.00     0.003 A 
ATOM     21  C   UNL d   1      -0.675  -1.669   0.576  0.00  0.00     0.024 A 
ATOM     22  C   UNL d   1      -1.349  -0.442   0.562  0.00  0.00     0.044 A 
ATOM     23 CL   UNL d   1      -2.949  -0.442  -0.096  0.00  0.00    -0.084 Cl
ENDBRANCH  15  16
ENDBRANCH  14  15
ENDBRANCH   4  14
TORSDOF 3
