REMARK  5 active torsions:
REMARK  status: ('A' for Active; 'I' for Inactive)
REMARK       I    between atoms: C_2  and  N_1 
REMARK    1  A    between atoms: C_3  and  N_1 
REMARK    2  A    between atoms: C_7  and  C_2 
REMARK    3  A    between atoms: N_5  and  C_3 
REMARK    4  A    between atoms: C_10  and  N_5 
REMARK    5  A    between atoms: C_11  and  C_10 
ROOT
ATOM      1  C   UNL d   1       2.442  -0.093  -0.069  0.00  0.00     0.174 C 
ATOM      2  S   UNL d   1       3.295   0.100  -1.488  0.00  0.00    -0.041 SA
ENDROOT
BRANCH   1   3
ATOM      3  N   UNL d   1       1.085   0.063   0.140  0.00  0.00    -0.300 N 
ATOM      4  C   UNL d   1       0.152   0.701  -0.674  0.00  0.00     0.257 C 
ATOM      5  O   UNL d   1       0.435   1.438  -1.611  0.00  0.00    -0.267 OA
ATOM      6  H   UNL d   1       0.727  -0.537   0.864  0.00  0.00     0.171 HD
BRANCH   4   7
ATOM      7  C   UNL d   1      -1.292   0.556  -0.307  0.00  0.00     0.032 A 
ATOM      8  C   UNL d   1      -1.741   0.124   0.949  0.00  0.00     0.017 A 
ATOM      9  C   UNL d   1      -3.112   0.094   1.232  0.00  0.00     0.001 A 
ATOM     10  C   UNL d   1      -4.040   0.497   0.272  0.00  0.00     0.000 A 
ATOM     11  C   UNL d   1      -3.604   0.920  -0.980  0.00  0.00     0.001 A 
ATOM     12  C   UNL d   1      -2.239   0.948  -1.267  0.00  0.00     0.017 A 
ENDBRANCH   4   7
ENDBRANCH   1   3
BRANCH   1  13
ATOM     13  N   UNL d   1       3.166  -0.438   1.043  0.00  0.00    -0.363 N 
ATOM     14  H   UNL d   1       4.162  -0.496   0.860  0.00  0.00     0.162 HD
BRANCH  13  15
ATOM     15  C   UNL d   1       2.781  -0.246   2.431  0.00  0.00     0.160 C 
BRANCH  15  16
ATOM     16  C   UNL d   1       1.994  -1.400   2.991  0.00  0.00    -0.038 A 
ATOM     17  C   UNL d   1       2.241  -2.719   2.598  0.00  0.00     0.025 A 
ATOM     18  C   UNL d   1       1.496  -3.738   3.171  0.00  0.00     0.088 A 
ATOM     19  N   UNL d   1       0.544  -3.533   4.104  0.00  0.00    -0.375 N 
ATOM     20  C   UNL d   1       0.339  -2.260   4.496  0.00  0.00     0.088 A 
ATOM     21  HN  UNL d   1       0.005  -4.306   4.495  1.00  0.00     0.164 HD
ATOM     22  C   UNL d   1       1.029  -1.174   3.979  0.00  0.00     0.025 A 
ENDBRANCH  15  16
ENDBRANCH  13  15
ENDBRANCH   1  13
TORSDOF 5
