REMARK  6 active torsions:
REMARK  status: ('A' for Active; 'I' for Inactive)
REMARK    1  A    between atoms: C_2  and  C_1 
REMARK       I    between atoms: C_3  and  N_7 
REMARK    2  A    between atoms: C_11  and  C_3 
REMARK    3  A    between atoms: C_13  and  C_6 
REMARK    4  A    between atoms: N_7  and  C_19 
REMARK    5  A    between atoms: O_20  and  C_13 
REMARK    6  A    between atoms: C_22  and  O_20 
ROOT
ATOM      1  C   UNL d   1      -2.024   3.514  -9.527  0.00  0.00     0.035 A 
ATOM      2  C   UNL d   1      -0.837   2.514  -7.165  0.00  0.00     0.069 A 
ATOM      3  C   UNL d   1      -2.387   2.267  -9.009  0.00  0.00     0.032 A 
ATOM      4  C   UNL d   1      -1.020   4.235  -8.872  0.00  0.00     0.032 A 
ATOM      5  C   UNL d   1      -0.426   3.733  -7.704  0.00  0.00     0.039 A 
ATOM      6  C   UNL d   1      -1.796   1.767  -7.839  0.00  0.00     0.039 A 
ENDROOT
BRANCH   2   7
ATOM      7  O   UNL d   1      -0.230   2.144  -5.995  0.00  0.00    -0.345 OA
BRANCH   7   8
ATOM      8  C   UNL d   1      -1.018   1.317  -5.129  0.00  0.00     0.234 C 
BRANCH   8   9
ATOM      9  C   UNL d   1      -0.548   1.463  -3.695  0.00  0.00     0.055 A 
ATOM     10  N   UNL d   1      -0.082   0.330  -3.090  0.00  0.00    -0.365 N 
ATOM     11  C   UNL d   1       0.333   0.418  -1.804  0.00  0.00     0.104 A 
ATOM     12  HN  UNL d   1      -0.047  -0.557  -3.593  1.00  0.00     0.165 HD
ATOM     13  C   UNL d   1       0.312   1.589  -1.063  0.00  0.00     0.064 A 
ATOM     14  C   UNL d   1      -0.183   2.737  -1.688  0.00  0.00     0.043 A 
ATOM     15  C   UNL d   1      -0.624   2.679  -3.012  0.00  0.00     0.059 A 
ATOM     16 CL   UNL d   1      -1.268   4.116  -3.713  0.00  0.00    -0.082 Cl
BRANCH  13  17
ATOM     17  C   UNL d   1       0.800   1.586   0.352  0.00  0.00     0.418 C 
ATOM     18  F   UNL d   1       0.758   2.813   0.941  0.00  0.00    -0.166 F 
ATOM     19  F   UNL d   1       2.090   1.166   0.458  0.00  0.00    -0.166 F 
ATOM     20  F   UNL d   1       0.071   0.763   1.153  0.00  0.00    -0.166 F 
ENDBRANCH  13  17
ENDBRANCH   8   9
ENDBRANCH   7   8
ENDBRANCH   2   7
BRANCH   1  21
ATOM     21  N   UNL d   1      -2.638   4.110 -10.658  0.00  0.00    -0.323 N 
ATOM     22  C   UNL d   1      -3.623   3.545 -11.444  0.00  0.00     0.256 C 
ATOM     23  O   UNL d   1      -4.028   2.387 -11.376  0.00  0.00    -0.267 OA
ATOM     24  H   UNL d   1      -2.305   5.028 -10.912  0.00  0.00     0.169 HD
BRANCH  22  25
ATOM     25  C   UNL d   1      -4.260   4.415 -12.476  0.00  0.00     0.032 A 
ATOM     26  C   UNL d   1      -4.788   3.789 -13.618  0.00  0.00     0.018 A 
ATOM     27  C   UNL d   1      -5.532   4.517 -14.550  0.00  0.00     0.025 A 
ATOM     28  C   UNL d   1      -5.752   5.875 -14.342  0.00  0.00     0.034 A 
ATOM     29  C   UNL d   1      -5.211   6.516 -13.225  0.00  0.00     0.025 A 
ATOM     30 CL   UNL d   1      -6.731   6.758 -15.447  0.00  0.00    -0.084 Cl
ATOM     31  C   UNL d   1      -4.463   5.788 -12.289  0.00  0.00     0.018 A 
ENDBRANCH  22  25
ENDBRANCH   1  21
TORSDOF 6
