REMARK  3 active torsions:
REMARK  status: ('A' for Active; 'I' for Inactive)
REMARK    1  A    between atoms: C_11  and  C_1 
REMARK    2  A    between atoms: C_5  and  C_3 
REMARK    3  A    between atoms: O_24  and  C_11 
ROOT
ATOM      1  C   UNL d   1       2.796  -0.847   0.105  0.00  0.00     0.053 C 
ATOM      2  C   UNL d   1       0.271  -0.711   0.090  0.00  0.00     0.024 C 
ATOM      3  C   UNL d   1       1.479  -1.544   0.492  0.00  0.00     0.105 C 
ATOM      4  C   UNL d   1       0.375   0.623  -0.052  0.00  0.00     0.021 C 
ATOM      5  C   UNL d   1       2.816   0.502  -0.061  0.00  0.00     0.018 C 
ATOM      6  N   UNL d   1       1.621   1.220   0.022  0.00  0.00    -0.362 N 
ATOM      7  C   UNL d   1      -1.022  -1.397  -0.163  0.00  0.00     0.159 C 
ATOM      8  C   UNL d   1      -0.816   1.519  -0.295  0.00  0.00     0.067 C 
ATOM      9  C   UNL d   1      -2.176   0.850   0.013  0.00  0.00    -0.036 C 
ATOM     10  C   UNL d   1      -2.201  -0.555  -0.609  0.00  0.00     0.092 C 
ATOM     11  O   UNL d   1      -1.106  -2.622  -0.102  0.00  0.00    -0.293 OA
ATOM     12  C   UNL d   1       4.026   1.353  -0.356  0.00  0.00     0.069 C 
ATOM     13  C   UNL d   1      -3.301   1.701  -0.599  0.00  0.00     0.015 C 
ATOM     14  C   UNL d   1      -2.421   0.756   1.534  0.00  0.00     0.015 C 
ATOM     15  H   UNL d   1       1.671   2.212  -0.198  0.00  0.00     0.165 HD
ENDROOT
BRANCH   3  16
ATOM     16  C   UNL d   1       1.447  -1.831   2.001  0.00  0.00    -0.003 A 
ATOM     17  S   UNL d   1       1.372  -3.426   2.608  0.00  0.00    -0.092 SA
ATOM     18  C   UNL d   1       1.291  -2.889   4.240  0.00  0.00     0.022 A 
ATOM     19  C   UNL d   1       1.153  -3.809   5.347  0.00  0.00     0.021 A 
ATOM     20  C   UNL d   1       1.370  -1.512   4.309  0.00  0.00     0.021 A 
ATOM     21  S   UNL d   1       0.373  -3.337   6.807  0.00  0.00    -0.101 SA
ATOM     22  C   UNL d   1       1.577  -5.124   5.424  0.00  0.00     0.021 A 
ATOM     23  C   UNL d   1       0.601  -4.870   7.518  0.00  0.00     0.050 A 
ATOM     24  C   UNL d   1       1.262  -5.735   6.675  0.00  0.00     0.008 A 
ATOM     25  C   UNL d   1       1.464  -0.905   3.028  0.00  0.00     0.017 A 
ENDBRANCH   3  16
BRANCH   1  26
ATOM     26  C   UNL d   1       3.996  -1.720  -0.016  0.00  0.00     0.291 C 
ATOM     27  O   UNL d   1       5.151  -1.367   0.161  0.00  0.00    -0.260 OA
BRANCH  26  28
ATOM     28  O   UNL d   1       3.616  -2.974  -0.371  0.00  0.00    -0.323 OA
ATOM     29  C   UNL d   1       4.680  -3.919  -0.487  0.00  0.00     0.213 C 
ENDBRANCH  26  28
ENDBRANCH   1  26
TORSDOF 3
