REMARK  8 active torsions:
REMARK  status: ('A' for Active; 'I' for Inactive)
REMARK    1  A    between atoms: C_2  and  N_1 
REMARK    2  A    between atoms: S_16  and  C_3 
REMARK    3  A    between atoms: O_20  and  C_4 
REMARK    4  A    between atoms: S_5  and  C_13 
REMARK    5  A    between atoms: C_12  and  S_5 
REMARK    6  A    between atoms: C_11  and  C_6 
REMARK    7  A    between atoms: C_13  and  C_23 
REMARK    8  A    between atoms: C_23  and  S_16 
ROOT
ATOM      1  N   UNL d   1       4.038   0.262  -2.069  0.00  0.00    -0.254 N 
ATOM      2  C   UNL d   1       3.836  -0.994  -1.500  0.00  0.00     0.169 A 
ATOM      3  C   UNL d   1       5.244   0.109  -2.744  0.00  0.00     0.245 A 
ATOM      4  N   UNL d   1       4.763  -1.828  -1.909  0.00  0.00    -0.276 N 
ATOM      5  HN  UNL d   1       4.813  -2.822  -1.686  1.00  0.00     0.189 HD
ATOM      6  N   UNL d   1       5.651  -1.136  -2.685  0.00  0.00    -0.263 N 
ATOM      7  HN  UNL d   1       6.481  -1.519  -3.136  1.00  0.00     0.190 HD
ENDROOT
BRANCH   2   8
ATOM      8  S   UNL d   1       2.499  -1.443  -0.488  0.00  0.00    -0.091 SA
BRANCH   8   9
ATOM      9  C   UNL d   1       2.546  -3.265  -0.450  0.00  0.00     0.098 C 
BRANCH   9  10
ATOM     10  C   UNL d   1       3.801  -4.011  -0.025  0.00  0.00     0.156 C 
BRANCH  10  11
ATOM     11  S   UNL d   1       4.404  -3.713   1.620  0.00  0.00     0.176 S 
ATOM     12  O   UNL d   1       5.536  -4.603   1.830  0.00  0.00    -0.223 OA
ATOM     13  O   UNL d   1       4.553  -2.290   1.840  0.00  0.00    -0.223 OA
BRANCH  11  14
ATOM     14  C   UNL d   1       3.110  -4.283   2.693  0.00  0.00     0.059 A 
ATOM     15  C   UNL d   1       3.125  -5.603   3.159  0.00  0.00     0.024 A 
ATOM     16  C   UNL d   1       2.114  -6.041   4.015  0.00  0.00     0.008 A 
ATOM     17  C   UNL d   1       1.089  -5.170   4.410  0.00  0.00    -0.062 A 
ATOM     18  C   UNL d   1       1.114  -3.838   3.974  0.00  0.00     0.008 A 
ATOM     19  C   UNL d   1      -0.005  -5.662   5.311  0.00  0.00     0.048 C 
ATOM     20  C   UNL d   1       2.127  -3.391   3.123  0.00  0.00     0.024 A 
ENDBRANCH  11  14
ENDBRANCH  10  11
ENDBRANCH   9  10
ENDBRANCH   8   9
ENDBRANCH   2   8
BRANCH   1  21
ATOM     21  C   UNL d   1       3.277   1.463  -1.944  0.00  0.00     0.060 A 
ATOM     22  C   UNL d   1       3.012   2.320  -3.040  0.00  0.00     0.075 A 
ATOM     23  C   UNL d   1       2.388   3.563  -2.785  0.00  0.00     0.018 A 
ATOM     24  C   UNL d   1       1.977   3.923  -1.504  0.00  0.00     0.001 A 
ATOM     25  C   UNL d   1       2.180   3.047  -0.447  0.00  0.00     0.002 A 
ATOM     26  C   UNL d   1       2.835   1.833  -0.659  0.00  0.00     0.031 A 
BRANCH  22  27
ATOM     27  C   UNL d   1       3.284   2.010  -4.500  0.00  0.00     0.419 C 
ATOM     28  F   UNL d   1       3.502   0.699  -4.768  0.00  0.00    -0.166 F 
ATOM     29  F   UNL d   1       2.252   2.377  -5.311  0.00  0.00    -0.166 F 
ATOM     30  F   UNL d   1       4.372   2.692  -4.950  0.00  0.00    -0.166 F 
ENDBRANCH  22  27
ENDBRANCH   1  21
BRANCH   3  31
ATOM     31  O   UNL d   1       5.963   1.060  -3.329  0.00  0.00    -0.331 OA
ATOM     32  H   UNL d   1       5.657   1.935  -3.047  0.00  0.00     0.221 HD
ENDBRANCH   3  31
TORSDOF 8
