REMARK  10 active torsions:
REMARK  status: ('A' for Active; 'I' for Inactive)
REMARK    1  A    between atoms: C_3  and  C_1 
REMARK    2  A    between atoms: C_2  and  N_5 
REMARK    3  A    between atoms: N_15  and  C_2 
REMARK       I    between atoms: N_16  and  C_3 
REMARK    4  A    between atoms: N_5  and  C_4 
REMARK    5  A    between atoms: C_6  and  C_20 
REMARK    6  A    between atoms: C_7  and  C_21 
REMARK    7  A    between atoms: N_8  and  N_15 
REMARK    8  A    between atoms: N_10  and  N_16 
REMARK    9  A    between atoms: O_31  and  C_13 
REMARK   10  A    between atoms: O_30  and  C_14 
ROOT
ATOM      1  C   UNL d   1       1.341  -0.122   0.199  0.00  0.00     0.060 A 
ATOM      2  C   UNL d   1       0.609  -1.324   0.053  0.00  0.00     0.050 A 
ATOM      3  C   UNL d   1       0.676   1.114   0.083  0.00  0.00     0.019 A 
ATOM      4  C   UNL d   1      -0.781  -1.252  -0.116  0.00  0.00     0.030 A 
ATOM      5  C   UNL d   1      -0.706   1.162  -0.095  0.00  0.00     0.001 A 
ATOM      6  C   UNL d   1      -1.436  -0.019  -0.170  0.00  0.00     0.002 A 
ENDROOT
BRANCH   2   7
ATOM      7  N   UNL d   1       1.269  -2.573  -0.059  0.00  0.00    -0.331 N 
ATOM      8  H   UNL d   1       2.272  -2.528  -0.256  0.00  0.00     0.168 HD
BRANCH   7   9
ATOM      9  C   UNL d   1       0.834  -3.836   0.276  0.00  0.00     0.191 C 
ATOM     10  S   UNL d   1      -0.243  -4.246   1.489  0.00  0.00    -0.039 SA
BRANCH   9  11
ATOM     11  N   UNL d   1       1.403  -4.856  -0.469  0.00  0.00    -0.276 N 
ATOM     12  H   UNL d   1       1.121  -5.803  -0.228  0.00  0.00     0.189 HD
BRANCH  11  13
ATOM     13  N   UNL d   1       1.898  -4.601  -1.716  0.00  0.00    -0.309 N 
ATOM     14  C   UNL d   1       2.219  -5.641  -2.423  0.00  0.00     0.121 C 
ATOM     15  HN  UNL d   1       2.008  -3.651  -2.071  1.00  0.00     0.186 HD
BRANCH  14  16
ATOM     16  C   UNL d   1       2.660  -5.474  -3.825  0.00  0.00     0.015 A 
ATOM     17  C   UNL d   1       2.560  -4.239  -4.482  0.00  0.00     0.077 A 
ATOM     18  C   UNL d   1       2.992  -4.101  -5.799  0.00  0.00     0.039 A 
ATOM     19  C   UNL d   1       3.518  -5.201  -6.475  0.00  0.00     0.022 A 
ATOM     20  C   UNL d   1       3.595  -6.436  -5.832  0.00  0.00     0.011 A 
ATOM     21  C   UNL d   1       3.167  -6.585  -4.510  0.00  0.00     0.034 A 
ATOM     22 BR   UNL d   1       4.286  -7.928  -6.767  0.00  0.00    -0.051 Br
BRANCH  17  23
ATOM     23  O   UNL d   1       2.027  -3.121  -3.901  0.00  0.00    -0.360 OA
ATOM     24  H   UNL d   1       1.806  -3.341  -2.968  0.00  0.00     0.217 HD
ENDBRANCH  17  23
ENDBRANCH  14  16
ENDBRANCH  11  13
ENDBRANCH   9  11
ENDBRANCH   7   9
ENDBRANCH   2   7
BRANCH   1  25
ATOM     25  C   UNL d   1       2.794  -0.152   0.554  0.00  0.00     0.272 C 
ATOM     26  N   UNL d   1       3.283   0.936   1.280  0.00  0.00    -0.266 N 
ATOM     27  H   UNL d   1       2.682   1.700   1.574  0.00  0.00     0.190 HD
ATOM     28  O   UNL d   1       3.477  -1.135   0.262  0.00  0.00    -0.266 OA
BRANCH  26  29
ATOM     29  N   UNL d   1       4.543   0.867   1.779  0.00  0.00    -0.308 N 
ATOM     30  C   UNL d   1       4.956   1.814   2.555  0.00  0.00     0.121 C 
ATOM     31  HN  UNL d   1       5.152   0.083   1.546  1.00  0.00     0.186 HD
BRANCH  30  32
ATOM     32  C   UNL d   1       6.317   1.725   3.129  0.00  0.00     0.015 A 
ATOM     33  C   UNL d   1       7.132   0.607   2.891  0.00  0.00     0.077 A 
ATOM     34  C   UNL d   1       8.421   0.547   3.415  0.00  0.00     0.039 A 
ATOM     35  C   UNL d   1       8.907   1.602   4.184  0.00  0.00     0.022 A 
ATOM     36  C   UNL d   1       8.093   2.708   4.433  0.00  0.00     0.011 A 
ATOM     37  C   UNL d   1       6.796   2.777   3.914  0.00  0.00     0.034 A 
ATOM     38 BR   UNL d   1       8.765   4.133   5.480  0.00  0.00    -0.051 Br
BRANCH  33  39
ATOM     39  O   UNL d   1       6.739  -0.477   2.154  0.00  0.00    -0.360 OA
ATOM     40  H   UNL d   1       5.826  -0.317   1.815  0.00  0.00     0.217 HD
ENDBRANCH  33  39
ENDBRANCH  30  32
ENDBRANCH  26  29
ENDBRANCH   1  25
TORSDOF 10
