REMARK  6 active torsions:
REMARK  status: ('A' for Active; 'I' for Inactive)
REMARK    1  A    between atoms: C_2  and  S_1 
REMARK    2  A    between atoms: C_12  and  S_1 
REMARK    3  A    between atoms: N_13  and  C_3 
REMARK    4  A    between atoms: C_15  and  C_9 
REMARK    5  A    between atoms: O_14  and  C_15 
REMARK    6  A    between atoms: C_16  and  O_14 
ROOT
ATOM      1  C   UNL d   1       0.529  -0.881  -1.442  0.00  0.00     0.117 A 
ATOM      2  C   UNL d   1       0.724  -2.223  -1.666  0.00  0.00     0.102 A 
ATOM      3  N   UNL d   1       0.278  -2.824  -2.784  0.00  0.00    -0.334 N 
ATOM      4  HN  UNL d   1       0.445  -3.816  -2.949  1.00  0.00     0.168 HD
ATOM      5  C   UNL d   1      -0.175  -0.187  -2.397  0.00  0.00     0.116 A 
ATOM      6  N   UNL d   1      -0.645  -0.755  -3.525  0.00  0.00    -0.352 N 
ATOM      7  HN  UNL d   1      -1.160  -0.218  -4.223  1.00  0.00     0.166 HD
ATOM      8  C   UNL d   1      -0.398  -2.071  -3.681  0.00  0.00     0.107 A 
ENDROOT
BRANCH   1   9
ATOM      9  S   UNL d   1       1.006  -0.088   0.035  0.00  0.00     0.211 S 
ATOM     10  O   UNL d   1       0.892  -1.057   1.114  0.00  0.00    -0.217 OA
ATOM     11  O   UNL d   1       0.246   1.148   0.118  0.00  0.00    -0.217 OA
BRANCH   9  12
ATOM     12  C   UNL d   1       2.716   0.373  -0.111  0.00  0.00     0.064 A 
ATOM     13  C   UNL d   1       3.046   1.635  -0.616  0.00  0.00     0.024 A 
ATOM     14  C   UNL d   1       4.383   2.030  -0.662  0.00  0.00     0.002 A 
ATOM     15  C   UNL d   1       5.381   1.173  -0.196  0.00  0.00     0.000 A 
ATOM     16  C   UNL d   1       5.046  -0.082   0.315  0.00  0.00     0.002 A 
ATOM     17  C   UNL d   1       3.712  -0.485   0.364  0.00  0.00     0.024 A 
ENDBRANCH   9  12
ENDBRANCH   1   9
BRANCH   2  18
ATOM     18  N   UNL d   1       1.430  -3.057  -0.807  0.00  0.00    -0.287 NA
ATOM     19  H   UNL d   1       1.097  -2.989   0.157  0.00  0.00     0.125 HD
ATOM     20  H   UNL d   1       1.365  -4.008  -1.164  0.00  0.00     0.125 HD
ENDBRANCH   2  18
BRANCH   8  21
ATOM     21  C   UNL d   1      -0.968  -2.764  -4.901  0.00  0.00     0.252 C 
BRANCH  21  22
ATOM     22  O   UNL d   1      -0.048  -2.695  -5.993  0.00  0.00    -0.344 OA
BRANCH  22  23
ATOM     23  C   UNL d   1      -0.449  -3.274  -7.167  0.00  0.00     0.069 A 
ATOM     24  C   UNL d   1      -1.640  -3.973  -7.376  0.00  0.00     0.037 A 
ATOM     25  C   UNL d   1      -1.927  -4.519  -8.631  0.00  0.00     0.003 A 
ATOM     26  C   UNL d   1      -1.026  -4.369  -9.684  0.00  0.00     0.000 A 
ATOM     27  C   UNL d   1       0.164  -3.675  -9.482  0.00  0.00     0.003 A 
ATOM     28  C   UNL d   1       0.450  -3.131  -8.228  0.00  0.00     0.037 A 
ENDBRANCH  22  23
ENDBRANCH  21  22
ENDBRANCH   8  21
TORSDOF 6
