REMARK  5 active torsions:
REMARK  status: ('A' for Active; 'I' for Inactive)
REMARK    1  A    between atoms: C_8  and  C_3 
REMARK    2  A    between atoms: C_12  and  C_4 
REMARK    3  A    between atoms: C_9  and  C_17 
REMARK    4  A    between atoms: O_16  and  C_13 
REMARK    5  A    between atoms: C_17  and  O_16 
ROOT
ATOM      1  N   UNL d   1       0.789   0.029   0.803  0.00  0.00    -0.318 N 
ATOM      2  HN  UNL d   1       1.368   0.061   1.642  1.00  0.00     0.169 HD
ATOM      3  C   UNL d   1       0.585  -0.980  -0.015  0.00  0.00     0.183 A 
ATOM      4  C   UNL d   1       0.025   1.032   0.246  0.00  0.00     0.138 A 
ATOM      5  N   UNL d   1      -0.630   0.660  -0.867  0.00  0.00    -0.242 N 
ATOM      6  HN  UNL d   1      -1.254   1.221  -1.447  1.00  0.00     0.196 HD
ATOM      7  O   UNL d   1      -0.259  -0.671  -1.041  0.00  0.00    -0.217 OA
ENDROOT
BRANCH   3   8
ATOM      8  C   UNL d   1       1.123  -2.327   0.028  0.00  0.00     0.033 A 
ATOM      9  C   UNL d   1       0.855  -3.280  -0.947  0.00  0.00     0.106 A 
ATOM     10  N   UNL d   1       1.359  -4.540  -0.944  0.00  0.00    -0.346 N 
ATOM     11  C   UNL d   1       2.169  -4.889   0.074  0.00  0.00     0.142 A 
ATOM     12  HN  UNL d   1       1.132  -5.200  -1.688  1.00  0.00     0.167 HD
ATOM     13  C   UNL d   1       2.499  -4.012   1.096  0.00  0.00     0.057 A 
ATOM     14  C   UNL d   1       1.967  -2.721   1.069  0.00  0.00     0.021 A 
BRANCH  11  15
ATOM     15  O   UNL d   1       2.678  -6.148  -0.055  0.00  0.00    -0.327 OA
BRANCH  15  16
ATOM     16  C   UNL d   1       2.911  -6.854   1.167  0.00  0.00     0.294 C 
BRANCH  16  17
ATOM     17  C   UNL d   1       3.345  -8.293   0.903  0.00  0.00     0.408 C 
ATOM     18  F   UNL d   1       3.431  -8.595  -0.409  0.00  0.00    -0.169 F 
ATOM     19  F   UNL d   1       4.563  -8.527   1.451  0.00  0.00    -0.169 F 
ATOM     20  F   UNL d   1       2.482  -9.169   1.469  0.00  0.00    -0.169 F 
ENDBRANCH  16  17
ENDBRANCH  15  16
ENDBRANCH  11  15
ENDBRANCH   3   8
BRANCH   4  21
ATOM     21  C   UNL d   1      -0.044   2.369   0.827  0.00  0.00     0.010 A 
ATOM     22  C   UNL d   1       0.702   2.680   1.975  0.00  0.00     0.017 A 
ATOM     23  C   UNL d   1       0.649   3.961   2.535  0.00  0.00     0.025 A 
ATOM     24  C   UNL d   1      -0.150   4.940   1.950  0.00  0.00     0.034 A 
ATOM     25  C   UNL d   1      -0.900   4.649   0.813  0.00  0.00     0.025 A 
ATOM     26 CL   UNL d   1      -0.212   6.516   2.636  0.00  0.00    -0.084 Cl
ATOM     27  C   UNL d   1      -0.846   3.368   0.253  0.00  0.00     0.017 A 
ENDBRANCH   4  21
TORSDOF 5
