REMARK  9 active torsions:
REMARK  status: ('A' for Active; 'I' for Inactive)
REMARK    1  A    between atoms: N_3  and  C_1 
REMARK    2  A    between atoms: N_6  and  C_1 
REMARK    3  A    between atoms: C_2  and  C_5 
REMARK    4  A    between atoms: C_4  and  N_3 
REMARK    5  A    between atoms: C_16  and  C_4 
REMARK    6  A    between atoms: C_11  and  N_6 
REMARK    7  A    between atoms: O_15  and  C_16 
REMARK    8  A    between atoms: C_17  and  O_15 
REMARK    9  A    between atoms: O_23  and  C_18 
ROOT
ATOM      1  N   UNL d   1       0.569   0.924   0.957  0.00  0.00    -0.321 N 
ATOM      2  H   UNL d   1      -0.353   1.216   0.657  0.00  0.00     0.169 HD
ENDROOT
BRANCH   1   3
ATOM      3  C   UNL d   1       1.012  -0.239   0.360  0.00  0.00     0.177 C 
ATOM      4  S   UNL d   1       2.040  -1.360   1.060  0.00  0.00    -0.040 SA
BRANCH   3   5
ATOM      5  N   UNL d   1       0.516  -0.546  -0.875  0.00  0.00    -0.333 N 
ATOM      6  H   UNL d   1       0.698  -1.513  -1.133  0.00  0.00     0.168 HD
BRANCH   5   7
ATOM      7  C   UNL d   1       0.050   0.272  -1.925  0.00  0.00     0.035 A 
ATOM      8  C   UNL d   1       0.117   1.668  -1.925  0.00  0.00     0.045 A 
ATOM      9  C   UNL d   1      -0.314   2.410  -3.038  0.00  0.00     0.050 A 
ATOM     10  C   UNL d   1      -0.791   1.733  -4.170  0.00  0.00     0.016 A 
ATOM     11  C   UNL d   1      -0.839   0.341  -4.187  0.00  0.00     0.003 A 
ATOM     12  C   UNL d   1      -0.421  -0.384  -3.070  0.00  0.00     0.029 A 
BRANCH   9  13
ATOM     13  C   UNL d   1      -0.248   3.918  -3.036  0.00  0.00     0.417 C 
ATOM     14  F   UNL d   1       0.207   4.443  -1.865  0.00  0.00    -0.166 F 
ATOM     15  F   UNL d   1       0.570   4.405  -4.010  0.00  0.00    -0.166 F 
ATOM     16  F   UNL d   1      -1.467   4.488  -3.249  0.00  0.00    -0.166 F 
ENDBRANCH   9  13
ENDBRANCH   5   7
ENDBRANCH   3   5
ENDBRANCH   1   3
BRANCH   1  17
ATOM     17  C   UNL d   1       1.100   1.645   2.013  0.00  0.00     0.101 C 
ATOM     18  N   UNL d   1       2.336   1.559   2.370  0.00  0.00    -0.387 N 
ATOM     19  H   UNL d   1       2.821   0.888   1.764  0.00  0.00     0.157 HD
ATOM     20  HN  UNL d   1       2.765   2.078   3.136  1.00  0.00     0.157 HD
BRANCH  17  21
ATOM     21  C   UNL d   1       0.140   2.565   2.752  0.00  0.00     0.251 C 
BRANCH  21  22
ATOM     22  O   UNL d   1      -0.234   3.656   1.921  0.00  0.00    -0.344 OA
BRANCH  22  23
ATOM     23  C   UNL d   1      -0.955   4.649   2.536  0.00  0.00     0.069 A 
ATOM     24  C   UNL d   1      -1.520   4.581   3.812  0.00  0.00     0.039 A 
ATOM     25  C   UNL d   1      -2.256   5.659   4.327  0.00  0.00     0.039 A 
ATOM     26  C   UNL d   1      -2.437   6.814   3.569  0.00  0.00     0.068 A 
ATOM     27  C   UNL d   1      -1.863   6.886   2.298  0.00  0.00     0.039 A 
ATOM     28  C   UNL d   1      -1.130   5.810   1.783  0.00  0.00     0.039 A 
BRANCH  26  29
ATOM     29  O   UNL d   1      -3.139   7.923   3.949  0.00  0.00    -0.356 OA
ATOM     30  C   UNL d   1      -3.800   7.869   5.208  0.00  0.00     0.210 C 
ENDBRANCH  26  29
ENDBRANCH  22  23
ENDBRANCH  21  22
ENDBRANCH  17  21
ENDBRANCH   1  17
TORSDOF 9
