REMARK  8 active torsions:
REMARK  status: ('A' for Active; 'I' for Inactive)
REMARK    1  A    between atoms: N_2  and  C_1 
REMARK    2  A    between atoms: C_3  and  C_1 
REMARK    3  A    between atoms: C_5  and  C_1 
REMARK    4  A    between atoms: N_6  and  C_1 
REMARK       I    between atoms: C_4  and  N_2 
REMARK    5  A    between atoms: C_7  and  C_4 
REMARK    6  A    between atoms: O_18  and  C_5 
REMARK    7  A    between atoms: C_17  and  N_6 
REMARK    8  A    between atoms: C_25  and  O_18 
ROOT
ATOM      1  C   UNL d   1       0.824  -0.021   0.088  0.00  0.00     0.297 C 
ENDROOT
BRANCH   1   2
ATOM      2  N   UNL d   1       0.456   0.311   1.455  0.00  0.00    -0.313 N 
ATOM      3  C   UNL d   1      -0.845   0.379   1.867  0.00  0.00     0.277 C 
ATOM      4  O   UNL d   1      -1.772   0.143   1.095  0.00  0.00    -0.265 OA
ATOM      5  H   UNL d   1       1.201   0.470   2.118  0.00  0.00     0.166 HD
BRANCH   3   6
ATOM      6  C   UNL d   1      -1.018   0.762   3.249  0.00  0.00     0.142 A 
ATOM      7  O   UNL d   1       0.068   1.190   3.970  0.00  0.00    -0.317 OA
ATOM      8  C   UNL d   1      -0.381   1.530   5.205  0.00  0.00     0.143 A 
ATOM      9  C   UNL d   1      -1.736   1.315   5.303  0.00  0.00     0.027 A 
ATOM     10  C   UNL d   1      -2.147   0.817   4.044  0.00  0.00     0.045 A 
ENDBRANCH   3   6
ENDBRANCH   1   2
BRANCH   1  11
ATOM     11  C   UNL d   1       0.087   0.744  -1.074  0.00  0.00     0.442 C 
ATOM     12  F   UNL d   1      -0.539   1.868  -0.638  0.00  0.00    -0.166 F 
ATOM     13  F   UNL d   1       0.971   1.160  -2.025  0.00  0.00    -0.166 F 
ATOM     14  F   UNL d   1      -0.837   0.002  -1.727  0.00  0.00    -0.166 F 
ENDBRANCH   1  11
BRANCH   1  15
ATOM     15  C   UNL d   1       0.512  -1.527  -0.151  0.00  0.00     0.318 C 
ATOM     16  O   UNL d   1      -0.056  -2.276   0.642  0.00  0.00    -0.260 OA
BRANCH  15  17
ATOM     17  O   UNL d   1       1.016  -1.950  -1.355  0.00  0.00    -0.318 OA
BRANCH  17  18
ATOM     18  C   UNL d   1       0.648  -3.292  -1.724  0.00  0.00     0.174 C 
ATOM     19  C   UNL d   1       1.588  -4.296  -1.082  0.00  0.00     0.034 C 
ENDBRANCH  17  18
ENDBRANCH  15  17
ENDBRANCH   1  15
BRANCH   1  20
ATOM     20  N   UNL d   1       2.319   0.141   0.110  0.00  0.00    -0.348 N 
ATOM     21  H   UNL d   1       2.751  -0.439  -0.618  0.00  0.00     0.163 HD
BRANCH  20  22
ATOM     22  C   UNL d   1       2.961   1.379   0.198  0.00  0.00     0.030 A 
ATOM     23  C   UNL d   1       2.329   2.575   0.562  0.00  0.00     0.031 A 
ATOM     24  C   UNL d   1       3.051   3.764   0.720  0.00  0.00     0.026 A 
ATOM     25  C   UNL d   1       4.429   3.767   0.548  0.00  0.00     0.034 A 
ATOM     26  C   UNL d   1       5.089   2.590   0.221  0.00  0.00     0.026 A 
ATOM     27 CL   UNL d   1       5.313   5.225   0.758  0.00  0.00    -0.084 Cl
ATOM     28  C   UNL d   1       4.359   1.406   0.057  0.00  0.00     0.031 A 
ENDBRANCH  20  22
ENDBRANCH   1  20
TORSDOF 8
