REMARK  9 active torsions:
REMARK  status: ('A' for Active; 'I' for Inactive)
REMARK    1  A    between atoms: N_5  and  C_1 
REMARK    2  A    between atoms: N_4  and  C_2 
REMARK    3  A    between atoms: O_20  and  C_3 
REMARK    4  A    between atoms: C_6  and  C_17 
REMARK    5  A    between atoms: C_7  and  C_6 
REMARK    6  A    between atoms: N_8  and  C_6 
REMARK    7  A    between atoms: O_21  and  C_7 
REMARK       I    between atoms: C_14  and  N_8 
REMARK    8  A    between atoms: C_17  and  C_9 
REMARK    9  A    between atoms: C_23  and  O_21 
ROOT
ATOM      1  C   UNL d   1       0.386   0.451   0.969  0.00  0.00     0.139 A 
ATOM      2  C   UNL d   1       0.164  -1.240  -0.713  0.00  0.00     0.139 A 
ATOM      3  C   UNL d   1       0.974  -0.570   0.214  0.00  0.00     0.132 A 
ATOM      4  C   UNL d   1      -1.798   0.045  -0.008  0.00  0.00    -0.051 A 
ATOM      5  C   UNL d   1      -0.988   0.744   0.894  0.00  0.00     0.046 A 
ATOM      6  C   UNL d   1      -1.202  -0.917  -0.840  0.00  0.00     0.046 A 
ENDROOT
BRANCH   4   7
ATOM      7  C   UNL d   1      -3.302   0.223  -0.036  0.00  0.00     0.074 C 
BRANCH   7   8
ATOM      8  C   UNL d   1      -3.841   1.641  -0.250  0.00  0.00     0.188 C 
BRANCH   8   9
ATOM      9  C   UNL d   1      -3.447   2.201  -1.623  0.00  0.00     0.282 C 
ATOM     10  O   UNL d   1      -2.296   2.385  -1.993  0.00  0.00    -0.263 OA
BRANCH   9  11
ATOM     11  O   UNL d   1      -4.561   2.546  -2.338  0.00  0.00    -0.320 OA
BRANCH  11  12
ATOM     12  C   UNL d   1      -4.361   3.566  -3.326  0.00  0.00     0.174 C 
ATOM     13  C   UNL d   1      -4.514   4.909  -2.632  0.00  0.00     0.034 C 
ENDBRANCH  11  12
ENDBRANCH   9  11
ENDBRANCH   8   9
BRANCH   8  14
ATOM     14  N   UNL d   1      -5.305   1.653  -0.086  0.00  0.00    -0.347 N 
ATOM     15  C   UNL d   1      -5.889   1.857   1.137  0.00  0.00     0.214 C 
ATOM     16  O   UNL d   1      -5.240   1.982   2.170  0.00  0.00    -0.274 OA
ATOM     17  C   UNL d   1      -7.392   1.924   1.118  0.00  0.00     0.117 C 
ATOM     18  H   UNL d   1      -5.864   1.741  -0.930  0.00  0.00     0.163 HD
ENDBRANCH   8  14
ENDBRANCH   7   8
ENDBRANCH   4   7
BRANCH   1  19
ATOM     19  N   UNL d   1       1.201   1.239   1.879  0.00  0.00    -0.113 N 
ATOM     20  O   UNL d   1       2.103   1.926   1.386  0.00  0.00    -0.532 OA
ATOM     21  O   UNL d   1       0.880   1.211   3.075  0.00  0.00    -0.532 OA
ENDBRANCH   1  19
BRANCH   2  22
ATOM     22  N   UNL d   1       0.697  -2.329  -1.540  0.00  0.00    -0.113 N 
ATOM     23  O   UNL d   1       1.856  -2.702  -1.313  0.00  0.00    -0.532 OA
ATOM     24  O   UNL d   1      -0.045  -2.824  -2.401  0.00  0.00    -0.532 OA
ENDBRANCH   2  22
BRANCH   3  25
ATOM     25  O   UNL d   1       2.283  -0.888   0.456  0.00  0.00    -0.356 OA
ATOM     26  H   UNL d   1       2.563  -1.667  -0.072  0.00  0.00     0.218 HD
ENDBRANCH   3  25
TORSDOF 9
