REMARK  1 active torsions:
REMARK  status: ('A' for Active; 'I' for Inactive)
REMARK    1  A    between atoms: C_8  and  N_1 
ROOT
ATOM      1  N   UNL d   1       2.390   0.719  -0.088  0.00  0.00    -0.268 N 
ATOM      2  C   UNL d   1       1.221   1.478   0.040  0.00  0.00     0.266 A 
ATOM      3  C   UNL d   1       2.344  -0.667  -0.082  0.00  0.00     0.087 A 
ATOM      4  C   UNL d   1      -0.048   0.723   0.023  0.00  0.00     0.059 A 
ATOM      5  N   UNL d   1       1.240  -1.347  -0.035  0.00  0.00    -0.345 N 
ATOM      6  HN  UNL d   1       1.261  -2.367  -0.022  1.00  0.00     0.167 HD
ATOM      7  C   UNL d   1       0.024  -0.665  -0.001  0.00  0.00     0.051 A 
ATOM      8  C   UNL d   1      -1.285   1.381   0.009  0.00  0.00     0.021 A 
ATOM      9  C   UNL d   1      -1.159  -1.408  -0.005  0.00  0.00     0.054 A 
ATOM     10  O   UNL d   1       1.171   2.705   0.138  0.00  0.00    -0.267 OA
ATOM     11  C   UNL d   1      -2.394  -0.761  -0.020  0.00  0.00     0.036 A 
ATOM     12  C   UNL d   1      -2.462   0.631  -0.022  0.00  0.00     0.025 A 
ATOM     13  C   UNL d   1       3.618  -1.491  -0.088  0.00  0.00     0.089 C 
ATOM     14 CL   UNL d   1      -3.843  -1.687  -0.050  0.00  0.00    -0.084 Cl
ENDROOT
BRANCH   1  15
ATOM     15  C   UNL d   1       3.627   1.419  -0.168  0.00  0.00     0.045 A 
ATOM     16  C   UNL d   1       4.455   1.267  -1.286  0.00  0.00     0.054 A 
ATOM     17  C   UNL d   1       5.721   1.857  -1.307  0.00  0.00     0.042 A 
ATOM     18 CL   UNL d   1       6.703   1.605  -2.706  0.00  0.00    -0.084 Cl
ATOM     19  C   UNL d   1       6.183   2.604  -0.212  0.00  0.00    -0.040 A 
ATOM     20  C   UNL d   1       5.322   2.800   0.878  0.00  0.00     0.011 A 
ATOM     21  C   UNL d   1       7.577   3.163  -0.162  0.00  0.00     0.050 C 
ATOM     22  C   UNL d   1       4.049   2.224   0.895  0.00  0.00     0.031 A 
ENDBRANCH   1  15
TORSDOF 1
