REMARK  2 active torsions:
REMARK  status: ('A' for Active; 'I' for Inactive)
REMARK    1  A    between atoms: C_6  and  C_2 
REMARK    2  A    between atoms: N_9  and  C_7 
ROOT
ATOM      1  N   UNL d   1      -1.645  -1.770  -0.408  0.00  0.00    -0.260 NA
ATOM      2  C   UNL d   1      -2.404  -0.577   0.024  0.00  0.00     0.239 A 
ATOM      3  O   UNL d   1      -1.534   0.569   0.240  0.00  0.00    -0.324 OA
ATOM      4  C   UNL d   1      -0.328  -1.280  -0.312  0.00  0.00     0.044 A 
ATOM      5  C   UNL d   1      -0.285   0.062   0.017  0.00  0.00     0.092 A 
ATOM      6  C   UNL d   1       0.836  -1.999  -0.504  0.00  0.00     0.033 A 
ATOM      7  C   UNL d   1       0.899   0.751   0.146  0.00  0.00     0.039 A 
ATOM      8  C   UNL d   1       2.066  -1.338  -0.359  0.00  0.00    -0.060 A 
ATOM      9  C   UNL d   1       2.087   0.040  -0.048  0.00  0.00     0.009 A 
ATOM     10  C   UNL d   1       3.357  -2.081  -0.540  0.00  0.00     0.048 C 
ATOM     11  H   UNL d   1      -1.764  -2.546   0.237  0.00  0.00     0.130 HD
ENDROOT
BRANCH   2  12
ATOM     12  C   UNL d   1      -3.207  -0.923   1.274  0.00  0.00    -0.015 A 
ATOM     13  C   UNL d   1      -2.682  -0.751   2.555  0.00  0.00     0.013 A 
ATOM     14  C   UNL d   1      -3.409  -1.155   3.683  0.00  0.00     0.030 A 
ATOM     15  C   UNL d   1      -4.672  -1.764   3.591  0.00  0.00     0.029 A 
ATOM     16  C   UNL d   1      -5.184  -1.918   2.295  0.00  0.00     0.030 A 
ATOM     17  C   UNL d   1      -4.469  -1.510   1.157  0.00  0.00     0.013 A 
BRANCH  15  18
ATOM     18  N   UNL d   1      -5.375  -2.130   4.734  0.00  0.00    -0.390 N 
ATOM     19  C   UNL d   1      -4.662  -2.670   5.894  0.00  0.00     0.149 C 
ATOM     20  C   UNL d   1      -6.793  -2.474   4.686  0.00  0.00     0.149 C 
ENDBRANCH  15  18
ENDBRANCH   2  12
TORSDOF 2
