REMARK  4 active torsions:
REMARK  status: ('A' for Active; 'I' for Inactive)
REMARK    1  A    between atoms: C_2  and  S_1 
REMARK    2  A    between atoms: N_7  and  S_1 
REMARK       I    between atoms: C_3  and  N_4 
REMARK    3  A    between atoms: C_13  and  C_3 
REMARK    4  A    between atoms: N_4  and  C_5 
ROOT
ATOM      1  C   UNL d   1       0.348   0.138  -1.690  0.00  0.00     0.081 A 
ATOM      2  C   UNL d   1      -0.142   1.427  -3.700  0.00  0.00     0.042 A 
ATOM      3  C   UNL d   1       0.194   1.367  -2.342  0.00  0.00     0.055 A 
ATOM      4  C   UNL d   1      -0.231   0.224  -4.431  0.00  0.00    -0.035 A 
ATOM      5  C   UNL d   1       0.150  -1.054  -2.384  0.00  0.00     0.026 A 
ATOM      6  C   UNL d   1      -0.138  -1.007  -3.748  0.00  0.00     0.010 A 
ATOM      7  C   UNL d   1      -0.448   0.178  -5.921  0.00  0.00     0.050 C 
ENDROOT
BRANCH   2   8
ATOM      8  N   UNL d   1      -0.355   2.668  -4.355  0.00  0.00    -0.322 N 
ATOM      9  C   UNL d   1      -0.570   3.892  -3.739  0.00  0.00     0.256 C 
ATOM     10  O   UNL d   1      -0.685   4.086  -2.532  0.00  0.00    -0.267 OA
ATOM     11  H   UNL d   1      -0.388   2.645  -5.364  0.00  0.00     0.169 HD
BRANCH   9  12
ATOM     12  C   UNL d   1      -0.670   5.075  -4.641  0.00  0.00     0.032 A 
ATOM     13  C   UNL d   1      -1.254   5.012  -5.912  0.00  0.00     0.017 A 
ATOM     14  C   UNL d   1      -1.306   6.159  -6.711  0.00  0.00     0.001 A 
ATOM     15  C   UNL d   1      -0.786   7.367  -6.243  0.00  0.00     0.000 A 
ATOM     16  C   UNL d   1      -0.228   7.440  -4.968  0.00  0.00     0.001 A 
ATOM     17  C   UNL d   1      -0.175   6.298  -4.167  0.00  0.00     0.017 A 
ENDBRANCH   9  12
ENDBRANCH   2   8
BRANCH   1  18
ATOM     18  S   UNL d   1       0.995   0.108  -0.030  0.00  0.00     0.260 S 
ATOM     19  O   UNL d   1       1.788   1.304   0.148  0.00  0.00    -0.200 OA
ATOM     20  O   UNL d   1       1.583  -1.200   0.171  0.00  0.00    -0.200 OA
BRANCH  18  21
ATOM     21  N   UNL d   1      -0.378   0.222   0.961  0.00  0.00    -0.315 N 
ATOM     22  C   UNL d   1      -1.112   1.499   0.937  0.00  0.00     0.162 C 
ATOM     23  C   UNL d   1      -1.237  -0.963   1.071  0.00  0.00     0.162 C 
ENDBRANCH  18  21
ENDBRANCH   1  18
TORSDOF 4
