REMARK  3 active torsions:
REMARK  status: ('A' for Active; 'I' for Inactive)
REMARK    1  A    between atoms: C_6  and  C_1 
REMARK    2  A    between atoms: C_7  and  C_3 
REMARK    3  A    between atoms: O_9  and  C_6 
ROOT
ATOM      1  C   UNL d   1      -1.570  -0.756  -0.003  0.00  0.00     0.069 A 
ATOM      2  C   UNL d   1      -0.236  -1.274  -0.009  0.00  0.00     0.054 A 
ATOM      3  C   UNL d   1       0.629  -0.198   0.004  0.00  0.00     0.062 A 
ATOM      4  C   UNL d   1      -1.415   0.623   0.012  0.00  0.00     0.066 A 
ATOM      5  O   UNL d   1      -0.093   0.957   0.016  0.00  0.00    -0.318 OA
ATOM      6  C   UNL d   1      -2.347   1.774   0.024  0.00  0.00     0.078 C 
ENDROOT
BRANCH   1   7
ATOM      7  C   UNL d   1      -2.848  -1.458  -0.011  0.00  0.00     0.178 C 
ATOM      8  O   UNL d   1      -3.937  -0.900  -0.011  0.00  0.00    -0.646 OA
BRANCH   7   9
ATOM      9  O   UNL d   1      -2.765  -2.813  -0.020  0.00  0.00    -0.773 OA
ATOM     10  H   UNL d   1      -1.854  -3.150  -0.017  0.00  0.00     0.167 HD
ENDBRANCH   7   9
ENDBRANCH   1   7
BRANCH   3  11
ATOM     11  C   UNL d   1       2.132  -0.057   0.006  0.00  0.00    -0.002 C 
ATOM     12  C   UNL d   1       2.809  -1.441  -0.015  0.00  0.00     0.021 C 
ATOM     13  C   UNL d   1       2.588   0.728  -1.237  0.00  0.00     0.021 C 
ATOM     14  C   UNL d   1       2.589   0.689   1.272  0.00  0.00     0.021 C 
ENDBRANCH   3  11
TORSDOF 3
