REMARK  3 active torsions:
REMARK  status: ('A' for Active; 'I' for Inactive)
REMARK    1  A    between atoms: C_9  and  C_1 
REMARK    2  A    between atoms: C_7  and  C_3 
REMARK    3  A    between atoms: O_19  and  C_9 
ROOT
ATOM      1  C   UNL d   1       2.837  -0.808   0.027  0.00  0.00     0.053 C 
ATOM      2  C   UNL d   1       0.295  -0.718   0.011  0.00  0.00     0.024 C 
ATOM      3  C   UNL d   1       1.526  -1.522   0.441  0.00  0.00     0.106 C 
ATOM      4  C   UNL d   1       0.378   0.613  -0.171  0.00  0.00     0.021 C 
ATOM      5  C   UNL d   1       2.827   0.537  -0.184  0.00  0.00     0.018 C 
ATOM      6  N   UNL d   1       1.616   1.224  -0.159  0.00  0.00    -0.362 N 
ATOM      7  C   UNL d   1      -1.008  -1.406  -0.182  0.00  0.00     0.159 C 
ATOM      8  C   UNL d   1      -0.822   1.511  -0.348  0.00  0.00     0.067 C 
ATOM      9  C   UNL d   1      -2.172   0.839  -0.016  0.00  0.00    -0.036 C 
ATOM     10  C   UNL d   1      -2.196  -0.568  -0.633  0.00  0.00     0.092 C 
ATOM     11  O   UNL d   1      -1.096  -2.627  -0.073  0.00  0.00    -0.293 OA
ATOM     12  C   UNL d   1       4.014   1.441  -0.415  0.00  0.00     0.069 C 
ATOM     13  C   UNL d   1      -3.304   1.700  -0.606  0.00  0.00     0.015 C 
ATOM     14  C   UNL d   1      -2.399   0.745   1.509  0.00  0.00     0.015 C 
ATOM     15  H   UNL d   1       1.645   2.225  -0.333  0.00  0.00     0.165 HD
ENDROOT
BRANCH   3  16
ATOM     16  C   UNL d   1       1.487  -1.806   1.966  0.00  0.00     0.002 A 
ATOM     17  C   UNL d   1       1.460  -3.009   2.667  0.00  0.00    -0.047 A 
ATOM     18  C   UNL d   1       1.417  -2.784   4.088  0.00  0.00     0.015 A 
ATOM     19  C   UNL d   1       1.476  -4.393   2.104  0.00  0.00     0.049 C 
ATOM     20  C   UNL d   1       1.422  -1.455   4.425  0.00  0.00     0.051 A 
ATOM     21  S   UNL d   1       1.485  -0.457   3.056  0.00  0.00    -0.105 SA
ENDBRANCH   3  16
BRANCH   1  22
ATOM     22  C   UNL d   1       4.015  -1.723  -0.059  0.00  0.00     0.291 C 
ATOM     23  O   UNL d   1       4.051  -2.827   0.470  0.00  0.00    -0.260 OA
BRANCH  22  24
ATOM     24  O   UNL d   1       4.970  -1.233  -0.880  0.00  0.00    -0.323 OA
ATOM     25  C   UNL d   1       6.118  -2.073  -1.037  0.00  0.00     0.213 C 
ENDBRANCH  22  24
ENDBRANCH   1  22
TORSDOF 3
