REMARK  2 active torsions:
REMARK  status: ('A' for Active; 'I' for Inactive)
REMARK    1  A    between atoms: C_2  and  C_1 
REMARK       I    between atoms: N_7  and  C_2 
REMARK    2  A    between atoms: N_10  and  N_7 
ROOT
ATOM      1  C   UNL d   1       2.307   1.336   0.018  0.00  0.00     0.050 A 
ATOM      2  N   UNL d   1       2.422  -1.092  -0.040  0.00  0.00    -0.373 N 
ATOM      3  HN  UNL d   1       2.974  -1.950  -0.060  1.00  0.00     0.164 HD
ATOM      4  C   UNL d   1       0.910   1.272   0.010  0.00  0.00     0.039 A 
ATOM      5  C   UNL d   1       3.009   0.133  -0.009  0.00  0.00     0.104 A 
ATOM      6  C   UNL d   1       0.287   0.025  -0.021  0.00  0.00     0.027 A 
ATOM      7 BR   UNL d   1      -1.595  -0.101  -0.024  0.00  0.00    -0.050 Br
ATOM      8  C   UNL d   1       1.070  -1.118  -0.044  0.00  0.00     0.106 A 
ENDROOT
BRANCH   1   9
ATOM      9  C   UNL d   1       3.092   2.597   0.083  0.00  0.00     0.267 C 
ATOM     10  O   UNL d   1       4.315   2.558   0.188  0.00  0.00    -0.266 OA
ATOM     11  N   UNL d   1       2.393   3.800   0.028  0.00  0.00    -0.290 N 
ATOM     12  H   UNL d   1       1.407   3.848  -0.209  0.00  0.00     0.183 HD
BRANCH  11  13
ATOM     13  N   UNL d   1       3.120   5.011   0.046  0.00  0.00    -0.247 NA
ATOM     14  H   UNL d   1       4.111   4.764  -0.097  0.00  0.00     0.143 HD
ATOM     15  H   UNL d   1       3.101   5.377   1.002  0.00  0.00     0.143 HD
ENDBRANCH  11  13
ENDBRANCH   1   9
TORSDOF 2
