REMARK  4 active torsions:
REMARK  status: ('A' for Active; 'I' for Inactive)
REMARK    1  A    between atoms: S_8  and  C_1 
REMARK    2  A    between atoms: C_2  and  C_10 
REMARK       I    between atoms: N_7  and  C_2 
REMARK    3  A    between atoms: C_11  and  N_7 
REMARK    4  A    between atoms: C_10  and  S_8 
ROOT
ATOM      1  C   UNL d   1      -1.396   5.160   0.181  0.00  0.00     0.231 C 
ATOM      2  N   UNL d   1      -0.161   5.749  -0.049  0.00  0.00    -0.327 N 
ATOM      3  O   UNL d   1      -2.446   5.772   0.369  0.00  0.00    -0.272 OA
ATOM      4  H   UNL d   1       0.587   5.123  -0.327  0.00  0.00     0.169 HD
ENDROOT
BRANCH   1   5
ATOM      5  C   UNL d   1      -1.412   3.640   0.074  0.00  0.00     0.185 C 
BRANCH   5   6
ATOM      6  S   UNL d   1       0.081   2.837   0.735  0.00  0.00    -0.085 SA
BRANCH   6   7
ATOM      7  C   UNL d   1       0.106   3.566   2.355  0.00  0.00     0.144 A 
ATOM      8  N   UNL d   1      -1.063   3.888   2.930  0.00  0.00    -0.347 N 
ATOM      9  C   UNL d   1      -0.989   4.552   4.098  0.00  0.00     0.091 A 
ATOM     10  HN  UNL d   1      -1.957   3.643   2.505  1.00  0.00     0.167 HD
ATOM     11  C   UNL d   1       0.197   4.881   4.708  0.00  0.00     0.034 A 
ATOM     12  C   UNL d   1       1.333   4.481   4.047  0.00  0.00     0.091 A 
ATOM     13  N   UNL d   1       1.318   3.830   2.869  0.00  0.00    -0.347 N 
ATOM     14  HN  UNL d   1       2.177   3.554   2.394  1.00  0.00     0.167 HD
ENDBRANCH   6   7
ENDBRANCH   5   6
ENDBRANCH   1   5
BRANCH   2  15
ATOM     15  C   UNL d   1       0.180   7.105   0.125  0.00  0.00     0.034 A 
ATOM     16  C   UNL d   1      -0.674   8.050   0.701  0.00  0.00     0.031 A 
ATOM     17  C   UNL d   1      -0.256   9.373   0.882  0.00  0.00     0.026 A 
ATOM     18  C   UNL d   1       1.019   9.759   0.480  0.00  0.00     0.034 A 
ATOM     19  C   UNL d   1       1.880   8.831  -0.099  0.00  0.00     0.026 A 
ATOM     20 CL   UNL d   1       1.533  11.384   0.708  0.00  0.00    -0.084 Cl
ATOM     21  C   UNL d   1       1.464   7.506  -0.268  0.00  0.00     0.031 A 
ENDBRANCH   2  15
TORSDOF 4
