REMARK  4 active torsions:
REMARK  status: ('A' for Active; 'I' for Inactive)
REMARK    1  A    between atoms: C_2  and  S_1 
REMARK    2  A    between atoms: C_6  and  S_1 
REMARK    3  A    between atoms: N_9  and  C_3 
REMARK    4  A    between atoms: C_10  and  N_9 
ROOT
ATOM      1  C   UNL d   1       0.418  -0.381   1.582  0.00  0.00     0.159 C 
ATOM      2  C   UNL d   1      -0.376   0.489   2.225  0.00  0.00     0.123 C 
ATOM      3  C   UNL d   1       0.902  -0.140   0.280  0.00  0.00     0.113 C 
ATOM      4  N   UNL d   1       1.294   0.078  -0.787  0.00  0.00    -0.191 NA
ENDROOT
BRANCH   1   5
ATOM      5  S   UNL d   1       0.788  -1.909   2.320  0.00  0.00     0.218 S 
ATOM      6  O   UNL d   1      -0.143  -2.912   1.834  0.00  0.00    -0.216 OA
ATOM      7  O   UNL d   1       0.972  -1.735   3.751  0.00  0.00    -0.216 OA
BRANCH   5   8
ATOM      8  C   UNL d   1       2.398  -2.359   1.663  0.00  0.00     0.065 A 
ATOM      9  C   UNL d   1       3.557  -2.023   2.373  0.00  0.00     0.025 A 
ATOM     10  C   UNL d   1       4.808  -2.371   1.852  0.00  0.00     0.025 A 
ATOM     11  C   UNL d   1       4.894  -3.059   0.641  0.00  0.00     0.034 A 
ATOM     12  C   UNL d   1       3.738  -3.408  -0.058  0.00  0.00     0.025 A 
ATOM     13 CL   UNL d   1       6.437  -3.475   0.002  0.00  0.00    -0.084 Cl
ATOM     14  C   UNL d   1       2.483  -3.070   0.458  0.00  0.00     0.025 A 
ENDBRANCH   5   8
ENDBRANCH   1   5
BRANCH   2  15
ATOM     15  N   UNL d   1      -0.855   1.711   1.790  0.00  0.00    -0.364 N 
ATOM     16  H   UNL d   1      -0.665   1.990   0.830  0.00  0.00     0.165 HD
BRANCH  15  17
ATOM     17  C   UNL d   1      -1.659   2.606   2.518  0.00  0.00     0.032 A 
ATOM     18  C   UNL d   1      -1.599   2.683   3.914  0.00  0.00     0.036 A 
ATOM     19  C   UNL d   1      -2.467   3.505   4.642  0.00  0.00    -0.059 A 
ATOM     20  C   UNL d   1      -2.366   3.572   6.136  0.00  0.00     0.048 C 
ATOM     21  C   UNL d   1      -3.434   4.248   3.958  0.00  0.00     0.013 A 
ATOM     22  C   UNL d   1      -3.527   4.186   2.562  0.00  0.00    -0.059 A 
ATOM     23  C   UNL d   1      -2.629   3.372   1.852  0.00  0.00     0.036 A 
ATOM     24  C   UNL d   1      -4.595   4.968   1.852  0.00  0.00     0.048 C 
ENDBRANCH  15  17
ENDBRANCH   2  15
TORSDOF 4
