REMARK  4 active torsions:
REMARK  status: ('A' for Active; 'I' for Inactive)
REMARK    1  A    between atoms: C_3  and  C_7 
REMARK    2  A    between atoms: N_6  and  C_7 
REMARK    3  A    between atoms: C_12  and  N_6 
REMARK    4  A    between atoms: C_14  and  C_12 
ROOT
ATOM      1  N   UNL d   1       4.286  -0.002  -2.697  0.00  0.00    -0.195 NA
ATOM      2  C   UNL d   1       4.091  -0.009  -1.551  0.00  0.00     0.100 C 
ATOM      3  C   UNL d   1       3.854  -0.051  -0.080  0.00  0.00     0.359 C 
ENDROOT
BRANCH   3   4
ATOM      4  C   UNL d   1       2.360   0.111   0.207  0.00  0.00    -0.010 A 
ATOM      5  C   UNL d   1       1.882   1.229   0.913  0.00  0.00     0.036 A 
ATOM      6  C   UNL d   1       0.507   1.420   1.111  0.00  0.00     0.056 A 
ATOM      7 CL   UNL d   1       0.007   2.842   1.956  0.00  0.00    -0.083 Cl
ATOM      8  C   UNL d   1      -0.407   0.487   0.613  0.00  0.00     0.055 A 
ATOM      9  C   UNL d   1       0.056  -0.637  -0.072  0.00  0.00     0.026 A 
ATOM     10 CL   UNL d   1      -2.116   0.668   0.796  0.00  0.00    -0.083 Cl
ATOM     11  C   UNL d   1       1.426  -0.825  -0.272  0.00  0.00     0.012 A 
ENDBRANCH   3   4
BRANCH   3  12
ATOM     12  N   UNL d   1       4.367  -1.268   0.584  0.00  0.00     0.110 N 
ATOM     13  H   UNL d   1       3.903  -2.091   0.202  0.00  0.00     0.318 HD
BRANCH  12  14
ATOM     14  C   UNL d   1       5.813  -1.433   0.414  0.00  0.00     0.310 C 
BRANCH  14  15
ATOM     15  C   UNL d   1       6.303  -2.690   1.095  0.00  0.00    -0.030 A 
ATOM     16  C   UNL d   1       6.870  -3.736   0.350  0.00  0.00     0.009 A 
ATOM     17  C   UNL d   1       7.350  -4.882   0.988  0.00  0.00     0.001 A 
ATOM     18  C   UNL d   1       7.267  -4.998   2.374  0.00  0.00     0.000 A 
ATOM     19  C   UNL d   1       6.699  -3.970   3.124  0.00  0.00     0.001 A 
ATOM     20  C   UNL d   1       6.220  -2.823   2.489  0.00  0.00     0.009 A 
ENDBRANCH  14  15
ENDBRANCH  12  14
ENDBRANCH   3  12
TORSDOF 4
