REMARK  4 active torsions:
REMARK  status: ('A' for Active; 'I' for Inactive)
REMARK    1  A    between atoms: C_19  and  N_3 
REMARK    2  A    between atoms: C_9  and  C_4 
REMARK    3  A    between atoms: C_7  and  N_12 
REMARK       I    between atoms: N_12  and  C_9 
REMARK    4  A    between atoms: C_16  and  C_13 
ROOT
ATOM      1  C   UNL d   1      -2.453  -0.155  -0.069  0.00  0.00     0.277 C 
ATOM      2  N   UNL d   1      -3.164   0.974   0.261  0.00  0.00    -0.302 N 
ATOM      3  O   UNL d   1      -2.914  -1.269  -0.283  0.00  0.00    -0.266 OA
ATOM      4  H   UNL d   1      -2.658   1.832   0.434  0.00  0.00     0.171 HD
ENDROOT
BRANCH   1   5
ATOM      5  C   UNL d   1      -1.004   0.084  -0.139  0.00  0.00     0.141 A 
ATOM      6  N   UNL d   1      -0.427   1.282   0.102  0.00  0.00    -0.272 N 
ATOM      7  N   UNL d   1       0.902   1.001  -0.064  0.00  0.00    -0.196 N 
ATOM      8  HN  UNL d   1      -0.869   2.168   0.345  1.00  0.00     0.189 HD
ATOM      9  N   UNL d   1       1.200  -0.276  -0.413  0.00  0.00    -0.281 N 
ATOM     10  C   UNL d   1       0.002  -0.863  -0.442  0.00  0.00     0.057 A 
ATOM     11  HN  UNL d   1       2.113  -0.685  -0.607  1.00  0.00     0.189 HD
ATOM     12  C   UNL d   1      -0.121  -2.311  -0.733  0.00  0.00     0.072 C 
BRANCH   7  13
ATOM     13  C   UNL d   1       1.931   1.959   0.143  0.00  0.00     0.074 A 
ATOM     14  C   UNL d   1       1.629   3.256   0.577  0.00  0.00     0.033 A 
ATOM     15  C   UNL d   1       2.663   4.170   0.804  0.00  0.00     0.002 A 
ATOM     16  C   UNL d   1       3.992   3.799   0.594  0.00  0.00     0.000 A 
ATOM     17  C   UNL d   1       4.296   2.513   0.152  0.00  0.00     0.002 A 
ATOM     18  C   UNL d   1       3.271   1.593  -0.072  0.00  0.00     0.033 A 
ENDBRANCH   7  13
ENDBRANCH   1   5
BRANCH   2  19
ATOM     19  C   UNL d   1      -4.522   0.956   0.396  0.00  0.00     0.151 A 
ATOM     20  N   UNL d   1      -5.352  -0.036   0.207  0.00  0.00    -0.335 N 
ATOM     21  C   UNL d   1      -6.652   0.368   0.465  0.00  0.00     0.051 A 
ATOM     22  HN  UNL d   1      -5.081  -0.974  -0.088  1.00  0.00     0.168 HD
ATOM     23  C   UNL d   1      -6.767   1.685   0.871  0.00  0.00     0.083 A 
ATOM     24  S   UNL d   1      -5.216   2.433   0.888  0.00  0.00    -0.063 SA
BRANCH  21  25
ATOM     25  C   UNL d   1      -7.764  -0.573   0.330  0.00  0.00    -0.006 A 
ATOM     26  C   UNL d   1      -7.493  -1.951   0.299  0.00  0.00     0.059 A 
ATOM     27  C   UNL d   1      -8.532  -2.871   0.172  0.00  0.00     0.155 A 
ATOM     28  F   UNL d   1      -8.254  -4.181   0.153  0.00  0.00    -0.203 F 
ATOM     29  C   UNL d   1      -9.846  -2.437   0.066  0.00  0.00     0.154 A 
ATOM     30  C   UNL d   1     -10.138  -1.078   0.083  0.00  0.00     0.046 A 
ATOM     31  F   UNL d   1     -10.845  -3.321  -0.057  0.00  0.00    -0.203 F 
ATOM     32  C   UNL d   1      -9.100  -0.147   0.214  0.00  0.00     0.017 A 
ENDBRANCH  21  25
ENDBRANCH   2  19
TORSDOF 4
