REMARK  7 active torsions:
REMARK  status: ('A' for Active; 'I' for Inactive)
REMARK    1  A    between atoms: N_2  and  C_1 
REMARK    2  A    between atoms: S_9  and  C_3 
REMARK    3  A    between atoms: C_11  and  C_4 
REMARK       I    between atoms: C_8  and  N_10 
REMARK    4  A    between atoms: C_19  and  C_8 
REMARK    5  A    between atoms: C_13  and  S_9 
REMARK    6  A    between atoms: N_10  and  C_12 
REMARK    7  A    between atoms: O_20  and  C_11 
ROOT
ATOM      1  C   UNL d   1      -4.159   2.947   1.723  0.00  0.00     0.137 A 
ATOM      2  C   UNL d   1      -3.312   2.966   0.615  0.00  0.00     0.108 A 
ATOM      3  C   UNL d   1      -6.049   3.384   0.299  0.00  0.00     0.057 A 
ATOM      4  C   UNL d   1      -5.536   3.155   1.582  0.00  0.00     0.058 A 
ATOM      5  N   UNL d   1      -3.807   3.207  -0.623  0.00  0.00    -0.357 N 
ATOM      6  HN  UNL d   1      -3.192   3.233  -1.436  1.00  0.00     0.166 HD
ATOM      7  C   UNL d   1      -5.147   3.413  -0.755  0.00  0.00     0.106 A 
ENDROOT
BRANCH   2   8
ATOM      8  S   UNL d   1      -1.603   2.474   0.627  0.00  0.00    -0.068 SA
BRANCH   8   9
ATOM      9  C   UNL d   1      -0.739   3.977   0.157  0.00  0.00     0.034 A 
ATOM     10  C   UNL d   1       0.148   4.017  -0.941  0.00  0.00     0.052 A 
ATOM     11  C   UNL d   1       0.948   5.155  -1.140  0.00  0.00     0.031 A 
ATOM     12  C   UNL d   1       0.893   6.234  -0.259  0.00  0.00     0.002 A 
ATOM     13  C   UNL d   1       0.029   6.195   0.830  0.00  0.00     0.002 A 
ATOM     14  C   UNL d   1      -0.778   5.074   1.036  0.00  0.00     0.021 A 
BRANCH  10  15
ATOM     15  N   UNL d   1       0.235   2.926  -1.847  0.00  0.00    -0.326 N 
ATOM     16  C   UNL d   1       1.437   2.482  -2.373  0.00  0.00     0.225 C 
ATOM     17  O   UNL d   1       2.539   2.941  -2.072  0.00  0.00    -0.273 OA
ATOM     18  H   UNL d   1      -0.549   2.284  -1.835  0.00  0.00     0.169 HD
BRANCH  16  19
ATOM     19  C   UNL d   1       1.354   1.367  -3.414  0.00  0.00     0.070 C 
ATOM     20  C   UNL d   1       0.562   0.150  -2.953  0.00  0.00     0.019 C 
ATOM     21  C   UNL d   1       0.841   1.902  -4.745  0.00  0.00     0.019 C 
ENDBRANCH  16  19
ENDBRANCH  10  15
ENDBRANCH   8   9
ENDBRANCH   2   8
BRANCH   1  22
ATOM     22  N   UNL d   1      -3.659   2.708   3.053  0.00  0.00    -0.113 N 
ATOM     23  O   UNL d   1      -2.833   3.513   3.503  0.00  0.00    -0.532 OA
ATOM     24  O   UNL d   1      -4.160   1.764   3.677  0.00  0.00    -0.532 OA
ENDBRANCH   1  22
BRANCH   3  25
ATOM     25  C   UNL d   1      -7.486   3.564   0.012  0.00  0.00     0.294 C 
ATOM     26  O   UNL d   1      -7.917   3.771  -1.111  0.00  0.00    -0.259 OA
BRANCH  25  27
ATOM     27  O   UNL d   1      -8.218   3.444   1.144  0.00  0.00    -0.322 OA
ATOM     28  C   UNL d   1      -9.629   3.566   0.939  0.00  0.00     0.213 C 
ENDBRANCH  25  27
ENDBRANCH   3  25
TORSDOF 7
