REMARK  4 active torsions:
REMARK  status: ('A' for Active; 'I' for Inactive)
REMARK    1  A    between atoms: C_6  and  C_1 
REMARK    2  A    between atoms: C_7  and  O_11 
REMARK       I    between atoms: N_10  and  C_7 
REMARK    3  A    between atoms: O_11  and  N_8 
REMARK    4  A    between atoms: C_15  and  N_10 
ROOT
ATOM      1  C   UNL d   1       3.782   0.055  -0.105  0.00  0.00     0.046 C 
ATOM      2  N   UNL d   1       4.553  -1.002  -0.068  0.00  0.00    -0.259 N 
ATOM      3  HN  UNL d   1       5.569  -0.992  -0.156  1.00  0.00     0.194 HD
ATOM      4  C   UNL d   1       2.266  -0.060  -0.004  0.00  0.00     0.071 C 
ENDROOT
BRANCH   2   5
ATOM      5  O   UNL d   1       3.763  -2.161   0.112  0.00  0.00    -0.181 OA
BRANCH   5   6
ATOM      6  C   UNL d   1       4.476  -3.342   0.198  0.00  0.00     0.387 C 
ATOM      7  N   UNL d   1       5.828  -3.216  -0.032  0.00  0.00    -0.301 N 
ATOM      8  H   UNL d   1       6.102  -2.257  -0.219  0.00  0.00     0.171 HD
ATOM      9  O   UNL d   1       3.874  -4.381   0.445  0.00  0.00    -0.236 OA
BRANCH   7  10
ATOM     10  C   UNL d   1       6.800  -4.236  -0.033  0.00  0.00     0.037 A 
ATOM     11  C   UNL d   1       6.509  -5.579   0.246  0.00  0.00     0.031 A 
ATOM     12  C   UNL d   1       7.520  -6.548   0.246  0.00  0.00     0.026 A 
ATOM     13  C   UNL d   1       8.830  -6.184  -0.038  0.00  0.00     0.034 A 
ATOM     14  C   UNL d   1       9.135  -4.856  -0.328  0.00  0.00     0.026 A 
ATOM     15 CL   UNL d   1      10.071  -7.374  -0.027  0.00  0.00    -0.084 Cl
ATOM     16  C   UNL d   1       8.123  -3.887  -0.324  0.00  0.00     0.031 A 
ENDBRANCH   7  10
ENDBRANCH   5   6
ENDBRANCH   2   5
BRANCH   1  17
ATOM     17  C   UNL d   1       4.407   1.374  -0.221  0.00  0.00     0.036 C 
ATOM     18  S   UNL d   1       3.649   2.741   0.479  0.00  0.00    -0.087 SA
ATOM     19  C   UNL d   1       4.957   3.784   0.127  0.00  0.00     0.016 A 
ATOM     20  C   UNL d   1       5.060   5.158   0.435  0.00  0.00     0.021 A 
ATOM     21  C   UNL d   1       5.984   3.099  -0.520  0.00  0.00    -0.010 A 
ATOM     22  C   UNL d   1       6.251   5.830   0.148  0.00  0.00     0.025 A 
ATOM     23  C   UNL d   1       7.307   5.152  -0.440  0.00  0.00     0.035 A 
ATOM     24  C   UNL d   1       7.182   3.807  -0.797  0.00  0.00     0.037 A 
ATOM     25 CL   UNL d   1       8.794   5.970  -0.726  0.00  0.00    -0.084 Cl
ATOM     26  C   UNL d   1       5.611   1.725  -0.823  0.00  0.00    -0.031 C 
ATOM     27  C   UNL d   1       6.460   0.847  -1.686  0.00  0.00     0.050 C 
ENDBRANCH   1  17
TORSDOF 4
