REMARK  3 active torsions:
REMARK  status: ('A' for Active; 'I' for Inactive)
REMARK    1  A    between atoms: S_6  and  C_1 
REMARK    2  A    between atoms: C_4  and  S_6 
REMARK    3  A    between atoms: C_21  and  C_8 
ROOT
ATOM      1  C   UNL d   1      -0.425   4.785  -0.443  0.00  0.00     0.127 A 
ATOM      2  N   UNL d   1      -0.745   4.934  -1.805  0.00  0.00    -0.078 N 
ATOM      3  C   UNL d   1      -1.469   6.053  -2.262  0.00  0.00     0.705 A 
ATOM      4  C   UNL d   1      -0.818   5.743   0.410  0.00  0.00     0.002 A 
ATOM      5  N   UNL d   1      -1.910   7.029  -1.414  0.00  0.00    -0.193 N 
ATOM      6  HN  UNL d   1      -2.445   7.834  -1.740  1.00  0.00     0.184 HD
ATOM      7  N   UNL d   1      -1.644   5.952  -3.562  0.00  0.00    -0.185 N 
ATOM      8  HN  UNL d   1      -2.125   6.600  -4.185  1.00  0.00     0.185 HD
ATOM      9  C   UNL d   1      -1.602   6.862  -0.169  0.00  0.00     0.035 A 
ATOM     10  N   UNL d   1      -0.466   4.125  -2.869  0.00  0.00    -0.274 N 
ATOM     11  HN  UNL d   1       0.046   3.244  -2.886  1.00  0.00     0.189 HD
ATOM     12  C   UNL d   1      -1.034   4.783  -3.879  0.00  0.00     0.215 A 
ATOM     13  C   UNL d   1      -0.688   5.944   1.875  0.00  0.00     0.044 A 
ATOM     14  C   UNL d   1      -2.050   7.807   0.897  0.00  0.00     0.058 A 
ATOM     15  C   UNL d   1      -1.514   7.197   2.194  0.00  0.00     0.011 A 
ENDROOT
BRANCH   1  16
ATOM     16  S   UNL d   1       0.359   3.333   0.094  0.00  0.00    -0.031 SA
BRANCH  16  17
ATOM     17  C   UNL d   1       2.002   3.810  -0.161  0.00  0.00     0.169 A 
ATOM     18  N   UNL d   1       2.774   3.423  -1.227  0.00  0.00    -0.315 N 
ATOM     19  C   UNL d   1       4.052   3.869  -0.949  0.00  0.00     0.134 A 
ATOM     20  C   UNL d   1       2.363   2.655  -2.375  0.00  0.00     0.160 C 
ATOM     21  N   UNL d   1       4.021   4.492   0.219  0.00  0.00    -0.283 N 
ATOM     22  N   UNL d   1       2.735   4.467   0.702  0.00  0.00    -0.278 N 
ATOM     23  HN  UNL d   1       4.821   4.920   0.684  1.00  0.00     0.188 HD
ATOM     24  HN  UNL d   1       2.410   4.885   1.574  1.00  0.00     0.189 HD
BRANCH  19  25
ATOM     25  C   UNL d   1       5.258   3.629  -1.750  0.00  0.00     0.009 A 
ATOM     26  C   UNL d   1       5.264   3.754  -3.146  0.00  0.00     0.015 A 
ATOM     27  C   UNL d   1       6.413   3.458  -3.887  0.00  0.00     0.001 A 
ATOM     28  C   UNL d   1       7.579   3.062  -3.238  0.00  0.00     0.000 A 
ATOM     29  C   UNL d   1       7.603   2.975  -1.847  0.00  0.00     0.001 A 
ATOM     30  C   UNL d   1       6.450   3.260  -1.108  0.00  0.00     0.015 A 
ENDBRANCH  19  25
ENDBRANCH  16  17
ENDBRANCH   1  16
TORSDOF 3
