REMARK  5 active torsions:
REMARK  status: ('A' for Active; 'I' for Inactive)
REMARK    1  A    between atoms: N_2  and  C_3 
REMARK       I    between atoms: C_4  and  N_2 
REMARK    2  A    between atoms: C_10  and  C_4 
REMARK    3  A    between atoms: C_6  and  C_11 
REMARK    4  A    between atoms: O_12  and  C_6 
REMARK    5  A    between atoms: C_11  and  C_10 
ROOT
ATOM      1  N   UNL d   1       1.385   2.272   0.914  0.00  0.00    -0.348 N 
ATOM      2  C   UNL d   1       1.266   3.110   1.993  0.00  0.00     0.218 C 
ATOM      3  O   UNL d   1       0.356   3.021   2.812  0.00  0.00    -0.274 OA
ATOM      4  H   UNL d   1       2.214   2.292   0.326  0.00  0.00     0.163 HD
ENDROOT
BRANCH   1   5
ATOM      5  C   UNL d   1       0.456   1.164   0.705  0.00  0.00     0.176 C 
ATOM      6  C   UNL d   1       1.220  -0.002   0.060  0.00  0.00     0.240 C 
ATOM      7  N   UNL d   1       0.568  -1.197  -0.053  0.00  0.00    -0.359 N 
ATOM      8  O   UNL d   1       2.369   0.114  -0.371  0.00  0.00    -0.271 OA
ATOM      9  C   UNL d   1      -0.779  -1.480   0.391  0.00  0.00     0.122 C 
ATOM     10  H   UNL d   1       1.109  -1.932  -0.495  0.00  0.00     0.162 HD
ATOM     11  C   UNL d   1      -1.821  -0.716  -0.417  0.00  0.00     0.020 C 
ATOM     12  C   UNL d   1      -1.965   0.751  -0.011  0.00  0.00     0.004 C 
ATOM     13  C   UNL d   1      -0.708   1.603  -0.188  0.00  0.00     0.035 C 
ENDBRANCH   1   5
BRANCH   2  14
ATOM     14  C   UNL d   1       2.322   4.188   2.065  0.00  0.00     0.113 C 
BRANCH  14  15
ATOM     15  C   UNL d   1       2.522   4.634   3.509  0.00  0.00     0.119 C 
BRANCH  15  16
ATOM     16  C   UNL d   1       3.558   5.722   3.614  0.00  0.00     0.139 C 
ATOM     17  O   UNL d   1       4.157   6.212   2.673  0.00  0.00    -0.650 OA
BRANCH  16  18
ATOM     18  O   UNL d   1       3.763   6.115   4.892  0.00  0.00    -0.776 OA
ATOM     19  H   UNL d   1       3.210   5.641   5.542  0.00  0.00     0.167 HD
ENDBRANCH  16  18
ENDBRANCH  15  16
ENDBRANCH  14  15
ENDBRANCH   2  14
TORSDOF 5
