REMARK  5 active torsions:
REMARK  status: ('A' for Active; 'I' for Inactive)
REMARK    1  A    between atoms: N_2  and  S_1 
REMARK    2  A    between atoms: C_5  and  S_1 
REMARK    3  A    between atoms: C_4  and  N_2 
REMARK    4  A    between atoms: C_3  and  C_6 
REMARK       I    between atoms: C_11  and  N_12 
REMARK    5  A    between atoms: N_12  and  C_13 
ROOT
ATOM      1  N   UNL d   1       0.545   1.621   0.409  0.00  0.00    -0.181 NA
ATOM      2  H   UNL d   1       1.055   0.758   0.217  0.00  0.00     0.146 HD
ENDROOT
BRANCH   1   3
ATOM      3  S   UNL d   1       0.786   2.668  -0.909  0.00  0.00     0.245 S 
ATOM      4  O   UNL d   1       1.665   1.952  -1.814  0.00  0.00    -0.206 OA
ATOM      5  O   UNL d   1       1.103   4.005  -0.460  0.00  0.00    -0.206 OA
BRANCH   3   6
ATOM      6  C   UNL d   1      -0.823   2.709  -1.672  0.00  0.00     0.075 A 
ATOM      7  C   UNL d   1      -1.132   1.780  -2.675  0.00  0.00     0.041 A 
ATOM      8  C   UNL d   1      -2.346   1.876  -3.377  0.00  0.00     0.049 A 
ATOM      9  C   UNL d   1      -3.234   2.914  -3.053  0.00  0.00     0.016 A 
ATOM     10  C   UNL d   1      -2.919   3.840  -2.055  0.00  0.00     0.002 A 
ATOM     11  C   UNL d   1      -1.710   3.743  -1.365  0.00  0.00     0.025 A 
BRANCH   8  12
ATOM     12  C   UNL d   1      -2.691   0.902  -4.479  0.00  0.00     0.417 C 
ATOM     13  F   UNL d   1      -1.728  -0.035  -4.698  0.00  0.00    -0.166 F 
ATOM     14  F   UNL d   1      -3.834   0.208  -4.222  0.00  0.00    -0.166 F 
ATOM     15  F   UNL d   1      -2.890   1.521  -5.676  0.00  0.00    -0.166 F 
ENDBRANCH   8  12
ENDBRANCH   3   6
ENDBRANCH   1   3
BRANCH   1  16
ATOM     16  C   UNL d   1       0.829   2.169   1.705  0.00  0.00     0.030 A 
ATOM     17  C   UNL d   1      -0.225   2.786   2.393  0.00  0.00     0.054 A 
ATOM     18  C   UNL d   1      -0.011   3.377   3.639  0.00  0.00     0.036 A 
ATOM     19  C   UNL d   1       1.270   3.333   4.196  0.00  0.00     0.030 A 
ATOM     20  C   UNL d   1       2.326   2.730   3.507  0.00  0.00     0.011 A 
ATOM     21  C   UNL d   1       2.127   2.164   2.240  0.00  0.00    -0.040 A 
ATOM     22  C   UNL d   1       3.308   1.540   1.549  0.00  0.00     0.050 C 
BRANCH  18  23
ATOM     23  N   UNL d   1      -1.011   4.037   4.387  0.00  0.00    -0.327 N 
ATOM     24  C   UNL d   1      -2.333   4.232   4.034  0.00  0.00     0.218 C 
ATOM     25  O   UNL d   1      -2.887   3.837   3.013  0.00  0.00    -0.274 OA
ATOM     26  C   UNL d   1      -3.109   5.016   5.063  0.00  0.00     0.117 C 
ATOM     27  H   UNL d   1      -0.709   4.429   5.270  0.00  0.00     0.169 HD
ENDBRANCH  18  23
ENDBRANCH   1  16
TORSDOF 5
