REMARK  3 active torsions:
REMARK  status: ('A' for Active; 'I' for Inactive)
REMARK       I    between atoms: N_2  and  C_1 
REMARK    1  A    between atoms: C_3  and  C_1 
REMARK    2  A    between atoms: C_5  and  N_2 
REMARK    3  A    between atoms: N_4  and  C_6 
ROOT
ATOM      1  C   UNL d   1       0.931   2.051  -1.143  0.00  0.00     0.061 A 
ATOM      2  C   UNL d   1       2.049   1.724  -1.954  0.00  0.00     0.057 A 
ATOM      3  C   UNL d   1       0.509   3.376  -0.980  0.00  0.00     0.032 A 
ATOM      4  C   UNL d   1       2.728   2.797  -2.558  0.00  0.00     0.031 A 
ATOM      5  C   UNL d   1       1.219   4.412  -1.582  0.00  0.00     0.002 A 
ATOM      6  C   UNL d   1       2.328   4.124  -2.372  0.00  0.00     0.002 A 
ENDROOT
BRANCH   1   7
ATOM      7  N   UNL d   1       0.271   1.048  -0.393  0.00  0.00    -0.319 N 
ATOM      8  C   UNL d   1       0.725   0.710   0.870  0.00  0.00     0.280 C 
ATOM      9  O   UNL d   1       1.704   1.232   1.409  0.00  0.00    -0.265 OA
ATOM     10  H   UNL d   1      -0.714   0.899  -0.557  0.00  0.00     0.169 HD
BRANCH   8  11
ATOM     11  C   UNL d   1      -0.053  -0.316   1.544  0.00  0.00     0.142 A 
ATOM     12  O   UNL d   1      -1.136  -0.894   0.932  0.00  0.00    -0.317 OA
ATOM     13  C   UNL d   1      -1.593  -1.863   1.774  0.00  0.00     0.143 A 
ATOM     14  C   UNL d   1      -0.840  -1.910   2.923  0.00  0.00     0.027 A 
ATOM     15  C   UNL d   1       0.143  -0.902   2.783  0.00  0.00     0.045 A 
ENDBRANCH   8  11
ENDBRANCH   1   7
BRANCH   2  16
ATOM     16  N   UNL d   1       2.480   0.414  -2.115  0.00  0.00    -0.375 N 
ATOM     17  C   UNL d   1       3.883   0.100  -2.419  0.00  0.00     0.149 C 
ATOM     18  C   UNL d   1       4.213  -1.265  -1.792  0.00  0.00     0.187 C 
ATOM     19  O   UNL d   1       3.334  -2.295  -2.282  0.00  0.00    -0.388 OA
ATOM     20  C   UNL d   1       1.967  -1.973  -1.961  0.00  0.00     0.187 C 
ATOM     21  C   UNL d   1       1.544  -0.627  -2.574  0.00  0.00     0.149 C 
ENDBRANCH   2  16
TORSDOF 3
