REMARK  4 active torsions:
REMARK  status: ('A' for Active; 'I' for Inactive)
REMARK    1  A    between atoms: C_6  and  C_1 
REMARK    2  A    between atoms: C_7  and  C_2 
REMARK    3  A    between atoms: S_3  and  C_5 
REMARK    4  A    between atoms: C_4  and  S_3 
REMARK       I    between atoms: N_11  and  C_6 
REMARK       I    between atoms: N_10  and  C_7 
ROOT
ATOM      1  S   UNL d   1       1.009  -2.977  -0.218  0.00  0.00    -0.088 SA
ENDROOT
BRANCH   1   2
ATOM      2  C   UNL d   1       0.769  -1.203  -0.241  0.00  0.00     0.021 A 
ATOM      3  C   UNL d   1       0.139  -0.445   0.767  0.00  0.00     0.049 A 
ATOM      4  C   UNL d   1      -0.191   0.905   0.522  0.00  0.00     0.018 A 
ATOM      5  C   UNL d   1       0.094   1.509  -0.700  0.00  0.00     0.001 A 
ATOM      6  C   UNL d   1       0.742   0.779  -1.685  0.00  0.00     0.001 A 
ATOM      7  C   UNL d   1       1.071  -0.560  -1.457  0.00  0.00     0.020 A 
BRANCH   3   8
ATOM      8  C   UNL d   1      -0.242  -0.926   2.126  0.00  0.00     0.252 C 
ATOM      9  O   UNL d   1      -0.130  -0.171   3.086  0.00  0.00    -0.268 OA
ATOM     10  N   UNL d   1      -0.772  -2.192   2.234  0.00  0.00    -0.361 N 
ATOM     11  C   UNL d   1      -1.197  -2.710   3.508  0.00  0.00     0.149 C 
ATOM     12  H   UNL d   1      -0.786  -2.795   1.420  0.00  0.00     0.162 HD
ENDBRANCH   3   8
ENDBRANCH   1   2
BRANCH   1  13
ATOM     13  C   UNL d   1       2.659  -3.248   0.423  0.00  0.00     0.021 A 
ATOM     14  C   UNL d   1       3.852  -3.243  -0.323  0.00  0.00     0.049 A 
ATOM     15  C   UNL d   1       5.056  -3.682   0.271  0.00  0.00     0.018 A 
ATOM     16  C   UNL d   1       5.082  -4.134   1.587  0.00  0.00     0.001 A 
ATOM     17  C   UNL d   1       3.912  -4.124   2.336  0.00  0.00     0.001 A 
ATOM     18  C   UNL d   1       2.717  -3.683   1.759  0.00  0.00     0.020 A 
BRANCH  14  19
ATOM     19  C   UNL d   1       3.989  -2.847  -1.753  0.00  0.00     0.252 C 
ATOM     20  O   UNL d   1       4.967  -2.201  -2.109  0.00  0.00    -0.268 OA
ATOM     21  N   UNL d   1       3.029  -3.308  -2.624  0.00  0.00    -0.361 N 
ATOM     22  C   UNL d   1       3.123  -3.098  -4.046  0.00  0.00     0.149 C 
ATOM     23  H   UNL d   1       2.280  -3.887  -2.265  0.00  0.00     0.162 HD
ENDBRANCH  14  19
ENDBRANCH   1  13
TORSDOF 4
