REMARK  7 active torsions:
REMARK  status: ('A' for Active; 'I' for Inactive)
REMARK    1  A    between atoms: C_4  and  N_1 
REMARK    2  A    between atoms: S_11  and  C_2 
REMARK    3  A    between atoms: O_21  and  C_10 
REMARK    4  A    between atoms: C_17  and  S_11 
REMARK    5  A    between atoms: O_23  and  C_13 
REMARK    6  A    between atoms: C_16  and  C_17 
REMARK    7  A    between atoms: C_19  and  C_16 
ROOT
ATOM      1  N   UNL d   1       2.402  -0.610  -0.000  0.00  0.00    -0.255 N 
ATOM      2  C   UNL d   1       2.346   0.775  -0.178  0.00  0.00     0.155 C 
ATOM      3  C   UNL d   1       1.270  -1.330   0.376  0.00  0.00     0.267 C 
ATOM      4  N   UNL d   1       1.252   1.464  -0.093  0.00  0.00    -0.335 N 
ATOM      5  HN  UNL d   1       1.269   2.483  -0.141  1.00  0.00     0.168 HD
ATOM      6  C   UNL d   1      -0.004  -0.605   0.279  0.00  0.00     0.059 A 
ATOM      7  C   UNL d   1       0.046   0.771   0.068  0.00  0.00     0.049 A 
ATOM      8  O   UNL d   1       1.263  -2.499   0.763  0.00  0.00    -0.267 OA
ATOM      9  C   UNL d   1      -1.222  -1.293   0.319  0.00  0.00     0.019 A 
ATOM     10  C   UNL d   1      -1.155   1.469  -0.068  0.00  0.00     0.030 A 
ATOM     11  C   UNL d   1      -2.411  -0.591   0.140  0.00  0.00     0.001 A 
ATOM     12  C   UNL d   1      -2.378   0.791  -0.041  0.00  0.00     0.002 A 
ENDROOT
BRANCH   1  13
ATOM     13  C   UNL d   1       3.612  -1.352  -0.097  0.00  0.00     0.081 A 
ATOM     14  C   UNL d   1       4.422  -1.414   1.060  0.00  0.00     0.071 A 
ATOM     15  C   UNL d   1       5.627  -2.122   1.062  0.00  0.00     0.092 A 
ATOM     16  C   UNL d   1       5.987  -2.827  -0.092  0.00  0.00     0.070 A 
ATOM     17  C   UNL d   1       5.171  -2.801  -1.226  0.00  0.00     0.065 A 
ATOM     18 CL   UNL d   1       7.446  -3.754  -0.169  0.00  0.00    -0.081 Cl
ATOM     19  C   UNL d   1       3.980  -2.063  -1.251  0.00  0.00     0.097 A 
BRANCH  15  20
ATOM     20  O   UNL d   1       6.494  -2.185   2.120  0.00  0.00    -0.354 OA
ATOM     21  C   UNL d   1       6.268  -1.323   3.227  0.00  0.00     0.210 C 
ENDBRANCH  15  20
BRANCH  19  22
ATOM     22  O   UNL d   1       3.348  -2.184  -2.457  0.00  0.00    -0.354 OA
ATOM     23  C   UNL d   1       2.210  -1.403  -2.770  0.00  0.00     0.210 C 
ENDBRANCH  19  22
ENDBRANCH   1  13
BRANCH   2  24
ATOM     24  S   UNL d   1       3.839   1.638  -0.531  0.00  0.00    -0.085 SA
BRANCH  24  25
ATOM     25  C   UNL d   1       3.218   3.193  -1.236  0.00  0.00     0.166 C 
BRANCH  25  26
ATOM     26  C   UNL d   1       2.568   3.053  -2.603  0.00  0.00     0.169 C 
ATOM     27  O   UNL d   1       2.464   1.984  -3.211  0.00  0.00    -0.291 OA
BRANCH  26  28
ATOM     28  C   UNL d   1       2.035   4.299  -3.256  0.00  0.00     0.010 A 
ATOM     29  C   UNL d   1       2.183   5.570  -2.682  0.00  0.00     0.015 A 
ATOM     30  C   UNL d   1       1.652   6.700  -3.314  0.00  0.00     0.001 A 
ATOM     31  C   UNL d   1       0.970   6.572  -4.522  0.00  0.00     0.000 A 
ATOM     32  C   UNL d   1       0.829   5.318  -5.110  0.00  0.00     0.001 A 
ATOM     33  C   UNL d   1       1.361   4.187  -4.483  0.00  0.00     0.015 A 
ENDBRANCH  26  28
ENDBRANCH  25  26
ENDBRANCH  24  25
ENDBRANCH   2  24
TORSDOF 7
