REMARK  7 active torsions:
REMARK  status: ('A' for Active; 'I' for Inactive)
REMARK    1  A    between atoms: N_2  and  C_1 
REMARK    2  A    between atoms: C_3  and  C_1 
REMARK    3  A    between atoms: C_4  and  C_1 
REMARK    4  A    between atoms: O_8  and  C_1 
REMARK       I    between atoms: C_5  and  N_2 
REMARK    5  A    between atoms: O_16  and  C_5 
REMARK    6  A    between atoms: C_17  and  O_8 
REMARK    7  A    between atoms: C_18  and  O_16 
ROOT
ATOM      1  C   UNL d   1       4.492  -0.417   1.197  0.00  0.00    -0.091 C 
ATOM      2  C   UNL d   1       5.689  -0.374   1.121  0.00  0.00     0.014 C 
ATOM      3  C   UNL d   1       3.028  -0.456   1.292  0.00  0.00     0.264 C 
ENDROOT
BRANCH   3   4
ATOM      4  O   UNL d   1       2.490  -0.177   0.002  0.00  0.00    -0.334 OA
BRANCH   4   5
ATOM      5  C   UNL d   1       1.036  -0.049  -0.089  0.00  0.00     0.339 C 
BRANCH   5   6
ATOM      6  N   UNL d   1       0.574  -1.441   0.091  0.00  0.00    -0.290 N 
ATOM      7  C   UNL d   1      -0.735  -1.745   0.229  0.00  0.00     0.363 C 
ATOM      8  O   UNL d   1      -1.635  -0.926   0.211  0.00  0.00    -0.238 OA
ATOM      9  H   UNL d   1       1.223  -2.201  -0.022  0.00  0.00     0.168 HD
BRANCH   7  10
ATOM     10  O   UNL d   1      -0.854  -3.070   0.470  0.00  0.00    -0.304 OA
BRANCH  10  11
ATOM     11  C   UNL d   1      -2.140  -3.478   0.961  0.00  0.00     0.176 C 
ATOM     12  C   UNL d   1      -2.198  -3.243   2.460  0.00  0.00     0.034 C 
ENDBRANCH  10  11
ENDBRANCH   7  10
ENDBRANCH   5   6
BRANCH   5  13
ATOM     13  C   UNL d   1       0.462   0.971   0.938  0.00  0.00     0.447 C 
ATOM     14  F   UNL d   1       0.372   0.390   2.170  0.00  0.00    -0.166 F 
ATOM     15  F   UNL d   1       1.291   2.033   1.087  0.00  0.00    -0.166 F 
ATOM     16  F   UNL d   1      -0.761   1.461   0.663  0.00  0.00    -0.166 F 
ENDBRANCH   5  13
BRANCH   5  17
ATOM     17  C   UNL d   1       0.702   0.530  -1.500  0.00  0.00     0.447 C 
ATOM     18  F   UNL d   1       0.147  -0.421  -2.302  0.00  0.00    -0.166 F 
ATOM     19  F   UNL d   1      -0.133   1.586  -1.515  0.00  0.00    -0.166 F 
ATOM     20  F   UNL d   1       1.827   0.934  -2.150  0.00  0.00    -0.166 F 
ENDBRANCH   5  17
ENDBRANCH   4   5
ENDBRANCH   3   4
TORSDOF 7
