REMARK  8 active torsions:
REMARK  status: ('A' for Active; 'I' for Inactive)
REMARK    1  A    between atoms: C_9  and  C_2 
REMARK    2  A    between atoms: O_20  and  C_4 
REMARK    3  A    between atoms: C_5  and  O_6 
REMARK    4  A    between atoms: O_6  and  C_9 
REMARK    5  A    between atoms: O_18  and  N_7 
REMARK    6  A    between atoms: C_14  and  C_21 
REMARK    7  A    between atoms: C_23  and  C_15 
REMARK    8  A    between atoms: C_21  and  C_23 
ROOT
ATOM      1  C   UNL d   1      -5.262  -2.786   0.953  0.00  0.00     0.102 A 
ATOM      2  C   UNL d   1      -4.779  -1.767   0.117  0.00  0.00     0.102 A 
ATOM      3  C   UNL d   1      -6.593  -3.221   0.811  0.00  0.00     0.046 A 
ATOM      4  C   UNL d   1      -5.667  -1.161  -0.783  0.00  0.00     0.040 A 
ATOM      5  C   UNL d   1      -7.468  -2.660  -0.132  0.00  0.00    -0.055 A 
ATOM      6  C   UNL d   1      -6.991  -1.602  -0.908  0.00  0.00     0.010 A 
ENDROOT
BRANCH   2   7
ATOM      7  O   UNL d   1      -3.478  -1.359   0.240  0.00  0.00    -0.344 OA
BRANCH   7   8
ATOM      8  C   UNL d   1      -2.817  -0.852  -0.929  0.00  0.00     0.216 C 
BRANCH   8   9
ATOM      9  C   UNL d   1      -2.601   0.647  -0.845  0.00  0.00    -0.012 A 
ATOM     10  C   UNL d   1      -2.561   1.469  -1.985  0.00  0.00     0.044 A 
ATOM     11  C   UNL d   1      -2.311   2.841  -1.875  0.00  0.00     0.048 A 
ATOM     12 CL   UNL d   1      -2.804   0.839  -3.576  0.00  0.00    -0.084 Cl
ATOM     13  C   UNL d   1      -2.080   3.405  -0.623  0.00  0.00     0.035 A 
ATOM     14  C   UNL d   1      -2.093   2.609   0.517  0.00  0.00     0.024 A 
ATOM     15 CL   UNL d   1      -1.766   5.089  -0.488  0.00  0.00    -0.084 Cl
ATOM     16  C   UNL d   1      -2.346   1.240   0.406  0.00  0.00     0.013 A 
ENDBRANCH   8   9
ENDBRANCH   7   8
ENDBRANCH   2   7
BRANCH   1  17
ATOM     17  O   UNL d   1      -4.596  -3.481   1.929  0.00  0.00    -0.353 OA
ATOM     18  C   UNL d   1      -3.312  -3.037   2.337  0.00  0.00     0.210 C 
ENDBRANCH   1  17
BRANCH   5  19
ATOM     19  C   UNL d   1      -8.895  -3.162  -0.212  0.00  0.00     0.044 C 
BRANCH  19  20
ATOM     20  C   UNL d   1      -9.537  -3.092  -1.600  0.00  0.00     0.058 C 
BRANCH  20  21
ATOM     21  C   UNL d   1     -10.907  -3.752  -1.599  0.00  0.00     0.006 C 
ATOM     22  N   UNL d   1     -12.025  -3.150  -1.322  0.00  0.00    -0.278 N 
ATOM     23  HN  UNL d   1     -12.935  -3.610  -1.317  1.00  0.00     0.193 HD
ATOM     24  C   UNL d   1     -10.966  -5.227  -1.916  0.00  0.00     0.065 C 
BRANCH  22  25
ATOM     25  O   UNL d   1     -11.833  -1.796  -1.034  0.00  0.00    -0.290 OA
ATOM     26  H   UNL d   1     -12.747  -1.478  -0.910  0.00  0.00     0.244 HD
ENDBRANCH  22  25
ENDBRANCH  20  21
ENDBRANCH  19  20
ENDBRANCH   5  19
TORSDOF 8
