REMARK  3 active torsions:
REMARK  status: ('A' for Active; 'I' for Inactive)
REMARK    1  A    between atoms: S_10  and  C_3 
REMARK    2  A    between atoms: C_9  and  C_6 
REMARK    3  A    between atoms: O_11  and  C_8 
ROOT
ATOM      1  N   UNL d   1      -0.416   1.371  -0.084  0.00  0.00    -0.318 N 
ATOM      2  HN  UNL d   1      -0.820   2.308  -0.099  1.00  0.00     0.170 HD
ATOM      3  C   UNL d   1       0.727   1.097   0.551  0.00  0.00     0.143 A 
ATOM      4  N   UNL d   1       1.316  -0.107   0.606  0.00  0.00    -0.336 N 
ATOM      5  HN  UNL d   1       2.187  -0.249   1.117  1.00  0.00     0.168 HD
ATOM      6  C   UNL d   1       0.708  -1.123  -0.043  0.00  0.00     0.048 A 
ATOM      7  C   UNL d   1      -0.486  -0.938  -0.715  0.00  0.00     0.086 A 
ATOM      8  C   UNL d   1      -0.994   0.338  -0.698  0.00  0.00     0.143 A 
ENDROOT
BRANCH   6   9
ATOM      9  C   UNL d   1       1.396  -2.431   0.016  0.00  0.00    -0.009 A 
ATOM     10  C   UNL d   1       1.333  -3.355  -1.044  0.00  0.00     0.013 A 
ATOM     11  C   UNL d   1       1.983  -4.591  -0.974  0.00  0.00     0.001 A 
ATOM     12  C   UNL d   1       2.717  -4.930   0.159  0.00  0.00     0.000 A 
ATOM     13  C   UNL d   1       2.805  -4.031   1.217  0.00  0.00     0.001 A 
ATOM     14  C   UNL d   1       2.155  -2.796   1.144  0.00  0.00     0.013 A 
ENDBRANCH   6   9
BRANCH   8  15
ATOM     15  O   UNL d   1      -2.163   0.638  -1.334  0.00  0.00    -0.346 OA
ATOM     16  H   UNL d   1      -2.515  -0.166  -1.742  0.00  0.00     0.219 HD
ENDBRANCH   8  15
BRANCH   3  17
ATOM     17  S   UNL d   1       1.518   2.442   1.379  0.00  0.00    -0.107 SA
ATOM     18  H   UNL d   1       0.600   3.331   0.980  0.00  0.00     0.110 HD
ENDBRANCH   3  17
TORSDOF 3
