REMARK  3 active torsions:
REMARK  status: ('A' for Active; 'I' for Inactive)
REMARK    1  A    between atoms: N_2  and  S_1 
REMARK    2  A    between atoms: C_3  and  S_1 
REMARK    3  A    between atoms: C_6  and  N_2 
ROOT
ATOM      1  N   UNL d   1       0.463  -0.532   1.609  0.00  0.00    -0.266 N 
ATOM      2  H   UNL d   1       0.003  -1.436   1.606  0.00  0.00     0.180 HD
ENDROOT
BRANCH   1   3
ATOM      3  S   UNL d   1       0.979  -0.104   0.077  0.00  0.00     0.264 S 
ATOM      4  O   UNL d   1       0.232  -0.959  -0.827  0.00  0.00    -0.200 OA
ATOM      5  O   UNL d   1       2.425  -0.082   0.026  0.00  0.00    -0.200 OA
BRANCH   3   6
ATOM      6  C   UNL d   1       0.361   1.549  -0.144  0.00  0.00     0.080 A 
ATOM      7  C   UNL d   1      -0.920   1.744  -0.683  0.00  0.00     0.035 A 
ATOM      8  C   UNL d   1      -1.320   3.045  -0.945  0.00  0.00    -0.021 A 
ATOM      9  C   UNL d   1      -2.607   3.560  -1.466  0.00  0.00     0.068 C 
ATOM     10  C   UNL d   1      -0.479   4.115  -0.673  0.00  0.00     0.075 A 
ATOM     11  C   UNL d   1      -2.188   5.000  -1.772  0.00  0.00     0.180 C 
ATOM     12  O   UNL d   1      -1.023   5.335  -0.982  0.00  0.00    -0.350 OA
ATOM     13  C   UNL d   1       0.782   3.942  -0.138  0.00  0.00     0.039 A 
ATOM     14  C   UNL d   1       1.213   2.638   0.119  0.00  0.00     0.028 A 
ENDBRANCH   3   6
ENDBRANCH   1   3
BRANCH   1  15
ATOM     15  C   UNL d   1       1.325  -0.257   2.686  0.00  0.00     0.115 A 
ATOM     16  N   UNL d   1       1.186   0.967   3.220  0.00  0.00    -0.341 N 
ATOM     17  C   UNL d   1       1.906   1.247   4.325  0.00  0.00     0.043 A 
ATOM     18  HN  UNL d   1       0.561   1.658   2.805  1.00  0.00     0.167 HD
ATOM     19  C   UNL d   1       1.758   2.483   4.940  0.00  0.00     0.030 A 
ATOM     20  C   UNL d   1       2.798   0.320   4.909  0.00  0.00    -0.009 A 
ATOM     21  C   UNL d   1       2.452   2.813   6.110  0.00  0.00     0.002 A 
ATOM     22  C   UNL d   1       3.324   1.894   6.683  0.00  0.00     0.001 A 
ATOM     23  C   UNL d   1       3.502   0.650   6.082  0.00  0.00     0.013 A 
ATOM     24  C   UNL d   1       2.945  -0.927   4.290  0.00  0.00     0.017 A 
ATOM     25  C   UNL d   1       2.195  -1.224   3.158  0.00  0.00     0.050 A 
ENDBRANCH   1  15
TORSDOF 3
