REMARK  7 active torsions:
REMARK  status: ('A' for Active; 'I' for Inactive)
REMARK    1  A    between atoms: N_2  and  C_1 
REMARK    2  A    between atoms: S_4  and  C_3 
REMARK    3  A    between atoms: C_13  and  S_4 
REMARK    4  A    between atoms: C_7  and  O_18 
REMARK    5  A    between atoms: N_9  and  C_14 
REMARK       I    between atoms: C_15  and  N_9 
REMARK    6  A    between atoms: C_22  and  C_15 
REMARK    7  A    between atoms: O_18  and  C_22 
ROOT
ATOM      1  C   UNL d   1       4.856   1.505   0.084  0.00  0.00     0.032 A 
ATOM      2  C   UNL d   1       4.463   2.296   1.189  0.00  0.00     0.052 A 
ATOM      3  C   UNL d   1       5.783   2.041  -0.831  0.00  0.00     0.021 A 
ATOM      4  C   UNL d   1       4.981   3.593   1.329  0.00  0.00     0.031 A 
ATOM      5  C   UNL d   1       5.922   4.092   0.428  0.00  0.00     0.002 A 
ATOM      6  C   UNL d   1       6.328   3.313  -0.650  0.00  0.00     0.002 A 
ENDROOT
BRANCH   2   7
ATOM      7  N   UNL d   1       3.508   1.902   2.161  0.00  0.00    -0.324 N 
ATOM      8  C   UNL d   1       3.646   0.736   2.897  0.00  0.00     0.246 C 
ATOM      9  O   UNL d   1       4.616  -0.019   2.830  0.00  0.00    -0.271 OA
ATOM     10  H   UNL d   1       3.058   2.650   2.675  0.00  0.00     0.169 HD
BRANCH   8  11
ATOM     11  C   UNL d   1       2.493   0.480   3.872  0.00  0.00     0.278 C 
BRANCH  11  12
ATOM     12  O   UNL d   1       2.753   1.139   5.103  0.00  0.00    -0.340 OA
BRANCH  12  13
ATOM     13  C   UNL d   1       1.805   1.098   6.093  0.00  0.00     0.092 A 
ATOM     14  C   UNL d   1       1.861   2.233   6.922  0.00  0.00     0.064 A 
ATOM     15  C   UNL d   1       1.002   2.385   8.016  0.00  0.00     0.058 A 
ATOM     16 CL   UNL d   1       1.147   3.821   8.964  0.00  0.00    -0.082 Cl
ATOM     17  C   UNL d   1       0.071   1.389   8.306  0.00  0.00     0.057 A 
ATOM     18  C   UNL d   1       0.016   0.247   7.507  0.00  0.00     0.052 A 
ATOM     19 CL   UNL d   1      -1.022   1.493   9.639  0.00  0.00    -0.082 Cl
ATOM     20  C   UNL d   1       0.879   0.091   6.410  0.00  0.00     0.069 A 
ATOM     21 CL   UNL d   1       0.733  -1.423   5.595  0.00  0.00    -0.081 Cl
ENDBRANCH  12  13
ENDBRANCH  11  12
ENDBRANCH   8  11
ENDBRANCH   2   7
BRANCH   1  22
ATOM     22  S   UNL d   1       4.019  -0.004  -0.423  0.00  0.00    -0.086 SA
BRANCH  22  23
ATOM     23  C   UNL d   1       5.063  -1.333   0.175  0.00  0.00     0.038 A 
ATOM     24  C   UNL d   1       4.569  -2.412   0.932  0.00  0.00     0.121 A 
ATOM     25  C   UNL d   1       5.399  -3.432   1.425  0.00  0.00     0.061 A 
ATOM     26  C   UNL d   1       6.753  -3.396   1.125  0.00  0.00     0.036 A 
ATOM     27  C   UNL d   1       7.271  -2.369   0.339  0.00  0.00     0.025 A 
ATOM     28 CL   UNL d   1       7.792  -4.636   1.705  0.00  0.00    -0.084 Cl
ATOM     29  C   UNL d   1       6.432  -1.348  -0.132  0.00  0.00     0.023 A 
BRANCH  24  30
ATOM     30  N   UNL d   1       3.152  -2.542   1.217  0.00  0.00    -0.114 N 
ATOM     31  O   UNL d   1       2.384  -2.656   0.253  0.00  0.00    -0.532 OA
ATOM     32  O   UNL d   1       2.815  -2.610   2.407  0.00  0.00    -0.532 OA
ENDBRANCH  24  30
ENDBRANCH  22  23
ENDBRANCH   1  22
TORSDOF 7
