REMARK  7 active torsions:
REMARK  status: ('A' for Active; 'I' for Inactive)
REMARK    1  A    between atoms: C_7  and  C_1 
REMARK    2  A    between atoms: C_14  and  N_4 
REMARK    3  A    between atoms: S_18  and  C_5 
REMARK    4  A    between atoms: N_20  and  C_7 
REMARK    5  A    between atoms: C_8  and  O_12 
REMARK    6  A    between atoms: C_9  and  C_8 
REMARK    7  A    between atoms: O_12  and  N_10 
ROOT
ATOM      1  C   UNL d   1      -2.068   2.882  -0.038  0.00  0.00     0.056 A 
ATOM      2  N   UNL d   1      -4.017   4.091  -0.102  0.00  0.00    -0.287 N 
ATOM      3  HN  UNL d   1      -4.678   4.866  -0.161  1.00  0.00     0.188 HD
ATOM      4  N   UNL d   1      -4.297   2.763  -0.006  0.00  0.00    -0.266 N 
ATOM      5  C   UNL d   1      -2.685   4.154  -0.103  0.00  0.00     0.099 A 
ATOM      6  C   UNL d   1      -3.144   2.015   0.046  0.00  0.00     0.134 A 
ENDROOT
BRANCH   1   7
ATOM      7  C   UNL d   1      -0.673   2.482  -0.029  0.00  0.00     0.113 C 
ATOM      8  N   UNL d   1      -0.346   1.403   0.604  0.00  0.00    -0.245 N 
ATOM      9  HN  UNL d   1      -0.998   0.792   1.097  1.00  0.00     0.196 HD
BRANCH   8  10
ATOM     10  O   UNL d   1       1.049   1.194   0.512  0.00  0.00    -0.193 OA
BRANCH  10  11
ATOM     11  C   UNL d   1       1.425   0.053   1.183  0.00  0.00     0.322 C 
ATOM     12  O   UNL d   1       0.670  -0.702   1.786  0.00  0.00    -0.257 OA
BRANCH  11  13
ATOM     13  C   UNL d   1       2.865  -0.153   1.083  0.00  0.00     0.082 A 
ATOM     14  S   UNL d   1       3.911   0.941   0.272  0.00  0.00    -0.096 SA
ATOM     15  C   UNL d   1       5.291  -0.010   0.610  0.00  0.00     0.050 A 
ATOM     16  C   UNL d   1       4.976  -1.138   1.331  0.00  0.00     0.009 A 
ATOM     17  C   UNL d   1       3.580  -1.218   1.607  0.00  0.00     0.026 A 
ENDBRANCH  11  13
ENDBRANCH  10  11
ENDBRANCH   8  10
BRANCH   7  18
ATOM     18  N   UNL d   1       0.163   3.308  -0.723  0.00  0.00    -0.286 NA
ATOM     19  H   UNL d   1      -0.124   4.278  -0.815  0.00  0.00     0.125 HD
ATOM     20  H   UNL d   1       1.138   3.199  -0.481  0.00  0.00     0.125 HD
ENDBRANCH   7  18
ENDBRANCH   1   7
BRANCH   5  21
ATOM     21  S   UNL d   1      -1.828   5.685  -0.122  0.00  0.00    -0.114 SA
ATOM     22  C   UNL d   1      -3.157   6.884  -0.320  0.00  0.00     0.097 C 
ENDBRANCH   5  21
BRANCH   4  23
ATOM     23  C   UNL d   1      -5.643   2.294   0.037  0.00  0.00     0.056 A 
ATOM     24  C   UNL d   1      -5.933   0.925   0.148  0.00  0.00     0.031 A 
ATOM     25  C   UNL d   1      -7.260   0.489   0.204  0.00  0.00     0.002 A 
ATOM     26  C   UNL d   1      -8.305   1.409   0.148  0.00  0.00     0.000 A 
ATOM     27  C   UNL d   1      -8.027   2.768   0.030  0.00  0.00     0.002 A 
ATOM     28  C   UNL d   1      -6.702   3.213  -0.026  0.00  0.00     0.031 A 
ENDBRANCH   4  23
TORSDOF 7
