REMARK  2 active torsions:
REMARK  status: ('A' for Active; 'I' for Inactive)
REMARK    1  A    between atoms: C_9  and  N_1 
REMARK    2  A    between atoms: C_10  and  C_6 
ROOT
ATOM      1  N   UNL d   1       0.040  -0.948  -0.099  0.00  0.00    -0.252 N 
ATOM      2  C   UNL d   1      -1.208  -0.345   0.132  0.00  0.00     0.231 C 
ATOM      3  C   UNL d   1       1.260  -0.256  -0.170  0.00  0.00     0.231 C 
ATOM      4  C   UNL d   1      -1.200   1.119   0.491  0.00  0.00     0.113 C 
ATOM      5  C   UNL d   1       1.232   1.218   0.154  0.00  0.00     0.113 C 
ATOM      6  C   UNL d   1      -0.086   1.862  -0.224  0.00  0.00     0.036 C 
ATOM      7  O   UNL d   1      -2.296  -0.924   0.083  0.00  0.00    -0.273 OA
ATOM      8  O   UNL d   1       2.362  -0.777  -0.366  0.00  0.00    -0.273 OA
ENDROOT
BRANCH   1   9
ATOM      9  C   UNL d   1       0.063  -2.378  -0.285  0.00  0.00     0.045 A 
ATOM     10  C   UNL d   1       0.843  -2.972  -1.289  0.00  0.00     0.030 A 
ATOM     11  C   UNL d   1       0.880  -4.361  -1.442  0.00  0.00     0.002 A 
ATOM     12  C   UNL d   1       0.155  -5.179  -0.580  0.00  0.00     0.000 A 
ATOM     13  C   UNL d   1      -0.622  -4.609   0.424  0.00  0.00     0.002 A 
ATOM     14  C   UNL d   1      -0.677  -3.219   0.563  0.00  0.00     0.030 A 
ENDBRANCH   1   9
BRANCH   6  15
ATOM     15  C   UNL d   1      -0.093   3.342   0.116  0.00  0.00    -0.053 A 
ATOM     16  C   UNL d   1      -0.201   4.295  -0.906  0.00  0.00     0.007 A 
ATOM     17  C   UNL d   1      -0.210   5.660  -0.609  0.00  0.00     0.001 A 
ATOM     18  C   UNL d   1      -0.111   6.091   0.712  0.00  0.00     0.000 A 
ATOM     19  C   UNL d   1       0.002   5.156   1.737  0.00  0.00     0.001 A 
ATOM     20  C   UNL d   1       0.013   3.793   1.443  0.00  0.00     0.007 A 
ENDBRANCH   6  15
TORSDOF 2
