REMARK  4 active torsions:
REMARK  status: ('A' for Active; 'I' for Inactive)
REMARK    1  A    between atoms: S_2  and  C_1 
REMARK    2  A    between atoms: C_5  and  S_2 
REMARK       I    between atoms: C_3  and  N_4 
REMARK    3  A    between atoms: C_9  and  C_3 
REMARK    4  A    between atoms: N_4  and  C_8 
ROOT
ATOM      1  C   UNL d   1      -1.861  -2.666   0.540  0.00  0.00     0.032 A 
ATOM      2  C   UNL d   1      -2.538  -2.460  -0.675  0.00  0.00     0.052 A 
ATOM      3  C   UNL d   1      -2.404  -3.577   1.458  0.00  0.00     0.021 A 
ATOM      4  C   UNL d   1      -3.803  -3.024  -0.885  0.00  0.00     0.031 A 
ATOM      5  C   UNL d   1      -4.335  -3.912   0.047  0.00  0.00     0.002 A 
ATOM      6  C   UNL d   1      -3.625  -4.207   1.207  0.00  0.00     0.002 A 
ENDROOT
BRANCH   2   7
ATOM      7  N   UNL d   1      -1.994  -1.728  -1.742  0.00  0.00    -0.322 N 
ATOM      8  C   UNL d   1      -1.005  -2.153  -2.612  0.00  0.00     0.256 C 
ATOM      9  O   UNL d   1      -0.728  -1.457  -3.586  0.00  0.00    -0.267 OA
ATOM     10  H   UNL d   1      -2.601  -1.067  -2.213  0.00  0.00     0.169 HD
BRANCH   8  11
ATOM     11  C   UNL d   1      -0.306  -3.461  -2.465  0.00  0.00     0.032 A 
ATOM     12  C   UNL d   1      -0.984  -4.662  -2.214  0.00  0.00     0.018 A 
ATOM     13  C   UNL d   1      -0.286  -5.873  -2.157  0.00  0.00     0.025 A 
ATOM     14  C   UNL d   1       1.086  -5.893  -2.396  0.00  0.00     0.034 A 
ATOM     15  C   UNL d   1       1.762  -4.715  -2.701  0.00  0.00     0.025 A 
ATOM     16 CL   UNL d   1       1.939  -7.385  -2.342  0.00  0.00    -0.084 Cl
ATOM     17  C   UNL d   1       1.067  -3.501  -2.741  0.00  0.00     0.018 A 
ENDBRANCH   8  11
ENDBRANCH   2   7
BRANCH   1  18
ATOM     18  S   UNL d   1      -0.392  -1.750   1.015  0.00  0.00    -0.085 SA
BRANCH  18  19
ATOM     19  C   UNL d   1      -1.133  -0.439   2.028  0.00  0.00     0.051 A 
ATOM     20  C   UNL d   1      -1.310  -0.590   3.415  0.00  0.00     0.068 A 
ATOM     21 CL   UNL d   1      -0.792  -1.977   4.307  0.00  0.00    -0.081 Cl
ATOM     22  C   UNL d   1      -1.911   0.440   4.138  0.00  0.00     0.113 A 
ATOM     23  N   UNL d   1      -2.326   1.605   3.598  0.00  0.00    -0.372 N 
ATOM     24  C   UNL d   1      -2.111   1.753   2.272  0.00  0.00     0.113 A 
ATOM     25  HN  UNL d   1      -2.776   2.330   4.157  1.00  0.00     0.164 HD
ATOM     26  C   UNL d   1      -1.528   0.785   1.456  0.00  0.00     0.068 A 
ATOM     27 CL   UNL d   1      -1.306   1.189  -0.208  0.00  0.00    -0.081 Cl
ENDBRANCH  18  19
ENDBRANCH   1  18
TORSDOF 4
