REMARK  7 active torsions:
REMARK  status: ('A' for Active; 'I' for Inactive)
REMARK    1  A    between atoms: C_4  and  C_1 
REMARK    2  A    between atoms: C_2  and  N_5 
REMARK    3  A    between atoms: N_6  and  C_2 
REMARK       I    between atoms: C_3  and  N_7 
REMARK    4  A    between atoms: O_15  and  C_3 
REMARK    5  A    between atoms: N_5  and  C_10 
REMARK    6  A    between atoms: N_7  and  N_6 
REMARK    7  A    between atoms: C_19  and  O_15 
ROOT
ATOM      1  N   UNL d   1       0.383  -3.037   3.258  0.00  0.00    -0.332 N 
ATOM      2  H   UNL d   1      -0.116  -2.289   2.795  0.00  0.00     0.168 HD
ENDROOT
BRANCH   1   3
ATOM      3  C   UNL d   1       0.480  -4.173   2.472  0.00  0.00     0.191 C 
ATOM      4  S   UNL d   1       0.350  -5.774   2.942  0.00  0.00    -0.039 SA
BRANCH   3   5
ATOM      5  N   UNL d   1       0.601  -3.930   1.122  0.00  0.00    -0.272 N 
ATOM      6  H   UNL d   1       0.735  -4.787   0.575  0.00  0.00     0.189 HD
BRANCH   5   7
ATOM      7  N   UNL d   1       1.381  -2.860   0.650  0.00  0.00    -0.243 N 
ATOM      8  C   UNL d   1       2.181  -3.101  -0.444  0.00  0.00     0.379 C 
ATOM      9  O   UNL d   1       2.393  -4.215  -0.905  0.00  0.00    -0.237 OA
ATOM     10  H   UNL d   1       1.137  -1.906   0.882  0.00  0.00     0.192 HD
BRANCH   8  11
ATOM     11  O   UNL d   1       2.651  -1.935  -0.953  0.00  0.00    -0.303 OA
BRANCH  11  12
ATOM     12  C   UNL d   1       3.483  -2.066  -2.116  0.00  0.00     0.176 C 
ATOM     13  C   UNL d   1       2.645  -2.253  -3.370  0.00  0.00     0.034 C 
ENDBRANCH  11  12
ENDBRANCH   8  11
ENDBRANCH   5   7
ENDBRANCH   3   5
ENDBRANCH   1   3
BRANCH   1  14
ATOM     14  C   UNL d   1       0.391  -2.992   4.670  0.00  0.00     0.035 A 
ATOM     15  C   UNL d   1       1.268  -3.772   5.429  0.00  0.00     0.045 A 
ATOM     16  C   UNL d   1       1.210  -3.771   6.832  0.00  0.00     0.050 A 
ATOM     17  C   UNL d   1       0.274  -2.945   7.469  0.00  0.00     0.016 A 
ATOM     18  C   UNL d   1      -0.563  -2.118   6.718  0.00  0.00     0.003 A 
ATOM     19  C   UNL d   1      -0.492  -2.128   5.322  0.00  0.00     0.029 A 
BRANCH  16  20
ATOM     20  C   UNL d   1       2.118  -4.662   7.642  0.00  0.00     0.417 C 
ATOM     21  F   UNL d   1       3.020  -5.355   6.894  0.00  0.00    -0.166 F 
ATOM     22  F   UNL d   1       1.429  -5.594   8.357  0.00  0.00    -0.166 F 
ATOM     23  F   UNL d   1       2.852  -3.963   8.553  0.00  0.00    -0.166 F 
ENDBRANCH  16  20
ENDBRANCH   1  14
TORSDOF 7
