REMARK  2 active torsions:
REMARK  status: ('A' for Active; 'I' for Inactive)
REMARK    1  A    between atoms: C_8  and  N_1 
REMARK    2  A    between atoms: S_14  and  C_2 
ROOT
ATOM      1  N   UNL d   1       2.414   0.685  -0.084  0.00  0.00    -0.258 N 
ATOM      2  C   UNL d   1       2.340  -0.711  -0.079  0.00  0.00     0.152 A 
ATOM      3  C   UNL d   1       1.249   1.444   0.041  0.00  0.00     0.266 A 
ATOM      4  N   UNL d   1       1.234  -1.376  -0.007  0.00  0.00    -0.336 N 
ATOM      5  HN  UNL d   1       1.246  -2.396   0.022  1.00  0.00     0.168 HD
ATOM      6  C   UNL d   1      -0.030   0.705   0.033  0.00  0.00     0.059 A 
ATOM      7  C   UNL d   1       0.025  -0.684   0.029  0.00  0.00     0.051 A 
ATOM      8  C   UNL d   1      -1.260   1.373  -0.004  0.00  0.00     0.021 A 
ATOM      9  C   UNL d   1      -1.167  -1.415   0.032  0.00  0.00     0.054 A 
ATOM     10  O   UNL d   1       1.207   2.668   0.127  0.00  0.00    -0.267 OA
ATOM     11  C   UNL d   1      -2.394  -0.754  -0.014  0.00  0.00     0.036 A 
ATOM     12  C   UNL d   1      -2.446   0.638  -0.043  0.00  0.00     0.025 A 
ATOM     13 CL   UNL d   1      -3.853  -1.664  -0.057  0.00  0.00    -0.084 Cl
ENDROOT
BRANCH   1  14
ATOM     14  C   UNL d   1       3.648   1.402  -0.167  0.00  0.00     0.046 A 
ATOM     15  C   UNL d   1       4.481   1.270  -1.286  0.00  0.00     0.055 A 
ATOM     16  C   UNL d   1       5.738   1.889  -1.308  0.00  0.00     0.058 A 
ATOM     17 CL   UNL d   1       6.739   1.616  -2.690  0.00  0.00    -0.082 Cl
ATOM     18  C   UNL d   1       6.155   2.668  -0.223  0.00  0.00     0.055 A 
ATOM     19  C   UNL d   1       5.298   2.856   0.864  0.00  0.00     0.028 A 
ATOM     20 CL   UNL d   1       7.719   3.397  -0.151  0.00  0.00    -0.083 Cl
ATOM     21  C   UNL d   1       4.048   2.233   0.888  0.00  0.00     0.032 A 
ENDBRANCH   1  14
BRANCH   2  22
ATOM     22  S   UNL d   1       3.781  -1.719  -0.105  0.00  0.00    -0.106 SA
ATOM     23  H   UNL d   1       4.717  -0.799   0.133  0.00  0.00     0.110 HD
ENDBRANCH   2  22
TORSDOF 2
