REMARK  6 active torsions:
REMARK  status: ('A' for Active; 'I' for Inactive)
REMARK    1  A    between atoms: C_2  and  C_1 
REMARK       I    between atoms: N_4  and  C_1 
REMARK    2  A    between atoms: O_19  and  C_3 
REMARK    3  A    between atoms: C_12  and  N_4 
REMARK    4  A    between atoms: O_20  and  C_5 
REMARK    5  A    between atoms: O_21  and  C_6 
REMARK    6  A    between atoms: C_10  and  C_12 
ROOT
ATOM      1  C   UNL d   1       0.954  -0.043   0.029  0.00  0.00     0.252 C 
ATOM      2  N   UNL d   1       0.125  -1.129  -0.148  0.00  0.00    -0.349 N 
ATOM      3  O   UNL d   1       2.161  -0.144   0.269  0.00  0.00    -0.268 OA
ATOM      4  H   UNL d   1      -0.873  -0.994  -0.086  0.00  0.00     0.163 HD
ENDROOT
BRANCH   1   5
ATOM      5  C   UNL d   1       0.347   1.319  -0.091  0.00  0.00     0.037 A 
ATOM      6  C   UNL d   1       1.007   2.409   0.493  0.00  0.00     0.057 A 
ATOM      7  C   UNL d   1       0.549   3.721   0.301  0.00  0.00     0.105 A 
ATOM      8  C   UNL d   1      -0.618   3.944  -0.452  0.00  0.00     0.135 A 
ATOM      9  C   UNL d   1      -1.291   2.844  -1.030  0.00  0.00     0.105 A 
ATOM     10  C   UNL d   1      -0.801   1.542  -0.856  0.00  0.00     0.057 A 
BRANCH   7  11
ATOM     11  O   UNL d   1       1.205   4.806   0.822  0.00  0.00    -0.353 OA
ATOM     12  C   UNL d   1       2.612   4.684   0.995  0.00  0.00     0.210 C 
ENDBRANCH   7  11
BRANCH   8  13
ATOM     13  O   UNL d   1      -1.103   5.184  -0.807  0.00  0.00    -0.351 OA
ATOM     14  C   UNL d   1      -1.141   6.185   0.202  0.00  0.00     0.210 C 
ENDBRANCH   8  13
BRANCH   9  15
ATOM     15  O   UNL d   1      -2.397   3.138  -1.796  0.00  0.00    -0.353 OA
ATOM     16  C   UNL d   1      -3.298   2.072  -2.067  0.00  0.00     0.210 C 
ENDBRANCH   9  15
ENDBRANCH   1   5
BRANCH   2  17
ATOM     17  C   UNL d   1       0.607  -2.510  -0.071  0.00  0.00     0.114 C 
ATOM     18  C   UNL d   1       0.293  -3.246  -1.369  0.00  0.00     0.037 C 
BRANCH  17  19
ATOM     19  C   UNL d   1       0.032  -3.158   1.175  0.00  0.00    -0.033 C 
ATOM     20  C   UNL d   1       0.803  -3.112   2.344  0.00  0.00     0.049 C 
ATOM     21  C   UNL d   1       0.203  -3.340   3.571  0.00  0.00     0.102 C 
ATOM     22  O   UNL d   1       0.942  -3.113   4.701  0.00  0.00    -0.346 OA
ATOM     23  C   UNL d   1      -1.150  -3.653   3.656  0.00  0.00     0.102 C 
ATOM     24  C   UNL d   1       0.164  -2.219   5.490  0.00  0.00     0.202 C 
ATOM     25  C   UNL d   1      -1.202  -2.812   5.842  0.00  0.00     0.202 C 
ATOM     26  O   UNL d   1      -1.819  -3.648   4.846  0.00  0.00    -0.346 OA
ATOM     27  C   UNL d   1      -1.877  -3.896   2.497  0.00  0.00     0.040 C 
ATOM     28  C   UNL d   1      -1.293  -3.631   1.254  0.00  0.00     0.012 C 
ENDBRANCH  17  19
ENDBRANCH   2  17
TORSDOF 6
