REMARK  3 active torsions:
REMARK  status: ('A' for Active; 'I' for Inactive)
REMARK    1  A    between atoms: C_14  and  N_11 
REMARK    2  A    between atoms: C_20  and  C_14 
REMARK    3  A    between atoms: O_21  and  C_20 
ROOT
ATOM      1  C   UNL d   1       1.068  -0.793  -0.052  0.00  0.00     0.160 A 
ATOM      2  C   UNL d   1       0.680   0.511   0.022  0.00  0.00     0.164 A 
ATOM      3  N   UNL d   1       0.000  -1.637  -0.141  0.00  0.00    -0.174 N 
ATOM      4  HN  UNL d   1       0.016  -2.654  -0.224  1.00  0.00     0.186 HD
ATOM      5  C   UNL d   1      -1.056  -0.851  -0.097  0.00  0.00     0.685 A 
ATOM      6  N   UNL d   1       2.397  -1.147  -0.045  0.00  0.00    -0.287 N 
ATOM      7  N   UNL d   1       2.929   1.185   0.071  0.00  0.00    -0.269 N 
ATOM      8  N   UNL d   1      -0.681   0.470  -0.007  0.00  0.00    -0.174 N 
ATOM      9  C   UNL d   1       3.374  -0.149   0.016  0.00  0.00     0.332 A 
ATOM     10  C   UNL d   1       1.591   1.595   0.101  0.00  0.00     0.282 A 
ATOM     11  N   UNL d   1      -2.366  -1.181  -0.204  0.00  0.00    -0.215 N 
ATOM     12  O   UNL d   1       4.577  -0.435   0.021  0.00  0.00    -0.246 OA
ATOM     13  O   UNL d   1       1.235   2.766   0.183  0.00  0.00    -0.265 OA
ATOM     14  C   UNL d   1      -1.611   1.577   0.043  0.00  0.00     0.150 C 
ATOM     15  C   UNL d   1       2.822  -2.531  -0.106  0.00  0.00     0.163 C 
ATOM     16  C   UNL d   1       3.917   2.244   0.110  0.00  0.00     0.164 C 
ATOM     17  C   UNL d   1      -3.363  -0.203   0.223  0.00  0.00     0.143 C 
ATOM     18  C   UNL d   1      -3.016   1.158  -0.378  0.00  0.00     0.041 C 
ENDROOT
BRANCH  11  19
ATOM     19  C   UNL d   1      -2.755  -2.599  -0.283  0.00  0.00     0.172 C 
BRANCH  19  20
ATOM     20  C   UNL d   1      -2.501  -3.174  -1.700  0.00  0.00     0.132 C 
ATOM     21  C   UNL d   1      -3.177  -4.527  -1.877  0.00  0.00     0.041 C 
BRANCH  20  22
ATOM     22  O   UNL d   1      -1.111  -3.389  -1.964  0.00  0.00    -0.394 OA
ATOM     23  H   UNL d   1      -0.614  -2.756  -1.401  0.00  0.00     0.210 HD
ENDBRANCH  20  22
ENDBRANCH  19  20
ENDBRANCH  11  19
TORSDOF 3
