REMARK  2 active torsions:
REMARK  status: ('A' for Active; 'I' for Inactive)
REMARK    1  A    between atoms: C_9  and  C_1 
REMARK    2  A    between atoms: O_11  and  C_2 
ROOT
ATOM      1  C   UNL d   1       2.398   0.764  -0.047  0.00  0.00     0.076 A 
ATOM      2  C   UNL d   1       1.225   1.432  -0.035  0.00  0.00     0.094 A 
ATOM      3  C   UNL d   1       2.396  -0.736  -0.024  0.00  0.00     0.259 A 
ATOM      4  N   UNL d   1       1.183  -1.365   0.025  0.00  0.00    -0.322 N 
ATOM      5  C   UNL d   1      -0.059   0.708  -0.011  0.00  0.00     0.025 A 
ATOM      6  C   UNL d   1      -0.042  -0.694   0.021  0.00  0.00     0.051 A 
ATOM      7  C   UNL d   1      -1.226  -1.431   0.029  0.00  0.00     0.072 A 
ATOM      8  C   UNL d   1      -1.297   1.365  -0.038  0.00  0.00     0.020 A 
ATOM      9  O   UNL d   1       3.435  -1.393  -0.049  0.00  0.00    -0.267 OA
ATOM     10  C   UNL d   1      -2.439  -0.755  -0.013  0.00  0.00     0.118 A 
ATOM     11  C   UNL d   1      -2.487   0.634  -0.046  0.00  0.00     0.043 A 
ATOM     12  F   UNL d   1      -3.582  -1.454  -0.030  0.00  0.00    -0.206 F 
ATOM     13  H   UNL d   1       1.217  -2.376   0.037  0.00  0.00     0.169 HD
ENDROOT
BRANCH   1  14
ATOM     14  C   UNL d   1       3.686   1.476  -0.094  0.00  0.00    -0.018 A 
ATOM     15  C   UNL d   1       4.340   1.837   1.092  0.00  0.00     0.012 A 
ATOM     16  C   UNL d   1       5.546   2.538   1.045  0.00  0.00     0.001 A 
ATOM     17  C   UNL d   1       6.104   2.886  -0.185  0.00  0.00     0.000 A 
ATOM     18  C   UNL d   1       5.459   2.531  -1.369  0.00  0.00     0.001 A 
ATOM     19  C   UNL d   1       4.253   1.830  -1.325  0.00  0.00     0.012 A 
ENDBRANCH   1  14
BRANCH   2  20
ATOM     20  O   UNL d   1       1.115   2.812  -0.059  0.00  0.00    -0.359 OA
ATOM     21  H   UNL d   1       2.007   3.200  -0.103  0.00  0.00     0.217 HD
ENDBRANCH   2  20
TORSDOF 2
