REMARK  7 active torsions:
REMARK  status: ('A' for Active; 'I' for Inactive)
REMARK    1  A    between atoms: N_2  and  C_1 
REMARK    2  A    between atoms: N_4  and  C_1 
REMARK    3  A    between atoms: C_3  and  N_2 
REMARK    4  A    between atoms: C_11  and  N_4 
REMARK    5  A    between atoms: C_19  and  N_4 
REMARK    6  A    between atoms: C_17  and  C_11 
REMARK    7  A    between atoms: C_18  and  C_19 
ROOT
ATOM      1  N   UNL d   1      -4.231   0.916  -2.620  0.00  0.00    -0.197 NA
ATOM      2  C   UNL d   1      -3.074   0.972  -2.538  0.00  0.00     0.060 C 
ATOM      3  C   UNL d   1      -1.610   1.041  -2.437  0.00  0.00     0.143 C 
ENDROOT
BRANCH   3   4
ATOM      4  C   UNL d   1      -1.174   0.950  -0.973  0.00  0.00     0.139 C 
BRANCH   4   5
ATOM      5  N   UNL d   1       0.290   0.917  -0.732  0.00  0.00    -0.353 N 
BRANCH   5   6
ATOM      6  C   UNL d   1       0.748   0.409   0.477  0.00  0.00     0.170 C 
ATOM      7  S   UNL d   1       1.804   1.164   1.538  0.00  0.00    -0.041 SA
BRANCH   6   8
ATOM      8  N   UNL d   1       0.335  -0.843   0.837  0.00  0.00    -0.362 N 
ATOM      9  H   UNL d   1       0.757  -1.109   1.723  0.00  0.00     0.162 HD
BRANCH   8  10
ATOM     10  C   UNL d   1       0.162  -1.960  -0.086  0.00  0.00     0.092 C 
ATOM     11  C   UNL d   1       1.431  -2.332  -0.905  0.00  0.00     0.031 C 
ATOM     12  C   UNL d   1       2.565  -2.689   0.033  0.00  0.00    -0.024 C 
ATOM     13  C   UNL d   1       1.050  -3.746  -1.356  0.00  0.00     0.019 C 
ATOM     14  C   UNL d   1       2.242  -3.852   0.620  0.00  0.00    -0.026 C 
ATOM     15  C   UNL d   1       0.896  -4.267   0.076  0.00  0.00     0.010 C 
ATOM     16  C   UNL d   1      -0.166  -3.299   0.648  0.00  0.00     0.034 C 
ENDBRANCH   8  10
ENDBRANCH   6   8
ENDBRANCH   5   6
BRANCH   5  17
ATOM     17  C   UNL d   1       1.150   1.828  -1.517  0.00  0.00     0.165 C 
BRANCH  17  18
ATOM     18  C   UNL d   1       0.760   3.282  -1.556  0.00  0.00    -0.025 A 
ATOM     19  C   UNL d   1       0.200   3.955  -0.478  0.00  0.00     0.096 A 
ATOM     20  N   UNL d   1      -0.185   5.253  -0.504  0.00  0.00    -0.375 N 
ATOM     21  C   UNL d   1       0.035   5.932  -1.648  0.00  0.00     0.087 A 
ATOM     22  HN  UNL d   1      -0.620   5.697   0.305  1.00  0.00     0.164 HD
ATOM     23  C   UNL d   1       0.627   5.375  -2.766  0.00  0.00     0.018 A 
ATOM     24  C   UNL d   1       0.997   4.037  -2.716  0.00  0.00     0.011 A 
ENDBRANCH  17  18
ENDBRANCH   5  17
ENDBRANCH   4   5
ENDBRANCH   3   4
TORSDOF 7
