REMARK  3 active torsions:
REMARK  status: ('A' for Active; 'I' for Inactive)
REMARK       I    between atoms: C_2  and  N_1 
REMARK       I    between atoms: N_7  and  C_2 
REMARK    1  A    between atoms: C_11  and  N_7 
REMARK    2  A    between atoms: O_20  and  C_9 
REMARK    3  A    between atoms: O_21  and  C_12 
ROOT
ATOM      1  N   UNL d   1      -2.504   0.658  -0.164  0.00  0.00    -0.325 N 
ATOM      2  C   UNL d   1      -3.330   1.005  -1.232  0.00  0.00     0.323 C 
ATOM      3  C   UNL d   1      -0.070   0.590   0.316  0.00  0.00    -0.026 A 
ATOM      4  C   UNL d   1      -1.356   1.409   0.374  0.00  0.00     0.118 C 
ATOM      5  C   UNL d   1      -0.086  -0.793   0.064  0.00  0.00    -0.045 A 
ATOM      6  C   UNL d   1       1.167   1.238   0.486  0.00  0.00     0.049 A 
ATOM      7  N   UNL d   1      -3.161   2.270  -1.752  0.00  0.00    -0.309 N 
ATOM      8  C   UNL d   1      -2.590  -0.720   0.328  0.00  0.00     0.133 C 
ATOM      9  C   UNL d   1       2.373   0.534   0.386  0.00  0.00     0.102 A 
ATOM     10  C   UNL d   1       1.125  -1.495  -0.055  0.00  0.00     0.047 A 
ATOM     11  C   UNL d   1       2.353  -0.842   0.097  0.00  0.00     0.102 A 
ATOM     12  O   UNL d   1      -4.146   0.189  -1.665  0.00  0.00    -0.247 OA
ATOM     13  C   UNL d   1      -1.389  -1.526  -0.165  0.00  0.00     0.059 C 
ATOM     14  C   UNL d   1      -1.651   1.891   1.799  0.00  0.00     0.037 C 
ATOM     15  H   UNL d   1      -2.524   2.889  -1.286  0.00  0.00     0.170 HD
ENDROOT
BRANCH   7  16
ATOM     16  C   UNL d   1      -3.792   2.826  -2.891  0.00  0.00     0.037 A 
ATOM     17  C   UNL d   1      -4.775   2.172  -3.638  0.00  0.00     0.036 A 
ATOM     18  C   UNL d   1      -5.335   2.765  -4.779  0.00  0.00    -0.059 A 
ATOM     19  C   UNL d   1      -6.370   2.037  -5.586  0.00  0.00     0.048 C 
ATOM     20  C   UNL d   1      -4.900   4.032  -5.176  0.00  0.00     0.013 A 
ATOM     21  C   UNL d   1      -3.928   4.716  -4.438  0.00  0.00    -0.059 A 
ATOM     22  C   UNL d   1      -3.380   4.104  -3.299  0.00  0.00     0.036 A 
ATOM     23  C   UNL d   1      -3.456   6.061  -4.902  0.00  0.00     0.048 C 
ENDBRANCH   7  16
BRANCH   9  24
ATOM     24  O   UNL d   1       3.610   1.120   0.499  0.00  0.00    -0.353 OA
ATOM     25  C   UNL d   1       3.676   2.357   1.197  0.00  0.00     0.210 C 
ENDBRANCH   9  24
BRANCH  11  26
ATOM     26  O   UNL d   1       3.578  -1.454  -0.008  0.00  0.00    -0.353 OA
ATOM     27  C   UNL d   1       3.599  -2.827  -0.368  0.00  0.00     0.210 C 
ENDBRANCH  11  26
TORSDOF 3
