REMARK  6 active torsions:
REMARK  status: ('A' for Active; 'I' for Inactive)
REMARK    1  A    between atoms: C_4  and  C_1 
REMARK    2  A    between atoms: C_2  and  N_7 
REMARK    3  A    between atoms: N_6  and  C_2 
REMARK       I    between atoms: C_3  and  N_5 
REMARK    4  A    between atoms: C_14  and  C_3 
REMARK    5  A    between atoms: N_5  and  N_6 
REMARK    6  A    between atoms: N_7  and  C_10 
ROOT
ATOM      1  C   UNL d   1      -0.938  -3.098  -3.123  0.00  0.00     0.191 C 
ATOM      2  S   UNL d   1      -1.771  -4.459  -3.644  0.00  0.00    -0.039 SA
ENDROOT
BRANCH   1   3
ATOM      3  N   UNL d   1      -0.973  -1.991  -3.920  0.00  0.00    -0.332 N 
ATOM      4  H   UNL d   1      -1.652  -2.093  -4.669  0.00  0.00     0.168 HD
BRANCH   3   5
ATOM      5  C   UNL d   1      -0.106  -0.880  -4.046  0.00  0.00     0.035 A 
ATOM      6  C   UNL d   1      -0.408   0.023  -5.078  0.00  0.00     0.045 A 
ATOM      7  C   UNL d   1       0.436   1.107  -5.379  0.00  0.00     0.050 A 
ATOM      8  C   UNL d   1       1.578   1.311  -4.597  0.00  0.00     0.016 A 
ATOM      9  C   UNL d   1       1.881   0.431  -3.562  0.00  0.00     0.003 A 
ATOM     10  C   UNL d   1       1.056  -0.669  -3.303  0.00  0.00     0.029 A 
BRANCH   7  11
ATOM     11  C   UNL d   1       0.159   2.010  -6.554  0.00  0.00     0.417 C 
ATOM     12  F   UNL d   1      -1.003   1.720  -7.202  0.00  0.00    -0.166 F 
ATOM     13  F   UNL d   1       1.138   1.940  -7.500  0.00  0.00    -0.166 F 
ATOM     14  F   UNL d   1       0.073   3.322  -6.201  0.00  0.00    -0.166 F 
ENDBRANCH   7  11
ENDBRANCH   3   5
ENDBRANCH   1   3
BRANCH   1  15
ATOM     15  N   UNL d   1      -0.231  -3.045  -1.962  0.00  0.00    -0.273 N 
ATOM     16  H   UNL d   1      -0.051  -2.162  -1.489  0.00  0.00     0.189 HD
BRANCH  15  17
ATOM     17  N   UNL d   1       0.128  -4.193  -1.245  0.00  0.00    -0.264 N 
ATOM     18  C   UNL d   1       1.202  -4.078  -0.381  0.00  0.00     0.270 C 
ATOM     19  O   UNL d   1       1.703  -2.985  -0.111  0.00  0.00    -0.266 OA
ATOM     20  H   UNL d   1      -0.284  -5.067  -1.556  0.00  0.00     0.190 HD
BRANCH  18  21
ATOM     21  C   UNL d   1       1.745  -5.320   0.236  0.00  0.00     0.036 A 
ATOM     22  C   UNL d   1       1.395  -6.606  -0.179  0.00  0.00     0.034 A 
ATOM     23  C   UNL d   1       1.978  -7.680   0.475  0.00  0.00     0.088 A 
ATOM     24  N   UNL d   1       2.864  -7.557   1.485  0.00  0.00    -0.375 N 
ATOM     25  C   UNL d   1       3.196  -6.306   1.859  0.00  0.00     0.088 A 
ATOM     26  HN  UNL d   1       3.265  -8.375   1.944  1.00  0.00     0.164 HD
ATOM     27  C   UNL d   1       2.673  -5.170   1.272  0.00  0.00     0.034 A 
ENDBRANCH  18  21
ENDBRANCH  15  17
ENDBRANCH   1  15
TORSDOF 6
