REMARK  7 active torsions:
REMARK  status: ('A' for Active; 'I' for Inactive)
REMARK    1  A    between atoms: C_7  and  C_1 
REMARK    2  A    between atoms: C_8  and  N_2 
REMARK    3  A    between atoms: C_13  and  C_6 
REMARK       I    between atoms: N_11  and  C_7 
REMARK    4  A    between atoms: C_9  and  C_8 
REMARK    5  A    between atoms: C_10  and  N_14 
REMARK    6  A    between atoms: N_19  and  C_10 
REMARK    7  A    between atoms: N_14  and  N_11 
ROOT
ATOM      1  C   UNL d   1      -0.384  -1.337   0.354  0.00  0.00     0.122 A 
ATOM      2  N   UNL d   1       0.846  -0.734   0.244  0.00  0.00    -0.282 N 
ATOM      3  N   UNL d   1       0.783   0.602   0.057  0.00  0.00    -0.301 N 
ATOM      4  HN  UNL d   1       1.562   1.244  -0.084  1.00  0.00     0.187 HD
ATOM      5  C   UNL d   1      -1.282  -0.278   0.237  0.00  0.00     0.064 A 
ATOM      6  C   UNL d   1      -0.518   0.902   0.096  0.00  0.00     0.036 A 
ENDROOT
BRANCH   1   7
ATOM      7  C   UNL d   1      -0.759  -2.735   0.489  0.00  0.00     0.288 C 
ATOM      8  N   UNL d   1       0.106  -3.634   1.117  0.00  0.00    -0.262 N 
ATOM      9  H   UNL d   1       1.056  -3.413   1.366  0.00  0.00     0.190 HD
ATOM     10  O   UNL d   1      -1.840  -3.143   0.059  0.00  0.00    -0.264 OA
BRANCH   8  11
ATOM     11  N   UNL d   1      -0.183  -4.996   0.908  0.00  0.00    -0.274 N 
ATOM     12  H   UNL d   1      -0.868  -5.194   0.175  0.00  0.00     0.189 HD
BRANCH  11  13
ATOM     13  C   UNL d   1       0.317  -6.058   1.607  0.00  0.00     0.186 C 
ATOM     14  S   UNL d   1      -0.079  -7.589   1.063  0.00  0.00    -0.040 SA
BRANCH  13  15
ATOM     15  N   UNL d   1       1.115  -5.767   2.680  0.00  0.00    -0.370 N 
ATOM     16  C   UNL d   1       1.728  -6.727   3.588  0.00  0.00     0.148 C 
ATOM     17  H   UNL d   1       1.092  -4.808   2.996  0.00  0.00     0.161 HD
ENDBRANCH  13  15
ENDBRANCH  11  13
ENDBRANCH   8  11
ENDBRANCH   1   7
BRANCH   2  18
ATOM     18  C   UNL d   1       2.184  -1.304   0.382  0.00  0.00     0.189 C 
BRANCH  18  19
ATOM     19  C   UNL d   1       2.568  -1.478   1.841  0.00  0.00    -0.017 A 
ATOM     20  C   UNL d   1       3.417  -2.517   2.257  0.00  0.00     0.043 A 
ATOM     21  C   UNL d   1       3.704  -2.710   3.608  0.00  0.00     0.048 A 
ATOM     22 CL   UNL d   1       4.104  -3.630   1.132  0.00  0.00    -0.084 Cl
ATOM     23  C   UNL d   1       3.161  -1.851   4.564  0.00  0.00     0.035 A 
ATOM     24  C   UNL d   1       2.370  -0.780   4.176  0.00  0.00     0.024 A 
ATOM     25 CL   UNL d   1       3.467  -2.122   6.233  0.00  0.00    -0.084 Cl
ATOM     26  C   UNL d   1       2.092  -0.583   2.823  0.00  0.00     0.012 A 
ENDBRANCH  18  19
ENDBRANCH   2  18
BRANCH   6  27
ATOM     27  C   UNL d   1      -0.950   2.360   0.026  0.00  0.00    -0.007 C 
ATOM     28  C   UNL d   1      -2.483   2.519   0.044  0.00  0.00     0.021 C 
ATOM     29  C   UNL d   1      -0.382   3.125   1.244  0.00  0.00     0.021 C 
ATOM     30  C   UNL d   1      -0.419   3.024  -1.261  0.00  0.00     0.021 C 
ENDBRANCH   6  27
TORSDOF 7
