REMARK  5 active torsions:
REMARK  status: ('A' for Active; 'I' for Inactive)
REMARK    1  A    between atoms: C_7  and  C_1 
REMARK    2  A    between atoms: C_8  and  C_6 
REMARK    3  A    between atoms: O_12  and  C_7 
REMARK    4  A    between atoms: N_9  and  O_12 
REMARK    5  A    between atoms: C_15  and  C_13 
ROOT
ATOM      1  C   UNL d   1      -0.361  -2.688   0.046  0.00  0.00     0.333 C 
ATOM      2  O   UNL d   1      -1.535  -3.038   0.063  0.00  0.00    -0.256 OA
ENDROOT
BRANCH   1   3
ATOM      3  C   UNL d   1       0.094  -1.312   0.003  0.00  0.00     0.129 A 
ATOM      4  N   UNL d   1      -0.688  -0.177  -0.031  0.00  0.00    -0.291 N 
ATOM      5  N   UNL d   1       0.031   0.967  -0.060  0.00  0.00    -0.302 N 
ATOM      6  C   UNL d   1      -2.125  -0.033  -0.064  0.00  0.00     0.178 C 
ATOM      7  C   UNL d   1       1.309   0.577  -0.037  0.00  0.00     0.036 A 
ATOM      8  HN  UNL d   1      -0.325   1.922  -0.093  1.00  0.00     0.186 HD
ATOM      9  C   UNL d   1       1.393  -0.833  -0.016  0.00  0.00     0.065 A 
BRANCH   7  10
ATOM     10  C   UNL d   1       2.446   1.586  -0.071  0.00  0.00    -0.007 C 
ATOM     11  C   UNL d   1       2.816   1.909  -1.531  0.00  0.00     0.021 C 
ATOM     12  C   UNL d   1       2.059   2.899   0.643  0.00  0.00     0.021 C 
ATOM     13  C   UNL d   1       3.700   1.025   0.633  0.00  0.00     0.021 C 
ENDBRANCH   7  10
ENDBRANCH   1   3
BRANCH   1  14
ATOM     14  O   UNL d   1       0.735  -3.538   0.061  0.00  0.00    -0.194 OA
BRANCH  14  15
ATOM     15  N   UNL d   1       0.314  -4.886   0.108  0.00  0.00    -0.268 N 
ATOM     16  C   UNL d   1       1.336  -5.684   0.127  0.00  0.00     0.126 C 
ATOM     17  HN  UNL d   1      -0.659  -5.190   0.126  1.00  0.00     0.194 HD
BRANCH  16  18
ATOM     18  C   UNL d   1       1.155  -7.156   0.177  0.00  0.00    -0.019 A 
ATOM     19  C   UNL d   1      -0.130  -7.709   0.201  0.00  0.00     0.013 A 
ATOM     20  C   UNL d   1      -0.295  -9.093   0.244  0.00  0.00     0.001 A 
ATOM     21  C   UNL d   1       0.820  -9.929   0.269  0.00  0.00     0.000 A 
ATOM     22  C   UNL d   1       2.104  -9.382   0.249  0.00  0.00     0.001 A 
ATOM     23  C   UNL d   1       2.276  -7.994   0.203  0.00  0.00     0.013 A 
ENDBRANCH  16  18
ENDBRANCH  14  15
ENDBRANCH   1  14
TORSDOF 5
