REMARK  4 active torsions:
REMARK  status: ('A' for Active; 'I' for Inactive)
REMARK    1  A    between atoms: C_13  and  C_1 
REMARK    2  A    between atoms: C_2  and  C_14 
REMARK    3  A    between atoms: C_17  and  C_13 
REMARK    4  A    between atoms: C_14  and  C_16 
ROOT
ATOM      1  C   UNL d   1      -1.528   4.218  -0.737  0.00  0.00     0.135 C 
ATOM      2  C   UNL d   1      -1.247   5.560  -0.058  0.00  0.00     0.060 C 
ATOM      3  C   UNL d   1      -2.255   3.253   0.177  0.00  0.00     0.060 C 
ATOM      4  O   UNL d   1      -1.333   4.034  -1.937  0.00  0.00    -0.297 OA
ATOM      5  C   UNL d   1      -1.446   5.232   1.418  0.00  0.00     0.013 C 
ATOM      6  C   UNL d   1      -1.826   3.754   1.551  0.00  0.00     0.013 C 
ENDROOT
BRANCH   2   7
ATOM      7  C   UNL d   1      -2.250   6.595  -0.639  0.00  0.00     0.052 C 
BRANCH   7   8
ATOM      8  C   UNL d   1      -2.350   8.064  -0.199  0.00  0.00    -0.044 C 
ATOM      9  C   UNL d   1      -1.246   8.821   0.255  0.00  0.00    -0.049 C 
ATOM     10  C   UNL d   1      -1.437  10.103   0.846  0.00  0.00    -0.049 C 
ATOM     11  C   UNL d   1       0.176   8.442  -0.082  0.00  0.00     0.049 C 
ATOM     12  C   UNL d   1      -0.312  10.780   1.599  0.00  0.00     0.049 C 
ATOM     13  C   UNL d   1      -2.647  10.797   0.643  0.00  0.00    -0.049 C 
ATOM     14  C   UNL d   1      -3.712  10.145  -0.017  0.00  0.00    -0.049 C 
ATOM     15  C   UNL d   1      -2.722  12.263   1.025  0.00  0.00     0.049 C 
ATOM     16  C   UNL d   1      -3.590   8.764  -0.376  0.00  0.00    -0.049 C 
ATOM     17  C   UNL d   1      -4.939  10.954  -0.387  0.00  0.00     0.049 C 
ATOM     18  C   UNL d   1      -4.783   8.118  -1.055  0.00  0.00     0.049 C 
ENDBRANCH   7   8
ENDBRANCH   2   7
BRANCH   3  19
ATOM     19  C   UNL d   1      -2.159   1.731  -0.043  0.00  0.00     0.052 C 
BRANCH  19  20
ATOM     20  C   UNL d   1      -0.799   1.023  -0.051  0.00  0.00    -0.044 C 
ATOM     21  C   UNL d   1      -0.235   0.483   1.143  0.00  0.00    -0.049 C 
ATOM     22  C   UNL d   1       1.083  -0.063   1.132  0.00  0.00    -0.049 C 
ATOM     23  C   UNL d   1      -1.006   0.422   2.447  0.00  0.00     0.049 C 
ATOM     24  C   UNL d   1       1.767  -0.491   2.415  0.00  0.00     0.049 C 
ATOM     25  C   UNL d   1       1.762  -0.256  -0.095  0.00  0.00    -0.049 C 
ATOM     26  C   UNL d   1       1.164   0.166  -1.303  0.00  0.00    -0.049 C 
ATOM     27  C   UNL d   1       3.115  -0.944  -0.082  0.00  0.00     0.049 C 
ATOM     28  C   UNL d   1      -0.103   0.830  -1.286  0.00  0.00    -0.049 C 
ATOM     29  C   UNL d   1       1.881  -0.113  -2.610  0.00  0.00     0.049 C 
ATOM     30  C   UNL d   1      -0.689   1.243  -2.617  0.00  0.00     0.049 C 
ENDBRANCH  19  20
ENDBRANCH   3  19
TORSDOF 4
