REMARK  9 active torsions:
REMARK  status: ('A' for Active; 'I' for Inactive)
REMARK    1  A    between atoms: C_2  and  S_1 
REMARK    2  A    between atoms: N_5  and  S_1 
REMARK    3  A    between atoms: O_9  and  C_3 
REMARK    4  A    between atoms: C_17  and  N_5 
REMARK    5  A    between atoms: C_6  and  C_20 
REMARK    6  A    between atoms: C_7  and  C_22 
REMARK    7  A    between atoms: C_20  and  O_9 
REMARK    8  A    between atoms: O_19  and  C_14 
REMARK    9  A    between atoms: C_22  and  O_19 
ROOT
ATOM      1  C   UNL d   1       0.355  -1.385   1.011  0.00  0.00     0.109 C 
ATOM      2  C   UNL d   1      -0.480  -1.279   2.140  0.00  0.00     0.115 C 
ATOM      3  C   UNL d   1      -0.676  -2.438   2.937  0.00  0.00     0.112 C 
ATOM      4  C   UNL d   1      -1.176  -2.329   4.275  0.00  0.00     0.105 C 
ATOM      5  N   UNL d   1      -1.626  -2.258   5.344  0.00  0.00    -0.191 NA
ATOM      6  C   UNL d   1       0.860  -2.632   0.611  0.00  0.00     0.030 C 
ATOM      7  C   UNL d   1      -0.247  -3.702   2.474  0.00  0.00     0.092 C 
ATOM      8  C   UNL d   1       0.526  -3.781   1.317  0.00  0.00     0.040 C 
ENDROOT
BRANCH   2   9
ATOM      9  O   UNL d   1      -1.026  -0.041   2.388  0.00  0.00    -0.339 OA
BRANCH   9  10
ATOM     10  C   UNL d   1      -2.292   0.029   3.075  0.00  0.00     0.293 C 
BRANCH  10  11
ATOM     11  C   UNL d   1      -3.130   1.255   2.712  0.00  0.00     0.408 C 
ATOM     12  F   UNL d   1      -2.541   2.047   1.796  0.00  0.00    -0.169 F 
ATOM     13  F   UNL d   1      -4.325   0.866   2.200  0.00  0.00    -0.169 F 
ATOM     14  F   UNL d   1      -3.392   2.004   3.807  0.00  0.00    -0.169 F 
ENDBRANCH  10  11
ENDBRANCH   9  10
ENDBRANCH   2   9
BRANCH   7  15
ATOM     15  O   UNL d   1      -0.430  -4.922   3.077  0.00  0.00    -0.341 OA
BRANCH  15  16
ATOM     16  C   UNL d   1      -1.668  -5.164   3.769  0.00  0.00     0.293 C 
BRANCH  16  17
ATOM     17  C   UNL d   1      -2.129  -6.616   3.654  0.00  0.00     0.408 C 
ATOM     18  F   UNL d   1      -1.274  -7.384   2.947  0.00  0.00    -0.169 F 
ATOM     19  F   UNL d   1      -2.269  -7.177   4.877  0.00  0.00    -0.169 F 
ATOM     20  F   UNL d   1      -3.336  -6.683   3.042  0.00  0.00    -0.169 F 
ENDBRANCH  16  17
ENDBRANCH  15  16
ENDBRANCH   7  15
BRANCH   1  21
ATOM     21  S   UNL d   1       0.980   0.047   0.142  0.00  0.00     0.248 S 
ATOM     22  O   UNL d   1       2.094  -0.390  -0.677  0.00  0.00    -0.205 OA
ATOM     23  O   UNL d   1       1.170   1.130   1.081  0.00  0.00    -0.205 OA
BRANCH  21  24
ATOM     24  N   UNL d   1      -0.242   0.514  -0.949  0.00  0.00    -0.181 NA
ATOM     25  H   UNL d   1       0.198   1.204  -1.566  0.00  0.00     0.146 HD
BRANCH  24  26
ATOM     26  C   UNL d   1      -0.867  -0.523  -1.707  0.00  0.00     0.024 A 
ATOM     27  C   UNL d   1      -2.156  -0.893  -1.328  0.00  0.00     0.050 A 
ATOM     28  C   UNL d   1      -2.812  -1.927  -1.996  0.00  0.00     0.057 A 
ATOM     29 CL   UNL d   1      -4.399  -2.339  -1.458  0.00  0.00    -0.082 Cl
ATOM     30  C   UNL d   1      -2.174  -2.591  -3.050  0.00  0.00     0.055 A 
ATOM     31  C   UNL d   1      -0.883  -2.208  -3.433  0.00  0.00     0.027 A 
ATOM     32 CL   UNL d   1      -2.921  -3.889  -3.909  0.00  0.00    -0.083 Cl
ATOM     33  C   UNL d   1      -0.226  -1.173  -2.760  0.00  0.00     0.026 A 
ENDBRANCH  24  26
ENDBRANCH  21  24
ENDBRANCH   1  21
TORSDOF 9
