REMARK  3 active torsions:
REMARK  status: ('A' for Active; 'I' for Inactive)
REMARK    1  A    between atoms: C_6  and  C_2 
REMARK    2  A    between atoms: N_15  and  C_3 
REMARK    3  A    between atoms: C_9  and  C_7 
ROOT
ATOM      1  C   UNL d   1       0.609   0.114  -0.085  0.00  0.00     0.098 A 
ATOM      2  C   UNL d   1      -0.082   1.335   0.005  0.00  0.00     0.074 A 
ATOM      3  C   UNL d   1      -0.131  -1.077  -0.071  0.00  0.00     0.102 A 
ATOM      4  N   UNL d   1      -1.487  -1.071  -0.054  0.00  0.00    -0.345 N 
ATOM      5  HN  UNL d   1      -2.003  -1.951  -0.043  1.00  0.00     0.167 HD
ATOM      6  C   UNL d   1      -2.152   0.108  -0.053  0.00  0.00     0.051 A 
ATOM      7  C   UNL d   1      -1.484   1.316   0.025  0.00  0.00     0.048 A 
ATOM      8  C   UNL d   1       2.029   0.087  -0.276  0.00  0.00     0.103 C 
ATOM      9  N   UNL d   1       3.179   0.070  -0.424  0.00  0.00    -0.191 NA
ENDROOT
BRANCH   2  10
ATOM     10  C   UNL d   1       0.580   2.689   0.021  0.00  0.00     0.419 C 
ATOM     11  F   UNL d   1       1.933   2.682   0.075  0.00  0.00    -0.166 F 
ATOM     12  F   UNL d   1       0.250   3.423  -1.077  0.00  0.00    -0.166 F 
ATOM     13  F   UNL d   1       0.176   3.429   1.093  0.00  0.00    -0.166 F 
ENDBRANCH   2  10
BRANCH   3  14
ATOM     14  N   UNL d   1       0.381  -2.354  -0.191  0.00  0.00    -0.282 NA
ATOM     15  C   UNL d   1       1.536  -2.832   0.545  0.00  0.00     0.114 C 
ATOM     16  H   UNL d   1      -0.413  -2.994  -0.139  0.00  0.00     0.128 HD
ENDBRANCH   3  14
BRANCH   6  17
ATOM     17  C   UNL d   1      -3.610  -0.000  -0.220  0.00  0.00     0.031 A 
ATOM     18  S   UNL d   1      -4.505   1.262  -0.981  0.00  0.00    -0.100 SA
ATOM     19  C   UNL d   1      -5.972   0.400  -0.874  0.00  0.00     0.050 A 
ATOM     20  C   UNL d   1      -5.806  -0.823  -0.269  0.00  0.00     0.008 A 
ATOM     21  C   UNL d   1      -4.448  -1.056   0.102  0.00  0.00     0.021 A 
ENDBRANCH   6  17
TORSDOF 3
