REMARK  9 active torsions:
REMARK  status: ('A' for Active; 'I' for Inactive)
REMARK    1  A    between atoms: N_2  and  C_1 
REMARK    2  A    between atoms: N_3  and  C_1 
REMARK    3  A    between atoms: C_10  and  N_2 
REMARK    4  A    between atoms: C_18  and  N_2 
REMARK    5  A    between atoms: C_11  and  N_3 
REMARK    6  A    between atoms: C_5  and  C_8 
REMARK    7  A    between atoms: O_15  and  C_5 
REMARK    8  A    between atoms: C_14  and  C_18 
REMARK    9  A    between atoms: C_21  and  O_15 
ROOT
ATOM      1  N   UNL d   1       1.983   5.569  -0.849  0.00  0.00    -0.197 NA
ATOM      2  C   UNL d   1       1.322   4.675  -0.533  0.00  0.00     0.060 C 
ATOM      3  C   UNL d   1       0.456   3.561  -0.113  0.00  0.00     0.143 C 
ENDROOT
BRANCH   3   4
ATOM      4  C   UNL d   1       0.728   2.283  -0.919  0.00  0.00     0.139 C 
BRANCH   4   5
ATOM      5  N   UNL d   1      -0.108   1.118  -0.526  0.00  0.00    -0.352 N 
BRANCH   5   6
ATOM      6  C   UNL d   1       0.509  -0.046  -0.034  0.00  0.00     0.174 C 
ATOM      7  S   UNL d   1       0.393  -1.551  -0.764  0.00  0.00    -0.041 SA
BRANCH   6   8
ATOM      8  N   UNL d   1       1.324   0.192   1.066  0.00  0.00    -0.333 N 
ATOM      9  H   UNL d   1       1.907   1.014   1.024  0.00  0.00     0.168 HD
BRANCH   8  10
ATOM     10  C   UNL d   1       1.545  -0.646   2.186  0.00  0.00     0.034 A 
ATOM     11  C   UNL d   1       2.716  -0.463   2.930  0.00  0.00     0.030 A 
ATOM     12  C   UNL d   1       2.908  -1.146   4.138  0.00  0.00     0.020 A 
ATOM     13  C   UNL d   1       1.914  -1.995   4.636  0.00  0.00     0.039 A 
ATOM     14  C   UNL d   1       0.763  -2.216   3.873  0.00  0.00     0.020 A 
ATOM     15  C   UNL d   1       0.587  -1.554   2.652  0.00  0.00     0.030 A 
BRANCH  13  16
ATOM     16  C   UNL d   1       2.120  -2.632   5.965  0.00  0.00     0.293 C 
ATOM     17  O   UNL d   1       3.170  -2.581   6.582  0.00  0.00    -0.259 OA
BRANCH  16  18
ATOM     18  O   UNL d   1       0.984  -3.260   6.364  0.00  0.00    -0.318 OA
BRANCH  18  19
ATOM     19  C   UNL d   1       1.097  -4.067   7.544  0.00  0.00     0.174 C 
ATOM     20  C   UNL d   1       1.532  -5.462   7.134  0.00  0.00     0.034 C 
ENDBRANCH  18  19
ENDBRANCH  16  18
ENDBRANCH  13  16
ENDBRANCH   8  10
ENDBRANCH   6   8
ENDBRANCH   5   6
BRANCH   5  21
ATOM     21  C   UNL d   1      -1.582   1.229  -0.785  0.00  0.00     0.086 C 
ATOM     22  C   UNL d   1      -2.432   1.036   0.479  0.00  0.00     0.025 C 
ATOM     23  C   UNL d   1      -2.892  -0.394   0.713  0.00  0.00     0.002 C 
ATOM     24  C   UNL d   1      -3.639  -0.954  -0.486  0.00  0.00     0.000 C 
ATOM     25  C   UNL d   1      -2.887  -0.815  -1.804  0.00  0.00     0.002 C 
ATOM     26  C   UNL d   1      -2.156   0.513  -2.020  0.00  0.00     0.025 C 
ENDBRANCH   5  21
ENDBRANCH   4   5
ENDBRANCH   3   4
TORSDOF 9
