REMARK  3 active torsions:
REMARK  status: ('A' for Active; 'I' for Inactive)
REMARK    1  A    between atoms: N_2  and  S_1 
REMARK    2  A    between atoms: C_4  and  S_1 
REMARK    3  A    between atoms: C_9  and  N_3 
ROOT
ATOM      1  N   UNL d   1       0.366   1.274  -0.418  0.00  0.00    -0.203 NA
ATOM      2  N   UNL d   1      -0.786   2.486   1.937  0.00  0.00    -0.379 N 
ATOM      3  C   UNL d   1       0.860   2.603   0.079  0.00  0.00     0.127 C 
ATOM      4  C   UNL d   1      -1.066   1.068  -0.034  0.00  0.00     0.127 C 
ATOM      5  C   UNL d   1       0.621   2.785   1.599  0.00  0.00     0.138 C 
ATOM      6  C   UNL d   1      -1.262   1.166   1.488  0.00  0.00     0.138 C 
ENDROOT
BRANCH   1   7
ATOM      7  S   UNL d   1       1.387  -0.058  -0.143  0.00  0.00     0.243 S 
ATOM      8  O   UNL d   1       0.600  -1.269  -0.233  0.00  0.00    -0.206 OA
ATOM      9  O   UNL d   1       2.207   0.219   1.016  0.00  0.00    -0.206 OA
BRANCH   7  10
ATOM     10  C   UNL d   1       2.430  -0.029  -1.579  0.00  0.00     0.074 A 
ATOM     11  C   UNL d   1       3.811   0.129  -1.447  0.00  0.00     0.025 A 
ATOM     12  C   UNL d   1       4.624  -0.012  -2.573  0.00  0.00     0.008 A 
ATOM     13  C   UNL d   1       4.064  -0.314  -3.824  0.00  0.00    -0.062 A 
ATOM     14  C   UNL d   1       2.674  -0.428  -3.946  0.00  0.00     0.008 A 
ATOM     15  C   UNL d   1       4.960  -0.553  -5.004  0.00  0.00     0.048 C 
ATOM     16  C   UNL d   1       1.855  -0.289  -2.826  0.00  0.00     0.025 A 
ENDBRANCH   7  10
ENDBRANCH   1   7
BRANCH   2  17
ATOM     17  C   UNL d   1      -1.466   3.212   2.894  0.00  0.00     0.030 A 
ATOM     18  C   UNL d   1      -2.328   2.611   3.827  0.00  0.00     0.032 A 
ATOM     19  C   UNL d   1      -3.086   3.372   4.722  0.00  0.00     0.044 A 
ATOM     20  C   UNL d   1      -2.985   4.754   4.699  0.00  0.00     0.116 A 
ATOM     21  C   UNL d   1      -2.132   5.384   3.810  0.00  0.00     0.044 A 
ATOM     22  F   UNL d   1      -3.732   5.487   5.536  0.00  0.00    -0.206 F 
ATOM     23  C   UNL d   1      -1.379   4.617   2.922  0.00  0.00     0.032 A 
ENDBRANCH   2  17
TORSDOF 3
