REMARK  6 active torsions:
REMARK  status: ('A' for Active; 'I' for Inactive)
REMARK    1  A    between atoms: C_7  and  C_1 
REMARK    2  A    between atoms: N_24  and  C_3 
REMARK    3  A    between atoms: C_13  and  C_6 
REMARK       I    between atoms: N_17  and  C_7 
REMARK    4  A    between atoms: C_10  and  C_15 
REMARK    5  A    between atoms: C_11  and  C_16 
REMARK    6  A    between atoms: C_18  and  N_17 
ROOT
ATOM      1  C   UNL d   1      -3.643  -0.028   0.122  0.00  0.00     0.102 C 
ATOM      2  C   UNL d   1      -1.364   0.671   0.189  0.00  0.00     0.038 C 
ATOM      3  C   UNL d   1      -2.751   0.973   0.489  0.00  0.00     0.062 C 
ATOM      4  C   UNL d   1      -1.282  -0.685  -0.111  0.00  0.00     0.088 C 
ATOM      5  S   UNL d   1      -2.796  -1.437  -0.333  0.00  0.00    -0.064 SA
ATOM      6  C   UNL d   1      -0.121   1.389   0.184  0.00  0.00     0.004 C 
ATOM      7  N   UNL d   1      -0.168  -1.419  -0.257  0.00  0.00    -0.353 N 
ATOM      8  HN  UNL d   1      -0.197  -2.417  -0.465  1.00  0.00     0.166 HD
ATOM      9  C   UNL d   1       1.083   0.641   0.038  0.00  0.00    -0.023 C 
ATOM     10  C   UNL d   1       0.990  -0.749  -0.108  0.00  0.00     0.017 C 
ATOM     11  C   UNL d   1       2.449   1.299   0.089  0.00  0.00     0.041 C 
ATOM     12  C   UNL d   1       2.217  -1.632  -0.155  0.00  0.00     0.057 C 
ATOM     13  C   UNL d   1       3.612   0.407  -0.341  0.00  0.00     0.005 C 
ATOM     14  C   UNL d   1       3.488  -0.949   0.332  0.00  0.00     0.006 C 
ENDROOT
BRANCH   1  15
ATOM     15  C   UNL d   1      -5.108   0.053   0.084  0.00  0.00     0.265 C 
ATOM     16  N   UNL d   1      -5.783  -1.056  -0.415  0.00  0.00    -0.322 N 
ATOM     17  H   UNL d   1      -5.229  -1.897  -0.523  0.00  0.00     0.169 HD
ATOM     18  O   UNL d   1      -5.697   1.074   0.461  0.00  0.00    -0.267 OA
BRANCH  16  19
ATOM     19  C   UNL d   1      -7.132  -1.113  -0.847  0.00  0.00     0.036 A 
ATOM     20  C   UNL d   1      -7.932   0.024  -1.015  0.00  0.00     0.045 A 
ATOM     21  C   UNL d   1      -9.228  -0.063  -1.554  0.00  0.00     0.050 A 
ATOM     22  C   UNL d   1      -9.742  -1.318  -1.896  0.00  0.00     0.032 A 
ATOM     23  C   UNL d   1      -8.970  -2.479  -1.724  0.00  0.00     0.050 A 
ATOM     24  C   UNL d   1      -7.664  -2.359  -1.206  0.00  0.00     0.045 A 
BRANCH  21  25
ATOM     25  C   UNL d   1     -10.023   1.199  -1.795  0.00  0.00     0.417 C 
ATOM     26  F   UNL d   1     -11.198   0.978  -2.450  0.00  0.00    -0.166 F 
ATOM     27  F   UNL d   1     -10.352   1.843  -0.644  0.00  0.00    -0.166 F 
ATOM     28  F   UNL d   1      -9.343   2.103  -2.555  0.00  0.00    -0.166 F 
ENDBRANCH  21  25
BRANCH  23  29
ATOM     29  C   UNL d   1      -9.522  -3.831  -2.114  0.00  0.00     0.417 C 
ATOM     30  F   UNL d   1     -10.760  -3.772  -2.675  0.00  0.00    -0.166 F 
ATOM     31  F   UNL d   1      -8.733  -4.472  -3.019  0.00  0.00    -0.166 F 
ATOM     32  F   UNL d   1      -9.635  -4.673  -1.050  0.00  0.00    -0.166 F 
ENDBRANCH  23  29
ENDBRANCH  16  19
ENDBRANCH   1  15
BRANCH   3  33
ATOM     33  N   UNL d   1      -3.174   2.121   1.066  0.00  0.00    -0.397 N 
ATOM     34  H   UNL d   1      -2.590   2.951   1.121  0.00  0.00     0.156 HD
ATOM     35  H   UNL d   1      -4.175   2.321   1.149  0.00  0.00     0.156 HD
ENDBRANCH   3  33
BRANCH   6  36
ATOM     36  C   UNL d   1      -0.117   2.871   0.272  0.00  0.00     0.016 A 
ATOM     37  S   UNL d   1      -1.155   3.807  -0.747  0.00  0.00    -0.101 SA
ATOM     38  C   UNL d   1      -0.594   5.289  -0.111  0.00  0.00     0.050 A 
ATOM     39  C   UNL d   1       0.454   5.105   0.756  0.00  0.00     0.008 A 
ATOM     40  C   UNL d   1       0.705   3.722   0.999  0.00  0.00     0.020 A 
ENDBRANCH   6  36
TORSDOF 6
