REMARK  5 active torsions:
REMARK  status: ('A' for Active; 'I' for Inactive)
REMARK    1  A    between atoms: N_6  and  C_1 
REMARK       I    between atoms: C_8  and  N_6 
REMARK    2  A    between atoms: C_12  and  C_8 
REMARK    3  A    between atoms: C_9  and  C_13 
REMARK    4  A    between atoms: O_14  and  C_9 
REMARK    5  A    between atoms: C_13  and  C_12 
ROOT
ATOM      1  N   UNL d   1       1.486  -2.450   0.007  0.00  0.00    -0.312 N 
ATOM      2  C   UNL d   1       0.959  -3.730   0.052  0.00  0.00     0.223 C 
ATOM      3  O   UNL d   1      -0.233  -4.017   0.070  0.00  0.00    -0.273 OA
ATOM      4  H   UNL d   1       2.345  -2.343  -0.525  0.00  0.00     0.170 HD
ENDROOT
BRANCH   1   5
ATOM      5  C   UNL d   1       0.640  -1.354   0.007  0.00  0.00     0.126 A 
ATOM      6  N   UNL d   1      -0.380  -1.093   0.895  0.00  0.00    -0.281 N 
ATOM      7  N   UNL d   1      -1.023   0.067   0.629  0.00  0.00    -0.302 N 
ATOM      8  C   UNL d   1      -0.694  -1.759   2.137  0.00  0.00     0.179 C 
ATOM      9  C   UNL d   1      -0.397   0.554  -0.447  0.00  0.00     0.025 A 
ATOM     10  HN  UNL d   1      -1.809   0.476   1.134  1.00  0.00     0.186 HD
ATOM     11  C   UNL d   1       0.677  -0.271  -0.844  0.00  0.00     0.076 A 
ATOM     12  C   UNL d   1      -0.853   1.821  -1.066  0.00  0.00     0.070 C 
ENDBRANCH   1   5
BRANCH   2  13
ATOM     13  C   UNL d   1       2.014  -4.814  -0.035  0.00  0.00     0.113 C 
BRANCH  13  14
ATOM     14  C   UNL d   1       1.758  -5.689  -1.254  0.00  0.00     0.119 C 
BRANCH  14  15
ATOM     15  C   UNL d   1       1.924  -4.872  -2.506  0.00  0.00     0.139 C 
ATOM     16  O   UNL d   1       3.007  -4.646  -3.023  0.00  0.00    -0.650 OA
BRANCH  15  17
ATOM     17  O   UNL d   1       0.775  -4.325  -2.954  0.00  0.00    -0.776 OA
ATOM     18  H   UNL d   1      -0.014  -4.502  -2.398  0.00  0.00     0.167 HD
ENDBRANCH  15  17
ENDBRANCH  14  15
ENDBRANCH  13  14
ENDBRANCH   2  13
TORSDOF 5
