REMARK  5 active torsions:
REMARK  status: ('A' for Active; 'I' for Inactive)
REMARK    1  A    between atoms: C_6  and  C_1 
REMARK    2  A    between atoms: N_19  and  C_3 
REMARK    3  A    between atoms: C_8  and  C_6 
REMARK    4  A    between atoms: C_11  and  C_7 
REMARK    5  A    between atoms: C_14  and  C_12 
ROOT
ATOM      1  C   UNL d   1      -2.122  -0.162  -0.041  0.00  0.00     0.085 A 
ATOM      2  C   UNL d   1       0.021   0.848   0.056  0.00  0.00     0.041 A 
ATOM      3  C   UNL d   1      -1.405   1.024  -0.024  0.00  0.00     0.061 A 
ATOM      4  C   UNL d   1       0.308  -0.514   0.142  0.00  0.00     0.088 A 
ATOM      5  S   UNL d   1      -1.083  -1.501   0.154  0.00  0.00    -0.065 SA
ATOM      6  C   UNL d   1       1.135   1.730   0.052  0.00  0.00     0.065 A 
ATOM      7  N   UNL d   1       1.526  -1.090   0.215  0.00  0.00    -0.349 N 
ATOM      8  HN  UNL d   1       1.650  -2.101   0.267  1.00  0.00     0.166 HD
ATOM      9  C   UNL d   1       2.565  -0.235   0.215  0.00  0.00     0.051 A 
ATOM     10  C   UNL d   1       2.416   1.141   0.124  0.00  0.00     0.048 A 
ENDROOT
BRANCH   1  11
ATOM     11  C   UNL d   1      -3.568  -0.296  -0.187  0.00  0.00     0.204 C 
ATOM     12  O   UNL d   1      -4.348   0.642  -0.002  0.00  0.00    -0.286 OA
BRANCH  11  13
ATOM     13  C   UNL d   1      -4.197  -1.551  -0.653  0.00  0.00     0.059 A 
ATOM     14  C   UNL d   1      -3.955  -2.033  -1.948  0.00  0.00     0.050 A 
ATOM     15 CL   UNL d   1      -2.874  -1.263  -3.057  0.00  0.00    -0.083 Cl
ATOM     16  C   UNL d   1      -4.647  -3.154  -2.422  0.00  0.00     0.025 A 
ATOM     17  C   UNL d   1      -5.607  -3.777  -1.626  0.00  0.00     0.003 A 
ATOM     18  C   UNL d   1      -5.865  -3.291  -0.346  0.00  0.00     0.025 A 
ATOM     19  C   UNL d   1      -5.160  -2.186   0.146  0.00  0.00     0.050 A 
ATOM     20 CL   UNL d   1      -5.522  -1.676   1.758  0.00  0.00    -0.083 Cl
ENDBRANCH  11  13
ENDBRANCH   1  11
BRANCH   3  21
ATOM     21  N   UNL d   1      -2.030   2.217  -0.124  0.00  0.00    -0.397 N 
ATOM     22  H   UNL d   1      -1.573   3.118   0.002  0.00  0.00     0.156 HD
ATOM     23  H   UNL d   1      -3.048   2.275  -0.045  0.00  0.00     0.156 HD
ENDBRANCH   3  21
BRANCH   6  24
ATOM     24  C   UNL d   1       1.103   3.236  -0.032  0.00  0.00     0.418 C 
ATOM     25  F   UNL d   1      -0.127   3.813  -0.036  0.00  0.00    -0.166 F 
ATOM     26  F   UNL d   1       1.763   3.811   1.015  0.00  0.00    -0.166 F 
ATOM     27  F   UNL d   1       1.730   3.696  -1.152  0.00  0.00    -0.166 F 
ENDBRANCH   6  24
BRANCH   9  28
ATOM     28  C   UNL d   1       3.886  -0.881   0.303  0.00  0.00     0.031 A 
ATOM     29  S   UNL d   1       5.207  -0.101   1.086  0.00  0.00    -0.100 SA
ATOM     30  C   UNL d   1       6.264  -1.405   0.781  0.00  0.00     0.050 A 
ATOM     31  C   UNL d   1       5.638  -2.428   0.109  0.00  0.00     0.008 A 
ATOM     32  C   UNL d   1       4.268  -2.131  -0.156  0.00  0.00     0.021 A 
ENDBRANCH   9  28
TORSDOF 5
