REMARK  1 active torsions:
REMARK  status: ('A' for Active; 'I' for Inactive)
REMARK    1  A    between atoms: C_13  and  N_1 
ROOT
ATOM      1  N   UNL d   1       0.086  -1.620   0.007  0.00  0.00    -0.345 N 
ATOM      2  C   UNL d   1       1.221  -0.818   0.025  0.00  0.00     0.063 A 
ATOM      3  C   UNL d   1       0.752   0.510   0.018  0.00  0.00     0.006 A 
ATOM      4  C   UNL d   1      -0.673   0.486   0.021  0.00  0.00     0.005 A 
ATOM      5  C   UNL d   1      -1.069  -0.847   0.026  0.00  0.00     0.046 A 
ATOM      6  C   UNL d   1       2.616  -1.067   0.042  0.00  0.00     0.040 A 
ATOM      7  C   UNL d   1       3.507   0.019   0.023  0.00  0.00     0.040 A 
ATOM      8  C   UNL d   1      -2.429  -1.212   0.038  0.00  0.00     0.032 A 
ATOM      9  C   UNL d   1       1.671   1.583   0.009  0.00  0.00     0.033 A 
ATOM     10  C   UNL d   1      -1.658   1.498   0.015  0.00  0.00     0.033 A 
ATOM     11  C   UNL d   1       3.037   1.322   0.005  0.00  0.00     0.013 A 
ATOM     12 BR   UNL d   1       3.404  -2.789   0.114  0.00  0.00    -0.049 Br
ATOM     13  C   UNL d   1      -3.006   1.138   0.016  0.00  0.00     0.011 A 
ATOM     14  C   UNL d   1      -3.390  -0.197   0.030  0.00  0.00     0.021 A 
ATOM     15 BR   UNL d   1       4.259   2.765  -0.017  0.00  0.00    -0.051 Br
ATOM     16 BR   UNL d   1      -4.327   2.492  -0.005  0.00  0.00    -0.051 Br
ENDROOT
BRANCH   1  17
ATOM     17  C   UNL d   1       0.027  -3.072  -0.088  0.00  0.00     0.125 C 
ATOM     18  C   UNL d   1      -0.101  -3.753   1.264  0.00  0.00     0.027 C 
ENDBRANCH   1  17
TORSDOF 1
