REMARK  7 active torsions:
REMARK  status: ('A' for Active; 'I' for Inactive)
REMARK    1  A    between atoms: CA_3  and  C_1 
REMARK    2  A    between atoms: OXT_9  and  C_1 
REMARK    3  A    between atoms: N_2  and  CA_3 
REMARK       I    between atoms: C3_14  and  N_2 
REMARK    4  A    between atoms: CB_7  and  CA_3 
REMARK    5  A    between atoms: CD_4  and  CG_8 
REMARK    6  A    between atoms: OE2_10  and  CD_4 
REMARK    7  A    between atoms: CG_8  and  CB_7 
ROOT
ATOM      1  CA  GLU d   1       0.276  -0.208   1.171  0.00  0.00     0.182 C 
ENDROOT
BRANCH   1   2
ATOM      2  N   GLU d   1      -0.597  -1.374   1.077  0.00  0.00    -0.347 N 
ATOM      3  C3  <1> d   1      -1.746  -1.463   1.820  0.00  0.00     0.214 C 
ATOM      4  O2  <1> d   1      -2.123  -0.575   2.576  0.00  0.00    -0.274 OA
ATOM      5  C7  <1> d   1      -2.522  -2.732   1.617  0.00  0.00     0.117 C 
ATOM      6  H   GLU d   1      -0.295  -2.144   0.488  0.00  0.00     0.163 HD
ENDBRANCH   1   2
BRANCH   1   7
ATOM      7  C   GLU d   1       1.078  -0.122  -0.130  0.00  0.00     0.163 C 
ATOM      8  O   GLU d   1       1.657  -1.079  -0.623  0.00  0.00    -0.648 OA
BRANCH   7   9
ATOM      9  OXT GLU d   1       1.087   1.104  -0.699  0.00  0.00    -0.775 OA
ATOM     10  HXT GLU d   1       0.629   1.807  -0.183  0.00  0.00     0.167 HD
ENDBRANCH   7   9
ENDBRANCH   1   7
BRANCH   1  11
ATOM     11  CB  GLU d   1       1.203  -0.338   2.392  0.00  0.00     0.046 C 
BRANCH  11  12
ATOM     12  CG  GLU d   1       2.154   0.834   2.598  0.00  0.00     0.112 C 
BRANCH  12  13
ATOM     13  CD  GLU d   1       1.385   2.118   2.697  0.00  0.00     0.139 C 
ATOM     14  OE1 GLU d   1       0.994   2.731   1.712  0.00  0.00    -0.650 OA
BRANCH  13  15
ATOM     15  OE2 GLU d   1       1.096   2.490   3.961  0.00  0.00    -0.776 OA
ATOM     16  HE2 GLU d   1       1.401   1.875   4.654  0.00  0.00     0.167 HD
ENDBRANCH  13  15
ENDBRANCH  12  13
ENDBRANCH  11  12
ENDBRANCH   1  11
TORSDOF 7
