REMARK  3 active torsions:
REMARK  status: ('A' for Active; 'I' for Inactive)
REMARK    1  A    between atoms: O_9  and  C_1 
REMARK    2  A    between atoms: C_5  and  C_4 
REMARK    3  A    between atoms: C_15  and  O_9 
ROOT
ATOM      1  C   UNL d   1      -2.249   1.515   0.234  0.00  0.00     0.090 A 
ATOM      2  N   UNL d   1      -3.166  -1.049  -0.281  0.00  0.00    -0.352 N 
ATOM      3  HN  UNL d   1      -3.500  -1.987  -0.502  1.00  0.00     0.166 HD
ATOM      4  C   UNL d   1      -4.034  -0.001  -0.258  0.00  0.00     0.119 A 
ATOM      5  C   UNL d   1      -1.344   0.434   0.293  0.00  0.00     0.026 A 
ATOM      6  C   UNL d   1      -1.868  -0.838  -0.012  0.00  0.00     0.045 A 
ATOM      7  C   UNL d   1      -3.602   1.296  -0.017  0.00  0.00     0.072 A 
ATOM      8  C   UNL d   1       0.030   0.540   0.632  0.00  0.00     0.035 A 
ATOM      9  C   UNL d   1      -1.013  -1.933  -0.036  0.00  0.00     0.032 A 
ATOM     10  C   UNL d   1       0.866  -0.572   0.585  0.00  0.00     0.012 A 
ATOM     11  C   UNL d   1       0.350  -1.813   0.245  0.00  0.00     0.021 A 
ATOM     12 BR   UNL d   1       2.707  -0.383   0.957  0.00  0.00    -0.051 Br
ENDROOT
BRANCH   1  13
ATOM     13  O   UNL d   1      -1.926   2.824   0.521  0.00  0.00    -0.310 OA
BRANCH  13  14
ATOM     14  C   UNL d   1      -0.943   3.473  -0.194  0.00  0.00     0.076 A 
ATOM     15  C   UNL d   1      -0.417   3.061  -1.423  0.00  0.00     0.040 A 
ATOM     16  C   UNL d   1       0.648   3.765  -1.994  0.00  0.00     0.045 A 
ATOM     17  C   UNL d   1       1.145   4.898  -1.359  0.00  0.00     0.116 A 
ATOM     18  C   UNL d   1       0.592   5.351  -0.168  0.00  0.00     0.045 A 
ATOM     19  F   UNL d   1       2.173   5.562  -1.903  0.00  0.00    -0.206 F 
ATOM     20  C   UNL d   1      -0.456   4.637   0.414  0.00  0.00     0.040 A 
ENDBRANCH  13  14
ENDBRANCH   1  13
BRANCH   4  21
ATOM     21  C   UNL d   1      -5.520  -0.251  -0.489  0.00  0.00     0.432 C 
ATOM     22  F   UNL d   1      -5.854  -1.562  -0.649  0.00  0.00    -0.165 F 
ATOM     23  F   UNL d   1      -6.290   0.205   0.543  0.00  0.00    -0.165 F 
ATOM     24  F   UNL d   1      -5.988   0.391  -1.601  0.00  0.00    -0.165 F 
ENDBRANCH   4  21
TORSDOF 3
