REMARK  7 active torsions:
REMARK  status: ('A' for Active; 'I' for Inactive)
REMARK    1  A    between atoms: C_7  and  N_1 
REMARK    2  A    between atoms: C_8  and  C_7 
REMARK       I    between atoms: N_16  and  C_8 
REMARK    3  A    between atoms: C_9  and  C_20 
REMARK    4  A    between atoms: C_21  and  N_16 
REMARK    5  A    between atoms: S_19  and  C_22 
REMARK    6  A    between atoms: C_20  and  S_19 
REMARK    7  A    between atoms: C_22  and  C_21 
ROOT
ATOM      1  C   UNL d   1       0.985  -3.385  -0.072  0.00  0.00     0.237 C 
ATOM      2  O   UNL d   1       2.059  -2.788  -0.110  0.00  0.00    -0.272 OA
ATOM      3  N   UNL d   1       0.909  -4.761  -0.001  0.00  0.00    -0.359 N 
ATOM      4  H   UNL d   1       0.010  -5.214  -0.166  0.00  0.00     0.162 HD
ENDROOT
BRANCH   1   5
ATOM      5  C   UNL d   1      -0.321  -2.632  -0.007  0.00  0.00     0.251 C 
BRANCH   5   6
ATOM      6  N   UNL d   1      -1.163  -2.877  -1.161  0.00  0.00    -0.286 N 
ATOM      7  N   UNL d   1      -2.083  -3.864  -1.068  0.00  0.00    -0.301 N 
ATOM      8  C   UNL d   1      -2.785  -3.775  -2.205  0.00  0.00     0.041 A 
ATOM      9  HN  UNL d   1      -2.212  -4.528  -0.304  1.00  0.00     0.187 HD
ATOM     10  C   UNL d   1      -3.929  -4.685  -2.452  0.00  0.00     0.071 C 
ATOM     11  C   UNL d   1      -2.281  -2.750  -3.026  0.00  0.00     0.058 A 
ATOM     12  C   UNL d   1      -1.236  -2.173  -2.341  0.00  0.00     0.044 A 
ATOM     13 BR   UNL d   1      -2.944  -2.279  -4.713  0.00  0.00    -0.047 Br
ATOM     14  C   UNL d   1      -0.354  -1.041  -2.724  0.00  0.00     0.071 C 
ENDBRANCH   5   6
ENDBRANCH   1   5
BRANCH   3  15
ATOM     15  C   UNL d   1       2.125  -5.558   0.011  0.00  0.00     0.132 C 
BRANCH  15  16
ATOM     16  C   UNL d   1       1.907  -7.067  -0.092  0.00  0.00     0.094 C 
BRANCH  16  17
ATOM     17  S   UNL d   1       1.030  -7.606  -1.607  0.00  0.00    -0.161 SA
BRANCH  17  18
ATOM     18  C   UNL d   1       2.149  -6.960  -2.895  0.00  0.00     0.139 C 
BRANCH  18  19
ATOM     19  C   UNL d   1       3.497  -7.580  -2.848  0.00  0.00     0.061 A 
ATOM     20  O   UNL d   1       4.443  -6.940  -2.099  0.00  0.00    -0.326 OA
ATOM     21  C   UNL d   1       5.588  -7.661  -2.204  0.00  0.00     0.142 A 
ATOM     22  C   UNL d   1       5.398  -8.753  -3.014  0.00  0.00     0.027 A 
ATOM     23  C   UNL d   1       4.046  -8.701  -3.436  0.00  0.00     0.035 A 
ENDBRANCH  18  19
ENDBRANCH  17  18
ENDBRANCH  16  17
ENDBRANCH  15  16
ENDBRANCH   3  15
TORSDOF 7
