REMARK  5 active torsions:
REMARK  status: ('A' for Active; 'I' for Inactive)
REMARK    1  A    between atoms: C_6  and  N_1 
REMARK    2  A    between atoms: C_8  and  C_6 
REMARK    3  A    between atoms: C_7  and  C_8 
REMARK       I    between atoms: N_12  and  C_7 
REMARK    4  A    between atoms: C_13  and  C_11 
REMARK    5  A    between atoms: C_15  and  N_12 
ROOT
ATOM      1  C   UNL d   1       5.446   1.115  -0.251  0.00  0.00     0.223 C 
ATOM      2  N   UNL d   1       6.431   1.636   0.571  0.00  0.00    -0.327 N 
ATOM      3  O   UNL d   1       5.623   0.374  -1.216  0.00  0.00    -0.273 OA
ATOM      4  H   UNL d   1       6.121   1.990   1.473  0.00  0.00     0.169 HD
ENDROOT
BRANCH   1   5
ATOM      5  C   UNL d   1       4.049   1.555   0.112  0.00  0.00     0.123 C 
BRANCH   5   6
ATOM      6  C   UNL d   1       3.122   0.353   0.229  0.00  0.00     0.145 C 
BRANCH   6   7
ATOM      7  N   UNL d   1       3.203  -0.449   1.444  0.00  0.00    -0.279 N 
ATOM      8  C   UNL d   1       3.849  -0.139   2.612  0.00  0.00     0.261 A 
ATOM      9  C   UNL d   1       3.432  -1.138   3.598  0.00  0.00     0.048 A 
ATOM     10  O   UNL d   1       4.597   0.788   2.866  0.00  0.00    -0.267 OA
ATOM     11  C   UNL d   1       3.725  -1.247   4.945  0.00  0.00     0.018 A 
ATOM     12  C   UNL d   1       2.555  -2.005   2.977  0.00  0.00     0.048 A 
ATOM     13  C   UNL d   1       3.089  -2.269   5.659  0.00  0.00     0.001 A 
ATOM     14  C   UNL d   1       2.192  -3.150   5.019  0.00  0.00     0.001 A 
ATOM     15  C   UNL d   1       1.918  -3.026   3.655  0.00  0.00     0.018 A 
ATOM     16  C   UNL d   1       2.408  -1.557   1.597  0.00  0.00     0.261 A 
ATOM     17  O   UNL d   1       1.651  -2.076   0.793  0.00  0.00    -0.267 OA
ENDBRANCH   6   7
ENDBRANCH   5   6
ENDBRANCH   1   5
BRANCH   2  18
ATOM     18  C   UNL d   1       7.817   1.402   0.426  0.00  0.00     0.035 A 
ATOM     19  C   UNL d   1       8.373   0.910  -0.759  0.00  0.00     0.044 A 
ATOM     20  C   UNL d   1       9.713   0.523  -0.822  0.00  0.00     0.011 A 
ATOM     21  C   UNL d   1      10.528   0.728   0.299  0.00  0.00     0.015 A 
ATOM     22  C   UNL d   1      10.004   1.305   1.458  0.00  0.00     0.003 A 
ATOM     23  C   UNL d   1       8.649   1.639   1.522  0.00  0.00     0.029 A 
BRANCH  20  24
ATOM     24  C   UNL d   1      10.301  -0.142  -2.026  0.00  0.00     0.155 C 
ATOM     25  O   UNL d   1      11.513  -0.360  -2.055  0.00  0.00    -0.293 OA
ATOM     26  C   UNL d   1       9.423  -0.609  -3.164  0.00  0.00     0.096 C 
ENDBRANCH  20  24
ENDBRANCH   2  18
TORSDOF 5
