REMARK  3 active torsions:
REMARK  status: ('A' for Active; 'I' for Inactive)
REMARK    1  A    between atoms: C_3  and  C_1 
REMARK    2  A    between atoms: N_9  and  C_3 
REMARK    3  A    between atoms: O_12  and  N_6 
ROOT
ATOM      1  C   UNL d   1      -3.726  -1.393   0.017  0.00  0.00     0.025 A 
ATOM      2  C   UNL d   1      -3.788   0.009  -0.020  0.00  0.00     0.049 A 
ATOM      3  C   UNL d   1      -4.930  -2.124   0.019  0.00  0.00     0.018 A 
ATOM      4  C   UNL d   1      -5.029   0.660  -0.040  0.00  0.00     0.048 A 
ATOM      5  C   UNL d   1      -6.208  -0.082  -0.030  0.00  0.00     0.035 A 
ATOM      6 CL   UNL d   1      -2.389   1.025  -0.099  0.00  0.00    -0.083 Cl
ATOM      7  C   UNL d   1      -6.164  -1.471  -0.003  0.00  0.00     0.025 A 
ATOM      8 CL   UNL d   1      -7.726   0.726  -0.057  0.00  0.00    -0.084 Cl
ENDROOT
BRANCH   1   9
ATOM      9  C   UNL d   1      -2.453  -2.184   0.059  0.00  0.00     0.110 C 
ATOM     10  N   UNL d   1      -2.454  -3.369  -0.487  0.00  0.00    -0.257 N 
ATOM     11  HN  UNL d   1      -3.262  -3.796  -0.940  1.00  0.00     0.195 HD
BRANCH  10  12
ATOM     12  O   UNL d   1      -1.194  -3.980  -0.369  0.00  0.00    -0.289 OA
ATOM     13  H   UNL d   1      -1.364  -4.868  -0.735  0.00  0.00     0.244 HD
ENDBRANCH  10  12
BRANCH   9  14
ATOM     14  N   UNL d   1      -1.337  -1.681   0.679  0.00  0.00    -0.286 NA
ATOM     15  H   UNL d   1      -1.184  -0.682   0.599  0.00  0.00     0.125 HD
ATOM     16  H   UNL d   1      -0.517  -2.230   0.429  0.00  0.00     0.125 HD
ENDBRANCH   9  14
ENDBRANCH   1   9
TORSDOF 3
