REMARK  6 active torsions:
REMARK  status: ('A' for Active; 'I' for Inactive)
REMARK    1  A    between atoms: C_5  and  C_1 
REMARK    2  A    between atoms: C_9  and  C_2 
REMARK    3  A    between atoms: N_6  and  C_11 
REMARK    4  A    between atoms: O_12  and  C_9 
REMARK    5  A    between atoms: C_10  and  O_12 
REMARK    6  A    between atoms: C_17  and  C_10 
ROOT
ATOM      1  C   UNL d   1      -1.320  -0.831   0.438  0.00  0.00     0.079 A 
ATOM      2  C   UNL d   1       0.019  -1.260   0.135  0.00  0.00     0.027 A 
ATOM      3  N   UNL d   1      -1.324   0.428   0.899  0.00  0.00    -0.260 N 
ATOM      4  HN  UNL d   1      -2.133   0.960   1.219  1.00  0.00     0.195 HD
ATOM      5  O   UNL d   1      -0.020   0.858   0.854  0.00  0.00    -0.242 OA
ATOM      6  C   UNL d   1       0.782  -0.139   0.398  0.00  0.00     0.083 A 
ATOM      7  C   UNL d   1       2.208   0.219   0.277  0.00  0.00     0.079 C 
ENDROOT
BRANCH   2   8
ATOM      8  C   UNL d   1       0.420  -2.598  -0.387  0.00  0.00     0.222 C 
BRANCH   8   9
ATOM      9  O   UNL d   1       1.834  -2.845  -0.489  0.00  0.00    -0.313 OA
BRANCH   9  10
ATOM     10  C   UNL d   1       2.369  -2.577  -1.701  0.00  0.00     0.293 C 
ATOM     11  O   UNL d   1       1.845  -1.927  -2.592  0.00  0.00    -0.259 OA
BRANCH  10  12
ATOM     12  C   UNL d   1       3.699  -3.220  -1.850  0.00  0.00     0.039 A 
ATOM     13  C   UNL d   1       4.567  -2.720  -2.833  0.00  0.00     0.020 A 
ATOM     14  C   UNL d   1       5.776  -3.367  -3.105  0.00  0.00     0.037 A 
ATOM     15  C   UNL d   1       6.112  -4.529  -2.395  0.00  0.00     0.102 A 
ATOM     16  C   UNL d   1       5.263  -5.022  -1.393  0.00  0.00     0.037 A 
ATOM     17  C   UNL d   1       4.058  -4.363  -1.120  0.00  0.00     0.020 A 
BRANCH  15  18
ATOM     18  N   UNL d   1       7.346  -5.253  -2.730  0.00  0.00    -0.116 N 
ATOM     19  O   UNL d   1       8.077  -4.770  -3.607  0.00  0.00    -0.532 OA
ATOM     20  O   UNL d   1       7.576  -6.308  -2.124  0.00  0.00    -0.532 OA
ENDBRANCH  15  18
ENDBRANCH  10  12
ENDBRANCH   9  10
ENDBRANCH   8   9
ENDBRANCH   2   8
BRANCH   1  21
ATOM     21  C   UNL d   1      -2.581  -1.558   0.281  0.00  0.00     0.037 A 
ATOM     22  C   UNL d   1      -2.877  -2.690   1.062  0.00  0.00     0.048 A 
ATOM     23 CL   UNL d   1      -1.837  -3.256   2.328  0.00  0.00    -0.083 Cl
ATOM     24  C   UNL d   1      -4.070  -3.402   0.875  0.00  0.00     0.025 A 
ATOM     25  C   UNL d   1      -5.009  -2.973  -0.058  0.00  0.00     0.003 A 
ATOM     26  C   UNL d   1      -4.754  -1.830  -0.810  0.00  0.00     0.025 A 
ATOM     27  C   UNL d   1      -3.548  -1.132  -0.652  0.00  0.00     0.048 A 
ATOM     28 CL   UNL d   1      -3.322   0.245  -1.680  0.00  0.00    -0.083 Cl
ENDBRANCH   1  21
TORSDOF 6
