REMARK  4 active torsions:
REMARK  status: ('A' for Active; 'I' for Inactive)
REMARK    1  A    between atoms: C_4  and  C_1 
REMARK    2  A    between atoms: C_6  and  C_5 
REMARK    3  A    between atoms: C_15  and  C_7 
REMARK    4  A    between atoms: O_25  and  C_13 
ROOT
ATOM      1  C   UNL d   1       0.228  -1.123  -0.097  0.00  0.00     0.087 A 
ATOM      2  N   UNL d   1       1.314  -0.502   0.301  0.00  0.00    -0.349 N 
ATOM      3  HN  UNL d   1       2.162  -0.966   0.627  1.00  0.00     0.166 HD
ATOM      4  C   UNL d   1       1.148   0.877   0.217  0.00  0.00     0.050 A 
ATOM      5  S   UNL d   1      -1.020  -0.083  -0.687  0.00  0.00    -0.081 SA
ATOM      6  C   UNL d   1      -0.051   1.280  -0.331  0.00  0.00     0.082 A 
ENDROOT
BRANCH   1   7
ATOM      7  C   UNL d   1       0.028  -2.578  -0.040  0.00  0.00     0.028 A 
ATOM      8  C   UNL d   1       0.467  -3.386   1.023  0.00  0.00     0.066 A 
ATOM      9  C   UNL d   1       0.240  -4.777   0.948  0.00  0.00     0.073 A 
ATOM     10  C   UNL d   1      -0.426  -5.308  -0.140  0.00  0.00     0.142 A 
ATOM     11  N   UNL d   1      -0.862  -4.561  -1.167  0.00  0.00    -0.346 N 
ATOM     12  C   UNL d   1      -0.617  -3.231  -1.098  0.00  0.00     0.105 A 
ATOM     13  HN  UNL d   1      -1.352  -4.975  -1.960  1.00  0.00     0.167 HD
BRANCH   8  14
ATOM     14  C   UNL d   1       1.167  -2.900   2.269  0.00  0.00     0.418 C 
ATOM     15  F   UNL d   1       1.130  -1.570   2.526  0.00  0.00    -0.166 F 
ATOM     16  F   UNL d   1       0.620  -3.471   3.389  0.00  0.00    -0.166 F 
ATOM     17  F   UNL d   1       2.479  -3.264   2.294  0.00  0.00    -0.166 F 
ENDBRANCH   8  14
BRANCH  10  18
ATOM     18  O   UNL d   1      -0.638  -6.670  -0.134  0.00  0.00    -0.341 OA
ATOM     19  C   UNL d   1      -1.393  -7.119  -1.255  0.00  0.00     0.211 C 
ENDBRANCH  10  18
ENDBRANCH   1   7
BRANCH   4  20
ATOM     20  C   UNL d   1       2.149   1.786   0.758  0.00  0.00    -0.009 A 
ATOM     21  C   UNL d   1       2.352   3.066   0.224  0.00  0.00     0.015 A 
ATOM     22  C   UNL d   1       3.293   3.930   0.793  0.00  0.00     0.024 A 
ATOM     23  C   UNL d   1       4.035   3.519   1.899  0.00  0.00     0.034 A 
ATOM     24  C   UNL d   1       3.849   2.249   2.438  0.00  0.00     0.024 A 
ATOM     25 CL   UNL d   1       5.183   4.588   2.603  0.00  0.00    -0.084 Cl
ATOM     26  C   UNL d   1       2.912   1.385   1.866  0.00  0.00     0.015 A 
ENDBRANCH   4  20
TORSDOF 4
