REMARK  2 active torsions:
REMARK  status: ('A' for Active; 'I' for Inactive)
REMARK    1  A    between atoms: C_2  and  C_1 
REMARK       I    between atoms: N_3  and  C_1 
REMARK    2  A    between atoms: C_12  and  N_3 
ROOT
ATOM      1  C   UNL d   1       0.323  -0.856  -0.858  0.00  0.00     0.033 A 
ATOM      2  C   UNL d   1      -0.793  -0.378  -1.552  0.00  0.00     0.030 A 
ATOM      3  C   UNL d   1      -1.583  -1.245  -2.322  0.00  0.00    -0.009 A 
ATOM      4  N   UNL d   1      -1.998  -3.481  -3.124  0.00  0.00    -0.365 N 
ATOM      5  HN  UNL d   1      -1.729  -4.462  -3.203  1.00  0.00     0.165 HD
ATOM      6  C   UNL d   1      -1.244  -2.610  -2.430  0.00  0.00     0.042 A 
ATOM      7  C   UNL d   1       0.675  -2.203  -0.973  0.00  0.00     0.019 A 
ATOM      8  C   UNL d   1      -0.107  -3.057  -1.766  0.00  0.00     0.031 A 
ATOM      9  C   UNL d   1      -3.124  -3.017  -3.713  0.00  0.00     0.088 A 
ATOM     10  C   UNL d   1      -2.743  -0.797  -2.966  0.00  0.00     0.015 A 
ATOM     11  C   UNL d   1      -3.534  -1.698  -3.666  0.00  0.00     0.018 A 
ENDROOT
BRANCH   1  12
ATOM     12  C   UNL d   1       0.998   0.064   0.096  0.00  0.00     0.256 C 
ATOM     13  N   UNL d   1       2.340  -0.158   0.339  0.00  0.00    -0.323 N 
ATOM     14  H   UNL d   1       2.844  -0.742  -0.312  0.00  0.00     0.169 HD
ATOM     15  O   UNL d   1       0.321   0.963   0.584  0.00  0.00    -0.267 OA
BRANCH  13  16
ATOM     16  C   UNL d   1       3.089   0.420   1.391  0.00  0.00     0.035 A 
ATOM     17  C   UNL d   1       2.500   1.083   2.474  0.00  0.00     0.031 A 
ATOM     18  C   UNL d   1       3.282   1.571   3.525  0.00  0.00     0.026 A 
ATOM     19  C   UNL d   1       4.661   1.405   3.495  0.00  0.00     0.034 A 
ATOM     20  C   UNL d   1       5.266   0.763   2.416  0.00  0.00     0.026 A 
ATOM     21 CL   UNL d   1       5.620   1.978   4.802  0.00  0.00    -0.084 Cl
ATOM     22  C   UNL d   1       4.479   0.266   1.369  0.00  0.00     0.031 A 
ENDBRANCH  13  16
ENDBRANCH   1  12
TORSDOF 2
