REMARK  8 active torsions:
REMARK  status: ('A' for Active; 'I' for Inactive)
REMARK    1  A    between atoms: C_2  and  C_1 
REMARK    2  A    between atoms: O_6  and  C_2 
REMARK    3  A    between atoms: N_5  and  C_3 
REMARK    4  A    between atoms: C_4  and  C_16 
REMARK    5  A    between atoms: C_16  and  N_5 
REMARK    6  A    between atoms: C_10  and  O_6 
REMARK    7  A    between atoms: C_7  and  C_10 
REMARK    8  A    between atoms: C_15  and  C_7 
ROOT
ATOM      1  C   UNL d   1       1.266  -0.199   0.071  0.00  0.00     0.065 A 
ATOM      2  C   UNL d   1       0.431  -1.341  -0.017  0.00  0.00     0.044 A 
ATOM      3  C   UNL d   1       0.687   1.090   0.047  0.00  0.00     0.020 A 
ATOM      4  C   UNL d   1      -0.958  -1.128  -0.106  0.00  0.00     0.030 A 
ATOM      5  C   UNL d   1      -0.692   1.264  -0.036  0.00  0.00     0.001 A 
ATOM      6  C   UNL d   1      -1.515   0.153  -0.102  0.00  0.00     0.002 A 
ENDROOT
BRANCH   1   7
ATOM      7  C   UNL d   1       2.743  -0.314   0.357  0.00  0.00     0.296 C 
ATOM      8  O   UNL d   1       3.348  -1.329   0.659  0.00  0.00    -0.259 OA
BRANCH   7   9
ATOM      9  O   UNL d   1       3.313   0.923   0.334  0.00  0.00    -0.310 OA
BRANCH   9  10
ATOM     10  C   UNL d   1       4.358   1.145   1.294  0.00  0.00     0.263 C 
BRANCH  10  11
ATOM     11  C   UNL d   1       3.749   1.882   2.487  0.00  0.00     0.183 C 
ATOM     12  O   UNL d   1       2.571   2.242   2.506  0.00  0.00    -0.290 OA
BRANCH  11  13
ATOM     13  C   UNL d   1       4.602   2.201   3.671  0.00  0.00     0.012 A 
ATOM     14  C   UNL d   1       5.974   1.928   3.715  0.00  0.00     0.015 A 
ATOM     15  C   UNL d   1       6.716   2.262   4.853  0.00  0.00     0.001 A 
ATOM     16  C   UNL d   1       6.098   2.865   5.948  0.00  0.00     0.000 A 
ATOM     17  C   UNL d   1       4.734   3.141   5.912  0.00  0.00     0.001 A 
ATOM     18  C   UNL d   1       3.990   2.811   4.779  0.00  0.00     0.015 A 
ENDBRANCH  11  13
ENDBRANCH  10  11
ENDBRANCH   9  10
ENDBRANCH   7   9
ENDBRANCH   1   7
BRANCH   2  19
ATOM     19  N   UNL d   1       0.963  -2.632  -0.122  0.00  0.00    -0.383 N 
ATOM     20  H   UNL d   1       1.380  -2.803  -1.032  0.00  0.00     0.160 HD
BRANCH  19  21
ATOM     21  C   UNL d   1       0.263  -3.797   0.422  0.00  0.00     0.184 C 
BRANCH  21  22
ATOM     22  C   UNL d   1      -0.813  -4.422  -0.408  0.00  0.00     0.070 A 
ATOM     23  O   UNL d   1      -1.885  -4.915   0.281  0.00  0.00    -0.325 OA
ATOM     24  C   UNL d   1      -2.745  -5.434  -0.630  0.00  0.00     0.142 A 
ATOM     25  C   UNL d   1      -2.245  -5.287  -1.900  0.00  0.00     0.027 A 
ATOM     26  C   UNL d   1      -0.994  -4.634  -1.761  0.00  0.00     0.036 A 
ENDBRANCH  21  22
ENDBRANCH  19  21
ENDBRANCH   2  19
TORSDOF 8
