REMARK  0 active torsions:
REMARK  status: ('A' for Active; 'I' for Inactive)
ROOT
ATOM      1  C   UNL d   1       1.291  -1.465   0.057  0.00  0.00     0.204 A 
ATOM      2  C   UNL d   1       2.519  -0.631  -0.006  0.00  0.00     0.084 A 
ATOM      3  C   UNL d   1       0.011  -0.732   0.042  0.00  0.00     0.049 A 
ATOM      4  C   UNL d   1       2.374   0.699   0.002  0.00  0.00     0.165 A 
ATOM      5  O   UNL d   1       1.189   1.391   0.054  0.00  0.00    -0.320 OA
ATOM      6  C   UNL d   1       0.028   0.661   0.031  0.00  0.00     0.089 A 
ATOM      7  O   UNL d   1       1.313  -2.688   0.107  0.00  0.00    -0.286 OA
ATOM      8 BR   UNL d   1       4.183  -1.457  -0.108  0.00  0.00    -0.045 Br
ATOM      9  C   UNL d   1      -1.205  -1.423   0.016  0.00  0.00     0.018 A 
ATOM     10  C   UNL d   1      -1.171   1.373  -0.015  0.00  0.00     0.038 A 
ATOM     11  C   UNL d   1      -2.404  -0.710  -0.038  0.00  0.00     0.001 A 
ATOM     12  C   UNL d   1      -2.386   0.686  -0.057  0.00  0.00     0.003 A 
ENDROOT
TORSDOF 0
