REMARK  1 active torsions:
REMARK  status: ('A' for Active; 'I' for Inactive)
REMARK       I    between atoms: C_4  and  N_2 
REMARK    1  A    between atoms: C_8  and  C_4 
ROOT
ATOM      1  C   UNL d   1      -0.464  -0.569   0.426  0.00  0.00    -0.005 A 
ATOM      2  N   UNL d   1      -2.487  -1.410   1.427  0.00  0.00    -0.343 N 
ATOM      3  C   UNL d   1      -1.036   0.683   0.380  0.00  0.00     0.020 A 
ATOM      4  C   UNL d   1      -2.785  -1.978   2.663  0.00  0.00     0.255 C 
ATOM      5  N   UNL d   1      -0.049   1.603   0.155  0.00  0.00    -0.358 N 
ATOM      6  C   UNL d   1       0.922  -0.418   0.152  0.00  0.00     0.003 A 
ATOM      7  C   UNL d   1      -1.243  -1.801   0.738  0.00  0.00     0.167 C 
ATOM      8  C   UNL d   1       1.164   0.955   0.029  0.00  0.00     0.043 A 
ATOM      9  C   UNL d   1      -2.476   0.978   0.650  0.00  0.00     0.077 C 
ATOM     10  C   UNL d   1      -3.273  -0.353   0.736  0.00  0.00     0.132 C 
ATOM     11  C   UNL d   1       2.003  -1.313   0.029  0.00  0.00     0.056 A 
ATOM     12  O   UNL d   1      -1.942  -2.464   3.418  0.00  0.00    -0.267 OA
ATOM     13  C   UNL d   1       2.449   1.477  -0.167  0.00  0.00     0.033 A 
ATOM     14  C   UNL d   1       3.281  -0.796  -0.175  0.00  0.00     0.117 A 
ATOM     15  C   UNL d   1       3.513   0.572  -0.267  0.00  0.00     0.044 A 
ATOM     16  F   UNL d   1       4.316  -1.641  -0.280  0.00  0.00    -0.206 F 
ATOM     17  H   UNL d   1      -0.172   2.605   0.123  0.00  0.00     0.166 HD
ENDROOT
BRANCH   4  18
ATOM     18  C   UNL d   1      -4.210  -2.352   2.878  0.00  0.00     0.043 C 
ATOM     19  C   UNL d   1      -5.263  -1.443   3.115  0.00  0.00    -0.010 C 
ATOM     20  C   UNL d   1      -6.503  -1.751   2.510  0.00  0.00    -0.025 C 
ATOM     21  C   UNL d   1      -5.186  -0.283   3.915  0.00  0.00     0.013 C 
ATOM     22  C   UNL d   1      -7.522  -0.792   2.486  0.00  0.00     0.012 C 
ATOM     23  C   UNL d   1      -6.719  -3.026   1.952  0.00  0.00     0.012 C 
ATOM     24  C   UNL d   1      -7.416   0.366   3.247  0.00  0.00     0.001 C 
ATOM     25  C   UNL d   1      -6.282   0.583   4.026  0.00  0.00     0.001 C 
ATOM     26  C   UNL d   1      -5.737  -4.004   2.018  0.00  0.00     0.002 C 
ATOM     27  C   UNL d   1      -4.463  -3.664   2.451  0.00  0.00     0.018 C 
ENDBRANCH   4  18
TORSDOF 1
