REMARK  6 active torsions:
REMARK  status: ('A' for Active; 'I' for Inactive)
REMARK       I    between atoms: C_2  and  N_1 
REMARK    1  A    between atoms: O_7  and  C_2 
REMARK    2  A    between atoms: C_3  and  C_6 
REMARK       I    between atoms: N_14  and  C_6 
REMARK    3  A    between atoms: C_13  and  O_7 
REMARK    4  A    between atoms: N_10  and  C_17 
REMARK    5  A    between atoms: C_16  and  N_14 
REMARK    6  A    between atoms: C_17  and  C_16 
ROOT
ATOM      1  N   UNL d   1       2.180   0.687   0.282  0.00  0.00    -0.310 N 
ATOM      2  C   UNL d   1       3.026   1.482   1.033  0.00  0.00     0.364 C 
ATOM      3  C   UNL d   1       2.173  -0.763   0.576  0.00  0.00     0.186 C 
ATOM      4  C   UNL d   1       1.148   1.200  -0.606  0.00  0.00     0.168 C 
ATOM      5  C   UNL d   1       1.095  -1.562  -0.186  0.00  0.00     0.074 C 
ATOM      6  C   UNL d   1      -0.186   0.565  -0.267  0.00  0.00    -0.034 A 
ATOM      7  C   UNL d   1      -0.220  -0.834  -0.101  0.00  0.00    -0.048 A 
ATOM      8  O   UNL d   1       3.751   1.009   1.911  0.00  0.00    -0.238 OA
ATOM      9  C   UNL d   1      -1.425  -1.492   0.150  0.00  0.00     0.008 A 
ATOM     10  C   UNL d   1      -1.361   1.300  -0.113  0.00  0.00     0.009 A 
ATOM     11  C   UNL d   1      -2.594  -0.748   0.297  0.00  0.00     0.001 A 
ATOM     12  C   UNL d   1      -2.559   0.644   0.184  0.00  0.00     0.001 A 
ENDROOT
BRANCH   3  13
ATOM     13  C   UNL d   1       3.537  -1.364   0.217  0.00  0.00     0.241 C 
ATOM     14  O   UNL d   1       3.943  -1.457  -0.941  0.00  0.00    -0.271 OA
ATOM     15  N   UNL d   1       4.284  -1.755   1.310  0.00  0.00    -0.358 N 
ATOM     16  H   UNL d   1       4.074  -1.280   2.183  0.00  0.00     0.162 HD
BRANCH  15  17
ATOM     17  C   UNL d   1       5.627  -2.272   1.148  0.00  0.00     0.152 C 
BRANCH  17  18
ATOM     18  C   UNL d   1       6.692  -1.156   1.119  0.00  0.00     0.292 C 
BRANCH  18  19
ATOM     19  N   UNL d   1       8.061  -1.679   0.948  0.00  0.00     0.094 N 
ATOM     20  C   UNL d   1       8.291  -2.261  -0.395  0.00  0.00     0.298 C 
ATOM     21  C   UNL d   1       8.389  -1.216  -1.518  0.00  0.00     0.198 C 
ATOM     22  O   UNL d   1       9.440  -0.280  -1.250  0.00  0.00    -0.388 OA
ATOM     23  C   UNL d   1       9.227   0.377   0.006  0.00  0.00     0.198 C 
ATOM     24  C   UNL d   1       9.081  -0.627   1.164  0.00  0.00     0.298 C 
ENDBRANCH  18  19
ENDBRANCH  17  18
ENDBRANCH  15  17
ENDBRANCH   3  13
BRANCH   2  25
ATOM     25  O   UNL d   1       3.014   2.793   0.682  0.00  0.00    -0.294 OA
BRANCH  25  26
ATOM     26  C   UNL d   1       4.010   3.695   1.252  0.00  0.00     0.061 C 
ATOM     27  C   UNL d   1       5.436   3.223   0.916  0.00  0.00     0.046 C 
ATOM     28  C   UNL d   1       3.766   5.061   0.588  0.00  0.00     0.046 C 
ATOM     29  C   UNL d   1       3.823   3.865   2.766  0.00  0.00     0.046 C 
ENDBRANCH  25  26
ENDBRANCH   2  25
TORSDOF 6
