REMARK  2 active torsions:
REMARK  status: ('A' for Active; 'I' for Inactive)
REMARK    1  A    between atoms: C_15  and  N_5 
REMARK    2  A    between atoms: C_16  and  N_7 
ROOT
ATOM      1  C   UNL d   1       3.357   1.548  -1.052  0.00  0.00     0.130 C 
ATOM      2  C   UNL d   1       0.661   1.206   0.371  0.00  0.00     0.130 C 
ATOM      3  S   UNL d   1       1.514  -0.363   0.331  0.00  0.00    -0.020 SA
ATOM      4  S   UNL d   1       3.498   0.144   0.002  0.00  0.00    -0.020 SA
ATOM      5  N   UNL d   1       3.684   2.765  -0.735  0.00  0.00    -0.341 N 
ATOM      6  HN  UNL d   1       3.502   3.489  -1.429  1.00  0.00     0.167 HD
ATOM      7  N   UNL d   1       0.679   1.890   1.462  0.00  0.00    -0.341 N 
ATOM      8  HN  UNL d   1       1.260   1.565   2.235  1.00  0.00     0.167 HD
ATOM      9  N   UNL d   1       2.941   1.246  -2.329  0.00  0.00    -0.271 NA
ATOM     10  N   UNL d   1      -0.015   1.430  -0.804  0.00  0.00    -0.271 NA
ATOM     11  C   UNL d   1       1.542   1.330  -2.752  0.00  0.00     0.109 C 
ATOM     12  C   UNL d   1       0.616   2.208  -1.883  0.00  0.00     0.109 C 
ATOM     13  H   UNL d   1       3.311   0.340  -2.606  0.00  0.00     0.129 HD
ATOM     14  H   UNL d   1      -0.317   0.532  -1.173  0.00  0.00     0.129 HD
ENDROOT
BRANCH   5  15
ATOM     15  C   UNL d   1       4.267   3.177   0.480  0.00  0.00     0.035 A 
ATOM     16  C   UNL d   1       3.855   2.776   1.753  0.00  0.00     0.055 A 
ATOM     17  C   UNL d   1       4.446   3.280   2.917  0.00  0.00     0.058 A 
ATOM     18 CL   UNL d   1       3.871   2.679   4.433  0.00  0.00    -0.082 Cl
ATOM     19  C   UNL d   1       5.454   4.243   2.822  0.00  0.00     0.055 A 
ATOM     20  C   UNL d   1       5.871   4.668   1.564  0.00  0.00     0.028 A 
ATOM     21 CL   UNL d   1       6.181   4.955   4.215  0.00  0.00    -0.083 Cl
ATOM     22  C   UNL d   1       5.286   4.134   0.408  0.00  0.00     0.031 A 
ENDBRANCH   5  15
BRANCH   7  23
ATOM     23  C   UNL d   1      -0.073   3.072   1.631  0.00  0.00     0.035 A 
ATOM     24  C   UNL d   1      -1.358   3.270   1.112  0.00  0.00     0.055 A 
ATOM     25  C   UNL d   1      -2.068   4.454   1.348  0.00  0.00     0.058 A 
ATOM     26 CL   UNL d   1      -3.625   4.613   0.611  0.00  0.00    -0.082 Cl
ATOM     27  C   UNL d   1      -1.518   5.452   2.156  0.00  0.00     0.055 A 
ATOM     28  C   UNL d   1      -0.261   5.253   2.725  0.00  0.00     0.028 A 
ATOM     29 CL   UNL d   1      -2.342   6.930   2.501  0.00  0.00    -0.083 Cl
ATOM     30  C   UNL d   1       0.447   4.073   2.462  0.00  0.00     0.031 A 
ENDBRANCH   7  23
TORSDOF 2
