REMARK  6 active torsions:
REMARK  status: ('A' for Active; 'I' for Inactive)
REMARK    1  A    between atoms: C_12  and  C_2 
REMARK    2  A    between atoms: C_13  and  C_5 
REMARK       I    between atoms: N_16  and  C_12 
REMARK    3  A    between atoms: C_14  and  C_17 
REMARK       I    between atoms: C_15  and  N_18 
REMARK       I    between atoms: N_19  and  C_15 
REMARK    4  A    between atoms: N_18  and  N_16 
REMARK    5  A    between atoms: C_24  and  N_19 
REMARK    6  A    between atoms: O_31  and  C_20 
ROOT
ATOM      1  C   UNL d   1      -0.282   0.445  -0.099  0.00  0.00     0.089 A 
ATOM      2  C   UNL d   1      -2.449  -0.732  -0.170  0.00  0.00     0.083 A 
ATOM      3  C   UNL d   1      -0.094  -0.927   0.024  0.00  0.00     0.027 A 
ATOM      4  C   UNL d   1      -1.380  -1.616   0.009  0.00  0.00    -0.024 A 
ATOM      5  C   UNL d   1       1.898   0.945   0.047  0.00  0.00     0.119 A 
ATOM      6  S   UNL d   1      -1.915   0.885  -0.277  0.00  0.00    -0.065 SA
ATOM      7  N   UNL d   1       0.660   1.406  -0.112  0.00  0.00    -0.335 N 
ATOM      8  HN  UNL d   1       0.445   2.395  -0.232  1.00  0.00     0.168 HD
ATOM      9  N   UNL d   1       2.212  -0.358   0.171  0.00  0.00    -0.345 N 
ATOM     10  HN  UNL d   1       3.187  -0.626   0.307  1.00  0.00     0.167 HD
ATOM     11  C   UNL d   1       1.258  -1.324   0.120  0.00  0.00     0.020 A 
ATOM     12  C   UNL d   1      -1.599  -3.093   0.157  0.00  0.00     0.050 C 
ATOM     13  C   UNL d   1       1.833  -2.707   0.131  0.00  0.00     0.069 C 
ENDROOT
BRANCH   2  14
ATOM     14  C   UNL d   1      -3.874  -1.071  -0.245  0.00  0.00     0.277 C 
ATOM     15  N   UNL d   1      -4.749  -0.060  -0.606  0.00  0.00    -0.261 N 
ATOM     16  H   UNL d   1      -4.410   0.811  -1.015  0.00  0.00     0.190 HD
ATOM     17  O   UNL d   1      -4.315  -2.201  -0.014  0.00  0.00    -0.265 OA
BRANCH  15  18
ATOM     18  N   UNL d   1      -6.068  -0.426  -0.938  0.00  0.00    -0.248 N 
ATOM     19  C   UNL d   1      -6.747   0.362  -1.849  0.00  0.00     0.339 C 
ATOM     20  N   UNL d   1      -8.036  -0.084  -2.062  0.00  0.00    -0.308 N 
ATOM     21  O   UNL d   1      -6.198   1.322  -2.373  0.00  0.00    -0.245 OA
ATOM     22  H   UNL d   1      -8.268  -0.981  -1.664  0.00  0.00     0.170 HD
ATOM     23  H   UNL d   1      -6.537  -1.048  -0.290  0.00  0.00     0.192 HD
BRANCH  20  24
ATOM     24  C   UNL d   1      -9.037   0.550  -2.827  0.00  0.00     0.037 A 
ATOM     25  C   UNL d   1      -8.864   1.794  -3.444  0.00  0.00     0.045 A 
ATOM     26  C   UNL d   1      -9.912   2.410  -4.147  0.00  0.00     0.050 A 
ATOM     27  C   UNL d   1     -11.147   1.759  -4.240  0.00  0.00     0.016 A 
ATOM     28  C   UNL d   1     -11.329   0.512  -3.643  0.00  0.00     0.003 A 
ATOM     29  C   UNL d   1     -10.279  -0.088  -2.941  0.00  0.00     0.029 A 
BRANCH  26  30
ATOM     30  C   UNL d   1      -9.720   3.770  -4.775  0.00  0.00     0.417 C 
ATOM     31  F   UNL d   1      -8.456   4.261  -4.660  0.00  0.00    -0.166 F 
ATOM     32  F   UNL d   1     -10.001   3.774  -6.108  0.00  0.00    -0.166 F 
ATOM     33  F   UNL d   1     -10.535   4.712  -4.221  0.00  0.00    -0.166 F 
ENDBRANCH  26  30
ENDBRANCH  20  24
ENDBRANCH  15  18
ENDBRANCH   2  14
BRANCH   5  34
ATOM     34  C   UNL d   1       3.052   1.866  -0.042  0.00  0.00     0.041 A 
ATOM     35  C   UNL d   1       3.058   3.228   0.312  0.00  0.00     0.082 A 
ATOM     36  C   UNL d   1       4.203   4.019   0.089  0.00  0.00     0.038 A 
ATOM     37  C   UNL d   1       5.366   3.477  -0.456  0.00  0.00     0.003 A 
ATOM     38  C   UNL d   1       5.399   2.132  -0.787  0.00  0.00     0.001 A 
ATOM     39  C   UNL d   1       4.264   1.347  -0.577  0.00  0.00     0.018 A 
BRANCH  35  40
ATOM     40  O   UNL d   1       1.988   3.940   0.793  0.00  0.00    -0.355 OA
ATOM     41  C   UNL d   1       1.460   3.465   2.028  0.00  0.00     0.210 C 
ENDBRANCH  35  40
ENDBRANCH   5  34
TORSDOF 6
