REMARK  4 active torsions:
REMARK  status: ('A' for Active; 'I' for Inactive)
REMARK       I    between atoms: N_2  and  C_1 
REMARK       I    between atoms: N_3  and  C_1 
REMARK       I    between atoms: C_4  and  N_2 
REMARK       I    between atoms: C_5  and  N_3 
REMARK    1  A    between atoms: C_6  and  C_4 
REMARK    2  A    between atoms: C_7  and  C_5 
REMARK    3  A    between atoms: C_11  and  C_14 
REMARK    4  A    between atoms: C_12  and  C_13 
ROOT
ATOM      1  C   UNL d   1       0.937  -0.114   0.037  0.00  0.00     0.333 C 
ATOM      2  N   UNL d   1       0.152  -0.197  -1.150  0.00  0.00    -0.270 N 
ATOM      3  N   UNL d   1       0.345   0.201   1.261  0.00  0.00    -0.270 N 
ATOM      4  C   UNL d   1      -1.250  -0.136  -1.283  0.00  0.00     0.261 C 
ATOM      5  C   UNL d   1       0.966  -0.275   2.440  0.00  0.00     0.261 C 
ATOM      6  O   UNL d   1       2.164  -0.240  -0.057  0.00  0.00    -0.246 OA
ATOM      7  O   UNL d   1      -2.013  -0.558  -0.412  0.00  0.00    -0.267 OA
ATOM      8  O   UNL d   1       1.949  -1.011   2.485  0.00  0.00    -0.267 OA
ATOM      9  C   UNL d   1       0.886  -0.709  -2.310  0.00  0.00     0.164 C 
ATOM     10  C   UNL d   1      -0.768   1.137   1.357  0.00  0.00     0.164 C 
ENDROOT
BRANCH   4  11
ATOM     11  C   UNL d   1      -1.882   0.358  -2.571  0.00  0.00     0.032 A 
ATOM     12  C   UNL d   1      -3.206  -0.017  -2.812  0.00  0.00     0.017 A 
ATOM     13  C   UNL d   1      -3.879   0.392  -3.977  0.00  0.00     0.009 A 
ATOM     14  C   UNL d   1      -3.245   1.170  -4.964  0.00  0.00    -0.051 A 
ATOM     15  C   UNL d   1      -1.940   1.584  -4.691  0.00  0.00     0.009 A 
ATOM     16  C   UNL d   1      -1.267   1.205  -3.503  0.00  0.00     0.017 A 
BRANCH  14  17
ATOM     17  C   UNL d   1      -4.017   1.539  -6.249  0.00  0.00    -0.024 C 
ATOM     18  C   UNL d   1      -3.164   2.265  -7.314  0.00  0.00     0.019 C 
ATOM     19  C   UNL d   1      -4.571   0.260  -6.923  0.00  0.00     0.019 C 
ATOM     20  C   UNL d   1      -5.199   2.467  -5.896  0.00  0.00     0.019 C 
ENDBRANCH  14  17
ENDBRANCH   4  11
BRANCH   5  21
ATOM     21  C   UNL d   1       0.425   0.110   3.777  0.00  0.00     0.032 A 
ATOM     22  C   UNL d   1      -0.893  -0.159   4.144  0.00  0.00     0.017 A 
ATOM     23  C   UNL d   1      -1.376   0.275   5.386  0.00  0.00     0.009 A 
ATOM     24  C   UNL d   1      -0.551   0.939   6.316  0.00  0.00    -0.051 A 
ATOM     25  C   UNL d   1       0.798   1.116   5.961  0.00  0.00     0.009 A 
ATOM     26  C   UNL d   1       1.281   0.706   4.708  0.00  0.00     0.017 A 
BRANCH  24  27
ATOM     27  C   UNL d   1      -1.143   1.470   7.637  0.00  0.00    -0.024 C 
ATOM     28  C   UNL d   1      -0.088   2.015   8.627  0.00  0.00     0.019 C 
ATOM     29  C   UNL d   1      -2.110   2.629   7.312  0.00  0.00     0.019 C 
ATOM     30  C   UNL d   1      -1.921   0.360   8.379  0.00  0.00     0.019 C 
ENDBRANCH  24  27
ENDBRANCH   5  21
TORSDOF 4
