REMARK  5 active torsions:
REMARK  status: ('A' for Active; 'I' for Inactive)
REMARK    1  A    between atoms: N_6  and  C_1 
REMARK    2  A    between atoms: O_7  and  C_1 
REMARK    3  A    between atoms: C_8  and  N_6 
REMARK    4  A    between atoms: C_10  and  O_7 
REMARK    5  A    between atoms: O_15  and  C_9 
ROOT
ATOM      1  C   UNL d   1       0.883  -0.060   0.297  0.00  0.00     0.238 C 
ATOM      2  N   UNL d   1       0.340  -0.927   1.096  0.00  0.00    -0.259 N 
ATOM      3  HN  UNL d   1      -0.599  -1.282   0.915  1.00  0.00     0.181 HD
ATOM      4  C   UNL d   1       1.028  -1.344   2.153  0.00  0.00     0.185 C 
ATOM      5  N   UNL d   1       1.579  -1.721   3.102  0.00  0.00    -0.172 NA
ENDROOT
BRANCH   1   6
ATOM      6  N   UNL d   1       0.240   0.434  -0.815  0.00  0.00    -0.321 N 
ATOM      7  H   UNL d   1       0.792   0.897  -1.526  0.00  0.00     0.169 HD
BRANCH   6   8
ATOM      8  C   UNL d   1      -1.134   0.738  -0.846  0.00  0.00     0.035 A 
ATOM      9  C   UNL d   1      -1.851   1.025   0.326  0.00  0.00     0.032 A 
ATOM     10  C   UNL d   1      -3.235   1.200   0.306  0.00  0.00     0.039 A 
ATOM     11  C   UNL d   1      -3.931   1.071  -0.891  0.00  0.00     0.068 A 
ATOM     12  C   UNL d   1      -3.224   0.848  -2.074  0.00  0.00     0.039 A 
ATOM     13  C   UNL d   1      -1.834   0.682  -2.054  0.00  0.00     0.032 A 
BRANCH  11  14
ATOM     14  O   UNL d   1      -5.290   1.167  -1.010  0.00  0.00    -0.356 OA
ATOM     15  C   UNL d   1      -6.021   0.733   0.135  0.00  0.00     0.210 C 
ENDBRANCH  11  14
ENDBRANCH   6   8
ENDBRANCH   1   6
BRANCH   1  16
ATOM     16  O   UNL d   1       2.191   0.397   0.517  0.00  0.00    -0.279 OA
BRANCH  16  17
ATOM     17  C   UNL d   1       2.668   1.624   0.002  0.00  0.00     0.079 A 
ATOM     18  C   UNL d   1       1.887   2.780   0.022  0.00  0.00     0.037 A 
ATOM     19  C   UNL d   1       2.388   3.955  -0.532  0.00  0.00     0.003 A 
ATOM     20  C   UNL d   1       3.683   3.982  -1.052  0.00  0.00     0.000 A 
ATOM     21  C   UNL d   1       4.481   2.836  -1.010  0.00  0.00     0.003 A 
ATOM     22  C   UNL d   1       3.975   1.649  -0.479  0.00  0.00     0.037 A 
ENDBRANCH  16  17
ENDBRANCH   1  16
TORSDOF 5
