REMARK  1 active torsions:
REMARK  status: ('A' for Active; 'I' for Inactive)
REMARK       I    between atoms: C_6  and  N_7 
REMARK    1  A    between atoms: C_10  and  C_6 
ROOT
ATOM      1  C   UNL d   1      -3.124   0.121   0.172  0.00  0.00     0.148 A 
ATOM      2  N   UNL d   1      -2.411   1.050  -0.423  0.00  0.00    -0.336 N 
ATOM      3  HN  UNL d   1      -2.805   1.842  -0.931  1.00  0.00     0.168 HD
ATOM      4  S   UNL d   1      -2.178  -1.111   0.932  0.00  0.00    -0.052 SA
ATOM      5  N   UNL d   1      -4.481   0.079   0.123  0.00  0.00    -0.358 N 
ATOM      6  C   UNL d   1      -8.561  -0.507  -0.380  0.00  0.00     0.260 C 
ATOM      7  N   UNL d   1      -7.172  -0.597  -0.500  0.00  0.00    -0.344 N 
ATOM      8  C   UNL d   1      -0.730  -0.349   0.421  0.00  0.00     0.036 A 
ATOM      9  C   UNL d   1      -1.056   0.814  -0.272  0.00  0.00     0.051 A 
ATOM     10  C   UNL d   1       0.599  -0.751   0.624  0.00  0.00     0.045 A 
ATOM     11  C   UNL d   1      -5.321  -0.508   1.170  0.00  0.00     0.145 C 
ATOM     12  C   UNL d   1      -5.199   0.916  -0.837  0.00  0.00     0.145 C 
ATOM     13  C   UNL d   1      -6.422  -1.362   0.512  0.00  0.00     0.146 C 
ATOM     14  C   UNL d   1      -6.320   0.085  -1.493  0.00  0.00     0.146 C 
ATOM     15  O   UNL d   1      -9.129  -1.042   0.577  0.00  0.00    -0.267 OA
ATOM     16  C   UNL d   1      -0.014   1.628  -0.762  0.00  0.00     0.032 A 
ATOM     17  C   UNL d   1       1.610   0.071   0.126  0.00  0.00     0.035 A 
ATOM     18  C   UNL d   1       1.317   1.250  -0.553  0.00  0.00     0.026 A 
ATOM     19 CL   UNL d   1       3.255  -0.383   0.361  0.00  0.00    -0.084 Cl
ENDROOT
BRANCH   6  20
ATOM     20  C   UNL d   1      -9.316   0.244  -1.378  0.00  0.00     0.072 A 
ATOM     21  S   UNL d   1     -10.632   1.213  -0.835  0.00  0.00    -0.097 SA
ATOM     22  C   UNL d   1     -10.947   1.795  -2.408  0.00  0.00     0.050 A 
ATOM     23  C   UNL d   1     -10.106   1.238  -3.343  0.00  0.00     0.009 A 
ATOM     24  C   UNL d   1      -9.207   0.300  -2.757  0.00  0.00     0.025 A 
ENDBRANCH   6  20
TORSDOF 1
