REMARK  3 active torsions:
REMARK  status: ('A' for Active; 'I' for Inactive)
REMARK    1  A    between atoms: C_11  and  N_1 
REMARK    2  A    between atoms: S_14  and  C_6 
REMARK    3  A    between atoms: C_16  and  C_11 
ROOT
ATOM      1  N   UNL d   1       3.139   1.038   0.030  0.00  0.00    -0.250 N 
ATOM      2  C   UNL d   1       1.734  -0.737  -0.007  0.00  0.00     0.096 A 
ATOM      3  C   UNL d   1       3.136  -0.343   0.087  0.00  0.00     0.277 C 
ATOM      4  N   UNL d   1       1.847   1.553  -0.298  0.00  0.00    -0.289 N 
ATOM      5  C   UNL d   1       0.987   0.442  -0.138  0.00  0.00     0.081 A 
ATOM      6  C   UNL d   1       1.146  -1.973   0.066  0.00  0.00     0.088 A 
ATOM      7  N   UNL d   1      -0.199  -2.066   0.044  0.00  0.00    -0.348 N 
ATOM      8  HN  UNL d   1      -0.639  -2.985   0.084  1.00  0.00     0.166 HD
ATOM      9  C   UNL d   1      -0.429   0.352  -0.121  0.00  0.00     0.022 A 
ATOM     10  C   UNL d   1      -0.976  -0.956  -0.030  0.00  0.00     0.067 A 
ATOM     11  O   UNL d   1       4.096  -1.079   0.214  0.00  0.00    -0.265 OA
ATOM     12  C   UNL d   1      -2.373  -1.093  -0.013  0.00  0.00     0.061 A 
ATOM     13  C   UNL d   1       1.489   2.885   0.154  0.00  0.00     0.178 C 
ATOM     14  C   UNL d   1      -1.330   1.449  -0.179  0.00  0.00     0.016 A 
ATOM     15 CL   UNL d   1      -3.111  -2.664   0.073  0.00  0.00    -0.082 Cl
ATOM     16  C   UNL d   1      -2.713   1.280  -0.135  0.00  0.00     0.003 A 
ATOM     17  C   UNL d   1      -3.238   0.003  -0.057  0.00  0.00     0.026 A 
ENDROOT
BRANCH   1  18
ATOM     18  C   UNL d   1       4.356   1.830  -0.020  0.00  0.00     0.191 C 
BRANCH  18  19
ATOM     19  C   UNL d   1       4.746   2.349   1.350  0.00  0.00    -0.038 A 
ATOM     20  C   UNL d   1       5.113   1.456   2.371  0.00  0.00     0.010 A 
ATOM     21  C   UNL d   1       5.432   1.923   3.649  0.00  0.00     0.024 A 
ATOM     22  C   UNL d   1       5.391   3.288   3.914  0.00  0.00     0.034 A 
ATOM     23  C   UNL d   1       5.052   4.191   2.909  0.00  0.00     0.024 A 
ATOM     24 CL   UNL d   1       5.756   3.866   5.493  0.00  0.00    -0.084 Cl
ATOM     25  C   UNL d   1       4.739   3.724   1.629  0.00  0.00     0.010 A 
ENDBRANCH  18  19
ENDBRANCH   1  18
BRANCH   6  26
ATOM     26  S   UNL d   1       2.067  -3.491   0.188  0.00  0.00    -0.116 SA
ATOM     27  C   UNL d   1       0.750  -4.721   0.006  0.00  0.00     0.097 C 
ENDBRANCH   6  26
TORSDOF 3
