REMARK  2 active torsions:
REMARK  status: ('A' for Active; 'I' for Inactive)
REMARK    1  A    between atoms: C_7  and  C_2 
REMARK    2  A    between atoms: S_8  and  C_3 
ROOT
ATOM      1  N   UNL d   1       0.868  -0.616   0.556  0.00  0.00    -0.330 N 
ATOM      2  C   UNL d   1      -0.327  -1.138   0.075  0.00  0.00     0.061 A 
ATOM      3  C   UNL d   1       0.841   0.743   0.335  0.00  0.00     0.143 A 
ATOM      4  N   UNL d   1      -0.244   1.115  -0.297  0.00  0.00    -0.345 N 
ATOM      5  HN  UNL d   1      -0.497   2.057  -0.596  1.00  0.00     0.167 HD
ATOM      6  C   UNL d   1      -0.965  -0.033  -0.469  0.00  0.00     0.120 A 
ATOM      7  C   UNL d   1       1.972  -1.346   1.132  0.00  0.00     0.158 C 
ENDROOT
BRANCH   2   8
ATOM      8  C   UNL d   1      -0.775  -2.538   0.093  0.00  0.00    -0.008 A 
ATOM      9  C   UNL d   1      -0.554  -3.376   1.193  0.00  0.00     0.014 A 
ATOM     10  C   UNL d   1      -0.974  -4.713   1.172  0.00  0.00     0.007 A 
ATOM     11  C   UNL d   1      -1.659  -5.226   0.069  0.00  0.00    -0.062 A 
ATOM     12  C   UNL d   1      -1.926  -4.384  -1.012  0.00  0.00     0.007 A 
ATOM     13  C   UNL d   1      -2.096  -6.662   0.059  0.00  0.00     0.048 C 
ATOM     14  C   UNL d   1      -1.484  -3.055  -0.999  0.00  0.00     0.014 A 
ENDBRANCH   2   8
BRANCH   3  15
ATOM     15  S   UNL d   1       2.082   1.858   0.810  0.00  0.00    -0.107 SA
ATOM     16  H   UNL d   1       2.879   1.051   1.519  0.00  0.00     0.110 HD
ENDBRANCH   3  15
TORSDOF 2
