REMARK  5 active torsions:
REMARK  status: ('A' for Active; 'I' for Inactive)
REMARK    1  A    between atoms: C_8  and  C_2 
REMARK    2  A    between atoms: S_19  and  C_5 
REMARK    3  A    between atoms: C_25  and  S_19 
REMARK    4  A    between atoms: C_20  and  C_25 
REMARK       I    between atoms: N_21  and  C_20 
REMARK    5  A    between atoms: C_22  and  N_21 
ROOT
ATOM      1  N   UNL d   1       1.020   0.167   0.187  0.00  0.00    -0.315 N 
ATOM      2  C   UNL d   1       0.090   1.175   0.029  0.00  0.00     0.134 C 
ATOM      3  N   UNL d   1      -1.108   0.614  -0.007  0.00  0.00    -0.283 N 
ATOM      4  HN  UNL d   1      -1.983   1.095  -0.213  1.00  0.00     0.188 HD
ATOM      5  C   UNL d   1       0.296  -0.963   0.457  0.00  0.00     0.163 C 
ATOM      6  N   UNL d   1      -0.980  -0.720   0.276  0.00  0.00    -0.278 N 
ATOM      7  HN  UNL d   1      -1.738  -1.400   0.336  1.00  0.00     0.189 HD
ATOM      8  C   UNL d   1       2.453   0.234   0.059  0.00  0.00     0.160 C 
ENDROOT
BRANCH   5   9
ATOM      9  S   UNL d   1       0.959  -2.358   1.222  0.00  0.00    -0.083 SA
BRANCH   9  10
ATOM     10  C   UNL d   1      -0.450  -3.490   1.288  0.00  0.00     0.185 C 
BRANCH  10  11
ATOM     11  C   UNL d   1      -1.592  -3.172   2.249  0.00  0.00     0.231 C 
ATOM     12  N   UNL d   1      -1.630  -1.911   2.808  0.00  0.00    -0.326 N 
ATOM     13  H   UNL d   1      -0.991  -1.236   2.407  0.00  0.00     0.169 HD
ATOM     14  O   UNL d   1      -2.440  -4.046   2.445  0.00  0.00    -0.272 OA
BRANCH  12  15
ATOM     15  C   UNL d   1      -2.663  -1.359   3.593  0.00  0.00     0.036 A 
ATOM     16  C   UNL d   1      -3.655  -2.121   4.209  0.00  0.00     0.053 A 
ATOM     17  C   UNL d   1      -4.699  -1.492   4.889  0.00  0.00     0.036 A 
ATOM     18 CL   UNL d   1      -5.941  -2.440   5.610  0.00  0.00    -0.084 Cl
ATOM     19  C   UNL d   1      -4.752  -0.103   4.980  0.00  0.00     0.024 A 
ATOM     20  C   UNL d   1      -3.740   0.664   4.407  0.00  0.00     0.004 A 
ATOM     21  C   UNL d   1      -2.696   0.038   3.723  0.00  0.00     0.029 A 
ENDBRANCH  12  15
ENDBRANCH  10  11
ENDBRANCH   9  10
ENDBRANCH   5   9
BRANCH   2  22
ATOM     22  C   UNL d   1       0.323   2.622  -0.040  0.00  0.00     0.012 A 
ATOM     23  C   UNL d   1      -0.528   3.394  -0.866  0.00  0.00     0.049 A 
ATOM     24  C   UNL d   1      -0.302   4.783  -0.834  0.00  0.00     0.086 A 
ATOM     25  N   UNL d   1      -0.937   5.764  -1.486  0.00  0.00    -0.240 N 
ATOM     26  C   UNL d   1       0.737   5.385  -0.012  0.00  0.00     0.085 A 
ATOM     27  O   UNL d   1      -0.322   6.941  -1.093  0.00  0.00    -0.156 OA
ATOM     28  HN  UNL d   1      -1.715   5.665  -2.138  1.00  0.00     0.197 HD
ATOM     29  N   UNL d   1       0.709   6.709  -0.195  0.00  0.00    -0.240 N 
ATOM     30  HN  UNL d   1       1.318   7.404   0.236  1.00  0.00     0.197 HD
ATOM     31  C   UNL d   1       1.577   4.619   0.815  0.00  0.00     0.035 A 
ATOM     32  C   UNL d   1       1.318   3.234   0.786  0.00  0.00     0.018 A 
ENDBRANCH   2  22
TORSDOF 5
