REMARK  7 active torsions:
REMARK  status: ('A' for Active; 'I' for Inactive)
REMARK       I    between atoms: N_2  and  C_1 
REMARK    1  A    between atoms: C_4  and  C_1 
REMARK    2  A    between atoms: C_3  and  N_2 
REMARK    3  A    between atoms: S_5  and  C_4 
REMARK    4  A    between atoms: C_9  and  C_4 
REMARK    5  A    between atoms: C_10  and  S_5 
REMARK    6  A    between atoms: C_20  and  C_7 
REMARK    7  A    between atoms: C_21  and  C_8 
ROOT
ATOM      1  C   UNL d   1       0.211  -1.135  -0.609  0.00  0.00     0.177 C 
ENDROOT
BRANCH   1   2
ATOM      2  C   UNL d   1       0.917  -0.471   0.593  0.00  0.00     0.240 C 
ATOM      3  N   UNL d   1       0.404   0.793   0.882  0.00  0.00    -0.325 N 
ATOM      4  H   UNL d   1      -0.586   0.904   0.698  0.00  0.00     0.169 HD
ATOM      5  O   UNL d   1       1.818  -1.002   1.242  0.00  0.00    -0.272 OA
BRANCH   3   6
ATOM      6  C   UNL d   1       0.971   1.716   1.798  0.00  0.00     0.047 A 
ATOM      7  C   UNL d   1       2.338   2.087   1.749  0.00  0.00    -0.031 A 
ATOM      8  C   UNL d   1       2.792   3.107   2.614  0.00  0.00     0.009 A 
ATOM      9  C   UNL d   1       1.933   3.757   3.490  0.00  0.00     0.001 A 
ATOM     10  C   UNL d   1       0.596   3.392   3.536  0.00  0.00     0.009 A 
ATOM     11  C   UNL d   1       0.100   2.363   2.714  0.00  0.00    -0.031 A 
BRANCH   7  12
ATOM     12  C   UNL d   1       3.353   1.571   0.746  0.00  0.00     0.036 C 
ATOM     13  C   UNL d   1       4.549   0.875   1.392  0.00  0.00     0.010 C 
ENDBRANCH   7  12
BRANCH  11  14
ATOM     14  C   UNL d   1      -1.337   1.940   2.947  0.00  0.00     0.036 C 
ATOM     15  C   UNL d   1      -2.355   2.720   2.133  0.00  0.00     0.010 C 
ENDBRANCH  11  14
ENDBRANCH   3   6
ENDBRANCH   1   2
BRANCH   1  16
ATOM     16  S   UNL d   1       1.310  -2.300  -1.526  0.00  0.00    -0.111 SA
BRANCH  16  17
ATOM     17  C   UNL d   1       1.732  -3.611  -0.391  0.00  0.00     0.001 A 
ATOM     18  C   UNL d   1       0.880  -4.123   0.590  0.00  0.00     0.020 A 
ATOM     19  C   UNL d   1       1.275  -5.197   1.396  0.00  0.00     0.025 A 
ATOM     20  C   UNL d   1       2.523  -5.784   1.212  0.00  0.00     0.034 A 
ATOM     21  C   UNL d   1       3.382  -5.302   0.231  0.00  0.00     0.025 A 
ATOM     22 CL   UNL d   1       2.993  -7.121   2.186  0.00  0.00    -0.084 Cl
ATOM     23  C   UNL d   1       2.986  -4.222  -0.566  0.00  0.00     0.020 A 
ENDBRANCH  16  17
ENDBRANCH   1  16
BRANCH   1  24
ATOM     24  C   UNL d   1      -1.214  -1.629  -0.380  0.00  0.00    -0.035 A 
ATOM     25  C   UNL d   1      -1.821  -1.621   0.890  0.00  0.00     0.009 A 
ATOM     26  C   UNL d   1      -3.159  -1.990   1.048  0.00  0.00     0.001 A 
ATOM     27  C   UNL d   1      -3.912  -2.391  -0.051  0.00  0.00     0.000 A 
ATOM     28  C   UNL d   1      -3.324  -2.436  -1.311  0.00  0.00     0.001 A 
ATOM     29  C   UNL d   1      -1.991  -2.053  -1.476  0.00  0.00     0.009 A 
ENDBRANCH   1  24
TORSDOF 7
