REMARK  3 active torsions:
REMARK  status: ('A' for Active; 'I' for Inactive)
REMARK    1  A    between atoms: C_2  and  C_1 
REMARK       I    between atoms: N_4  and  C_2 
REMARK    2  A    between atoms: N_8  and  N_4 
REMARK    3  A    between atoms: C_12  and  N_8 
ROOT
ATOM      1  C   UNL d   1       2.141  -2.239   1.024  0.00  0.00     0.269 C 
ATOM      2  N   UNL d   1       2.451  -3.433   0.395  0.00  0.00    -0.283 N 
ATOM      3  O   UNL d   1       0.986  -1.893   1.255  0.00  0.00    -0.266 OA
ATOM      4  H   UNL d   1       3.375  -3.618   0.010  0.00  0.00     0.184 HD
ENDROOT
BRANCH   2   5
ATOM      5  N   UNL d   1       1.392  -4.132  -0.206  0.00  0.00    -0.203 NA
ATOM      6  H   UNL d   1       0.495  -3.811   0.183  0.00  0.00     0.153 HD
BRANCH   5   7
ATOM      7  C   UNL d   1       1.467  -5.545  -0.099  0.00  0.00     0.028 A 
ATOM      8  C   UNL d   1       2.304  -6.227   0.794  0.00  0.00     0.032 A 
ATOM      9  C   UNL d   1       2.298  -7.634   0.880  0.00  0.00    -0.054 A 
ATOM     10  C   UNL d   1       3.212  -8.317   1.861  0.00  0.00     0.049 C 
ATOM     11  C   UNL d   1       1.431  -8.375   0.054  0.00  0.00    -0.056 A 
ATOM     12  C   UNL d   1       0.590  -7.693  -0.834  0.00  0.00     0.009 A 
ATOM     13  C   UNL d   1       1.377  -9.877   0.113  0.00  0.00     0.049 C 
ATOM     14  C   UNL d   1       0.602  -6.298  -0.899  0.00  0.00     0.026 A 
ENDBRANCH   5   7
ENDBRANCH   2   5
BRANCH   1  15
ATOM     15  C   UNL d   1       3.280  -1.369   1.430  0.00  0.00     0.072 A 
ATOM     16  C   UNL d   1       4.618  -1.733   1.240  0.00  0.00     0.135 A 
ATOM     17  C   UNL d   1       5.657  -0.914   1.674  0.00  0.00     0.085 A 
ATOM     18  F   UNL d   1       4.941  -2.886   0.634  0.00  0.00    -0.205 F 
ATOM     19  C   UNL d   1       5.356   0.288   2.299  0.00  0.00     0.119 A 
ATOM     20  C   UNL d   1       4.037   0.688   2.486  0.00  0.00     0.043 A 
ATOM     21  F   UNL d   1       6.350   1.073   2.731  0.00  0.00    -0.206 F 
ATOM     22  C   UNL d   1       2.998  -0.140   2.050  0.00  0.00     0.023 A 
ENDBRANCH   1  15
TORSDOF 3
