REMARK  3 active torsions:
REMARK  status: ('A' for Active; 'I' for Inactive)
REMARK    1  A    between atoms: C_9  and  C_3 
REMARK    2  A    between atoms: C_8  and  C_7 
REMARK    3  A    between atoms: C_13  and  C_9 
ROOT
ATOM      1  N   UNL d   1       1.310  -1.147  -0.033  0.00  0.00    -0.297 N 
ATOM      2  HN  UNL d   1       1.864  -2.003  -0.038  1.00  0.00     0.187 HD
ATOM      3  C   UNL d   1      -0.232   1.241   0.002  0.00  0.00     0.018 A 
ATOM      4  N   UNL d   1      -0.051  -1.174  -0.117  0.00  0.00    -0.266 N 
ATOM      5  C   UNL d   1      -0.883  -0.084  -0.157  0.00  0.00     0.266 A 
ATOM      6  C   UNL d   1       1.103   1.294   0.108  0.00  0.00     0.045 A 
ATOM      7  C   UNL d   1       1.867   0.024   0.054  0.00  0.00     0.059 A 
ATOM      8  O   UNL d   1      -2.096  -0.197  -0.304  0.00  0.00    -0.266 OA
ATOM      9  H   UNL d   1      -0.479  -2.088  -0.224  0.00  0.00     0.190 HD
ENDROOT
BRANCH   3  10
ATOM     10  C   UNL d   1      -1.095   2.468  -0.062  0.00  0.00     0.083 C 
BRANCH  10  11
ATOM     11  C   UNL d   1      -1.572   2.987   1.278  0.00  0.00    -0.054 A 
ATOM     12  C   UNL d   1      -1.141   4.239   1.748  0.00  0.00     0.010 A 
ATOM     13  C   UNL d   1      -1.651   4.762   2.938  0.00  0.00     0.043 A 
ATOM     14  C   UNL d   1      -2.584   4.033   3.664  0.00  0.00     0.116 A 
ATOM     15  C   UNL d   1      -3.008   2.784   3.230  0.00  0.00     0.043 A 
ATOM     16  F   UNL d   1      -3.090   4.548   4.792  0.00  0.00    -0.206 F 
ATOM     17  C   UNL d   1      -2.504   2.261   2.038  0.00  0.00     0.010 A 
ENDBRANCH  10  11
ENDBRANCH   3  10
BRANCH   7  18
ATOM     18  C   UNL d   1       3.356   0.122   0.117  0.00  0.00    -0.008 A 
ATOM     19  C   UNL d   1       4.080  -0.931   0.695  0.00  0.00     0.017 A 
ATOM     20  C   UNL d   1       5.473  -0.862   0.785  0.00  0.00     0.043 A 
ATOM     21  C   UNL d   1       6.137   0.253   0.286  0.00  0.00     0.116 A 
ATOM     22  C   UNL d   1       5.437   1.294  -0.314  0.00  0.00     0.043 A 
ATOM     23  F   UNL d   1       7.470   0.326   0.380  0.00  0.00    -0.206 F 
ATOM     24  C   UNL d   1       4.046   1.226  -0.408  0.00  0.00     0.017 A 
ENDBRANCH   7  18
TORSDOF 3
