REMARK  5 active torsions:
REMARK  status: ('A' for Active; 'I' for Inactive)
REMARK       I    between atoms: N_2  and  C_1 
REMARK       I    between atoms: N_3  and  C_1 
REMARK    1  A    between atoms: C_8  and  N_2 
REMARK    2  A    between atoms: C_5  and  N_3 
REMARK    3  A    between atoms: C_6  and  C_5 
REMARK    4  A    between atoms: C_7  and  C_6 
REMARK    5  A    between atoms: O_9  and  C_6 
ROOT
ATOM      1  C   UNL d   1       0.990   0.238  -0.229  0.00  0.00     0.320 C 
ATOM      2  N   UNL d   1       2.321   0.206   0.127  0.00  0.00    -0.309 N 
ATOM      3  N   UNL d   1       0.272   1.103   0.560  0.00  0.00    -0.340 N 
ATOM      4  O   UNL d   1       0.461  -0.397  -1.134  0.00  0.00    -0.247 OA
ATOM      5  H   UNL d   1       2.553   0.619   1.016  0.00  0.00     0.170 HD
ATOM      6  H   UNL d   1       0.683   1.495   1.395  0.00  0.00     0.164 HD
ENDROOT
BRANCH   3   7
ATOM      7  C   UNL d   1      -1.178   1.210   0.443  0.00  0.00     0.161 C 
BRANCH   7   8
ATOM      8  C   UNL d   1      -1.679   2.576   0.952  0.00  0.00     0.169 C 
BRANCH   8   9
ATOM      9  C   UNL d   1      -3.184   2.796   0.902  0.00  0.00    -0.028 A 
ATOM     10  C   UNL d   1      -3.786   3.710   1.789  0.00  0.00     0.010 A 
ATOM     11  C   UNL d   1      -5.158   3.972   1.740  0.00  0.00     0.001 A 
ATOM     12  C   UNL d   1      -5.952   3.345   0.786  0.00  0.00     0.000 A 
ATOM     13  C   UNL d   1      -5.374   2.461  -0.119  0.00  0.00     0.001 A 
ATOM     14  C   UNL d   1      -4.002   2.191  -0.065  0.00  0.00     0.010 A 
ENDBRANCH   8   9
BRANCH   8  15
ATOM     15  O   UNL d   1      -1.198   2.709   2.305  0.00  0.00    -0.389 OA
ATOM     16  H   UNL d   1      -1.845   2.256   2.873  0.00  0.00     0.210 HD
ENDBRANCH   8  15
ENDBRANCH   7   8
ENDBRANCH   3   7
BRANCH   2  17
ATOM     17  C   UNL d   1       3.354  -0.489  -0.537  0.00  0.00     0.036 A 
ATOM     18  C   UNL d   1       3.220  -1.028  -1.819  0.00  0.00     0.029 A 
ATOM     19  C   UNL d   1       4.280  -1.713  -2.417  0.00  0.00     0.002 A 
ATOM     20  C   UNL d   1       5.487  -1.866  -1.740  0.00  0.00     0.000 A 
ATOM     21  C   UNL d   1       5.638  -1.319  -0.468  0.00  0.00     0.002 A 
ATOM     22  C   UNL d   1       4.580  -0.625   0.127  0.00  0.00     0.029 A 
ENDBRANCH   2  17
TORSDOF 5
