REMARK  3 active torsions:
REMARK  status: ('A' for Active; 'I' for Inactive)
REMARK    1  A    between atoms: C_7  and  C_3 
REMARK    2  A    between atoms: N_10  and  N_13 
REMARK    3  A    between atoms: C_12  and  N_10 
ROOT
ATOM      1  N   UNL d   1       1.371  -0.644   0.516  0.00  0.00    -0.334 N 
ATOM      2  HN  UNL d   1       2.142  -1.110   0.994  1.00  0.00     0.168 HD
ATOM      3  C   UNL d   1       1.308   0.716   0.289  0.00  0.00     0.052 A 
ATOM      4  C   UNL d   1       0.315  -1.265   0.041  0.00  0.00     0.163 A 
ATOM      5  S   UNL d   1      -0.883  -0.215  -0.616  0.00  0.00    -0.062 SA
ATOM      6  C   UNL d   1       0.136   1.132  -0.316  0.00  0.00     0.083 A 
ATOM      7  N   UNL d   1       0.114  -2.609   0.056  0.00  0.00    -0.279 N 
ATOM      8  H   UNL d   1      -0.737  -2.920  -0.409  0.00  0.00     0.189 HD
ENDROOT
BRANCH   7   9
ATOM      9  N   UNL d   1       1.159  -3.486   0.010  0.00  0.00    -0.302 N 
ATOM     10  HN  UNL d   1       2.045  -3.212  -0.416  1.00  0.00     0.186 HD
BRANCH   9  11
ATOM     11  C   UNL d   1       1.011  -4.672   0.515  0.00  0.00     0.038 C 
ATOM     12  C   UNL d   1      -0.139  -5.141   1.272  0.00  0.00     0.019 A 
ATOM     13  C   UNL d   1      -0.258  -6.487   1.544  0.00  0.00     0.064 A 
ATOM     14  C   UNL d   1      -1.250  -4.534   1.908  0.00  0.00     0.040 A 
ATOM     15  O   UNL d   1      -1.366  -6.755   2.273  0.00  0.00    -0.326 OA
ATOM     16  C   UNL d   1       0.664  -7.587   1.177  0.00  0.00     0.066 C 
ATOM     17  C   UNL d   1      -1.967  -5.555   2.493  0.00  0.00     0.143 A 
ATOM     18  C   UNL d   1       1.599  -7.095   0.058  0.00  0.00     0.013 C 
ATOM     19  C   UNL d   1       2.148  -5.685   0.335  0.00  0.00     0.060 C 
ENDBRANCH   9  11
ENDBRANCH   7   9
BRANCH   3  20
ATOM     20  C   UNL d   1       2.397   1.611   0.685  0.00  0.00     0.013 A 
ATOM     21  C   UNL d   1       3.749   1.212   0.684  0.00  0.00     0.046 A 
ATOM     22 CL   UNL d   1       4.300  -0.339   0.143  0.00  0.00    -0.083 Cl
ATOM     23  C   UNL d   1       4.753   2.101   1.094  0.00  0.00     0.025 A 
ATOM     24  C   UNL d   1       4.436   3.397   1.495  0.00  0.00     0.002 A 
ATOM     25  C   UNL d   1       3.110   3.810   1.495  0.00  0.00     0.001 A 
ATOM     26  C   UNL d   1       2.100   2.926   1.101  0.00  0.00     0.015 A 
ENDBRANCH   3  20
TORSDOF 3
