REMARK  6 active torsions:
REMARK  status: ('A' for Active; 'I' for Inactive)
REMARK    1  A    between atoms: N_3  and  S_1 
REMARK    2  A    between atoms: C_12  and  S_1 
REMARK    3  A    between atoms: S_2  and  N_6 
REMARK    4  A    between atoms: C_5  and  S_2 
REMARK    5  A    between atoms: C_4  and  N_3 
REMARK    6  A    between atoms: N_6  and  C_26 
ROOT
ATOM      1  C   UNL d   1       0.716  -1.491   0.762  0.00  0.00     0.075 A 
ATOM      2  C   UNL d   1       1.083  -2.722   0.204  0.00  0.00     0.027 A 
ATOM      3  C   UNL d   1       0.105  -1.444   2.021  0.00  0.00     0.027 A 
ATOM      4  C   UNL d   1       0.152  -3.862   2.126  0.00  0.00     0.042 A 
ATOM      5  C   UNL d   1       0.793  -3.909   0.887  0.00  0.00     0.031 A 
ATOM      6  C   UNL d   1      -0.188  -2.634   2.695  0.00  0.00     0.031 A 
ENDROOT
BRANCH   1   7
ATOM      7  S   UNL d   1       1.169   0.022  -0.062  0.00  0.00     0.248 S 
ATOM      8  O   UNL d   1       1.192   1.055   0.958  0.00  0.00    -0.205 OA
ATOM      9  O   UNL d   1       2.344  -0.233  -0.868  0.00  0.00    -0.205 OA
BRANCH   7  10
ATOM     10  N   UNL d   1      -0.147   0.390  -1.025  0.00  0.00    -0.151 NA
ATOM     11  H   UNL d   1      -0.267   1.397  -1.061  0.00  0.00     0.149 HD
BRANCH  10  12
ATOM     12  C   UNL d   1      -0.097  -0.146  -2.309  0.00  0.00     0.171 A 
ATOM     13  N   UNL d   1      -0.468  -1.418  -2.467  0.00  0.00    -0.336 N 
ATOM     14  C   UNL d   1      -0.493  -1.858  -3.742  0.00  0.00     0.009 A 
ATOM     15  HN  UNL d   1      -0.715  -2.016  -1.679  1.00  0.00     0.168 HD
ATOM     16  C   UNL d   1      -0.986  -3.253  -3.986  0.00  0.00     0.068 C 
ATOM     17  C   UNL d   1      -0.117  -1.063  -4.811  0.00  0.00     0.049 A 
ATOM     18  C   UNL d   1       0.269   0.233  -4.520  0.00  0.00     0.009 A 
ATOM     19  N   UNL d   1       0.254   0.721  -3.263  0.00  0.00    -0.336 N 
ATOM     20  C   UNL d   1       0.704   1.153  -5.622  0.00  0.00     0.068 C 
ATOM     21  HN  UNL d   1       0.495   1.690  -3.054  1.00  0.00     0.168 HD
ENDBRANCH  10  12
ENDBRANCH   7  10
ENDBRANCH   1   7
BRANCH   4  22
ATOM     22  N   UNL d   1      -0.276  -5.053   2.755  0.00  0.00    -0.281 N 
ATOM     23  H   UNL d   1      -1.240  -5.363   2.656  0.00  0.00     0.179 HD
BRANCH  22  24
ATOM     24  S   UNL d   1       0.730  -5.999   3.691  0.00  0.00     0.263 S 
ATOM     25  O   UNL d   1      -0.079  -7.101   4.167  0.00  0.00    -0.200 OA
ATOM     26  O   UNL d   1       1.967  -6.234   2.977  0.00  0.00    -0.200 OA
BRANCH  24  27
ATOM     27  C   UNL d   1       1.078  -4.958   5.086  0.00  0.00     0.081 A 
ATOM     28  C   UNL d   1       2.252  -4.205   5.105  0.00  0.00     0.049 A 
ATOM     29  C   UNL d   1       2.519  -3.374   6.194  0.00  0.00     0.041 A 
ATOM     30 CL   UNL d   1       3.966  -2.433   6.151  0.00  0.00    -0.084 Cl
ATOM     31  C   UNL d   1       1.630  -3.303   7.280  0.00  0.00    -0.040 A 
ATOM     32  C   UNL d   1       0.471  -4.097   7.259  0.00  0.00     0.010 A 
ATOM     33  C   UNL d   1       1.882  -2.392   8.450  0.00  0.00     0.050 C 
ATOM     34  C   UNL d   1       0.195  -4.927   6.169  0.00  0.00     0.026 A 
ENDBRANCH  24  27
ENDBRANCH  22  24
ENDBRANCH   4  22
TORSDOF 6
