REMARK  5 active torsions:
REMARK  status: ('A' for Active; 'I' for Inactive)
REMARK    1  A    between atoms: O_10  and  C_1 
REMARK    2  A    between atoms: C_12  and  N_2 
REMARK    3  A    between atoms: O_11  and  C_4 
REMARK    4  A    between atoms: C_7  and  C_8 
REMARK    5  A    between atoms: C_13  and  C_12 
ROOT
ATOM      1  C   UNL d   1       1.394  -0.225  -0.054  0.00  0.00     0.102 A 
ATOM      2  C   UNL d   1       0.543  -1.343  -0.108  0.00  0.00     0.101 A 
ATOM      3  C   UNL d   1       0.843   1.054   0.137  0.00  0.00     0.052 A 
ATOM      4  C   UNL d   1      -0.844  -1.155  -0.030  0.00  0.00     0.040 A 
ATOM      5  C   UNL d   1      -0.540   1.223   0.206  0.00  0.00    -0.018 A 
ATOM      6  C   UNL d   1      -1.388   0.119   0.120  0.00  0.00     0.015 A 
ENDROOT
BRANCH   5   7
ATOM      7  C   UNL d   1      -1.103   2.575   0.397  0.00  0.00     0.094 C 
ATOM      8  N   UNL d   1      -2.374   2.769   0.383  0.00  0.00    -0.394 N 
ATOM      9  HN  UNL d   1      -3.030   2.019   0.162  1.00  0.00     0.159 HD
BRANCH   8  10
ATOM     10  C   UNL d   1      -2.828   4.122   0.702  0.00  0.00     0.157 C 
BRANCH  10  11
ATOM     11  C   UNL d   1      -3.704   4.097   1.933  0.00  0.00    -0.041 A 
ATOM     12  C   UNL d   1      -3.357   4.817   3.086  0.00  0.00     0.009 A 
ATOM     13  C   UNL d   1      -4.163   4.752   4.225  0.00  0.00     0.001 A 
ATOM     14  C   UNL d   1      -5.316   3.971   4.225  0.00  0.00     0.000 A 
ATOM     15  C   UNL d   1      -5.673   3.253   3.084  0.00  0.00     0.001 A 
ATOM     16  C   UNL d   1      -4.871   3.322   1.945  0.00  0.00     0.009 A 
ENDBRANCH  10  11
ENDBRANCH   8  10
ENDBRANCH   5   7
BRANCH   1  17
ATOM     17  O   UNL d   1       2.745  -0.418  -0.186  0.00  0.00    -0.353 OA
ATOM     18  C   UNL d   1       3.498   0.673  -0.710  0.00  0.00     0.210 C 
ENDBRANCH   1  17
BRANCH   2  19
ATOM     19  O   UNL d   1       0.876  -2.655  -0.322  0.00  0.00    -0.353 OA
ATOM     20  C   UNL d   1       2.149  -3.113   0.106  0.00  0.00     0.210 C 
ENDBRANCH   2  19
TORSDOF 5
