REMARK  4 active torsions:
REMARK  status: ('A' for Active; 'I' for Inactive)
REMARK    1  A    between atoms: C_12  and  C_3 
REMARK    2  A    between atoms: C_11  and  C_6 
REMARK    3  A    between atoms: O_17  and  C_8 
REMARK    4  A    between atoms: O_18  and  C_12 
ROOT
ATOM      1  C   UNL d   1      -0.276  -0.755  -0.002  0.00  0.00     0.069 A 
ATOM      2  C   UNL d   1      -0.225   0.689  -0.001  0.00  0.00     0.032 A 
ATOM      3  C   UNL d   1      -1.565  -1.248  -0.001  0.00  0.00     0.107 A 
ATOM      4  N   UNL d   1       0.857  -1.508  -0.002  0.00  0.00    -0.350 N 
ATOM      5  HN  UNL d   1       0.852  -2.528  -0.003  1.00  0.00     0.166 HD
ATOM      6  C   UNL d   1       2.012  -0.754  -0.001  0.00  0.00     0.119 A 
ATOM      7  S   UNL d   1      -2.701   0.061  -0.002  0.00  0.00    -0.093 SA
ATOM      8  C   UNL d   1       0.936   1.472   0.000  0.00  0.00     0.083 A 
ATOM      9  C   UNL d   1       2.080   0.671   0.001  0.00  0.00     0.072 A 
ATOM     10  C   UNL d   1      -1.478   1.251  -0.001  0.00  0.00     0.067 A 
ENDROOT
BRANCH   3  11
ATOM     11  C   UNL d   1      -2.116  -2.590  -0.000  0.00  0.00     0.302 C 
ATOM     12  O   UNL d   1      -3.311  -2.865  -0.002  0.00  0.00    -0.259 OA
BRANCH  11  13
ATOM     13  O   UNL d   1      -1.140  -3.544   0.004  0.00  0.00    -0.322 OA
ATOM     14  C   UNL d   1      -1.650  -4.881   0.006  0.00  0.00     0.213 C 
ENDBRANCH  11  13
ENDBRANCH   3  11
BRANCH   8  15
ATOM     15  O   UNL d   1       0.874   2.831   0.001  0.00  0.00    -0.355 OA
ATOM     16  C   UNL d   1       2.114   3.529   0.001  0.00  0.00     0.210 C 
ENDBRANCH   8  15
BRANCH   6  17
ATOM     17  C   UNL d   1       3.357  -1.485  -0.003  0.00  0.00     0.432 C 
ATOM     18  F   UNL d   1       3.270  -2.843  -0.018  0.00  0.00    -0.165 F 
ATOM     19  F   UNL d   1       4.123  -1.146  -1.082  0.00  0.00    -0.165 F 
ATOM     20  F   UNL d   1       4.115  -1.169   1.088  0.00  0.00    -0.165 F 
ENDBRANCH   6  17
TORSDOF 4
