REMARK  3 active torsions:
REMARK  status: ('A' for Active; 'I' for Inactive)
REMARK    1  A    between atoms: C_2  and  C_1 
REMARK    2  A    between atoms: C_14  and  N_3 
REMARK    3  A    between atoms: C_13  and  C_8 
ROOT
ATOM      1  C   UNL d   1      -0.406  -2.721  -0.102  0.00  0.00     0.065 A 
ATOM      2  C   UNL d   1      -1.204  -3.309  -1.058  0.00  0.00     0.124 A 
ATOM      3  N   UNL d   1      -0.600  -4.934   0.387  0.00  0.00    -0.271 N 
ATOM      4  HN  UNL d   1      -0.500  -5.842   0.840  1.00  0.00     0.194 HD
ATOM      5  O   UNL d   1      -1.325  -4.639  -0.757  0.00  0.00    -0.236 OA
ATOM      6  C   UNL d   1      -0.061  -3.776   0.768  0.00  0.00     0.132 A 
ENDROOT
BRANCH   1   7
ATOM      7  C   UNL d   1      -0.041  -1.289   0.007  0.00  0.00     0.153 C 
ATOM      8  N   UNL d   1       1.075  -0.728   0.608  0.00  0.00    -0.224 N 
ATOM      9  N   UNL d   1       0.815   0.585   0.818  0.00  0.00     0.001 NA
ATOM     10  N   UNL d   1      -0.302   0.840   0.154  0.00  0.00    -0.007 NA
ATOM     11  N   UNL d   1      -0.830  -0.305  -0.379  0.00  0.00    -0.269 N 
ATOM     12  HN  UNL d   1      -1.666  -0.382  -0.958  1.00  0.00     0.185 HD
BRANCH   8  13
ATOM     13  C   UNL d   1       2.358  -1.271   0.860  0.00  0.00     0.056 A 
ATOM     14  C   UNL d   1       2.824  -2.382   0.141  0.00  0.00     0.031 A 
ATOM     15  C   UNL d   1       4.104  -2.884   0.381  0.00  0.00     0.002 A 
ATOM     16  C   UNL d   1       4.925  -2.279   1.329  0.00  0.00     0.000 A 
ATOM     17  C   UNL d   1       4.477  -1.158   2.028  0.00  0.00     0.002 A 
ATOM     18  C   UNL d   1       3.201  -0.644   1.788  0.00  0.00     0.031 A 
ENDBRANCH   8  13
ENDBRANCH   1   7
BRANCH   2  19
ATOM     19  C   UNL d   1      -1.833  -2.900  -2.306  0.00  0.00     0.001 A 
ATOM     20  C   UNL d   1      -1.220  -1.955  -3.140  0.00  0.00     0.015 A 
ATOM     21  C   UNL d   1      -1.801  -1.587  -4.356  0.00  0.00     0.007 A 
ATOM     22  C   UNL d   1      -3.008  -2.160  -4.767  0.00  0.00    -0.062 A 
ATOM     23  C   UNL d   1      -3.624  -3.107  -3.942  0.00  0.00     0.007 A 
ATOM     24  C   UNL d   1      -3.616  -1.755  -6.076  0.00  0.00     0.048 C 
ATOM     25  C   UNL d   1      -3.041  -3.474  -2.725  0.00  0.00     0.015 A 
ENDBRANCH   2  19
TORSDOF 3
