REMARK  6 active torsions:
REMARK  status: ('A' for Active; 'I' for Inactive)
REMARK    1  A    between atoms: C_14  and  C_2 
REMARK    2  A    between atoms: C_15  and  C_3 
REMARK    3  A    between atoms: S_17  and  C_6 
REMARK    4  A    between atoms: C_13  and  C_14 
REMARK    5  A    between atoms: C_23  and  S_17 
REMARK    6  A    between atoms: C_25  and  C_23 
ROOT
ATOM      1  N   UNL d   1       0.840  -0.027   0.038  0.00  0.00    -0.319 N 
ATOM      2  C   UNL d   1       0.038   1.075  -0.176  0.00  0.00     0.107 A 
ATOM      3  C   UNL d   1       0.025  -1.113  -0.140  0.00  0.00     0.162 A 
ATOM      4  N   UNL d   1      -1.187   0.658  -0.442  0.00  0.00    -0.286 N 
ATOM      5  HN  UNL d   1      -1.992   1.255  -0.631  1.00  0.00     0.188 HD
ATOM      6  N   UNL d   1      -1.192  -0.712  -0.420  0.00  0.00    -0.278 N 
ATOM      7  HN  UNL d   1      -1.998  -1.313  -0.592  1.00  0.00     0.189 HD
ATOM      8  C   UNL d   1       2.245  -0.046   0.359  0.00  0.00     0.159 C 
ENDROOT
BRANCH   2   9
ATOM      9  C   UNL d   1       0.438   2.505  -0.048  0.00  0.00     0.164 C 
BRANCH   9  10
ATOM     10  C   UNL d   1       1.414   2.962  -1.067  0.00  0.00     0.155 A 
ATOM     11  N   UNL d   1       2.677   2.636  -1.212  0.00  0.00    -0.321 N 
ATOM     12  C   UNL d   1       3.116   3.517  -2.183  0.00  0.00     0.156 A 
ATOM     13  HN  UNL d   1       3.206   1.911  -0.727  1.00  0.00     0.169 HD
ATOM     14  N   UNL d   1       2.149   4.336  -2.638  0.00  0.00    -0.241 N 
ATOM     15  O   UNL d   1       1.024   3.969  -1.899  0.00  0.00    -0.222 OA
ATOM     16  HN  UNL d   1       2.222   5.057  -3.356  1.00  0.00     0.196 HD
BRANCH  12  17
ATOM     17  C   UNL d   1       4.513   3.582  -2.603  0.00  0.00     0.094 A 
ATOM     18  N   UNL d   1       5.363   2.641  -2.103  0.00  0.00    -0.360 N 
ATOM     19  C   UNL d   1       6.661   2.760  -2.467  0.00  0.00     0.105 A 
ATOM     20  HN  UNL d   1       5.041   1.892  -1.491  1.00  0.00     0.165 HD
ATOM     21  C   UNL d   1       7.112   3.774  -3.294  0.00  0.00     0.104 A 
ATOM     22  N   UNL d   1       6.283   4.712  -3.803  0.00  0.00    -0.372 N 
ATOM     23  C   UNL d   1       4.978   4.592  -3.440  0.00  0.00     0.121 A 
ATOM     24  HN  UNL d   1       6.613   5.458  -4.416  1.00  0.00     0.164 HD
ENDBRANCH  12  17
ENDBRANCH   9  10
ENDBRANCH   2   9
BRANCH   3  25
ATOM     25  S   UNL d   1       0.549  -2.757  -0.013  0.00  0.00    -0.088 SA
BRANCH  25  26
ATOM     26  C   UNL d   1      -0.780  -3.576  -0.946  0.00  0.00     0.121 C 
BRANCH  26  27
ATOM     27  C   UNL d   1      -0.642  -5.079  -0.948  0.00  0.00    -0.049 A 
ATOM     28  C   UNL d   1      -1.314  -5.855   0.008  0.00  0.00     0.008 A 
ATOM     29  C   UNL d   1      -1.227  -7.248  -0.018  0.00  0.00     0.001 A 
ATOM     30  C   UNL d   1      -0.462  -7.880  -0.995  0.00  0.00     0.000 A 
ATOM     31  C   UNL d   1       0.227  -7.121  -1.940  0.00  0.00     0.001 A 
ATOM     32  C   UNL d   1       0.139  -5.727  -1.914  0.00  0.00     0.008 A 
ENDBRANCH  26  27
ENDBRANCH  25  26
ENDBRANCH   3  25
TORSDOF 6
