REMARK  4 active torsions:
REMARK  status: ('A' for Active; 'I' for Inactive)
REMARK    1  A    between atoms: C_13  and  C_7 
REMARK    2  A    between atoms: N_10  and  C_9 
REMARK    3  A    between atoms: C_17  and  N_10 
REMARK    4  A    between atoms: C_14  and  C_17 
ROOT
ATOM      1  C   UNL d   1      -1.077  -1.706   0.978  0.00  0.00     0.125 C 
ATOM      2  N   UNL d   1      -1.326  -3.623   2.695  0.00  0.00    -0.191 NA
ATOM      3  N   UNL d   1      -3.050  -0.070   0.657  0.00  0.00    -0.191 NA
ATOM      4  C   UNL d   1      -2.168  -0.808   0.814  0.00  0.00     0.110 C 
ATOM      5  C   UNL d   1      -1.210  -2.765   1.924  0.00  0.00     0.110 C 
ATOM      6  C   UNL d   1       0.033  -1.541   0.234  0.00  0.00     0.045 C 
ENDROOT
BRANCH   6   7
ATOM      7  C   UNL d   1       1.207  -2.416   0.268  0.00  0.00    -0.034 A 
ATOM      8  C   UNL d   1       1.255  -3.552  -0.533  0.00  0.00     0.013 A 
ATOM      9  C   UNL d   1       2.381  -4.389  -0.510  0.00  0.00     0.030 A 
ATOM     10  C   UNL d   1       3.503  -4.128   0.297  0.00  0.00     0.029 A 
ATOM     11  C   UNL d   1       3.416  -2.980   1.104  0.00  0.00     0.030 A 
ATOM     12  C   UNL d   1       2.292  -2.135   1.095  0.00  0.00     0.013 A 
BRANCH  10  13
ATOM     13  N   UNL d   1       4.633  -4.936   0.288  0.00  0.00    -0.384 N 
ATOM     14  C   UNL d   1       4.893  -5.873  -0.805  0.00  0.00     0.149 C 
BRANCH  13  15
ATOM     15  C   UNL d   1       5.530  -5.053   1.461  0.00  0.00     0.136 C 
BRANCH  15  16
ATOM     16  C   UNL d   1       4.837  -5.743   2.639  0.00  0.00     0.143 C 
ATOM     17  C   UNL d   1       5.753  -5.970   3.765  0.00  0.00     0.060 C 
ATOM     18  N   UNL d   1       6.453  -6.166   4.669  0.00  0.00    -0.197 NA
ENDBRANCH  15  16
ENDBRANCH  13  15
ENDBRANCH  10  13
ENDBRANCH   6   7
TORSDOF 4
