REMARK  3 active torsions:
REMARK  status: ('A' for Active; 'I' for Inactive)
REMARK    1  A    between atoms: C_6  and  N_1 
REMARK    2  A    between atoms: O_11  and  C_5 
REMARK    3  A    between atoms: C_12  and  C_6 
ROOT
ATOM      1  N   UNL d   1       0.647   1.343  -0.302  0.00  0.00    -0.340 N 
ATOM      2  C   UNL d   1      -0.743   1.342  -0.388  0.00  0.00     0.224 C 
ATOM      3  C   UNL d   1       1.270   0.063   0.042  0.00  0.00     0.116 C 
ATOM      4  C   UNL d   1      -1.300  -0.040  -0.039  0.00  0.00     0.080 C 
ATOM      5  C   UNL d   1       0.825  -0.970  -1.028  0.00  0.00     0.142 C 
ATOM      6  C   UNL d   1      -0.718  -1.042  -1.055  0.00  0.00     0.048 C 
ATOM      7  C   UNL d   1       0.731  -0.361   1.420  0.00  0.00     0.029 C 
ATOM      8  O   UNL d   1      -1.438   2.286  -0.733  0.00  0.00    -0.273 OA
ATOM      9  C   UNL d   1      -0.806  -0.405   1.371  0.00  0.00     0.016 C 
ENDROOT
BRANCH   1  10
ATOM     10  C   UNL d   1       1.444   2.510  -0.640  0.00  0.00     0.165 C 
BRANCH  10  11
ATOM     11  C   UNL d   1       1.658   3.430   0.536  0.00  0.00    -0.040 A 
ATOM     12  C   UNL d   1       2.731   3.241   1.419  0.00  0.00     0.009 A 
ATOM     13  C   UNL d   1       2.926   4.113   2.494  0.00  0.00     0.001 A 
ATOM     14  C   UNL d   1       2.051   5.178   2.699  0.00  0.00     0.000 A 
ATOM     15  C   UNL d   1       0.975   5.370   1.835  0.00  0.00     0.001 A 
ATOM     16  C   UNL d   1       0.777   4.498   0.764  0.00  0.00     0.009 A 
ENDBRANCH  10  11
ENDBRANCH   1  10
BRANCH   5  17
ATOM     17  O   UNL d   1       1.395  -2.253  -0.801  0.00  0.00    -0.393 OA
ATOM     18  H   UNL d   1       0.902  -2.698  -0.090  0.00  0.00     0.210 HD
ENDBRANCH   5  17
TORSDOF 3
