REMARK  3 active torsions:
REMARK  status: ('A' for Active; 'I' for Inactive)
REMARK    1  A    between atoms: N_2  and  C_1 
REMARK    2  A    between atoms: N_4  and  C_1 
REMARK    3  A    between atoms: C_6  and  N_4 
ROOT
ATOM      1  N   UNL d   1       0.370   1.029  -0.787  0.00  0.00    -0.323 N 
ATOM      2  C   UNL d   1      -0.741   1.913  -0.454  0.00  0.00     0.049 C 
ATOM      3  C   UNL d   1      -1.254   2.761  -1.478  0.00  0.00    -0.031 C 
ATOM      4  C   UNL d   1      -1.344   2.036   0.819  0.00  0.00    -0.035 C 
ATOM      5  C   UNL d   1       0.878   1.110  -2.173  0.00  0.00     0.132 C 
ATOM      6  C   UNL d   1       0.911   2.528  -2.693  0.00  0.00     0.025 C 
ATOM      7  C   UNL d   1      -3.155   3.390  -0.119  0.00  0.00     0.001 C 
ATOM      8  C   UNL d   1      -0.518   3.015  -2.772  0.00  0.00     0.042 C 
ATOM      9  C   UNL d   1      -2.465   3.457  -1.314  0.00  0.00     0.009 C 
ATOM     10  C   UNL d   1      -2.581   2.714   0.946  0.00  0.00     0.009 C 
ATOM     11  C   UNL d   1      -0.756   1.594   2.133  0.00  0.00     0.050 C 
ENDROOT
BRANCH   1  12
ATOM     12  C   UNL d   1       0.910   0.040   0.014  0.00  0.00     0.179 C 
ATOM     13  S   UNL d   1       2.577  -0.165   0.225  0.00  0.00    -0.040 SA
BRANCH  12  14
ATOM     14  N   UNL d   1       0.149  -0.825   0.730  0.00  0.00    -0.332 N 
ATOM     15  H   UNL d   1       0.685  -1.277   1.468  0.00  0.00     0.168 HD
BRANCH  14  16
ATOM     16  C   UNL d   1      -1.152  -1.344   0.588  0.00  0.00     0.056 A 
ATOM     17  C   UNL d   1      -1.665  -2.131   1.648  0.00  0.00     0.060 A 
ATOM     18 CL   UNL d   1      -0.754  -2.375   3.103  0.00  0.00    -0.082 Cl
ATOM     19  C   UNL d   1      -2.926  -2.723   1.562  0.00  0.00     0.026 A 
ATOM     20  C   UNL d   1      -3.690  -2.547   0.414  0.00  0.00     0.002 A 
ATOM     21  C   UNL d   1      -3.193  -1.781  -0.638  0.00  0.00     0.002 A 
ATOM     22  C   UNL d   1      -1.932  -1.184  -0.555  0.00  0.00     0.031 A 
ENDBRANCH  14  16
ENDBRANCH  12  14
ENDBRANCH   1  12
TORSDOF 3
