REMARK  1 active torsions:
REMARK  status: ('A' for Active; 'I' for Inactive)
REMARK    1  A    between atoms: C_8  and  N_1 
ROOT
ATOM      1  N   UNL d   1      -2.382  -0.053  -0.313  0.00  0.00    -0.236 N 
ATOM      2  C   UNL d   1      -1.587  -1.152  -0.682  0.00  0.00     0.238 C 
ATOM      3  C   UNL d   1      -1.636   0.892   0.419  0.00  0.00     0.238 C 
ATOM      4  C   UNL d   1      -0.408  -1.014   0.222  0.00  0.00     0.100 C 
ATOM      5  C   UNL d   1      -0.224   0.499   0.136  0.00  0.00     0.100 C 
ATOM      6  C   UNL d   1       1.102   0.692   0.879  0.00  0.00     0.022 C 
ATOM      7  C   UNL d   1       1.021  -1.514   0.340  0.00  0.00     0.022 C 
ATOM      8  C   UNL d   1       2.129   0.447  -0.220  0.00  0.00    -0.025 C 
ATOM      9  C   UNL d   1       2.018  -0.846  -0.588  0.00  0.00    -0.025 C 
ATOM     10  C   UNL d   1       1.355  -0.651   1.597  0.00  0.00     0.018 C 
ATOM     11  O   UNL d   1      -1.950   1.865   1.081  0.00  0.00    -0.272 OA
ATOM     12  O   UNL d   1      -1.800  -2.099  -1.415  0.00  0.00    -0.272 OA
ENDROOT
BRANCH   1  13
ATOM     13  C   UNL d   1      -3.772   0.079  -0.554  0.00  0.00     0.117 A 
ATOM     14  N   UNL d   1      -4.401   1.164  -0.046  0.00  0.00    -0.351 N 
ATOM     15  C   UNL d   1      -5.734   1.300  -0.224  0.00  0.00     0.096 A 
ATOM     16  HN  UNL d   1      -3.874   1.872   0.466  1.00  0.00     0.166 HD
ATOM     17  C   UNL d   1      -6.519   0.395  -0.917  0.00  0.00    -0.046 A 
ATOM     18  C   UNL d   1      -5.872  -0.713  -1.454  0.00  0.00     0.012 A 
ATOM     19  C   UNL d   1      -7.986   0.622  -1.083  0.00  0.00     0.049 C 
ATOM     20  C   UNL d   1      -4.495  -0.874  -1.269  0.00  0.00     0.050 A 
ENDBRANCH   1  13
TORSDOF 1
