REMARK  7 active torsions:
REMARK  status: ('A' for Active; 'I' for Inactive)
REMARK    1  A    between atoms: N_2  and  C_1 
REMARK    2  A    between atoms: N_4  and  C_1 
REMARK    3  A    between atoms: C_3  and  N_2 
REMARK    4  A    between atoms: N_10  and  N_4 
REMARK    5  A    between atoms: C_11  and  N_4 
REMARK    6  A    between atoms: C_16  and  C_11 
REMARK    7  A    between atoms: O_14  and  C_16 
ROOT
ATOM      1  C   UNL d   1       1.053  -0.162  -0.245  0.00  0.00     0.189 C 
ATOM      2  S   UNL d   1       2.307  -0.615  -1.283  0.00  0.00    -0.039 SA
ENDROOT
BRANCH   1   3
ATOM      3  N   UNL d   1       0.510  -0.981   0.735  0.00  0.00    -0.332 N 
ATOM      4  H   UNL d   1      -0.509  -0.929   0.777  0.00  0.00     0.168 HD
BRANCH   3   5
ATOM      5  C   UNL d   1       1.128  -2.036   1.438  0.00  0.00     0.040 A 
ATOM      6  C   UNL d   1       0.384  -3.163   1.837  0.00  0.00    -0.034 A 
ATOM      7  C   UNL d   1       1.001  -4.137   2.646  0.00  0.00     0.032 A 
ATOM      8  C   UNL d   1      -1.046  -3.397   1.436  0.00  0.00     0.050 C 
ATOM      9  C   UNL d   1       2.332  -4.001   3.038  0.00  0.00     0.034 A 
ATOM     10  C   UNL d   1       3.068  -2.894   2.636  0.00  0.00     0.026 A 
ATOM     11 CL   UNL d   1       3.059  -5.200   4.033  0.00  0.00    -0.084 Cl
ATOM     12  C   UNL d   1       2.465  -1.914   1.843  0.00  0.00     0.032 A 
ENDBRANCH   3   5
ENDBRANCH   1   3
BRANCH   1  13
ATOM     13  N   UNL d   1       0.407   1.092  -0.345  0.00  0.00    -0.289 N 
BRANCH  13  14
ATOM     14  N   UNL d   1       0.697   1.962  -1.438  0.00  0.00    -0.245 NA
ATOM     15  H   UNL d   1       0.825   1.362  -2.262  0.00  0.00     0.143 HD
ATOM     16  H   UNL d   1       1.636   2.337  -1.272  0.00  0.00     0.143 HD
ENDBRANCH  13  14
BRANCH  13  17
ATOM     17  C   UNL d   1      -0.509   1.643   0.670  0.00  0.00     0.171 C 
BRANCH  17  18
ATOM     18  C   UNL d   1      -1.964   1.255   0.412  0.00  0.00     0.185 C 
BRANCH  18  19
ATOM     19  O   UNL d   1      -2.171  -0.138   0.671  0.00  0.00    -0.399 OA
ATOM     20  H   UNL d   1      -3.104  -0.314   0.451  0.00  0.00     0.209 HD
ENDBRANCH  18  19
ENDBRANCH  17  18
ENDBRANCH  13  17
ENDBRANCH   1  13
TORSDOF 7
