REMARK  2 active torsions:
REMARK  status: ('A' for Active; 'I' for Inactive)
REMARK    1  A    between atoms: C_11  and  C_6 
REMARK    2  A    between atoms: C_12  and  C_10 
ROOT
ATOM      1  N   UNL d   1      -0.307  -0.588   0.077  0.00  0.00    -0.203 N 
ATOM      2  C   UNL d   1      -0.256   0.787  -0.069  0.00  0.00     0.133 A 
ATOM      3  N   UNL d   1      -1.581  -1.049   0.159  0.00  0.00    -0.287 N 
ATOM      4  HN  UNL d   1      -1.894  -2.011   0.293  1.00  0.00     0.188 HD
ATOM      5  C   UNL d   1      -1.552   1.226  -0.132  0.00  0.00     0.084 A 
ATOM      6  C   UNL d   1      -2.331   0.053   0.023  0.00  0.00     0.086 A 
ATOM      7  C   UNL d   1       0.824  -1.419   0.153  0.00  0.00     0.270 A 
ATOM      8  C   UNL d   1       2.120  -0.690   0.102  0.00  0.00     0.106 A 
ATOM      9  N   UNL d   1       0.954   1.393  -0.114  0.00  0.00    -0.340 N 
ATOM     10  C   UNL d   1       2.117   0.651  -0.012  0.00  0.00     0.050 A 
ATOM     11  O   UNL d   1       0.741  -2.635   0.267  0.00  0.00    -0.266 OA
ATOM     12  H   UNL d   1       1.057   2.404  -0.181  0.00  0.00     0.167 HD
ENDROOT
BRANCH  10  13
ATOM     13  C   UNL d   1       3.395   1.367   0.015  0.00  0.00     0.006 A 
ATOM     14  C   UNL d   1       4.086   1.681  -1.152  0.00  0.00     0.101 A 
ATOM     15  N   UNL d   1       5.288   2.304  -1.175  0.00  0.00    -0.374 N 
ATOM     16  C   UNL d   1       5.830   2.625   0.020  0.00  0.00     0.087 A 
ATOM     17  HN  UNL d   1       5.761   2.520  -2.052  1.00  0.00     0.164 HD
ATOM     18  C   UNL d   1       5.222   2.361   1.237  0.00  0.00     0.018 A 
ATOM     19  C   UNL d   1       3.983   1.724   1.230  0.00  0.00     0.016 A 
ENDBRANCH  10  13
BRANCH   6  20
ATOM     20  C   UNL d   1      -3.822   0.017   0.043  0.00  0.00     0.103 A 
ATOM     21  O   UNL d   1      -4.628   1.100  -0.183  0.00  0.00    -0.320 OA
ATOM     22  C   UNL d   1      -5.913   0.671  -0.093  0.00  0.00     0.142 A 
ATOM     23  C   UNL d   1      -5.955  -0.669   0.209  0.00  0.00     0.027 A 
ATOM     24  C   UNL d   1      -4.607  -1.093   0.292  0.00  0.00     0.041 A 
ENDBRANCH   6  20
TORSDOF 2
