REMARK  6 active torsions:
REMARK  status: ('A' for Active; 'I' for Inactive)
REMARK    1  A    between atoms: N_3  and  C_1 
REMARK    2  A    between atoms: C_13  and  N_2 
REMARK    3  A    between atoms: C_8  and  O_14 
REMARK    4  A    between atoms: C_12  and  C_8 
REMARK    5  A    between atoms: C_15  and  C_13 
REMARK    6  A    between atoms: O_14  and  C_15 
ROOT
ATOM      1  C   UNL d   1       2.061  -1.533  -0.088  0.00  0.00     0.159 C 
ENDROOT
BRANCH   1   2
ATOM      2  N   UNL d   1       0.817  -0.786   0.035  0.00  0.00    -0.315 N 
ATOM      3  C   UNL d   1      -0.002  -0.266  -0.943  0.00  0.00     0.193 A 
ATOM      4  C   UNL d   1      -1.009   0.401  -0.293  0.00  0.00     0.144 A 
ATOM      5  N   UNL d   1      -0.850   0.300   1.058  0.00  0.00    -0.352 N 
ATOM      6  C   UNL d   1       0.245  -0.411   1.248  0.00  0.00     0.081 A 
ATOM      7  HN  UNL d   1      -1.457   0.694   1.776  1.00  0.00     0.166 HD
ATOM      8  C   UNL d   1       0.768  -0.745   2.600  0.00  0.00     0.089 C 
BRANCH   3   9
ATOM      9  N   UNL d   1       0.147  -0.394  -2.351  0.00  0.00    -0.096 N 
ATOM     10  O   UNL d   1       1.089  -1.076  -2.773  0.00  0.00    -0.530 OA
ATOM     11  O   UNL d   1      -0.695   0.181  -3.052  0.00  0.00    -0.530 OA
ENDBRANCH   3   9
ENDBRANCH   1   2
BRANCH   1  12
ATOM     12  C   UNL d   1       1.866  -3.052  -0.050  0.00  0.00     0.199 C 
BRANCH  12  13
ATOM     13  O   UNL d   1       3.124  -3.758   0.029  0.00  0.00    -0.316 OA
BRANCH  13  14
ATOM     14  C   UNL d   1       3.650  -3.842   1.280  0.00  0.00     0.293 C 
ATOM     15  O   UNL d   1       3.181  -3.317   2.278  0.00  0.00    -0.259 OA
BRANCH  14  16
ATOM     16  C   UNL d   1       4.924  -4.593   1.290  0.00  0.00     0.039 A 
ATOM     17  C   UNL d   1       5.177  -5.657   0.417  0.00  0.00     0.017 A 
ATOM     18  C   UNL d   1       6.396  -6.338   0.492  0.00  0.00     0.001 A 
ATOM     19  C   UNL d   1       7.359  -5.957   1.430  0.00  0.00     0.000 A 
ATOM     20  C   UNL d   1       7.103  -4.904   2.307  0.00  0.00     0.001 A 
ATOM     21  C   UNL d   1       5.885  -4.229   2.244  0.00  0.00     0.017 A 
ENDBRANCH  14  16
ENDBRANCH  13  14
ENDBRANCH  12  13
ENDBRANCH   1  12
TORSDOF 6
