REMARK  3 active torsions:
REMARK  status: ('A' for Active; 'I' for Inactive)
REMARK    1  A    between atoms: N_2  and  C_1 
REMARK    2  A    between atoms: C_7  and  C_4 
REMARK    3  A    between atoms: O_11  and  C_7 
ROOT
ATOM      1  C   UNL d   1       0.114   1.224  -0.006  0.00  0.00     0.144 A 
ATOM      2  S   UNL d   1      -1.072   0.007  -0.015  0.00  0.00    -0.059 SA
ATOM      3  C   UNL d   1       0.109  -1.238  -0.007  0.00  0.00     0.080 A 
ATOM      4  C   UNL d   1       1.395   0.719   0.003  0.00  0.00     0.045 A 
ATOM      5  C   UNL d   1       1.389  -0.709   0.003  0.00  0.00     0.029 A 
ENDROOT
BRANCH   3   6
ATOM      6  C   UNL d   1      -0.245  -2.648  -0.011  0.00  0.00     0.183 C 
ATOM      7  O   UNL d   1       0.557  -3.570  -0.006  0.00  0.00    -0.646 OA
BRANCH   6   8
ATOM      8  O   UNL d   1      -1.585  -2.868  -0.020  0.00  0.00    -0.772 OA
ATOM      9  H   UNL d   1      -2.100  -2.039  -0.022  0.00  0.00     0.167 HD
ENDBRANCH   6   8
ENDBRANCH   3   6
BRANCH   1  10
ATOM     10  N   UNL d   1      -0.264   2.614  -0.010  0.00  0.00    -0.108 N 
ATOM     11  O   UNL d   1       0.662   3.435  -0.005  0.00  0.00    -0.531 OA
ATOM     12  O   UNL d   1      -1.470   2.891  -0.017  0.00  0.00    -0.531 OA
ENDBRANCH   1  10
TORSDOF 3
