REMARK  5 active torsions:
REMARK  status: ('A' for Active; 'I' for Inactive)
REMARK    1  A    between atoms: N_4  and  C_8 
REMARK    2  A    between atoms: S_12  and  C_7 
REMARK    3  A    between atoms: C_18  and  S_12 
REMARK    4  A    between atoms: C_15  and  C_18 
REMARK    5  A    between atoms: O_19  and  C_15 
ROOT
ATOM      1  S   UNL d   1      -1.501  -1.746   0.002  0.00  0.00     0.177 S 
ATOM      2  C   UNL d   1      -0.053  -0.774   0.025  0.00  0.00     0.069 A 
ATOM      3  C   UNL d   1      -2.646  -0.376   0.076  0.00  0.00     0.165 A 
ATOM      4  C   UNL d   1      -0.349   0.587   0.015  0.00  0.00    -0.022 A 
ATOM      5  C   UNL d   1       1.235  -1.291   0.005  0.00  0.00     0.060 A 
ATOM      6  C   UNL d   1      -1.818   0.932   0.099  0.00  0.00     0.096 A 
ATOM      7  C   UNL d   1       2.285  -0.371  -0.032  0.00  0.00     0.104 A 
ATOM      8  O   UNL d   1      -1.574  -2.368  -1.303  0.00  0.00    -0.223 OA
ATOM      9  O   UNL d   1      -1.540  -2.495   1.240  0.00  0.00    -0.223 OA
ATOM     10  C   UNL d   1       0.710   1.481  -0.111  0.00  0.00     0.012 A 
ATOM     11  C   UNL d   1       2.028   1.010  -0.101  0.00  0.00     0.037 A 
ENDROOT
BRANCH   6  12
ATOM     12  S   UNL d   1      -2.260   1.841   1.645  0.00  0.00    -0.149 SA
BRANCH  12  13
ATOM     13  C   UNL d   1      -1.468   3.474   1.427  0.00  0.00     0.185 C 
BRANCH  13  14
ATOM     14  C   UNL d   1      -1.812   4.169   0.126  0.00  0.00     0.267 C 
ATOM     15  O   UNL d   1      -2.685   3.835  -0.664  0.00  0.00    -0.264 OA
BRANCH  14  16
ATOM     16  O   UNL d   1      -0.990   5.246  -0.048  0.00  0.00    -0.326 OA
ATOM     17  C   UNL d   1      -1.248   5.983  -1.247  0.00  0.00     0.213 C 
ENDBRANCH  14  16
ENDBRANCH  13  14
ENDBRANCH  12  13
ENDBRANCH   6  12
BRANCH   7  18
ATOM     18  N   UNL d   1       3.676  -0.840  -0.019  0.00  0.00    -0.116 N 
ATOM     19  O   UNL d   1       3.868  -2.063  -0.014  0.00  0.00    -0.532 OA
ATOM     20  O   UNL d   1       4.569   0.016  -0.010  0.00  0.00    -0.532 OA
ENDBRANCH   7  18
TORSDOF 5
