REMARK  3 active torsions:
REMARK  status: ('A' for Active; 'I' for Inactive)
REMARK    1  A    between atoms: C_3  and  C_1 
REMARK    2  A    between atoms: C_7  and  C_2 
REMARK       I    between atoms: N_4  and  C_3 
REMARK    3  A    between atoms: O_23  and  C_18 
ROOT
ATOM      1  C   UNL d   1       0.153  -1.540  -1.076  0.00  0.00     0.093 C 
ATOM      2  C   UNL d   1       1.295  -0.794  -1.546  0.00  0.00     0.086 C 
ATOM      3  N   UNL d   1       0.972  -0.132  -2.672  0.00  0.00    -0.259 N 
ATOM      4  HN  UNL d   1       1.613   0.364  -3.291  1.00  0.00     0.195 HD
ATOM      5  O   UNL d   1      -0.384  -0.254  -2.825  0.00  0.00    -0.241 OA
ATOM      6  C   UNL d   1      -0.887  -1.043  -1.845  0.00  0.00     0.090 C 
ATOM      7  C   UNL d   1      -2.358  -1.160  -1.844  0.00  0.00     0.080 C 
ENDROOT
BRANCH   1   8
ATOM      8  C   UNL d   1       0.076  -2.462   0.059  0.00  0.00     0.263 C 
ATOM      9  N   UNL d   1      -0.537  -3.741  -0.132  0.00  0.00    -0.313 N 
ATOM     10  C   UNL d   1      -0.661  -4.739   0.925  0.00  0.00     0.044 A 
ATOM     11  C   UNL d   1      -1.172  -4.089  -1.412  0.00  0.00     0.133 C 
ATOM     12  C   UNL d   1      -1.315  -5.966   0.672  0.00  0.00    -0.028 A 
ATOM     13  C   UNL d   1      -0.151  -4.557   2.219  0.00  0.00     0.033 A 
ATOM     14  C   UNL d   1      -1.479  -6.925   1.697  0.00  0.00     0.046 A 
ATOM     15  C   UNL d   1      -1.892  -6.320  -0.668  0.00  0.00     0.042 C 
ATOM     16  C   UNL d   1      -0.982  -6.709   2.975  0.00  0.00     0.068 A 
ATOM     17  C   UNL d   1      -0.306  -5.527   3.230  0.00  0.00     0.039 A 
ATOM     18  C   UNL d   1      -1.176  -5.564  -1.760  0.00  0.00     0.025 C 
ATOM     19  O   UNL d   1       0.602  -2.090   1.105  0.00  0.00    -0.267 OA
BRANCH  16  20
ATOM     20  O   UNL d   1      -1.214  -7.726   3.859  0.00  0.00    -0.356 OA
ATOM     21  C   UNL d   1      -0.762  -7.532   5.192  0.00  0.00     0.210 C 
ENDBRANCH  16  20
ENDBRANCH   1   8
BRANCH   2  22
ATOM     22  C   UNL d   1       2.654  -0.662  -0.997  0.00  0.00     0.037 A 
ATOM     23  C   UNL d   1       3.451  -1.779  -0.682  0.00  0.00     0.048 A 
ATOM     24 CL   UNL d   1       2.982  -3.406  -1.046  0.00  0.00    -0.083 Cl
ATOM     25  C   UNL d   1       4.725  -1.621  -0.108  0.00  0.00     0.025 A 
ATOM     26  C   UNL d   1       5.257  -0.353   0.110  0.00  0.00     0.003 A 
ATOM     27  C   UNL d   1       4.512   0.763  -0.243  0.00  0.00     0.025 A 
ATOM     28  C   UNL d   1       3.221   0.618  -0.774  0.00  0.00     0.048 A 
ATOM     29 CL   UNL d   1       2.389   2.107  -1.106  0.00  0.00    -0.083 Cl
ENDBRANCH   2  22
TORSDOF 3
