REMARK  5 active torsions:
REMARK  status: ('A' for Active; 'I' for Inactive)
REMARK    1  A    between atoms: C_5  and  C_1 
REMARK    2  A    between atoms: C_7  and  C_2 
REMARK       I    between atoms: N_9  and  C_7 
REMARK    3  A    between atoms: N_12  and  N_9 
REMARK    4  A    between atoms: C_14  and  N_12 
REMARK    5  A    between atoms: O_22  and  C_17 
ROOT
ATOM      1  C   UNL d   1       0.387  -0.227  -0.432  0.00  0.00     0.088 A 
ATOM      2  C   UNL d   1      -0.232  -1.404   0.149  0.00  0.00     0.094 A 
ATOM      3  N   UNL d   1      -0.485   0.793  -0.410  0.00  0.00    -0.259 N 
ATOM      4  HN  UNL d   1      -0.341   1.720  -0.812  1.00  0.00     0.195 HD
ATOM      5  O   UNL d   1      -1.598   0.364   0.246  0.00  0.00    -0.241 OA
ATOM      6  C   UNL d   1      -1.465  -0.939   0.589  0.00  0.00     0.090 A 
ATOM      7  C   UNL d   1      -2.638  -1.451   1.331  0.00  0.00     0.080 C 
ENDROOT
BRANCH   2   8
ATOM      8  C   UNL d   1       0.312  -2.753   0.265  0.00  0.00     0.271 C 
ATOM      9  N   UNL d   1      -0.625  -3.776   0.206  0.00  0.00    -0.282 N 
ATOM     10  H   UNL d   1      -1.597  -3.612   0.417  0.00  0.00     0.184 HD
ATOM     11  O   UNL d   1       1.521  -2.975   0.374  0.00  0.00    -0.266 OA
BRANCH   9  12
ATOM     12  N   UNL d   1      -0.212  -5.108   0.354  0.00  0.00    -0.203 NA
ATOM     13  H   UNL d   1       0.794  -5.229   0.187  0.00  0.00     0.153 HD
BRANCH  12  14
ATOM     14  C   UNL d   1      -0.988  -6.080  -0.330  0.00  0.00     0.027 A 
ATOM     15  C   UNL d   1      -2.179  -5.800  -1.018  0.00  0.00     0.028 A 
ATOM     16  C   UNL d   1      -2.957  -6.823  -1.584  0.00  0.00     0.038 A 
ATOM     17  C   UNL d   1      -2.570  -8.152  -1.449  0.00  0.00     0.068 A 
ATOM     18  C   UNL d   1      -1.386  -8.448  -0.777  0.00  0.00     0.038 A 
ATOM     19  C   UNL d   1      -0.615  -7.422  -0.216  0.00  0.00     0.028 A 
BRANCH  17  20
ATOM     20  O   UNL d   1      -3.240  -9.234  -1.952  0.00  0.00    -0.356 OA
ATOM     21  C   UNL d   1      -4.638  -9.067  -2.155  0.00  0.00     0.210 C 
ENDBRANCH  17  20
ENDBRANCH  12  14
ENDBRANCH   9  12
ENDBRANCH   2   8
BRANCH   1  22
ATOM     22  C   UNL d   1       1.706  -0.017  -1.053  0.00  0.00     0.054 A 
ATOM     23  C   UNL d   1       2.441   1.184  -0.920  0.00  0.00     0.049 A 
ATOM     24 CL   UNL d   1       1.921   2.540   0.032  0.00  0.00    -0.083 Cl
ATOM     25  C   UNL d   1       3.682   1.351  -1.559  0.00  0.00     0.025 A 
ATOM     26  C   UNL d   1       4.234   0.323  -2.315  0.00  0.00     0.005 A 
ATOM     27  C   UNL d   1       3.523  -0.861  -2.466  0.00  0.00     0.043 A 
ATOM     28  C   UNL d   1       2.268  -1.008  -1.868  0.00  0.00     0.130 A 
ATOM     29  F   UNL d   1       1.584  -2.127  -2.155  0.00  0.00    -0.205 F 
ENDBRANCH   1  22
TORSDOF 5
