REMARK  10 active torsions:
REMARK  status: ('A' for Active; 'I' for Inactive)
REMARK    1  A    between atoms: N_3  and  S_1 
REMARK    2  A    between atoms: C_6  and  S_1 
REMARK    3  A    between atoms: S_2  and  N_4 
REMARK    4  A    between atoms: C_15  and  S_2 
REMARK    5  A    between atoms: C_7  and  N_3 
REMARK    6  A    between atoms: C_16  and  N_3 
REMARK    7  A    between atoms: N_4  and  N_5 
REMARK       I    between atoms: N_5  and  C_8 
REMARK    8  A    between atoms: C_9  and  C_7 
REMARK    9  A    between atoms: C_8  and  C_12 
REMARK   10  A    between atoms: C_12  and  C_16 
ROOT
ATOM      1  N   UNL d   1       0.375   1.283   0.903  0.00  0.00    -0.200 NA
ENDROOT
BRANCH   1   2
ATOM      2  S   UNL d   1       0.893   2.804   0.302  0.00  0.00     0.244 S 
ATOM      3  O   UNL d   1       2.331   2.846   0.442  0.00  0.00    -0.206 OA
ATOM      4  O   UNL d   1       0.043   3.800   0.942  0.00  0.00    -0.206 OA
BRANCH   2   5
ATOM      5  C   UNL d   1       0.506   2.887  -1.426  0.00  0.00     0.074 A 
ATOM      6  C   UNL d   1      -0.829   2.854  -1.836  0.00  0.00     0.026 A 
ATOM      7  C   UNL d   1      -1.139   3.107  -3.175  0.00  0.00     0.025 A 
ATOM      8  C   UNL d   1      -0.122   3.401  -4.086  0.00  0.00     0.034 A 
ATOM      9  C   UNL d   1       1.212   3.422  -3.677  0.00  0.00     0.025 A 
ATOM     10 CL   UNL d   1      -0.517   3.775  -5.718  0.00  0.00    -0.084 Cl
ATOM     11  C   UNL d   1       1.531   3.160  -2.344  0.00  0.00     0.026 A 
ENDBRANCH   2   5
ENDBRANCH   1   2
BRANCH   1  12
ATOM     12  C   UNL d   1       0.841   0.128   0.064  0.00  0.00     0.172 C 
BRANCH  12  13
ATOM     13  C   UNL d   1       0.300  -1.174   0.572  0.00  0.00     0.066 A 
ATOM     14  O   UNL d   1       1.229  -2.099   0.959  0.00  0.00    -0.326 OA
ATOM     15  C   UNL d   1       0.552  -3.190   1.406  0.00  0.00     0.142 A 
ATOM     16  C   UNL d   1      -0.804  -2.980   1.319  0.00  0.00     0.027 A 
ATOM     17  C   UNL d   1      -0.970  -1.683   0.773  0.00  0.00     0.036 A 
ENDBRANCH  12  13
ENDBRANCH   1  12
BRANCH   1  18
ATOM     18  C   UNL d   1       0.797   1.078   2.357  0.00  0.00     0.117 C 
BRANCH  18  19
ATOM     19  C   UNL d   1       0.368   2.153   3.351  0.00  0.00     0.119 C 
BRANCH  19  20
ATOM     20  C   UNL d   1      -1.116   2.116   3.649  0.00  0.00     0.233 C 
ATOM     21  N   UNL d   1      -1.928   2.493   2.588  0.00  0.00    -0.278 N 
ATOM     22  H   UNL d   1      -1.522   3.207   1.969  0.00  0.00     0.184 HD
ATOM     23  O   UNL d   1      -1.537   1.772   4.752  0.00  0.00    -0.272 OA
BRANCH  21  24
ATOM     24  N   UNL d   1      -3.372   2.653   2.897  0.00  0.00    -0.123 NA
ATOM     25  H   UNL d   1      -3.942   1.849   2.617  0.00  0.00     0.166 HD
BRANCH  24  26
ATOM     26  S   UNL d   1      -4.083   4.133   2.458  0.00  0.00     0.258 S 
ATOM     27  O   UNL d   1      -3.494   5.185   3.263  0.00  0.00    -0.204 OA
ATOM     28  O   UNL d   1      -4.045   4.174   1.008  0.00  0.00    -0.204 OA
BRANCH  26  29
ATOM     29  C   UNL d   1      -5.771   3.929   2.968  0.00  0.00     0.076 A 
ATOM     30  C   UNL d   1      -6.060   3.583   4.293  0.00  0.00     0.025 A 
ATOM     31  C   UNL d   1      -7.390   3.447   4.691  0.00  0.00     0.002 A 
ATOM     32  C   UNL d   1      -8.426   3.657   3.773  0.00  0.00     0.000 A 
ATOM     33  C   UNL d   1      -8.131   4.001   2.455  0.00  0.00     0.002 A 
ATOM     34  C   UNL d   1      -6.803   4.136   2.046  0.00  0.00     0.025 A 
ENDBRANCH  26  29
ENDBRANCH  24  26
ENDBRANCH  21  24
ENDBRANCH  19  20
ENDBRANCH  18  19
ENDBRANCH   1  18
TORSDOF 10
