REMARK  7 active torsions:
REMARK  status: ('A' for Active; 'I' for Inactive)
REMARK    1  A    between atoms: C_2  and  N_1 
REMARK       I    between atoms: C_3  and  N_1 
REMARK    2  A    between atoms: C_9  and  C_3 
REMARK    3  A    between atoms: O_5  and  C_4 
REMARK    4  A    between atoms: C_11  and  O_5 
REMARK    5  A    between atoms: C_6  and  C_10 
REMARK    6  A    between atoms: O_12  and  C_6 
REMARK    7  A    between atoms: C_10  and  C_9 
ROOT
ATOM      1  C   UNL d   1       0.338  -1.086   0.475  0.00  0.00     0.069 A 
ATOM      2  C   UNL d   1       0.713  -1.173   1.828  0.00  0.00     0.102 A 
ATOM      3  C   UNL d   1      -0.888  -1.633   0.071  0.00  0.00     0.032 A 
ATOM      4  C   UNL d   1      -0.109  -1.860   2.731  0.00  0.00     0.039 A 
ATOM      5  C   UNL d   1      -1.316  -2.425   2.307  0.00  0.00     0.003 A 
ATOM      6  C   UNL d   1      -1.709  -2.299   0.982  0.00  0.00     0.002 A 
ENDROOT
BRANCH   1   7
ATOM      7  N   UNL d   1       1.205  -0.519  -0.487  0.00  0.00    -0.325 N 
ATOM      8  C   UNL d   1       0.775   0.255  -1.547  0.00  0.00     0.222 C 
ATOM      9  O   UNL d   1      -0.385   0.556  -1.806  0.00  0.00    -0.273 OA
ATOM     10  H   UNL d   1       2.165  -0.379  -0.192  0.00  0.00     0.169 HD
BRANCH   8  11
ATOM     11  C   UNL d   1       1.899   0.657  -2.474  0.00  0.00     0.113 C 
BRANCH  11  12
ATOM     12  C   UNL d   1       2.070  -0.457  -3.494  0.00  0.00     0.119 C 
BRANCH  12  13
ATOM     13  C   UNL d   1       3.054  -0.092  -4.569  0.00  0.00     0.139 C 
ATOM     14  O   UNL d   1       3.724   0.928  -4.593  0.00  0.00    -0.650 OA
BRANCH  13  15
ATOM     15  O   UNL d   1       3.151  -1.050  -5.519  0.00  0.00    -0.776 OA
ATOM     16  H   UNL d   1       2.561  -1.814  -5.370  0.00  0.00     0.167 HD
ENDBRANCH  13  15
ENDBRANCH  12  13
ENDBRANCH  11  12
ENDBRANCH   8  11
ENDBRANCH   1   7
BRANCH   2  17
ATOM     17  O   UNL d   1       1.869  -0.669   2.391  0.00  0.00    -0.309 OA
BRANCH  17  18
ATOM     18  C   UNL d   1       2.359   0.563   2.020  0.00  0.00     0.076 A 
ATOM     19  C   UNL d   1       1.584   1.631   1.560  0.00  0.00     0.037 A 
ATOM     20  C   UNL d   1       2.208   2.773   1.052  0.00  0.00     0.003 A 
ATOM     21  C   UNL d   1       3.598   2.879   1.071  0.00  0.00     0.000 A 
ATOM     22  C   UNL d   1       4.367   1.853   1.618  0.00  0.00     0.003 A 
ATOM     23  C   UNL d   1       3.748   0.697   2.093  0.00  0.00     0.037 A 
ENDBRANCH  17  18
ENDBRANCH   2  17
TORSDOF 7
