REMARK  4 active torsions:
REMARK  status: ('A' for Active; 'I' for Inactive)
REMARK    1  A    between atoms: C_6  and  C_3 
REMARK    2  A    between atoms: C_10  and  C_4 
REMARK    3  A    between atoms: O_14  and  C_11 
REMARK    4  A    between atoms: C_17  and  O_14 
ROOT
ATOM      1  C   UNL d   1       0.064  -2.604  -0.103  0.00  0.00     0.013 A 
ATOM      2  N   UNL d   1      -0.866  -4.585  -1.158  0.00  0.00    -0.346 N 
ATOM      3  HN  UNL d   1      -1.384  -5.014  -1.924  1.00  0.00     0.167 HD
ATOM      4  C   UNL d   1      -0.366  -5.322  -0.142  0.00  0.00     0.147 A 
ATOM      5  C   UNL d   1      -0.646  -3.252  -1.111  0.00  0.00     0.104 A 
ATOM      6  C   UNL d   1       0.623  -3.414   0.892  0.00  0.00     0.020 A 
ATOM      7  C   UNL d   1       0.408  -4.794   0.878  0.00  0.00     0.057 A 
ENDROOT
BRANCH   1   8
ATOM      8  C   UNL d   1       0.243  -1.150  -0.074  0.00  0.00     0.086 A 
ATOM      9  N   UNL d   1       1.289  -0.541   0.448  0.00  0.00    -0.349 N 
ATOM     10  C   UNL d   1       1.180   0.833   0.292  0.00  0.00     0.050 A 
ATOM     11  HN  UNL d   1       2.070  -1.014   0.903  1.00  0.00     0.166 HD
ATOM     12  C   UNL d   1      -0.002   1.256  -0.284  0.00  0.00     0.082 A 
ATOM     13  S   UNL d   1      -0.975  -0.092  -0.684  0.00  0.00    -0.081 SA
BRANCH  10  14
ATOM     14  C   UNL d   1       2.243   1.726   0.733  0.00  0.00    -0.009 A 
ATOM     15  C   UNL d   1       2.451   2.978   0.137  0.00  0.00     0.015 A 
ATOM     16  C   UNL d   1       3.489   3.810   0.574  0.00  0.00     0.024 A 
ATOM     17  C   UNL d   1       4.323   3.393   1.607  0.00  0.00     0.034 A 
ATOM     18  C   UNL d   1       4.136   2.148   2.203  0.00  0.00     0.024 A 
ATOM     19 CL   UNL d   1       5.597   4.417   2.142  0.00  0.00    -0.084 Cl
ATOM     20  C   UNL d   1       3.102   1.318   1.765  0.00  0.00     0.015 A 
ENDBRANCH  10  14
ENDBRANCH   1   8
BRANCH   4  21
ATOM     21  O   UNL d   1      -0.629  -6.683  -0.100  0.00  0.00    -0.294 OA
BRANCH  21  22
ATOM     22  C   UNL d   1      -1.854  -7.106  -0.571  0.00  0.00     0.077 A 
ATOM     23  C   UNL d   1      -1.885  -8.349  -1.206  0.00  0.00     0.039 A 
ATOM     24  C   UNL d   1      -3.095  -8.860  -1.683  0.00  0.00     0.026 A 
ATOM     25  C   UNL d   1      -4.271  -8.130  -1.516  0.00  0.00     0.034 A 
ATOM     26  C   UNL d   1      -4.251  -6.897  -0.867  0.00  0.00     0.026 A 
ATOM     27 CL   UNL d   1      -5.762  -8.755  -2.105  0.00  0.00    -0.084 Cl
ATOM     28  C   UNL d   1      -3.045  -6.394  -0.378  0.00  0.00     0.039 A 
ENDBRANCH  21  22
ENDBRANCH   4  21
TORSDOF 4
