REMARK  3 active torsions:
REMARK  status: ('A' for Active; 'I' for Inactive)
REMARK    1  A    between atoms: C_2  and  C_1 
REMARK       I    between atoms: N_3  and  C_1 
REMARK    2  A    between atoms: N_5  and  N_3 
REMARK    3  A    between atoms: C_6  and  N_5 
ROOT
ATOM      1  N   UNL d   1      -1.105   1.264  -0.344  0.00  0.00    -0.203 NA
ATOM      2  H   UNL d   1      -1.569   0.358  -0.497  0.00  0.00     0.153 HD
ENDROOT
BRANCH   1   3
ATOM      3  N   UNL d   1       0.277   1.135  -0.535  0.00  0.00    -0.282 N 
ATOM      4  C   UNL d   1       0.836  -0.131  -0.439  0.00  0.00     0.273 C 
ATOM      5  O   UNL d   1       0.126  -1.126  -0.258  0.00  0.00    -0.266 OA
ATOM      6  H   UNL d   1       0.837   1.981  -0.501  0.00  0.00     0.184 HD
BRANCH   4   7
ATOM      7  C   UNL d   1       2.281  -0.211  -0.587  0.00  0.00     0.073 A 
ATOM      8  S   UNL d   1       3.233   1.126  -1.084  0.00  0.00    -0.097 SA
ATOM      9  C   UNL d   1       4.666   0.192  -1.098  0.00  0.00     0.050 A 
ATOM     10  C   UNL d   1       4.439  -1.106  -0.700  0.00  0.00     0.009 A 
ATOM     11  C   UNL d   1       3.066  -1.337  -0.401  0.00  0.00     0.025 A 
ENDBRANCH   4   7
ENDBRANCH   1   3
BRANCH   1  12
ATOM     12  C   UNL d   1      -1.748   2.268  -1.112  0.00  0.00     0.033 A 
ATOM     13  C   UNL d   1      -1.402   2.689  -2.410  0.00  0.00    -0.039 A 
ATOM     14  C   UNL d   1      -2.152   3.723  -3.017  0.00  0.00     0.015 A 
ATOM     15  C   UNL d   1      -0.261   2.138  -3.220  0.00  0.00     0.050 C 
ATOM     16  C   UNL d   1      -3.279   4.281  -2.401  0.00  0.00    -0.061 A 
ATOM     17  C   UNL d   1      -3.676   3.786  -1.163  0.00  0.00     0.008 A 
ATOM     18  C   UNL d   1      -4.037   5.383  -3.078  0.00  0.00     0.048 C 
ATOM     19  C   UNL d   1      -2.923   2.791  -0.537  0.00  0.00     0.026 A 
ENDBRANCH   1  12
TORSDOF 3
