REMARK  7 active torsions:
REMARK  status: ('A' for Active; 'I' for Inactive)
REMARK    1  A    between atoms: C_2  and  C_1 
REMARK       I    between atoms: N_3  and  C_1 
REMARK    2  A    between atoms: C_13  and  N_3 
REMARK       I    between atoms: C_4  and  N_8 
REMARK    3  A    between atoms: C_5  and  C_4 
REMARK    4  A    between atoms: C_6  and  C_7 
REMARK    5  A    between atoms: O_15  and  C_6 
REMARK    6  A    between atoms: N_8  and  C_14 
REMARK    7  A    between atoms: O_16  and  C_9 
ROOT
ATOM      1  C   UNL d   1      -0.995  -0.731   1.340  0.00  0.00     0.035 A 
ATOM      2  C   UNL d   1      -3.798  -1.032   1.372  0.00  0.00     0.035 A 
ATOM      3  C   UNL d   1      -1.643  -1.442   0.331  0.00  0.00     0.032 A 
ATOM      4  C   UNL d   1      -1.745  -0.290   2.433  0.00  0.00     0.032 A 
ATOM      5  C   UNL d   1      -3.140  -0.429   2.442  0.00  0.00     0.032 A 
ATOM      6  C   UNL d   1      -3.033  -1.594   0.346  0.00  0.00     0.032 A 
ENDROOT
BRANCH   1   7
ATOM      7  N   UNL d   1       0.377  -0.385   1.296  0.00  0.00    -0.323 N 
ATOM      8  C   UNL d   1       1.157  -0.369   0.147  0.00  0.00     0.259 C 
ATOM      9  O   UNL d   1       0.762  -0.694  -0.973  0.00  0.00    -0.267 OA
ATOM     10  H   UNL d   1       0.729   0.067   2.124  0.00  0.00     0.169 HD
BRANCH   8  11
ATOM     11  C   UNL d   1       2.564   0.138   0.246  0.00  0.00     0.065 A 
ATOM     12  C   UNL d   1       3.328   0.263  -0.933  0.00  0.00     0.081 A 
ATOM     13  C   UNL d   1       4.645   0.719  -0.899  0.00  0.00     0.037 A 
ATOM     14  C   UNL d   1       5.228   1.064   0.318  0.00  0.00     0.003 A 
ATOM     15  C   UNL d   1       4.491   0.953   1.494  0.00  0.00     0.001 A 
ATOM     16  C   UNL d   1       3.170   0.488   1.466  0.00  0.00     0.020 A 
BRANCH  12  17
ATOM     17  O   UNL d   1       2.851  -0.038  -2.183  0.00  0.00    -0.360 OA
ATOM     18  H   UNL d   1       1.924  -0.355  -2.082  0.00  0.00     0.217 HD
ENDBRANCH  12  17
ENDBRANCH   8  11
ENDBRANCH   1   7
BRANCH   2  19
ATOM     19  N   UNL d   1      -5.198  -1.049   1.203  0.00  0.00    -0.324 N 
ATOM     20  C   UNL d   1      -6.124  -0.388   1.976  0.00  0.00     0.245 C 
ATOM     21  O   UNL d   1      -5.942   0.172   3.052  0.00  0.00    -0.268 OA
ATOM     22  H   UNL d   1      -5.524  -1.473   0.344  0.00  0.00     0.169 HD
BRANCH  20  23
ATOM     23  C   UNL d   1      -7.468  -0.360   1.338  0.00  0.00     0.081 C 
ATOM     24  C   UNL d   1      -8.456   0.324   1.934  0.00  0.00     0.086 C 
BRANCH  24  25
ATOM     25  C   UNL d   1      -9.766   0.405   1.271  0.00  0.00     0.165 C 
ATOM     26  O   UNL d   1     -10.008  -0.063   0.172  0.00  0.00    -0.647 OA
BRANCH  25  27
ATOM     27  O   UNL d   1     -10.675   1.060   2.017  0.00  0.00    -0.773 OA
ATOM     28  H   UNL d   1     -10.359   1.379   2.883  0.00  0.00     0.167 HD
ENDBRANCH  25  27
ENDBRANCH  24  25
ENDBRANCH  20  23
ENDBRANCH   2  19
TORSDOF 7
