REMARK  5 active torsions:
REMARK  status: ('A' for Active; 'I' for Inactive)
REMARK    1  A    between atoms: N_8  and  C_1 
REMARK    2  A    between atoms: C_6  and  C_3 
REMARK    3  A    between atoms: C_10  and  C_14 
REMARK    4  A    between atoms: O_23  and  C_10 
REMARK    5  A    between atoms: C_25  and  O_23 
ROOT
ATOM      1  C   UNL d   1      -1.210  -1.603   0.046  0.00  0.00     0.025 A 
ATOM      2  C   UNL d   1      -2.284  -0.883  -0.561  0.00  0.00     0.013 A 
ATOM      3  C   UNL d   1      -0.160   0.528   0.520  0.00  0.00     0.118 A 
ATOM      4  N   UNL d   1      -1.163   1.213  -0.083  0.00  0.00    -0.352 N 
ATOM      5  HN  UNL d   1      -1.136   2.231  -0.139  1.00  0.00     0.166 HD
ATOM      6  C   UNL d   1      -0.152  -0.860   0.585  0.00  0.00     0.059 A 
ATOM      7  C   UNL d   1      -2.190   0.526  -0.605  0.00  0.00     0.044 A 
ATOM      8  C   UNL d   1      -3.456  -1.483  -1.100  0.00  0.00     0.022 A 
ATOM      9  C   UNL d   1      -3.202   1.261  -1.198  0.00  0.00     0.031 A 
ATOM     10  C   UNL d   1      -4.470  -0.730  -1.698  0.00  0.00    -0.061 A 
ATOM     11  C   UNL d   1      -4.333   0.656  -1.749  0.00  0.00     0.009 A 
ATOM     12  C   UNL d   1      -5.692  -1.376  -2.278  0.00  0.00     0.048 C 
ENDROOT
BRANCH   1  13
ATOM     13  N   UNL d   1      -1.221  -3.022   0.123  0.00  0.00    -0.282 NA
ATOM     14  C   UNL d   1      -0.495  -3.610   1.265  0.00  0.00     0.096 C 
ATOM     15  C   UNL d   1      -0.871  -5.085   1.405  0.00  0.00     0.029 C 
ATOM     16  C   UNL d   1      -0.615  -5.868   0.107  0.00  0.00     0.088 C 
ATOM     17  C   UNL d   1      -1.287  -5.150  -1.077  0.00  0.00     0.029 C 
ATOM     18  C   UNL d   1      -0.890  -3.671  -1.159  0.00  0.00     0.096 C 
BRANCH  16  19
ATOM     19  C   UNL d   1       0.879  -6.052  -0.137  0.00  0.00     0.263 C 
ATOM     20  O   UNL d   1       1.762  -5.620   0.591  0.00  0.00    -0.265 OA
BRANCH  19  21
ATOM     21  O   UNL d   1       1.094  -6.720  -1.305  0.00  0.00    -0.322 OA
BRANCH  21  22
ATOM     22  C   UNL d   1       2.397  -6.553  -1.883  0.00  0.00     0.174 C 
ATOM     23  C   UNL d   1       3.208  -7.831  -1.828  0.00  0.00     0.034 C 
ENDBRANCH  21  22
ENDBRANCH  19  21
ENDBRANCH  16  19
ENDBRANCH   1  13
BRANCH   3  24
ATOM     24  C   UNL d   1       0.993   1.286   1.161  0.00  0.00     0.432 C 
ATOM     25  F   UNL d   1       0.905   2.642   1.063  0.00  0.00    -0.165 F 
ATOM     26  F   UNL d   1       1.112   1.019   2.496  0.00  0.00    -0.165 F 
ATOM     27  F   UNL d   1       2.200   0.951   0.618  0.00  0.00    -0.165 F 
ENDBRANCH   3  24
TORSDOF 5
