REMARK  18 active torsions:
REMARK  status: ('A' for Active; 'I' for Inactive)
REMARK    1  A    between atoms: C3_3  and  C1_1 
REMARK    2  A    between atoms: C5_7  and  C2_2 
REMARK    3  A    between atoms: C4_4  and  C3_3 
REMARK    4  A    between atoms: O1_6  and  C3_3 
REMARK    5  A    between atoms: N1_5  and  C4_4 
REMARK    6  A    between atoms: C6_9  and  C4_4 
REMARK    7  A    between atoms: C7_10  and  C5_7 
REMARK    8  A    between atoms: O2_8  and  C6_9 
REMARK    9  A    between atoms: C16_19  and  C7_10 
REMARK   10  A    between atoms: C8_11  and  C9_12 
REMARK   11  A    between atoms: C9_12  and  C15_18 
REMARK   12  A    between atoms: C10_13  and  C17_20 
REMARK   13  A    between atoms: C11_14  and  C10_13 
REMARK   14  A    between atoms: C12_15  and  C11_14 
REMARK   15  A    between atoms: C13_16  and  C12_15 
REMARK   16  A    between atoms: C14_17  and  C13_16 
REMARK   17  A    between atoms: C15_18  and  C14_17 
REMARK   18  A    between atoms: C17_20  and  C16_19 
ROOT
ATOM      1  C5  <1> d   1       2.712   0.298  -0.015  0.00  0.00     0.094 C 
ENDROOT
BRANCH   1   2
ATOM      2  C2  <1> d   1       1.299  -0.052  -0.057  0.00  0.00    -0.104 C 
ATOM      3  C1  <1> d   1       0.130  -0.330  -0.036  0.00  0.00    -0.072 C 
BRANCH   3   4
ATOM      4  C3  <1> d   1      -1.286  -0.707   0.076  0.00  0.00     0.231 C 
BRANCH   4   5
ATOM      5  C4  <1> d   1      -1.543  -1.492   1.399  0.00  0.00     0.281 C 
BRANCH   5   6
ATOM      6  N1  <1> d   1      -1.222  -0.697   2.615  0.00  0.00     0.088 N 
ATOM      7  H3  <1> d   1      -1.803   0.137   2.644  0.00  0.00     0.313 HD
ATOM      8  H4  <1> d   1      -0.256  -0.371   2.538  0.00  0.00     0.313 HD
ENDBRANCH   5   6
BRANCH   5   9
ATOM      9  C6  <1> d   1      -3.006  -1.962   1.462  0.00  0.00     0.203 C 
BRANCH   9  10
ATOM     10  O2  <1> d   1      -3.296  -2.824   0.366  0.00  0.00    -0.399 OA
ATOM     11  H8  <1> d   1      -4.236  -3.064   0.439  0.00  0.00     0.209 HD
ENDBRANCH   9  10
ENDBRANCH   5   9
ENDBRANCH   4   5
BRANCH   4  12
ATOM     12  O1  <1> d   1      -2.094   0.474   0.046  0.00  0.00    -0.381 OA
ATOM     13  H5  <1> d   1      -1.851   0.995   0.827  0.00  0.00     0.211 HD
ENDBRANCH   4  12
ENDBRANCH   3   4
ENDBRANCH   1   2
BRANCH   1  14
ATOM     14  C7  <1> d   1       2.954   1.348   1.060  0.00  0.00     0.012 C 
BRANCH  14  15
ATOM     15  C16 <1> d   1       4.426   1.716   1.104  0.00  0.00     0.001 C 
BRANCH  15  16
ATOM     16  C17 <1> d   1       4.670   2.772   2.165  0.00  0.00     0.000 C 
BRANCH  16  17
ATOM     17  C10 <1> d   1       6.143   3.138   2.198  0.00  0.00     0.000 C 
BRANCH  17  18
ATOM     18  C11 <1> d   1       6.390   4.196   3.257  0.00  0.00     0.000 C 
BRANCH  18  19
ATOM     19  C12 <1> d   1       7.862   4.560   3.288  0.00  0.00     0.000 C 
BRANCH  19  20
ATOM     20  C13 <1> d   1       8.110   5.618   4.348  0.00  0.00     0.000 C 
BRANCH  20  21
ATOM     21  C14 <1> d   1       9.582   5.983   4.381  0.00  0.00     0.000 C 
BRANCH  21  22
ATOM     22  C15 <1> d   1       9.830   7.043   5.441  0.00  0.00     0.000 C 
BRANCH  22  23
ATOM     23  C9  <1> d   1      11.304   7.411   5.476  0.00  0.00    -0.000 C 
BRANCH  23  24
ATOM     24  C8  <1> d   1      11.562   8.472   6.535  0.00  0.00    -0.005 C 
ATOM     25  C18 <1> d   1      13.033   8.837   6.568  0.00  0.00     0.005 C 
ENDBRANCH  23  24
ENDBRANCH  22  23
ENDBRANCH  21  22
ENDBRANCH  20  21
ENDBRANCH  19  20
ENDBRANCH  18  19
ENDBRANCH  17  18
ENDBRANCH  16  17
ENDBRANCH  15  16
ENDBRANCH  14  15
ENDBRANCH   1  14
TORSDOF 18
