REMARK  5 active torsions:
REMARK  status: ('A' for Active; 'I' for Inactive)
REMARK    1  A    between atoms: C_17  and  C_1 
REMARK       I    between atoms: N_7  and  C_10 
REMARK    2  A    between atoms: C_8  and  N_7 
REMARK    3  A    between atoms: C_10  and  C_20 
REMARK    4  A    between atoms: S_15  and  C_17 
REMARK    5  A    between atoms: C_20  and  S_15 
ROOT
ATOM      1  S   UNL d   1      -3.127   2.259  -1.205  0.00  0.00    -0.155 SA
ENDROOT
BRANCH   1   2
ATOM      2  C   UNL d   1      -2.591   1.573   0.400  0.00  0.00     0.114 C 
BRANCH   2   3
ATOM      3  C   UNL d   1      -1.317   0.735   0.292  0.00  0.00    -0.036 C 
ATOM      4  C   UNL d   1      -0.050   1.351   0.465  0.00  0.00    -0.048 C 
ATOM      5  C   UNL d   1       1.130   0.641   0.151  0.00  0.00    -0.049 C 
ATOM      6  C   UNL d   1       0.044   2.727   1.086  0.00  0.00     0.049 C 
ATOM      7  C   UNL d   1       2.443   1.379   0.006  0.00  0.00     0.049 C 
ATOM      8  C   UNL d   1       1.079  -0.764   0.008  0.00  0.00    -0.049 C 
ATOM      9  C   UNL d   1      -0.178  -1.426  -0.013  0.00  0.00    -0.049 C 
ATOM     10  C   UNL d   1       2.383  -1.528  -0.103  0.00  0.00     0.049 C 
ATOM     11  C   UNL d   1      -1.377  -0.662   0.016  0.00  0.00    -0.048 C 
ATOM     12  C   UNL d   1      -0.189  -2.939  -0.049  0.00  0.00     0.049 C 
ATOM     13  C   UNL d   1      -2.731  -1.310  -0.175  0.00  0.00     0.049 C 
ENDBRANCH   2   3
ENDBRANCH   1   2
BRANCH   1  14
ATOM     14  C   UNL d   1      -4.720   3.019  -0.734  0.00  0.00     0.177 C 
BRANCH  14  15
ATOM     15  C   UNL d   1      -4.518   4.299   0.077  0.00  0.00     0.231 C 
ATOM     16  N   UNL d   1      -4.669   4.096   1.443  0.00  0.00    -0.324 N 
ATOM     17  H   UNL d   1      -4.671   3.133   1.754  0.00  0.00     0.169 HD
ATOM     18  O   UNL d   1      -4.202   5.353  -0.463  0.00  0.00    -0.272 OA
BRANCH  16  19
ATOM     19  C   UNL d   1      -4.527   5.078   2.448  0.00  0.00     0.073 A 
ATOM     20  C   UNL d   1      -4.748   6.447   2.285  0.00  0.00     0.145 A 
ATOM     21  C   UNL d   1      -4.546   7.337   3.347  0.00  0.00     0.086 A 
ATOM     22  F   UNL d   1      -5.242   6.946   1.150  0.00  0.00    -0.204 F 
ATOM     23  C   UNL d   1      -4.139   6.851   4.578  0.00  0.00     0.119 A 
ATOM     24  C   UNL d   1      -3.955   5.492   4.782  0.00  0.00     0.044 A 
ATOM     25  F   UNL d   1      -3.940   7.703   5.593  0.00  0.00    -0.206 F 
ATOM     26  C   UNL d   1      -4.160   4.603   3.722  0.00  0.00     0.036 A 
ENDBRANCH  16  19
ENDBRANCH  14  15
ENDBRANCH   1  14
TORSDOF 5
