REMARK  5 active torsions:
REMARK  status: ('A' for Active; 'I' for Inactive)
REMARK    1  A    between atoms: C_7  and  N_1 
REMARK    2  A    between atoms: C_8  and  C_2 
REMARK    3  A    between atoms: C_5  and  C_7 
REMARK    4  A    between atoms: O_13  and  C_8 
REMARK    5  A    between atoms: C_20  and  O_13 
ROOT
ATOM      1  N   UNL d   1       0.709  -0.708   0.069  0.00  0.00    -0.282 N 
ATOM      2  C   UNL d   1      -0.591  -1.117   0.285  0.00  0.00     0.128 C 
ATOM      3  N   UNL d   1       0.790   0.605  -0.252  0.00  0.00    -0.302 N 
ATOM      4  HN  UNL d   1       1.607   1.112  -0.594  1.00  0.00     0.186 HD
ATOM      5  C   UNL d   1      -1.333   0.055   0.282  0.00  0.00     0.063 C 
ATOM      6  C   UNL d   1      -0.429   1.088  -0.023  0.00  0.00     0.024 C 
ATOM      7  C   UNL d   1      -0.701   2.540  -0.136  0.00  0.00     0.070 C 
ENDROOT
BRANCH   1   8
ATOM      8  C   UNL d   1       1.940  -1.508  -0.015  0.00  0.00     0.191 C 
BRANCH   8   9
ATOM      9  C   UNL d   1       2.557  -1.850   1.330  0.00  0.00     0.005 A 
ATOM     10  C   UNL d   1       2.803  -3.188   1.699  0.00  0.00     0.043 A 
ATOM     11 CL   UNL d   1       2.597  -4.516   0.605  0.00  0.00    -0.084 Cl
ATOM     12  C   UNL d   1       3.321  -3.516   2.961  0.00  0.00     0.024 A 
ATOM     13  C   UNL d   1       3.647  -2.522   3.872  0.00  0.00     0.003 A 
ATOM     14  C   UNL d   1       3.497  -1.193   3.501  0.00  0.00     0.024 A 
ATOM     15  C   UNL d   1       2.980  -0.858   2.242  0.00  0.00     0.043 A 
ATOM     16 CL   UNL d   1       3.011   0.830   1.869  0.00  0.00    -0.084 Cl
ENDBRANCH   8   9
ENDBRANCH   1   8
BRANCH   2  17
ATOM     17  C   UNL d   1      -1.049  -2.472   0.448  0.00  0.00     0.311 C 
ATOM     18  O   UNL d   1      -0.337  -3.458   0.547  0.00  0.00    -0.258 OA
BRANCH  17  19
ATOM     19  O   UNL d   1      -2.411  -2.500   0.406  0.00  0.00    -0.317 OA
BRANCH  19  20
ATOM     20  C   UNL d   1      -3.035  -3.786   0.283  0.00  0.00     0.175 C 
ATOM     21  C   UNL d   1      -3.790  -4.120   1.554  0.00  0.00     0.034 C 
ENDBRANCH  19  20
ENDBRANCH  17  19
ENDBRANCH   2  17
TORSDOF 5
