REMARK  4 active torsions:
REMARK  status: ('A' for Active; 'I' for Inactive)
REMARK    1  A    between atoms: C_5  and  C_1 
REMARK       I    between atoms: C_2  and  N_4 
REMARK    2  A    between atoms: C_6  and  C_2 
REMARK    3  A    between atoms: N_3  and  C_5 
REMARK    4  A    between atoms: N_4  and  C_10 
ROOT
ATOM      1  N   UNL d   1      -1.273   2.969   0.208  0.00  0.00     0.092 N 
ATOM      2  C   UNL d   1      -4.189   3.355   0.183  0.00  0.00     0.088 C 
ATOM      3  C   UNL d   1      -3.297   3.867  -0.947  0.00  0.00     0.055 C 
ATOM      4  C   UNL d   1      -3.382   3.429   1.483  0.00  0.00     0.055 C 
ATOM      5  C   UNL d   1      -2.022   3.039  -1.051  0.00  0.00     0.275 C 
ATOM      6  C   UNL d   1      -2.083   2.618   1.376  0.00  0.00     0.275 C 
ENDROOT
BRANCH   2   7
ATOM      7  N   UNL d   1      -4.688   1.992  -0.025  0.00  0.00    -0.352 N 
ATOM      8  C   UNL d   1      -5.477   1.609  -1.086  0.00  0.00     0.252 C 
ATOM      9  O   UNL d   1      -5.841   2.356  -1.984  0.00  0.00    -0.268 OA
ATOM     10  H   UNL d   1      -4.312   1.263   0.565  0.00  0.00     0.163 HD
BRANCH   8  11
ATOM     11  C   UNL d   1      -5.850   0.166  -1.115  0.00  0.00     0.032 A 
ATOM     12  C   UNL d   1      -6.089  -0.550   0.067  0.00  0.00     0.018 A 
ATOM     13  C   UNL d   1      -6.463  -1.895   0.007  0.00  0.00     0.025 A 
ATOM     14  C   UNL d   1      -6.601  -2.523  -1.230  0.00  0.00     0.034 A 
ATOM     15  C   UNL d   1      -6.368  -1.818  -2.410  0.00  0.00     0.025 A 
ATOM     16 CL   UNL d   1      -7.079  -4.174  -1.299  0.00  0.00    -0.084 Cl
ATOM     17  C   UNL d   1      -5.996  -0.471  -2.354  0.00  0.00     0.018 A 
ENDBRANCH   8  11
ENDBRANCH   2   7
BRANCH   1  18
ATOM     18  C   UNL d   1      -0.036   2.161   0.094  0.00  0.00     0.315 C 
BRANCH  18  19
ATOM     19  C   UNL d   1      -0.186   0.717  -0.349  0.00  0.00     0.030 A 
ATOM     20  C   UNL d   1      -0.455  -0.273   0.607  0.00  0.00     0.126 A 
ATOM     21  F   UNL d   1      -0.531   0.054   1.905  0.00  0.00    -0.205 F 
ATOM     22  C   UNL d   1      -0.654  -1.610   0.260  0.00  0.00     0.043 A 
ATOM     23  C   UNL d   1      -0.577  -1.998  -1.073  0.00  0.00     0.005 A 
ATOM     24  C   UNL d   1      -0.281  -1.043  -2.043  0.00  0.00     0.024 A 
ATOM     25  C   UNL d   1      -0.074   0.298  -1.686  0.00  0.00     0.045 A 
ATOM     26 CL   UNL d   1       0.338   1.382  -2.970  0.00  0.00    -0.084 Cl
ENDBRANCH  18  19
ENDBRANCH   1  18
TORSDOF 4
