REMARK  7 active torsions:
REMARK  status: ('A' for Active; 'I' for Inactive)
REMARK    1  A    between atoms: C_7  and  C_1 
REMARK    2  A    between atoms: C_11  and  N_2 
REMARK    3  A    between atoms: C_14  and  C_3 
REMARK       I    between atoms: N_8  and  C_7 
REMARK    4  A    between atoms: N_9  and  N_8 
REMARK    5  A    between atoms: C_10  and  N_9 
REMARK    6  A    between atoms: O_15  and  C_13 
REMARK    7  A    between atoms: C_21  and  C_14 
ROOT
ATOM      1  C   UNL d   1      -0.205   1.152  -0.265  0.00  0.00     0.075 C 
ATOM      2  N   UNL d   1       0.872  -0.768   0.091  0.00  0.00    -0.260 N 
ATOM      3  C   UNL d   1       1.077   0.604  -0.129  0.00  0.00     0.051 C 
ATOM      4  N   UNL d   1      -0.425  -1.027   0.381  0.00  0.00    -0.304 N 
ATOM      5  HN  UNL d   1      -0.819  -1.889   0.759  1.00  0.00     0.186 HD
ATOM      6  C   UNL d   1      -1.068   0.086   0.066  0.00  0.00     0.127 C 
ENDROOT
BRANCH   1   7
ATOM      7  C   UNL d   1      -0.627   2.518  -0.570  0.00  0.00     0.273 C 
ATOM      8  N   UNL d   1      -1.900   2.612  -1.137  0.00  0.00    -0.265 N 
ATOM      9  H   UNL d   1      -2.495   1.817  -1.334  0.00  0.00     0.190 HD
ATOM     10  O   UNL d   1       0.053   3.503  -0.319  0.00  0.00    -0.266 OA
BRANCH   8  11
ATOM     11  N   UNL d   1      -2.472   3.873  -1.251  0.00  0.00    -0.295 N 
ATOM     12  H   UNL d   1      -3.045   4.182  -0.467  0.00  0.00     0.187 HD
BRANCH  11  13
ATOM     13  C   UNL d   1      -2.945   4.303  -2.506  0.00  0.00     0.081 A 
ATOM     14  C   UNL d   1      -3.510   5.591  -2.639  0.00  0.00     0.096 A 
ATOM     15  C   UNL d   1      -3.962   6.055  -3.880  0.00  0.00     0.039 A 
ATOM     16  C   UNL d   1      -3.833   5.262  -5.017  0.00  0.00     0.003 A 
ATOM     17  C   UNL d   1      -3.250   4.003  -4.914  0.00  0.00     0.002 A 
ATOM     18  C   UNL d   1      -2.791   3.539  -3.676  0.00  0.00     0.034 A 
BRANCH  14  19
ATOM     19  O   UNL d   1      -3.755   6.434  -1.580  0.00  0.00    -0.354 OA
ATOM     20  C   UNL d   1      -2.596   6.779  -0.820  0.00  0.00     0.210 C 
ENDBRANCH  14  19
ENDBRANCH  11  13
ENDBRANCH   8  11
ENDBRANCH   1   7
BRANCH   3  21
ATOM     21  C   UNL d   1       2.473   1.177  -0.208  0.00  0.00     0.060 C 
BRANCH  21  22
ATOM     22  C   UNL d   1       2.758   2.557   0.381  0.00  0.00     0.002 C 
ATOM     23  C   UNL d   1       2.409   2.707   1.851  0.00  0.00     0.005 C 
ENDBRANCH  21  22
ENDBRANCH   3  21
BRANCH   2  24
ATOM     24  C   UNL d   1       1.763  -1.882  -0.011  0.00  0.00     0.056 A 
ATOM     25  C   UNL d   1       1.474  -3.048   0.721  0.00  0.00     0.031 A 
ATOM     26  C   UNL d   1       2.269  -4.188   0.582  0.00  0.00     0.002 A 
ATOM     27  C   UNL d   1       3.343  -4.182  -0.304  0.00  0.00     0.000 A 
ATOM     28  C   UNL d   1       3.632  -3.033  -1.039  0.00  0.00     0.002 A 
ATOM     29  C   UNL d   1       2.849  -1.882  -0.893  0.00  0.00     0.031 A 
ENDBRANCH   2  24
TORSDOF 7
