REMARK  1 active torsions:
REMARK  status: ('A' for Active; 'I' for Inactive)
REMARK    1  A    between atoms: O_9  and  C_3 
ROOT
ATOM      1  C   UNL d   1      -1.191   0.198  -0.179  0.00  0.00     0.045 A 
ATOM      2  C   UNL d   1       0.081  -0.355  -0.003  0.00  0.00     0.041 A 
ATOM      3  C   UNL d   1      -1.350   1.590  -0.199  0.00  0.00     0.085 A 
ATOM      4  C   UNL d   1      -0.230   2.421  -0.094  0.00  0.00     0.039 A 
ATOM      5  C   UNL d   1       1.188   0.483   0.122  0.00  0.00     0.012 A 
ATOM      6 BR   UNL d   1      -2.642  -0.998  -0.435  0.00  0.00    -0.048 Br
ATOM      7  C   UNL d   1       1.040   1.868   0.076  0.00  0.00     0.022 A 
ATOM      8 BR   UNL d   1       2.910  -0.267   0.336  0.00  0.00    -0.051 Br
ENDROOT
BRANCH   3   9
ATOM      9  O   UNL d   1      -2.549   2.214  -0.418  0.00  0.00    -0.355 OA
ATOM     10  C   UNL d   1      -3.424   2.122   0.708  0.00  0.00     0.210 C 
ENDBRANCH   3   9
TORSDOF 1
