REMARK  3 active torsions:
REMARK  status: ('A' for Active; 'I' for Inactive)
REMARK       I    between atoms: C_2  and  N_3 
REMARK       I    between atoms: N_5  and  C_2 
REMARK       I    between atoms: N_3  and  C_6 
REMARK    1  A    between atoms: C_6  and  C_4 
REMARK    2  A    between atoms: C_8  and  N_5 
REMARK    3  A    between atoms: C_11  and  C_7 
ROOT
ATOM      1  C   UNL d   1      -2.388   4.399  -0.118  0.00  0.00     0.328 C 
ATOM      2  N   UNL d   1      -1.744   3.187  -0.295  0.00  0.00    -0.274 N 
ATOM      3  N   UNL d   1      -1.596   5.518  -0.052  0.00  0.00    -0.294 N 
ATOM      4  C   UNL d   1      -0.409   2.849  -0.186  0.00  0.00     0.266 C 
ATOM      5  O   UNL d   1      -3.613   4.339  -0.038  0.00  0.00    -0.247 OA
ATOM      6  O   UNL d   1       0.463   3.719  -0.126  0.00  0.00    -0.267 OA
ATOM      7  H   UNL d   1      -2.408   2.420  -0.308  0.00  0.00     0.173 HD
ATOM      8  H   UNL d   1      -0.606   5.381  -0.204  0.00  0.00     0.172 HD
ENDROOT
BRANCH   4   9
ATOM      9  C   UNL d   1      -0.100   1.413  -0.167  0.00  0.00     0.073 A 
ATOM     10  S   UNL d   1      -1.241   0.179  -0.531  0.00  0.00    -0.088 SA
ATOM     11  C   UNL d   1      -0.090  -1.100  -0.329  0.00  0.00    -0.009 A 
ATOM     12  C   UNL d   1       1.129  -0.568   0.056  0.00  0.00     0.017 A 
ATOM     13  C   UNL d   1       1.127   0.856   0.129  0.00  0.00     0.025 A 
BRANCH  11  14
ATOM     14  C   UNL d   1      -0.450  -2.586  -0.567  0.00  0.00    -0.018 C 
ATOM     15  C   UNL d   1      -1.533  -3.066   0.418  0.00  0.00     0.020 C 
ATOM     16  C   UNL d   1      -0.940  -2.811  -2.011  0.00  0.00     0.020 C 
ATOM     17  C   UNL d   1       0.787  -3.496  -0.363  0.00  0.00     0.020 C 
ENDBRANCH  11  14
ENDBRANCH   4   9
BRANCH   3  18
ATOM     18  C   UNL d   1      -2.076   6.827   0.193  0.00  0.00     0.114 A 
ATOM     19  N   UNL d   1      -3.374   6.964   0.546  0.00  0.00    -0.352 N 
ATOM     20  C   UNL d   1      -3.869   8.190   0.811  0.00  0.00     0.089 A 
ATOM     21  HN  UNL d   1      -3.976   6.143   0.611  1.00  0.00     0.166 HD
ATOM     22  C   UNL d   1      -3.122   9.342   0.747  0.00  0.00     0.018 A 
ATOM     23  C   UNL d   1      -1.789   9.216   0.384  0.00  0.00     0.012 A 
ATOM     24  C   UNL d   1      -1.238   7.949   0.093  0.00  0.00    -0.018 A 
ATOM     25  C   UNL d   1       0.210   7.928  -0.297  0.00  0.00     0.052 C 
ENDBRANCH   3  18
TORSDOF 3
