REMARK  5 active torsions:
REMARK  status: ('A' for Active; 'I' for Inactive)
REMARK    1  A    between atoms: C_9  and  C_5 
REMARK    2  A    between atoms: O_12  and  C_7 
REMARK    3  A    between atoms: C_21  and  O_12 
REMARK    4  A    between atoms: C_19  and  C_21 
REMARK    5  A    between atoms: O_27  and  C_23 
ROOT
ATOM      1  N   UNL d   1      -1.594  -1.028   0.097  0.00  0.00    -0.338 N 
ATOM      2  HN  UNL d   1      -1.947  -1.984   0.136  1.00  0.00     0.167 HD
ATOM      3  C   UNL d   1      -0.330  -0.651   0.062  0.00  0.00     0.146 A 
ATOM      4  N   UNL d   1      -0.230   0.735   0.052  0.00  0.00    -0.315 N 
ATOM      5  C   UNL d   1      -2.339   0.125   0.069  0.00  0.00     0.060 A 
ATOM      6  C   UNL d   1      -1.512   1.227   0.046  0.00  0.00     0.128 A 
ATOM      7  C   UNL d   1       0.897  -1.393   0.009  0.00  0.00     0.113 A 
ATOM      8  C   UNL d   1       0.980   1.424   0.036  0.00  0.00     0.098 A 
ATOM      9  C   UNL d   1       2.130   0.728   0.026  0.00  0.00     0.020 A 
ATOM     10  C   UNL d   1       2.070  -0.726   0.009  0.00  0.00     0.042 A 
ENDROOT
BRANCH   7  11
ATOM     11  O   UNL d   1       0.890  -2.776  -0.061  0.00  0.00    -0.343 OA
BRANCH  11  12
ATOM     12  C   UNL d   1      -0.283  -3.363  -0.636  0.00  0.00     0.214 C 
BRANCH  12  13
ATOM     13  C   UNL d   1       0.008  -4.748  -1.167  0.00  0.00    -0.032 A 
ATOM     14  C   UNL d   1       1.275  -5.095  -1.659  0.00  0.00     0.035 A 
ATOM     15  C   UNL d   1       1.503  -6.360  -2.210  0.00  0.00     0.056 A 
ATOM     16 CL   UNL d   1       3.094  -6.707  -2.789  0.00  0.00    -0.083 Cl
ATOM     17  C   UNL d   1       0.457  -7.286  -2.287  0.00  0.00     0.055 A 
ATOM     18  C   UNL d   1      -0.813  -6.940  -1.818  0.00  0.00     0.026 A 
ATOM     19 CL   UNL d   1       0.662  -8.863  -2.960  0.00  0.00    -0.083 Cl
ATOM     20  C   UNL d   1      -1.037  -5.678  -1.267  0.00  0.00     0.011 A 
ENDBRANCH  12  13
ENDBRANCH  11  12
ENDBRANCH   7  11
BRANCH   5  21
ATOM     21  C   UNL d   1      -3.794   0.115   0.047  0.00  0.00    -0.008 A 
ATOM     22  C   UNL d   1      -4.477  -1.112   0.033  0.00  0.00     0.016 A 
ATOM     23  C   UNL d   1      -5.877  -1.161   0.005  0.00  0.00     0.037 A 
ATOM     24  C   UNL d   1      -6.611   0.022  -0.010  0.00  0.00     0.068 A 
ATOM     25  C   UNL d   1      -5.941   1.245   0.019  0.00  0.00     0.037 A 
ATOM     26  C   UNL d   1      -4.544   1.295   0.037  0.00  0.00     0.016 A 
BRANCH  24  27
ATOM     27  O   UNL d   1      -7.976   0.111  -0.007  0.00  0.00    -0.356 OA
ATOM     28  C   UNL d   1      -8.668  -0.981  -0.602  0.00  0.00     0.210 C 
ENDBRANCH  24  27
ENDBRANCH   5  21
TORSDOF 5
