REMARK  5 active torsions:
REMARK  status: ('A' for Active; 'I' for Inactive)
REMARK    1  A    between atoms: C_7  and  C_3 
REMARK    2  A    between atoms: C_11  and  C_7 
REMARK    3  A    between atoms: C_8  and  C_12 
REMARK    4  A    between atoms: O_13  and  C_8 
REMARK    5  A    between atoms: C_12  and  C_11 
ROOT
ATOM      1  C   UNL d   1      -1.219  -0.557  -0.182  0.00  0.00    -0.041 C 
ATOM      2  C   UNL d   1      -0.110   1.617   0.088  0.00  0.00    -0.041 C 
ATOM      3  C   UNL d   1      -1.294   0.850  -0.044  0.00  0.00     0.023 C 
ATOM      4  C   UNL d   1       0.029  -1.207  -0.008  0.00  0.00    -0.049 C 
ATOM      5  C   UNL d   1       1.158   0.971   0.038  0.00  0.00    -0.049 C 
ATOM      6  C   UNL d   1       1.226  -0.444   0.062  0.00  0.00    -0.049 C 
ATOM      7  C   UNL d   1      -0.163   3.125   0.230  0.00  0.00     0.050 C 
ATOM      8  C   UNL d   1      -2.438  -1.380  -0.530  0.00  0.00     0.050 C 
ATOM      9  C   UNL d   1       0.103  -2.721   0.040  0.00  0.00     0.049 C 
ATOM     10  C   UNL d   1       2.412   1.821  -0.001  0.00  0.00     0.049 C 
ATOM     11  C   UNL d   1       2.546  -1.185   0.119  0.00  0.00     0.049 C 
ENDROOT
BRANCH   3  12
ATOM     12  C   UNL d   1      -2.630   1.545  -0.048  0.00  0.00     0.161 C 
ATOM     13  O   UNL d   1      -2.815   2.531  -0.757  0.00  0.00    -0.292 OA
BRANCH  12  14
ATOM     14  C   UNL d   1      -3.731   0.983   0.835  0.00  0.00     0.094 C 
BRANCH  14  15
ATOM     15  C   UNL d   1      -4.645   2.055   1.418  0.00  0.00     0.117 C 
BRANCH  15  16
ATOM     16  C   UNL d   1      -5.823   1.399   2.103  0.00  0.00     0.139 C 
ATOM     17  O   UNL d   1      -5.939   0.203   2.312  0.00  0.00    -0.650 OA
BRANCH  16  18
ATOM     18  O   UNL d   1      -6.761   2.293   2.495  0.00  0.00    -0.776 OA
ATOM     19  H   UNL d   1      -6.548   3.216   2.263  0.00  0.00     0.167 HD
ENDBRANCH  16  18
ENDBRANCH  15  16
ENDBRANCH  14  15
ENDBRANCH  12  14
ENDBRANCH   3  12
TORSDOF 5
