REMARK  2 active torsions:
REMARK  status: ('A' for Active; 'I' for Inactive)
REMARK    1  A    between atoms: N_6  and  C_1 
REMARK       I    between atoms: C_5  and  N_8 
REMARK       I    between atoms: N_10  and  C_5 
REMARK    2  A    between atoms: C_17  and  N_10 
ROOT
ATOM      1  C   UNL d   1      -8.294   1.484   0.437  0.00  0.00     0.322 C 
ATOM      2  N   UNL d   1      -4.551   0.145  -0.011  0.00  0.00    -0.360 N 
ATOM      3  N   UNL d   1      -6.948   1.758   0.677  0.00  0.00    -0.332 N 
ATOM      4  N   UNL d   1      -9.073   1.246   1.552  0.00  0.00    -0.309 N 
ATOM      5  O   UNL d   1      -8.726   1.487  -0.717  0.00  0.00    -0.247 OA
ATOM      6  C   UNL d   1      -5.336   0.830  -1.049  0.00  0.00     0.145 C 
ATOM      7  C   UNL d   1      -6.093   2.051  -0.494  0.00  0.00     0.147 C 
ATOM      8  C   UNL d   1      -5.620   0.269   2.220  0.00  0.00     0.040 C 
ATOM      9  C   UNL d   1      -5.322  -0.585   0.989  0.00  0.00     0.126 C 
ATOM     10  C   UNL d   1      -6.225   1.647   1.944  0.00  0.00     0.129 C 
ATOM     11  H   UNL d   1      -8.606   1.206   2.439  0.00  0.00     0.170 HD
ENDROOT
BRANCH   2  12
ATOM     12  C   UNL d   1      -3.186   0.211  -0.013  0.00  0.00     0.147 A 
ATOM     13  N   UNL d   1      -2.479   0.901  -0.886  0.00  0.00    -0.336 N 
ATOM     14  C   UNL d   1      -1.116   0.769  -0.664  0.00  0.00     0.051 A 
ATOM     15  HN  UNL d   1      -2.885   1.462  -1.635  1.00  0.00     0.168 HD
ATOM     16  C   UNL d   1      -0.081   1.363  -1.415  0.00  0.00     0.032 A 
ATOM     17  C   UNL d   1      -0.769  -0.035   0.421  0.00  0.00     0.036 A 
ATOM     18  C   UNL d   1       1.258   1.145  -1.059  0.00  0.00     0.026 A 
ATOM     19  C   UNL d   1       1.569   0.340   0.034  0.00  0.00     0.035 A 
ATOM     20  C   UNL d   1       0.567  -0.267   0.790  0.00  0.00     0.045 A 
ATOM     21 CL   UNL d   1       3.217   0.088   0.465  0.00  0.00    -0.084 Cl
ATOM     22  S   UNL d   1      -2.200  -0.628   1.147  0.00  0.00    -0.052 SA
ENDBRANCH   2  12
BRANCH   4  23
ATOM     23  C   UNL d   1     -10.488   1.155   1.608  0.00  0.00     0.036 A 
ATOM     24  C   UNL d   1     -11.326   1.248   0.493  0.00  0.00     0.029 A 
ATOM     25  C   UNL d   1     -12.719   1.265   0.640  0.00  0.00     0.002 A 
ATOM     26  C   UNL d   1     -13.291   1.175   1.904  0.00  0.00     0.000 A 
ATOM     27  C   UNL d   1     -12.473   1.037   3.021  0.00  0.00     0.002 A 
ATOM     28  C   UNL d   1     -11.079   1.023   2.873  0.00  0.00     0.029 A 
ENDBRANCH   4  23
TORSDOF 2
