REMARK  3 active torsions:
REMARK  status: ('A' for Active; 'I' for Inactive)
REMARK    1  A    between atoms: C_6  and  C_3 
REMARK    2  A    between atoms: C_9  and  C_6 
REMARK    3  A    between atoms: O_15  and  C_10 
ROOT
ATOM      1  N   UNL d   1      -0.312   4.503   1.305  0.00  0.00    -0.274 N 
ATOM      2  C   UNL d   1      -1.617   4.697   1.676  0.00  0.00     0.327 A 
ATOM      3  C   UNL d   1      -1.529   2.747   0.562  0.00  0.00     0.105 A 
ATOM      4  C   UNL d   1      -0.155   3.334   0.614  0.00  0.00     0.276 A 
ATOM      5  N   UNL d   1      -2.350   3.617   1.217  0.00  0.00    -0.304 N 
ATOM      6  O   UNL d   1      -2.056   5.647   2.300  0.00  0.00    -0.247 OA
ATOM      7  O   UNL d   1       0.864   2.870   0.147  0.00  0.00    -0.266 OA
ATOM      8  H   UNL d   1       0.432   5.144   1.519  0.00  0.00     0.173 HD
ATOM      9  H   UNL d   1      -3.343   3.507   1.359  0.00  0.00     0.171 HD
ENDROOT
BRANCH   3  10
ATOM     10  C   UNL d   1      -1.854   1.591  -0.019  0.00  0.00     0.046 C 
BRANCH  10  11
ATOM     11  C   UNL d   1      -3.212   1.049  -0.055  0.00  0.00    -0.034 A 
ATOM     12  C   UNL d   1      -4.072   1.380  -1.108  0.00  0.00     0.014 A 
ATOM     13  C   UNL d   1      -5.356   0.833  -1.162  0.00  0.00     0.037 A 
ATOM     14  C   UNL d   1      -5.776  -0.039  -0.164  0.00  0.00     0.065 A 
ATOM     15  C   UNL d   1      -4.941  -0.360   0.901  0.00  0.00     0.037 A 
ATOM     16  C   UNL d   1      -3.657   0.190   0.957  0.00  0.00     0.014 A 
BRANCH  14  17
ATOM     17  O   UNL d   1      -7.028  -0.567  -0.270  0.00  0.00    -0.361 OA
ATOM     18  H   UNL d   1      -7.172  -1.182   0.469  0.00  0.00     0.217 HD
ENDBRANCH  14  17
ENDBRANCH  10  11
ENDBRANCH   3  10
TORSDOF 3
