REMARK  4 active torsions:
REMARK  status: ('A' for Active; 'I' for Inactive)
REMARK    1  A    between atoms: C_16  and  C_3 
REMARK    2  A    between atoms: S_14  and  C_5 
REMARK    3  A    between atoms: C_6  and  S_14 
REMARK    4  A    between atoms: C_18  and  C_7 
ROOT
ATOM      1  N   UNL d   1       2.852  -3.322   0.947  0.00  0.00    -0.320 N 
ATOM      2  C   UNL d   1       1.923  -3.503  -0.032  0.00  0.00     0.167 A 
ATOM      3  C   UNL d   1       3.983  -3.988   0.545  0.00  0.00     0.132 A 
ATOM      4  N   UNL d   1       3.742  -4.508  -0.647  0.00  0.00    -0.283 N 
ATOM      5  HN  UNL d   1       4.406  -5.040  -1.209  1.00  0.00     0.188 HD
ATOM      6  N   UNL d   1       2.446  -4.211  -1.003  0.00  0.00    -0.278 N 
ATOM      7  HN  UNL d   1       1.978  -4.490  -1.866  1.00  0.00     0.189 HD
ATOM      8  H   UNL d   1       2.706  -2.812   1.806  0.00  0.00     0.169 HD
ENDROOT
BRANCH   2   9
ATOM      9  S   UNL d   1       0.282  -2.990   0.054  0.00  0.00    -0.026 SA
BRANCH   9  10
ATOM     10  C   UNL d   1       0.344  -1.655   1.170  0.00  0.00     0.137 A 
ATOM     11  N   UNL d   1       1.232  -1.502   2.134  0.00  0.00    -0.328 N 
ATOM     12  C   UNL d   1       0.888  -0.357   2.868  0.00  0.00     0.130 A 
ATOM     13  HN  UNL d   1       2.030  -2.111   2.314  1.00  0.00     0.168 HD
ATOM     14  N   UNL d   1      -0.186   0.350   2.498  0.00  0.00    -0.309 N 
ATOM     15  S   UNL d   1      -0.843  -0.416   1.177  0.00  0.00     0.013 SA
ATOM     16  HN  UNL d   1      -0.535   1.199   2.943  1.00  0.00     0.176 HD
BRANCH  12  17
ATOM     17  C   UNL d   1       1.702   0.069   4.060  0.00  0.00     0.049 A 
ATOM     18  S   UNL d   1       3.117  -0.727   4.585  0.00  0.00    -0.098 SA
ATOM     19  C   UNL d   1       3.335   0.371   5.879  0.00  0.00     0.050 A 
ATOM     20  C   UNL d   1       2.338   1.320   5.923  0.00  0.00     0.009 A 
ATOM     21  C   UNL d   1       1.394   1.147   4.867  0.00  0.00     0.023 A 
ENDBRANCH  12  17
ENDBRANCH   9  10
ENDBRANCH   2   9
BRANCH   3  22
ATOM     22  C   UNL d   1       5.216  -4.120   1.323  0.00  0.00     0.009 A 
ATOM     23  C   UNL d   1       5.389  -3.501   2.569  0.00  0.00     0.015 A 
ATOM     24  C   UNL d   1       6.570  -3.672   3.296  0.00  0.00     0.001 A 
ATOM     25  C   UNL d   1       7.595  -4.466   2.788  0.00  0.00     0.000 A 
ATOM     26  C   UNL d   1       7.443  -5.084   1.550  0.00  0.00     0.001 A 
ATOM     27  C   UNL d   1       6.263  -4.911   0.823  0.00  0.00     0.015 A 
ENDBRANCH   3  22
TORSDOF 4
