REMARK  2 active torsions:
REMARK  status: ('A' for Active; 'I' for Inactive)
REMARK    1  A    between atoms: C_10  and  C_1 
REMARK    2  A    between atoms: C_13  and  C_11 
ROOT
ATOM      1  C   UNL d   1       0.915  -1.379   0.015  0.00  0.00     0.144 A 
ATOM      2  N   UNL d   1      -0.259  -0.637   0.019  0.00  0.00    -0.235 N 
ATOM      3  C   UNL d   1      -0.207   0.765   0.037  0.00  0.00     0.129 A 
ATOM      4  N   UNL d   1       0.969   1.459   0.036  0.00  0.00    -0.340 N 
ATOM      5  HN  UNL d   1       0.989   2.478   0.060  1.00  0.00     0.167 HD
ATOM      6  C   UNL d   1       2.103  -0.740   0.014  0.00  0.00     0.067 A 
ATOM      7  N   UNL d   1      -1.543  -1.070   0.013  0.00  0.00    -0.297 N 
ATOM      8  HN  UNL d   1      -1.867  -2.037   0.003  1.00  0.00     0.187 HD
ATOM      9  C   UNL d   1      -1.512   1.200   0.041  0.00  0.00     0.076 A 
ATOM     10  C   UNL d   1       2.066   0.756   0.002  0.00  0.00     0.046 A 
ATOM     11  C   UNL d   1      -2.295   0.033   0.022  0.00  0.00     0.026 A 
ATOM     12  C   UNL d   1      -3.775  -0.068   0.008  0.00  0.00     0.070 C 
ENDROOT
BRANCH  10  13
ATOM     13  C   UNL d   1       3.380   1.457  -0.032  0.00  0.00    -0.007 A 
ATOM     14  C   UNL d   1       3.508   2.675   0.637  0.00  0.00     0.030 A 
ATOM     15  C   UNL d   1       4.733   3.316   0.593  0.00  0.00     0.088 A 
ATOM     16  N   UNL d   1       5.807   2.832  -0.066  0.00  0.00    -0.375 N 
ATOM     17  C   UNL d   1       5.649   1.665  -0.725  0.00  0.00     0.088 A 
ATOM     18  HN  UNL d   1       6.699   3.327  -0.067  1.00  0.00     0.164 HD
ATOM     19  C   UNL d   1       4.468   0.946  -0.741  0.00  0.00     0.030 A 
ENDBRANCH  10  13
BRANCH   1  20
ATOM     20  C   UNL d   1       0.843  -2.859   0.021  0.00  0.00     0.434 C 
ATOM     21  F   UNL d   1      -0.387  -3.419   0.012  0.00  0.00    -0.165 F 
ATOM     22  F   UNL d   1       1.503  -3.369  -1.058  0.00  0.00    -0.165 F 
ATOM     23  F   UNL d   1       1.486  -3.363   1.111  0.00  0.00    -0.165 F 
ENDBRANCH   1  20
TORSDOF 2
