REMARK  2 active torsions:
REMARK  status: ('A' for Active; 'I' for Inactive)
REMARK    1  A    between atoms: C_2  and  C_1 
REMARK       I    between atoms: N_7  and  C_2 
REMARK    2  A    between atoms: C_9  and  N_7 
ROOT
ATOM      1  C   UNL d   1       1.583   2.456  -0.321  0.00  0.00     0.258 C 
ATOM      2  N   UNL d   1       0.968   3.670  -0.058  0.00  0.00    -0.323 N 
ATOM      3  O   UNL d   1       2.773   2.321  -0.584  0.00  0.00    -0.267 OA
ATOM      4  H   UNL d   1       0.010   3.642   0.259  0.00  0.00     0.169 HD
ENDROOT
BRANCH   1   5
ATOM      5  C   UNL d   1       0.705   1.289  -0.217  0.00  0.00     0.064 A 
ATOM      6  C   UNL d   1       1.143  -0.031  -0.231  0.00  0.00     0.065 A 
ATOM      7  O   UNL d   1       0.092  -0.887  -0.100  0.00  0.00    -0.319 OA
ATOM      8  C   UNL d   1       2.463  -0.692  -0.345  0.00  0.00     0.077 C 
ATOM      9  C   UNL d   1      -1.035  -0.139  -0.008  0.00  0.00     0.050 A 
ATOM     10  C   UNL d   1      -0.719   1.200  -0.091  0.00  0.00     0.051 A 
ATOM     11  C   UNL d   1      -2.295  -0.890   0.150  0.00  0.00     0.076 C 
ENDBRANCH   1   5
BRANCH   2  12
ATOM     12  C   UNL d   1       1.588   4.941  -0.042  0.00  0.00     0.035 A 
ATOM     13  C   UNL d   1       2.883   5.179  -0.511  0.00  0.00     0.029 A 
ATOM     14  C   UNL d   1       3.457   6.450  -0.415  0.00  0.00     0.002 A 
ATOM     15  C   UNL d   1       2.738   7.501   0.146  0.00  0.00     0.000 A 
ATOM     16  C   UNL d   1       1.436   7.285   0.590  0.00  0.00     0.002 A 
ATOM     17  C   UNL d   1       0.860   6.014   0.488  0.00  0.00     0.029 A 
ENDBRANCH   2  12
TORSDOF 2
