REMARK  3 active torsions:
REMARK  status: ('A' for Active; 'I' for Inactive)
REMARK    1  A    between atoms: C_7  and  C_1 
REMARK    2  A    between atoms: O_10  and  C_7 
REMARK    3  A    between atoms: C_12  and  O_10 
ROOT
ATOM      1  C   UNL d   1      -0.158  -1.375  -0.033  0.00  0.00     0.104 A 
ATOM      2  N   UNL d   1       0.961   0.682  -0.056  0.00  0.00    -0.347 N 
ATOM      3  HN  UNL d   1       1.751   1.327  -0.063  1.00  0.00     0.167 HD
ATOM      4  C   UNL d   1       1.060  -0.706  -0.041  0.00  0.00     0.029 A 
ATOM      5  S   UNL d   1      -1.442  -0.226  -0.078  0.00  0.00    -0.057 SA
ATOM      6  C   UNL d   1      -0.301   1.034  -0.060  0.00  0.00     0.122 A 
ATOM      7 BR   UNL d   1      -0.819   2.840  -0.033  0.00  0.00    -0.023 Br
ATOM      8  C   UNL d   1       2.429  -1.290  -0.003  0.00  0.00     0.070 C 
ENDROOT
BRANCH   1   9
ATOM      9  C   UNL d   1      -0.483  -2.783   0.058  0.00  0.00     0.302 C 
ATOM     10  O   UNL d   1      -1.608  -3.260   0.133  0.00  0.00    -0.259 OA
BRANCH   9  11
ATOM     11  O   UNL d   1       0.663  -3.515   0.144  0.00  0.00    -0.317 OA
BRANCH  11  12
ATOM     12  C   UNL d   1       0.519  -4.840   0.672  0.00  0.00     0.174 C 
ATOM     13  C   UNL d   1       0.621  -4.756   2.185  0.00  0.00     0.034 C 
ENDBRANCH  11  12
ENDBRANCH   9  11
ENDBRANCH   1   9
TORSDOF 3
