REMARK  6 active torsions:
REMARK  status: ('A' for Active; 'I' for Inactive)
REMARK    1  A    between atoms: C_5  and  C_1 
REMARK    2  A    between atoms: S_15  and  C_6 
REMARK    3  A    between atoms: C_11  and  C_12 
REMARK    4  A    between atoms: C_23  and  S_15 
REMARK    5  A    between atoms: C_17  and  C_23 
REMARK       I    between atoms: N_18  and  C_17 
REMARK    6  A    between atoms: C_26  and  N_18 
ROOT
ATOM      1  C   UNL d   1       0.056   1.092  -0.196  0.00  0.00     0.152 A 
ATOM      2  N   UNL d   1       0.972   0.142   0.225  0.00  0.00    -0.314 N 
ATOM      3  N   UNL d   1      -1.110   0.485  -0.362  0.00  0.00    -0.281 N 
ATOM      4  HN  UNL d   1      -1.969   0.930  -0.684  1.00  0.00     0.188 HD
ATOM      5  C   UNL d   1       0.259  -1.018   0.367  0.00  0.00     0.163 A 
ATOM      6  N   UNL d   1      -0.975  -0.834  -0.032  0.00  0.00    -0.278 N 
ATOM      7  HN  UNL d   1      -1.704  -1.546  -0.087  1.00  0.00     0.189 HD
ATOM      8  C   UNL d   1       2.384   0.323   0.453  0.00  0.00     0.160 C 
ENDROOT
BRANCH   5   9
ATOM      9  S   UNL d   1       0.893  -2.489   1.016  0.00  0.00    -0.083 SA
BRANCH   9  10
ATOM     10  C   UNL d   1      -0.579  -3.556   1.020  0.00  0.00     0.185 C 
BRANCH  10  11
ATOM     11  C   UNL d   1      -1.528  -3.203   2.160  0.00  0.00     0.231 C 
ATOM     12  N   UNL d   1      -2.428  -2.205   1.829  0.00  0.00    -0.327 N 
ATOM     13  H   UNL d   1      -2.269  -1.740   0.934  0.00  0.00     0.169 HD
ATOM     14  O   UNL d   1      -1.464  -3.792   3.237  0.00  0.00    -0.272 OA
BRANCH  12  15
ATOM     15  C   UNL d   1      -3.432  -1.630   2.630  0.00  0.00     0.034 A 
ATOM     16  C   UNL d   1      -3.739  -2.048   3.925  0.00  0.00     0.031 A 
ATOM     17  C   UNL d   1      -4.742  -1.400   4.656  0.00  0.00     0.026 A 
ATOM     18  C   UNL d   1      -5.444  -0.340   4.091  0.00  0.00     0.034 A 
ATOM     19  C   UNL d   1      -5.155   0.081   2.795  0.00  0.00     0.026 A 
ATOM     20 CL   UNL d   1      -6.671   0.458   4.994  0.00  0.00    -0.084 Cl
ATOM     21  C   UNL d   1      -4.149  -0.563   2.070  0.00  0.00     0.031 A 
ENDBRANCH  12  15
ENDBRANCH  10  11
ENDBRANCH   9  10
ENDBRANCH   5   9
BRANCH   1  22
ATOM     22  C   UNL d   1       0.316   2.517  -0.431  0.00  0.00     0.100 A 
ATOM     23  N   UNL d   1       1.549   2.788  -0.945  0.00  0.00    -0.361 N 
ATOM     24  C   UNL d   1       1.849   4.082  -1.218  0.00  0.00     0.104 A 
ATOM     25  HN  UNL d   1       2.223   2.042  -1.117  1.00  0.00     0.165 HD
ATOM     26  C   UNL d   1       0.981   5.141  -1.005  0.00  0.00     0.065 A 
ATOM     27  C   UNL d   1      -0.278   4.846  -0.471  0.00  0.00     0.043 A 
ATOM     28  C   UNL d   1      -0.623   3.525  -0.180  0.00  0.00     0.065 A 
ATOM     29 CL   UNL d   1      -2.175   3.245   0.522  0.00  0.00    -0.082 Cl
BRANCH  26  30
ATOM     30  C   UNL d   1       1.416   6.537  -1.333  0.00  0.00     0.418 C 
ATOM     31  F   UNL d   1       0.436   7.464  -1.157  0.00  0.00    -0.166 F 
ATOM     32  F   UNL d   1       2.462   6.943  -0.564  0.00  0.00    -0.166 F 
ATOM     33  F   UNL d   1       1.827   6.662  -2.623  0.00  0.00    -0.166 F 
ENDBRANCH  26  30
ENDBRANCH   1  22
TORSDOF 6
