REMARK  2 active torsions:
REMARK  status: ('A' for Active; 'I' for Inactive)
REMARK    1  A    between atoms: C_9  and  N_8 
REMARK    2  A    between atoms: O_11  and  C_10 
ROOT
ATOM      1  C   UNL d   1      -0.603  -2.043  -1.705  0.00  0.00     0.179 A 
ATOM      2  N   UNL d   1      -0.541  -2.662  -2.871  0.00  0.00    -0.266 N 
ATOM      3  HN  UNL d   1      -0.045  -3.540  -3.021  1.00  0.00     0.190 HD
ATOM      4  N   UNL d   1      -1.228  -1.984  -3.869  0.00  0.00    -0.233 N 
ATOM      5  HN  UNL d   1      -1.268  -2.318  -4.832  1.00  0.00     0.204 HD
ATOM      6  N   UNL d   1      -1.827  -0.870  -3.476  0.00  0.00    -0.043 NA
ATOM      7  S   UNL d   1      -1.556  -0.595  -1.847  0.00  0.00     0.039 SA
ATOM      8  N   UNL d   1      -0.033  -2.382  -0.526  0.00  0.00    -0.332 N 
ATOM      9  H   UNL d   1       0.025  -1.663   0.187  0.00  0.00     0.168 HD
ENDROOT
BRANCH   8  10
ATOM     10  C   UNL d   1       0.828  -3.463  -0.246  0.00  0.00     0.067 A 
ATOM     11  C   UNL d   1       1.609  -3.412   0.927  0.00  0.00     0.094 A 
ATOM     12  C   UNL d   1       2.527  -4.413   1.246  0.00  0.00     0.039 A 
ATOM     13  C   UNL d   1       2.647  -5.521   0.412  0.00  0.00     0.003 A 
ATOM     14  C   UNL d   1       1.853  -5.619  -0.729  0.00  0.00     0.002 A 
ATOM     15  C   UNL d   1       0.951  -4.598  -1.054  0.00  0.00     0.032 A 
BRANCH  11  16
ATOM     16  O   UNL d   1       1.530  -2.304   1.739  0.00  0.00    -0.354 OA
ATOM     17  C   UNL d   1       0.517  -2.471   2.734  0.00  0.00     0.210 C 
ENDBRANCH  11  16
ENDBRANCH   8  10
TORSDOF 2
