REMARK  2 active torsions:
REMARK  status: ('A' for Active; 'I' for Inactive)
REMARK    1  A    between atoms: C_5  and  C_1 
REMARK    2  A    between atoms: C_13  and  N_8 
ROOT
ATOM      1  C   UNL d   1       1.303   0.792   0.011  0.00  0.00     0.057 A 
ATOM      2  N   UNL d   1       1.456  -0.582   0.013  0.00  0.00    -0.335 N 
ATOM      3  HN  UNL d   1       2.357  -1.059  -0.005  1.00  0.00     0.168 HD
ATOM      4  C   UNL d   1       0.295  -1.197   0.042  0.00  0.00     0.149 A 
ATOM      5  S   UNL d   1      -1.063  -0.140   0.118  0.00  0.00    -0.064 SA
ATOM      6  C   UNL d   1      -0.011   1.213   0.032  0.00  0.00     0.083 A 
ATOM      7  N   UNL d   1       0.123  -2.540   0.028  0.00  0.00    -0.337 N 
ATOM      8  H   UNL d   1      -0.819  -2.890   0.155  0.00  0.00     0.168 HD
ENDROOT
BRANCH   7   9
ATOM      9  C   UNL d   1       0.970  -3.450  -0.635  0.00  0.00     0.035 A 
ATOM     10  C   UNL d   1       1.823  -3.065  -1.684  0.00  0.00     0.055 A 
ATOM     11  C   UNL d   1       2.651  -3.994  -2.323  0.00  0.00     0.058 A 
ATOM     12 CL   UNL d   1       3.621  -3.432  -3.640  0.00  0.00    -0.082 Cl
ATOM     13  C   UNL d   1       2.657  -5.324  -1.899  0.00  0.00     0.055 A 
ATOM     14  C   UNL d   1       1.838  -5.715  -0.838  0.00  0.00     0.028 A 
ATOM     15 CL   UNL d   1       3.645  -6.529  -2.644  0.00  0.00    -0.083 Cl
ATOM     16  C   UNL d   1       0.998  -4.785  -0.216  0.00  0.00     0.031 A 
ENDBRANCH   7   9
BRANCH   1  17
ATOM     17  C   UNL d   1       2.463   1.672  -0.020  0.00  0.00     0.068 A 
ATOM     18  C   UNL d   1       3.656   1.261  -0.629  0.00  0.00     0.132 A 
ATOM     19  F   UNL d   1       3.749   0.070  -1.240  0.00  0.00    -0.205 F 
ATOM     20  C   UNL d   1       4.789   2.081  -0.649  0.00  0.00     0.043 A 
ATOM     21  C   UNL d   1       4.749   3.338  -0.055  0.00  0.00     0.006 A 
ATOM     22  C   UNL d   1       3.575   3.769   0.557  0.00  0.00     0.043 A 
ATOM     23  C   UNL d   1       2.451   2.939   0.573  0.00  0.00     0.132 A 
ATOM     24  F   UNL d   1       1.354   3.398   1.196  0.00  0.00    -0.205 F 
ENDBRANCH   1  17
TORSDOF 2
