REMARK  5 active torsions:
REMARK  status: ('A' for Active; 'I' for Inactive)
REMARK    1  A    between atoms: C_5  and  C_1 
REMARK    2  A    between atoms: C_7  and  C_2 
REMARK       I    between atoms: N_9  and  C_7 
REMARK    3  A    between atoms: N_14  and  N_9 
REMARK    4  A    between atoms: C_12  and  C_13 
REMARK    5  A    between atoms: C_18  and  N_14 
ROOT
ATOM      1  C   UNL d   1       0.251  -2.624   0.220  0.00  0.00     0.271 C 
ATOM      2  N   UNL d   1      -0.526  -3.776   0.194  0.00  0.00    -0.282 N 
ATOM      3  O   UNL d   1       0.083  -1.701  -0.579  0.00  0.00    -0.266 OA
ATOM      4  H   UNL d   1      -0.382  -4.546   0.827  0.00  0.00     0.184 HD
ENDROOT
BRANCH   1   5
ATOM      5  C   UNL d   1       1.241  -2.573   1.281  0.00  0.00     0.094 A 
ATOM      6  C   UNL d   1       1.761  -1.421   1.980  0.00  0.00     0.088 A 
ATOM      7  N   UNL d   1       2.608  -1.819   2.944  0.00  0.00    -0.259 N 
ATOM      8  O   UNL d   1       2.742  -3.172   2.828  0.00  0.00    -0.241 OA
ATOM      9  HN  UNL d   1       3.065  -1.222   3.633  1.00  0.00     0.195 HD
ATOM     10  C   UNL d   1       1.945  -3.633   1.835  0.00  0.00     0.090 A 
ATOM     11  C   UNL d   1       2.065  -5.088   1.608  0.00  0.00     0.080 C 
BRANCH   6  12
ATOM     12  C   UNL d   1       1.466   0.009   1.836  0.00  0.00     0.054 A 
ATOM     13  C   UNL d   1       0.141   0.441   1.690  0.00  0.00     0.130 A 
ATOM     14  F   UNL d   1      -0.870  -0.442   1.703  0.00  0.00    -0.205 F 
ATOM     15  C   UNL d   1      -0.190   1.793   1.571  0.00  0.00     0.043 A 
ATOM     16  C   UNL d   1       0.805   2.763   1.641  0.00  0.00     0.005 A 
ATOM     17  C   UNL d   1       2.128   2.368   1.816  0.00  0.00     0.025 A 
ATOM     18  C   UNL d   1       2.463   1.006   1.898  0.00  0.00     0.049 A 
ATOM     19 CL   UNL d   1       4.157   0.663   2.048  0.00  0.00    -0.083 Cl
ENDBRANCH   6  12
ENDBRANCH   1   5
BRANCH   2  20
ATOM     20  N   UNL d   1      -1.514  -3.917  -0.800  0.00  0.00    -0.203 NA
ATOM     21  H   UNL d   1      -1.775  -3.000  -1.183  0.00  0.00     0.153 HD
BRANCH  20  22
ATOM     22  C   UNL d   1      -2.650  -4.689  -0.437  0.00  0.00     0.027 A 
ATOM     23  C   UNL d   1      -3.880  -4.410  -1.038  0.00  0.00     0.026 A 
ATOM     24  C   UNL d   1      -5.011  -5.217  -0.808  0.00  0.00     0.010 A 
ATOM     25  C   UNL d   1      -4.947  -6.360   0.006  0.00  0.00    -0.051 A 
ATOM     26  C   UNL d   1      -3.708  -6.642   0.594  0.00  0.00     0.010 A 
ATOM     27  C   UNL d   1      -2.580  -5.832   0.365  0.00  0.00     0.026 A 
BRANCH  25  28
ATOM     28  C   UNL d   1      -6.187  -7.256   0.198  0.00  0.00    -0.024 C 
ATOM     29  C   UNL d   1      -5.913  -8.531   1.031  0.00  0.00     0.019 C 
ATOM     30  C   UNL d   1      -7.295  -6.465   0.925  0.00  0.00     0.019 C 
ATOM     31  C   UNL d   1      -6.720  -7.726  -1.173  0.00  0.00     0.019 C 
ENDBRANCH  25  28
ENDBRANCH  20  22
ENDBRANCH   2  20
TORSDOF 5
