REMARK  9 active torsions:
REMARK  status: ('A' for Active; 'I' for Inactive)
REMARK    1  A    between atoms: N_2  and  C_1 
REMARK    2  A    between atoms: C_3  and  C_1 
REMARK    3  A    between atoms: C_5  and  C_1 
REMARK    4  A    between atoms: O_6  and  C_1 
REMARK       I    between atoms: C_4  and  N_2 
REMARK    5  A    between atoms: C_7  and  C_4 
REMARK    6  A    between atoms: O_16  and  C_5 
REMARK    7  A    between atoms: C_14  and  O_6 
REMARK    8  A    between atoms: C_18  and  C_14 
REMARK    9  A    between atoms: C_22  and  O_16 
ROOT
ATOM      1  C   UNL d   1       0.841   0.095  -0.002  0.00  0.00     0.327 C 
ENDROOT
BRANCH   1   2
ATOM      2  N   UNL d   1       0.505   0.796   1.254  0.00  0.00    -0.309 N 
ATOM      3  C   UNL d   1       0.661   2.155   1.375  0.00  0.00     0.254 C 
ATOM      4  O   UNL d   1       1.207   2.846   0.525  0.00  0.00    -0.268 OA
ATOM      5  H   UNL d   1      -0.058   0.275   1.916  0.00  0.00     0.166 HD
BRANCH   3   6
ATOM      6  C   UNL d   1       0.078   2.787   2.588  0.00  0.00     0.033 A 
ATOM      7  C   UNL d   1      -0.037   2.098   3.800  0.00  0.00     0.041 A 
ATOM      8  C   UNL d   1      -0.612   2.737   4.898  0.00  0.00     0.035 A 
ATOM      9 CL   UNL d   1      -0.762   1.890   6.388  0.00  0.00    -0.084 Cl
ATOM     10  C   UNL d   1      -1.065   4.053   4.803  0.00  0.00     0.024 A 
ATOM     11  C   UNL d   1      -0.936   4.745   3.599  0.00  0.00     0.003 A 
ATOM     12  C   UNL d   1      -0.361   4.115   2.495  0.00  0.00     0.017 A 
ENDBRANCH   3   6
ENDBRANCH   1   2
BRANCH   1  13
ATOM     13  C   UNL d   1       0.042   0.613  -1.259  0.00  0.00     0.448 C 
ATOM     14  F   UNL d   1      -0.648   1.757  -1.009  0.00  0.00    -0.166 F 
ATOM     15  F   UNL d   1       0.843   0.857  -2.324  0.00  0.00    -0.166 F 
ATOM     16  F   UNL d   1      -0.909  -0.263  -1.685  0.00  0.00    -0.166 F 
ENDBRANCH   1  13
BRANCH   1  17
ATOM     17  C   UNL d   1       0.413  -1.383   0.185  0.00  0.00     0.325 C 
ATOM     18  O   UNL d   1       0.063  -1.853   1.265  0.00  0.00    -0.259 OA
BRANCH  17  19
ATOM     19  O   UNL d   1       0.602  -2.099  -0.955  0.00  0.00    -0.318 OA
BRANCH  19  20
ATOM     20  C   UNL d   1       0.506  -3.526  -0.883  0.00  0.00     0.174 C 
ATOM     21  C   UNL d   1       1.899  -4.047  -1.164  0.00  0.00     0.034 C 
ENDBRANCH  19  20
ENDBRANCH  17  19
ENDBRANCH   1  17
BRANCH   1  22
ATOM     22  O   UNL d   1       2.268   0.166  -0.210  0.00  0.00    -0.341 OA
BRANCH  22  23
ATOM     23  C   UNL d   1       3.074  -0.353   0.846  0.00  0.00     0.210 C 
BRANCH  23  24
ATOM     24  C   UNL d   1       4.532  -0.188   0.491  0.00  0.00    -0.035 A 
ATOM     25  C   UNL d   1       5.045   1.084   0.197  0.00  0.00     0.009 A 
ATOM     26  C   UNL d   1       6.401   1.254  -0.089  0.00  0.00     0.001 A 
ATOM     27  C   UNL d   1       7.261   0.155  -0.079  0.00  0.00     0.000 A 
ATOM     28  C   UNL d   1       6.763  -1.114   0.211  0.00  0.00     0.001 A 
ATOM     29  C   UNL d   1       5.405  -1.284   0.495  0.00  0.00     0.009 A 
ENDBRANCH  23  24
ENDBRANCH  22  23
ENDBRANCH   1  22
TORSDOF 9
