REMARK  7 active torsions:
REMARK  status: ('A' for Active; 'I' for Inactive)
REMARK    1  A    between atoms: C_3  and  S_23 
REMARK    2  A    between atoms: S_22  and  C_4 
REMARK    3  A    between atoms: C_24  and  C_5 
REMARK    4  A    between atoms: C_25  and  C_6 
REMARK    5  A    between atoms: C_19  and  S_22 
REMARK    6  A    between atoms: S_23  and  C_20 
REMARK    7  A    between atoms: S_37  and  C_21 
ROOT
ATOM      1  N   UNL d   1      -3.287   3.363  -1.061  0.00  0.00    -0.331 N 
ATOM      2  HN  UNL d   1      -2.780   3.795  -1.833  1.00  0.00     0.168 HD
ATOM      3  N   UNL d   1      -5.350   2.892   0.011  0.00  0.00    -0.331 N 
ATOM      4  HN  UNL d   1      -6.369   2.933   0.005  1.00  0.00     0.168 HD
ATOM      5  C   UNL d   1      -2.645   2.729  -0.065  0.00  0.00     0.082 A 
ATOM      6  C   UNL d   1      -4.670   2.324   1.023  0.00  0.00     0.082 A 
ATOM      7  C   UNL d   1      -4.620   3.401  -0.990  0.00  0.00     0.145 A 
ATOM      8  C   UNL d   1      -3.299   2.197   1.024  0.00  0.00     0.074 A 
ENDROOT
BRANCH   5   9
ATOM      9  S   UNL d   1      -0.863   2.706  -0.137  0.00  0.00    -0.035 SA
BRANCH   9  10
ATOM     10  C   UNL d   1      -0.652   1.903  -1.645  0.00  0.00     0.167 A 
ATOM     11  N   UNL d   1       0.385   2.223  -2.468  0.00  0.00    -0.320 N 
ATOM     12  C   UNL d   1       0.323   1.351  -3.529  0.00  0.00     0.132 A 
ATOM     13  H   UNL d   1       1.081   2.930  -2.297  0.00  0.00     0.169 HD
ATOM     14  N   UNL d   1      -0.711   0.550  -3.333  0.00  0.00    -0.283 N 
ATOM     15  N   UNL d   1      -1.327   0.901  -2.149  0.00  0.00    -0.278 N 
ATOM     16  HN  UNL d   1      -1.006  -0.203  -3.955  1.00  0.00     0.188 HD
ATOM     17  HN  UNL d   1      -2.152   0.461  -1.743  1.00  0.00     0.189 HD
BRANCH  12  18
ATOM     18  C   UNL d   1       1.268   1.298  -4.644  0.00  0.00     0.013 A 
ATOM     19  C   UNL d   1       1.452   0.088  -5.330  0.00  0.00     0.039 A 
ATOM     20  C   UNL d   1       2.346   0.003  -6.399  0.00  0.00     0.036 A 
ATOM     21 CL   UNL d   1       2.566  -1.497  -7.213  0.00  0.00    -0.084 Cl
ATOM     22  C   UNL d   1       3.065   1.120  -6.811  0.00  0.00     0.047 A 
ATOM     23  C   UNL d   1       2.880   2.325  -6.142  0.00  0.00     0.036 A 
ATOM     24  C   UNL d   1       1.994   2.422  -5.064  0.00  0.00     0.039 A 
ATOM     25 CL   UNL d   1       3.751   3.721  -6.650  0.00  0.00    -0.084 Cl
ENDBRANCH  12  18
ENDBRANCH   9  10
ENDBRANCH   5   9
BRANCH   7  26
ATOM     26  S   UNL d   1      -5.532   4.224  -2.272  0.00  0.00    -0.098 SA
ATOM     27  C   UNL d   1      -4.168   4.737  -3.347  0.00  0.00     0.099 C 
ENDBRANCH   7  26
BRANCH   6  28
ATOM     28  S   UNL d   1      -5.598   1.681   2.414  0.00  0.00    -0.035 SA
BRANCH  28  29
ATOM     29  C   UNL d   1      -6.908   2.800   2.479  0.00  0.00     0.167 A 
ATOM     30  N   UNL d   1      -7.747   2.997   1.427  0.00  0.00    -0.320 N 
ATOM     31  C   UNL d   1      -8.669   3.932   1.826  0.00  0.00     0.132 A 
ATOM     32  H   UNL d   1      -7.630   2.590   0.513  0.00  0.00     0.169 HD
ATOM     33  N   UNL d   1      -8.412   4.235   3.089  0.00  0.00    -0.283 N 
ATOM     34  N   UNL d   1      -7.310   3.511   3.503  0.00  0.00    -0.278 N 
ATOM     35  HN  UNL d   1      -8.940   4.893   3.661  1.00  0.00     0.188 HD
ATOM     36  HN  UNL d   1      -6.889   3.527   4.432  1.00  0.00     0.189 HD
BRANCH  31  37
ATOM     37  C   UNL d   1      -9.727   4.492   0.983  0.00  0.00     0.013 A 
ATOM     38  C   UNL d   1      -9.931   4.069  -0.340  0.00  0.00     0.039 A 
ATOM     39  C   UNL d   1     -10.943   4.639  -1.117  0.00  0.00     0.036 A 
ATOM     40 CL   UNL d   1     -11.169   4.103  -2.737  0.00  0.00    -0.084 Cl
ATOM     41  C   UNL d   1     -11.767   5.633  -0.600  0.00  0.00     0.047 A 
ATOM     42  C   UNL d   1     -11.573   6.054   0.711  0.00  0.00     0.036 A 
ATOM     43  C   UNL d   1     -10.568   5.491   1.500  0.00  0.00     0.039 A 
ATOM     44 CL   UNL d   1     -12.584   7.286   1.363  0.00  0.00    -0.084 Cl
ENDBRANCH  31  37
ENDBRANCH  28  29
ENDBRANCH   6  28
TORSDOF 7
