REMARK  8 active torsions:
REMARK  status: ('A' for Active; 'I' for Inactive)
REMARK    1  A    between atoms: N_3  and  C_1 
REMARK    2  A    between atoms: N_4  and  C_1 
REMARK    3  A    between atoms: C_2  and  O_6 
REMARK    4  A    between atoms: C_11  and  N_3 
REMARK    5  A    between atoms: C_15  and  N_4 
REMARK    6  A    between atoms: O_6  and  C_12 
REMARK    7  A    between atoms: O_7  and  C_13 
REMARK    8  A    between atoms: C_14  and  O_7 
ROOT
ATOM      1  C   UNL d   1       1.346  -1.768  -1.563  0.00  0.00     0.034 C 
ATOM      2  C   UNL d   1       2.456  -4.116  -2.645  0.00  0.00     0.076 C 
ATOM      3  C   UNL d   1       2.032  -2.673  -0.752  0.00  0.00     0.032 C 
ATOM      4  C   UNL d   1       1.104  -2.125  -2.897  0.00  0.00     0.032 C 
ATOM      5  C   UNL d   1       1.664  -3.288  -3.438  0.00  0.00     0.039 C 
ATOM      6  C   UNL d   1       2.572  -3.849  -1.283  0.00  0.00     0.039 C 
ENDROOT
BRANCH   1   7
ATOM      7  N   UNL d   1       0.869  -0.504  -1.137  0.00  0.00    -0.333 N 
ATOM      8  H   UNL d   1       0.225  -0.069  -1.779  0.00  0.00     0.168 HD
BRANCH   7   9
ATOM      9  C   UNL d   1       1.258   0.293  -0.091  0.00  0.00     0.172 C 
ATOM     10  S   UNL d   1       2.467   0.063   1.041  0.00  0.00    -0.041 SA
BRANCH   9  11
ATOM     11  N   UNL d   1       0.602   1.480   0.042  0.00  0.00    -0.362 N 
ATOM     12  H   UNL d   1       0.895   1.958   0.888  0.00  0.00     0.162 HD
BRANCH  11  13
ATOM     13  C   UNL d   1      -0.285   2.241  -0.852  0.00  0.00     0.083 C 
ATOM     14  C   UNL d   1       0.171   3.713  -0.854  0.00  0.00     0.025 C 
ATOM     15  C   UNL d   1       0.008   4.476   0.467  0.00  0.00     0.002 C 
ATOM     16  C   UNL d   1      -1.229   5.362   0.620  0.00  0.00     0.000 C 
ATOM     17  C   UNL d   1      -2.603   4.711   0.462  0.00  0.00     0.000 C 
ATOM     18  C   UNL d   1      -2.913   4.270  -0.970  0.00  0.00     0.000 C 
ATOM     19  C   UNL d   1      -2.796   2.768  -1.248  0.00  0.00     0.002 C 
ATOM     20  C   UNL d   1      -1.744   1.973  -0.476  0.00  0.00     0.025 C 
ENDBRANCH  11  13
ENDBRANCH   9  11
ENDBRANCH   7   9
ENDBRANCH   1   7
BRANCH   2  21
ATOM     21  O   UNL d   1       3.049  -5.191  -3.266  0.00  0.00    -0.311 OA
BRANCH  21  22
ATOM     22  C   UNL d   1       4.332  -5.548  -2.902  0.00  0.00     0.076 A 
ATOM     23  C   UNL d   1       4.649  -6.900  -3.030  0.00  0.00     0.040 A 
ATOM     24  C   UNL d   1       5.905  -7.361  -2.632  0.00  0.00     0.040 A 
ATOM     25  C   UNL d   1       6.852  -6.484  -2.091  0.00  0.00     0.078 A 
ATOM     26  C   UNL d   1       6.570  -5.119  -2.057  0.00  0.00     0.040 A 
ATOM     27  C   UNL d   1       5.315  -4.652  -2.471  0.00  0.00     0.040 A 
BRANCH  25  28
ATOM     28  O   UNL d   1       7.992  -7.080  -1.661  0.00  0.00    -0.255 OA
BRANCH  28  29
ATOM     29  C   UNL d   1       8.738  -6.455  -0.618  0.00  0.00     0.530 C 
ATOM     30  F   UNL d   1       7.997  -5.636   0.156  0.00  0.00    -0.144 F 
ATOM     31  F   UNL d   1       9.246  -7.423   0.178  0.00  0.00    -0.144 F 
ATOM     32  F   UNL d   1       9.766  -5.761  -1.147  0.00  0.00    -0.144 F 
ENDBRANCH  28  29
ENDBRANCH  25  28
ENDBRANCH  21  22
ENDBRANCH   2  21
TORSDOF 8
