REMARK  4 active torsions:
REMARK  status: ('A' for Active; 'I' for Inactive)
REMARK       I    between atoms: N_2  and  C_1 
REMARK       I    between atoms: N_4  and  C_1 
REMARK    1  A    between atoms: C_3  and  N_2 
REMARK    2  A    between atoms: C_6  and  N_2 
REMARK    3  A    between atoms: C_9  and  N_4 
REMARK    4  A    between atoms: C_10  and  C_6 
ROOT
ATOM      1  C   UNL d   1       0.980   0.343  -0.014  0.00  0.00     0.327 C 
ATOM      2  N   UNL d   1       0.175   1.161  -0.836  0.00  0.00    -0.295 N 
ATOM      3  N   UNL d   1       0.305  -0.679   0.636  0.00  0.00    -0.309 N 
ATOM      4  O   UNL d   1       2.183   0.555   0.110  0.00  0.00    -0.246 OA
ATOM      5  H   UNL d   1      -0.694  -0.710   0.508  0.00  0.00     0.170 HD
ENDROOT
BRANCH   2   6
ATOM      6  C   UNL d   1      -1.255   1.188  -0.792  0.00  0.00     0.050 A 
ATOM      7  C   UNL d   1      -1.985   1.384   0.421  0.00  0.00     0.001 A 
ATOM      8  C   UNL d   1      -3.394   1.253   0.388  0.00  0.00    -0.024 A 
ATOM      9  C   UNL d   1      -1.389   1.709   1.664  0.00  0.00     0.014 A 
ATOM     10  C   UNL d   1      -4.135   1.350   1.577  0.00  0.00     0.012 A 
ATOM     11  C   UNL d   1      -4.046   1.022  -0.833  0.00  0.00     0.012 A 
ATOM     12  C   UNL d   1      -3.510   1.603   2.798  0.00  0.00     0.001 A 
ATOM     13  C   UNL d   1      -2.137   1.800   2.838  0.00  0.00     0.001 A 
ATOM     14  C   UNL d   1      -3.326   0.902  -2.020  0.00  0.00     0.003 A 
ATOM     15  C   UNL d   1      -1.936   0.975  -1.998  0.00  0.00     0.031 A 
ENDBRANCH   2   6
BRANCH   2  16
ATOM     16  C   UNL d   1       0.801   2.364  -1.405  0.00  0.00     0.172 C 
BRANCH  16  17
ATOM     17  C   UNL d   1       1.418   2.217  -2.780  0.00  0.00    -0.040 A 
ATOM     18  C   UNL d   1       0.750   2.705  -3.915  0.00  0.00     0.009 A 
ATOM     19  C   UNL d   1       1.379   2.719  -5.163  0.00  0.00     0.001 A 
ATOM     20  C   UNL d   1       2.680   2.240  -5.295  0.00  0.00     0.000 A 
ATOM     21  C   UNL d   1       3.344   1.723  -4.184  0.00  0.00     0.001 A 
ATOM     22  C   UNL d   1       2.714   1.705  -2.936  0.00  0.00     0.009 A 
ENDBRANCH  16  17
ENDBRANCH   2  16
BRANCH   3  23
ATOM     23  C   UNL d   1       0.822  -1.600   1.573  0.00  0.00     0.036 A 
ATOM     24  C   UNL d   1       2.184  -1.814   1.788  0.00  0.00     0.029 A 
ATOM     25  C   UNL d   1       2.615  -2.783   2.701  0.00  0.00     0.002 A 
ATOM     26  C   UNL d   1       1.689  -3.534   3.420  0.00  0.00     0.000 A 
ATOM     27  C   UNL d   1       0.328  -3.309   3.236  0.00  0.00     0.002 A 
ATOM     28  C   UNL d   1      -0.103  -2.350   2.314  0.00  0.00     0.029 A 
ENDBRANCH   3  23
TORSDOF 4
