REMARK  3 active torsions:
REMARK  status: ('A' for Active; 'I' for Inactive)
REMARK    1  A    between atoms: C_2  and  C_1 
REMARK    2  A    between atoms: C_7  and  C_1 
REMARK    3  A    between atoms: O_11  and  N_3 
ROOT
ATOM      1  C   UNL d   1       0.938   0.054   0.161  0.00  0.00     0.046 C 
ATOM      2  N   UNL d   1       0.502  -0.830   1.012  0.00  0.00    -0.272 N 
ATOM      3  HN  UNL d   1       1.088  -1.576   1.387  1.00  0.00     0.194 HD
ENDROOT
BRANCH   1   4
ATOM      4  C   UNL d   1       2.443   0.004  -0.196  0.00  0.00     0.043 C 
ATOM      5  C   UNL d   1       3.365  -0.462   0.966  0.00  0.00    -0.005 C 
ATOM      6  C   UNL d   1       3.354  -1.996   1.140  0.00  0.00     0.005 C 
ATOM      7  C   UNL d   1       4.804  -0.072   0.572  0.00  0.00     0.005 C 
ATOM      8  C   UNL d   1       3.776  -2.695  -0.159  0.00  0.00     0.005 C 
ATOM      9  C   UNL d   1       4.030  -1.649  -1.252  0.00  0.00    -0.014 C 
ATOM     10  C   UNL d   1       2.731  -0.840  -1.449  0.00  0.00     0.016 C 
ATOM     11  C   UNL d   1       5.161  -0.714  -0.780  0.00  0.00     0.005 C 
ENDBRANCH   1   4
BRANCH   1  12
ATOM     12  C   UNL d   1       0.099   1.099  -0.524  0.00  0.00    -0.011 A 
ATOM     13  C   UNL d   1      -1.177   0.779  -1.009  0.00  0.00     0.013 A 
ATOM     14  C   UNL d   1      -1.972   1.752  -1.622  0.00  0.00     0.001 A 
ATOM     15  C   UNL d   1      -1.484   3.046  -1.790  0.00  0.00     0.000 A 
ATOM     16  C   UNL d   1      -0.207   3.369  -1.337  0.00  0.00     0.001 A 
ATOM     17  C   UNL d   1       0.576   2.404  -0.697  0.00  0.00     0.013 A 
ENDBRANCH   1  12
BRANCH   2  18
ATOM     18  O   UNL d   1      -0.838  -0.667   1.367  0.00  0.00    -0.290 OA
ATOM     19  H   UNL d   1      -0.970  -1.390   2.009  0.00  0.00     0.244 HD
ENDBRANCH   2  18
TORSDOF 3
