REMARK  6 active torsions:
REMARK  status: ('A' for Active; 'I' for Inactive)
REMARK    1  A    between atoms: S_9  and  C_2 
REMARK    2  A    between atoms: C_11  and  C_3 
REMARK       I    between atoms: C_8  and  N_10 
REMARK    3  A    between atoms: C_13  and  C_8 
REMARK    4  A    between atoms: C_15  and  S_9 
REMARK    5  A    between atoms: N_10  and  C_11 
REMARK    6  A    between atoms: C_16  and  C_15 
ROOT
ATOM      1  N   UNL d   1       0.883   0.052   0.062  0.00  0.00    -0.318 N 
ATOM      2  C   UNL d   1       0.006   1.103   0.112  0.00  0.00     0.162 A 
ATOM      3  C   UNL d   1       0.099  -1.083   0.018  0.00  0.00     0.117 A 
ATOM      4  N   UNL d   1      -1.225   0.649   0.091  0.00  0.00    -0.278 N 
ATOM      5  HN  UNL d   1      -2.074   1.215   0.113  1.00  0.00     0.189 HD
ATOM      6  N   UNL d   1      -1.170  -0.722   0.035  0.00  0.00    -0.285 N 
ATOM      7  HN  UNL d   1      -1.972  -1.352   0.010  1.00  0.00     0.188 HD
ATOM      8  C   UNL d   1       2.323   0.076   0.074  0.00  0.00     0.160 C 
ENDROOT
BRANCH   3   9
ATOM      9  C   UNL d   1       0.606  -2.481  -0.058  0.00  0.00     0.201 C 
BRANCH   9  10
ATOM     10  N   UNL d   1       0.641  -3.059   1.268  0.00  0.00    -0.350 N 
ATOM     11  C   UNL d   1       1.813  -3.226   1.969  0.00  0.00     0.252 C 
ATOM     12  O   UNL d   1       2.906  -2.858   1.558  0.00  0.00    -0.268 OA
ATOM     13  H   UNL d   1      -0.248  -3.200   1.731  0.00  0.00     0.163 HD
BRANCH  11  14
ATOM     14  C   UNL d   1       1.690  -3.874   3.303  0.00  0.00     0.032 A 
ATOM     15  C   UNL d   1       0.766  -4.902   3.530  0.00  0.00     0.017 A 
ATOM     16  C   UNL d   1       0.699  -5.514   4.784  0.00  0.00     0.001 A 
ATOM     17  C   UNL d   1       1.551  -5.105   5.809  0.00  0.00     0.000 A 
ATOM     18  C   UNL d   1       2.479  -4.088   5.583  0.00  0.00     0.001 A 
ATOM     19  C   UNL d   1       2.554  -3.477   4.330  0.00  0.00     0.017 A 
ENDBRANCH  11  14
ENDBRANCH   9  10
ENDBRANCH   3   9
BRANCH   2  20
ATOM     20  S   UNL d   1       0.469   2.772   0.190  0.00  0.00    -0.088 SA
BRANCH  20  21
ATOM     21  C   UNL d   1      -1.063   3.501   0.842  0.00  0.00     0.121 C 
BRANCH  21  22
ATOM     22  C   UNL d   1      -0.973   4.997   1.051  0.00  0.00    -0.049 A 
ATOM     23  C   UNL d   1      -1.492   5.884   0.096  0.00  0.00     0.008 A 
ATOM     24  C   UNL d   1      -1.483   7.264   0.326  0.00  0.00     0.001 A 
ATOM     25  C   UNL d   1      -0.943   7.772   1.504  0.00  0.00     0.000 A 
ATOM     26  C   UNL d   1      -0.403   6.906   2.451  0.00  0.00     0.001 A 
ATOM     27  C   UNL d   1      -0.412   5.526   2.224  0.00  0.00     0.008 A 
ENDBRANCH  21  22
ENDBRANCH  20  21
ENDBRANCH   2  20
TORSDOF 6
