REMARK  4 active torsions:
REMARK  status: ('A' for Active; 'I' for Inactive)
REMARK    1  A    between atoms: N_2  and  C_1 
REMARK    2  A    between atoms: N_6  and  C_1 
REMARK    3  A    between atoms: C_3  and  N_2 
REMARK    4  A    between atoms: C_9  and  N_6 
ROOT
ATOM      1  C   UNL d   1       1.272  -1.444  -0.401  0.00  0.00     0.168 C 
ATOM      2  S   UNL d   1       2.868  -1.227   0.044  0.00  0.00    -0.041 SA
ENDROOT
BRANCH   1   3
ATOM      3  N   UNL d   1       0.813  -2.191  -1.448  0.00  0.00    -0.362 N 
ATOM      4  H   UNL d   1      -0.082  -1.921  -1.821  0.00  0.00     0.162 HD
BRANCH   3   5
ATOM      5  C   UNL d   1       1.653  -3.029  -2.304  0.00  0.00     0.092 C 
ATOM      6  C   UNL d   1       2.165  -4.329  -1.629  0.00  0.00     0.031 C 
ATOM      7  C   UNL d   1       0.998  -5.239  -1.278  0.00  0.00    -0.024 C 
ATOM      8  C   UNL d   1       2.673  -5.079  -2.867  0.00  0.00     0.019 C 
ATOM      9  C   UNL d   1       0.496  -5.706  -2.433  0.00  0.00    -0.026 C 
ATOM     10  C   UNL d   1       1.300  -5.085  -3.546  0.00  0.00     0.010 C 
ATOM     11  C   UNL d   1       0.942  -3.579  -3.581  0.00  0.00     0.034 C 
ENDBRANCH   3   5
ENDBRANCH   1   3
BRANCH   1  12
ATOM     12  N   UNL d   1       0.341  -0.830   0.373  0.00  0.00    -0.363 N 
ATOM     13  H   UNL d   1       0.763  -0.367   1.172  0.00  0.00     0.162 HD
BRANCH  12  14
ATOM     14  C   UNL d   1      -1.114  -0.974   0.414  0.00  0.00     0.085 C 
ATOM     15  C   UNL d   1      -1.714   0.245   1.131  0.00  0.00     0.034 C 
ATOM     16  C   UNL d   1      -3.249   0.185   1.267  0.00  0.00    -0.045 C 
ATOM     17  C   UNL d   1      -3.721   1.358   2.148  0.00  0.00     0.015 C 
ATOM     18  C   UNL d   1      -3.919   0.331  -0.112  0.00  0.00     0.015 C 
ATOM     19  C   UNL d   1      -3.655  -1.145   1.941  0.00  0.00     0.013 C 
ATOM     20  C   UNL d   1      -3.056  -2.387   1.260  0.00  0.00    -0.016 C 
ATOM     21  C   UNL d   1      -1.529  -2.271   1.124  0.00  0.00     0.029 C 
ATOM     22  C   UNL d   1      -3.440  -3.648   2.036  0.00  0.00     0.010 C 
ENDBRANCH  12  14
ENDBRANCH   1  12
TORSDOF 4
