REMARK  5 active torsions:
REMARK  status: ('A' for Active; 'I' for Inactive)
REMARK    1  A    between atoms: N_5  and  C_1 
REMARK       I    between atoms: C_2  and  N_5 
REMARK       I    between atoms: N_9  and  C_2 
REMARK    2  A    between atoms: C_4  and  C_3 
REMARK       I    between atoms: N_12  and  C_4 
REMARK    3  A    between atoms: C_8  and  N_9 
REMARK    4  A    between atoms: C_19  and  N_12 
REMARK    5  A    between atoms: C_13  and  C_19 
ROOT
ATOM      1  C   UNL d   1      -0.714   3.816  -0.206  0.00  0.00     0.325 C 
ATOM      2  N   UNL d   1      -0.496   5.029  -0.784  0.00  0.00    -0.305 N 
ATOM      3  N   UNL d   1      -1.848   3.162  -0.560  0.00  0.00    -0.308 N 
ATOM      4  O   UNL d   1       0.085   3.455   0.653  0.00  0.00    -0.247 OA
ATOM      5  H   UNL d   1       0.070   5.609  -0.169  0.00  0.00     0.171 HD
ATOM      6  H   UNL d   1      -2.231   3.489  -1.435  0.00  0.00     0.170 HD
ENDROOT
BRANCH   3   7
ATOM      7  C   UNL d   1      -2.426   1.965  -0.065  0.00  0.00     0.052 A 
ATOM      8  C   UNL d   1      -2.248   1.305   1.166  0.00  0.00     0.058 A 
ATOM      9  C   UNL d   1      -2.965   0.109   1.422  0.00  0.00     0.019 A 
ATOM     10  C   UNL d   1      -3.859  -0.428   0.499  0.00  0.00     0.001 A 
ATOM     11  C   UNL d   1      -4.065   0.230  -0.700  0.00  0.00     0.002 A 
ATOM     12  C   UNL d   1      -3.359   1.404  -0.972  0.00  0.00     0.030 A 
BRANCH   8  13
ATOM     13  C   UNL d   1      -1.543   1.763   2.391  0.00  0.00     0.253 C 
ATOM     14  N   UNL d   1      -0.171   1.659   2.399  0.00  0.00    -0.356 N 
ATOM     15  H   UNL d   1       0.262   1.982   1.535  0.00  0.00     0.162 HD
ATOM     16  O   UNL d   1      -2.210   2.031   3.388  0.00  0.00    -0.268 OA
BRANCH  14  17
ATOM     17  C   UNL d   1       0.548   1.951   3.619  0.00  0.00     0.127 C 
BRANCH  17  18
ATOM     18  C   UNL d   1       2.024   1.844   3.401  0.00  0.00     0.003 A 
ATOM     19  C   UNL d   1       2.660   0.561   2.924  0.00  0.00     0.007 A 
ATOM     20  C   UNL d   1       2.873   1.017   4.338  0.00  0.00     0.007 A 
ENDBRANCH  17  18
ENDBRANCH  14  17
ENDBRANCH   8  13
ENDBRANCH   3   7
BRANCH   2  21
ATOM     21  C   UNL d   1      -0.847   5.649  -2.012  0.00  0.00     0.080 A 
ATOM     22  C   UNL d   1      -0.803   7.063  -2.032  0.00  0.00     0.064 A 
ATOM     23  C   UNL d   1      -1.003   7.797  -3.204  0.00  0.00     0.050 A 
ATOM     24 CL   UNL d   1      -0.511   7.964  -0.578  0.00  0.00    -0.082 Cl
ATOM     25  C   UNL d   1      -1.236   7.125  -4.394  0.00  0.00     0.037 A 
ATOM     26  C   UNL d   1      -1.294   5.735  -4.413  0.00  0.00     0.050 A 
ATOM     27 CL   UNL d   1      -1.413   8.013  -5.856  0.00  0.00    -0.084 Cl
ATOM     28  C   UNL d   1      -1.098   4.997  -3.235  0.00  0.00     0.064 A 
ATOM     29 CL   UNL d   1      -1.039   3.283  -3.445  0.00  0.00    -0.082 Cl
ENDBRANCH   2  21
TORSDOF 5
