REMARK  2 active torsions:
REMARK  status: ('A' for Active; 'I' for Inactive)
REMARK    1  A    between atoms: C_9  and  N_3 
REMARK    2  A    between atoms: C_11  and  C_9 
ROOT
ATOM      1  C   UNL d   1      -0.693   1.245   0.001  0.00  0.00     0.118 A 
ATOM      2  C   UNL d   1      -1.465  -0.060   0.072  0.00  0.00     0.269 A 
ATOM      3  N   UNL d   1      -0.732  -1.262   0.005  0.00  0.00    -0.313 N 
ATOM      4  C   UNL d   1       0.661   1.166  -0.052  0.00  0.00    -0.034 A 
ATOM      5  C   UNL d   1       0.667  -1.278  -0.041  0.00  0.00     0.012 A 
ATOM      6  C   UNL d   1       1.342  -0.119  -0.059  0.00  0.00     0.033 A 
ATOM      7  C   UNL d   1      -1.426   2.525   0.005  0.00  0.00     0.105 C 
ATOM      8  N   UNL d   1      -1.970   3.550   0.006  0.00  0.00    -0.191 NA
ATOM      9  O   UNL d   1      -2.689  -0.020   0.188  0.00  0.00    -0.266 OA
ATOM     10  C   UNL d   1       1.572   2.363  -0.108  0.00  0.00     0.050 C 
ATOM     11  C   UNL d   1       1.423  -2.581  -0.061  0.00  0.00     0.068 C 
ENDROOT
BRANCH   3  12
ATOM     12  C   UNL d   1      -1.510  -2.513   0.012  0.00  0.00     0.170 C 
BRANCH  12  13
ATOM     13  C   UNL d   1      -1.482  -3.259   1.328  0.00  0.00    -0.040 A 
ATOM     14  C   UNL d   1      -1.547  -2.588   2.558  0.00  0.00     0.009 A 
ATOM     15  C   UNL d   1      -1.491  -3.297   3.758  0.00  0.00     0.001 A 
ATOM     16  C   UNL d   1      -1.394  -4.687   3.744  0.00  0.00     0.000 A 
ATOM     17  C   UNL d   1      -1.373  -5.370   2.530  0.00  0.00     0.001 A 
ATOM     18  C   UNL d   1      -1.424  -4.662   1.329  0.00  0.00     0.009 A 
ENDBRANCH  12  13
ENDBRANCH   3  12
TORSDOF 2
