REMARK  6 active torsions:
REMARK  status: ('A' for Active; 'I' for Inactive)
REMARK    1  A    between atoms: C_5  and  C_1 
REMARK    2  A    between atoms: N_9  and  C_2 
REMARK    3  A    between atoms: N_6  and  C_11 
REMARK       I    between atoms: C_10  and  N_9 
REMARK    4  A    between atoms: O_21  and  C_10 
REMARK    5  A    between atoms: C_12  and  C_20 
REMARK    6  A    between atoms: N_14  and  O_21 
ROOT
ATOM      1  N   UNL d   1       0.693  -2.462  -0.461  0.00  0.00    -0.297 N 
ATOM      2  C   UNL d   1       1.861  -3.025  -0.050  0.00  0.00     0.387 C 
ATOM      3  O   UNL d   1       2.040  -4.230  -0.232  0.00  0.00    -0.236 OA
ATOM      4  H   UNL d   1       0.126  -3.127  -0.971  0.00  0.00     0.171 HD
ENDROOT
BRANCH   1   5
ATOM      5  C   UNL d   1       0.117  -1.236  -0.184  0.00  0.00     0.098 A 
ATOM      6  C   UNL d   1      -1.002  -0.681  -0.903  0.00  0.00     0.098 A 
ATOM      7  N   UNL d   1      -1.361   0.491  -0.359  0.00  0.00    -0.258 N 
ATOM      8  O   UNL d   1      -0.491   0.727   0.675  0.00  0.00    -0.240 OA
ATOM      9  HN  UNL d   1      -2.132   1.090  -0.657  1.00  0.00     0.195 HD
ATOM     10  C   UNL d   1       0.373  -0.316   0.813  0.00  0.00     0.101 A 
ATOM     11  C   UNL d   1       1.246  -0.205   1.999  0.00  0.00     0.081 C 
BRANCH   6  12
ATOM     12  C   UNL d   1      -1.682  -1.200  -2.101  0.00  0.00     0.038 A 
ATOM     13  C   UNL d   1      -2.162  -2.526  -2.176  0.00  0.00     0.048 A 
ATOM     14 CL   UNL d   1      -2.131  -3.631  -0.840  0.00  0.00    -0.083 Cl
ATOM     15  C   UNL d   1      -2.733  -3.028  -3.354  0.00  0.00     0.025 A 
ATOM     16  C   UNL d   1      -2.903  -2.206  -4.461  0.00  0.00     0.003 A 
ATOM     17  C   UNL d   1      -2.482  -0.883  -4.397  0.00  0.00     0.025 A 
ATOM     18  C   UNL d   1      -1.858  -0.387  -3.242  0.00  0.00     0.048 A 
ATOM     19 CL   UNL d   1      -1.288   1.248  -3.350  0.00  0.00    -0.083 Cl
ENDBRANCH   6  12
ENDBRANCH   1   5
BRANCH   2  20
ATOM     20  O   UNL d   1       2.781  -2.159   0.479  0.00  0.00    -0.181 OA
BRANCH  20  21
ATOM     21  N   UNL d   1       3.662  -2.914   1.258  0.00  0.00    -0.267 N 
ATOM     22  C   UNL d   1       4.797  -2.327   1.417  0.00  0.00     0.128 C 
ATOM     23  HN  UNL d   1       3.432  -3.825   1.655  1.00  0.00     0.194 HD
BRANCH  22  24
ATOM     24  C   UNL d   1       5.802  -3.011   2.257  0.00  0.00     0.014 A 
ATOM     25  C   UNL d   1       6.852  -2.359   2.898  0.00  0.00     0.114 A 
ATOM     26  C   UNL d   1       7.698  -3.046   3.786  0.00  0.00     0.037 A 
ATOM     27  C   UNL d   1       7.496  -4.406   4.013  0.00  0.00     0.002 A 
ATOM     28  C   UNL d   1       6.464  -5.080   3.358  0.00  0.00     0.001 A 
ATOM     29  C   UNL d   1       5.625  -4.386   2.488  0.00  0.00     0.015 A 
BRANCH  25  30
ATOM     30  N   UNL d   1       7.071  -0.942   2.722  0.00  0.00    -0.115 N 
ATOM     31  O   UNL d   1       7.259  -0.538   1.564  0.00  0.00    -0.532 OA
ATOM     32  O   UNL d   1       7.077  -0.242   3.738  0.00  0.00    -0.532 OA
ENDBRANCH  25  30
ENDBRANCH  22  24
ENDBRANCH  20  21
ENDBRANCH   2  20
TORSDOF 6
