REMARK  6 active torsions:
REMARK  status: ('A' for Active; 'I' for Inactive)
REMARK    1  A    between atoms: N_2  and  C_1 
REMARK    2  A    between atoms: N_12  and  C_1 
REMARK    3  A    between atoms: C_3  and  N_2 
REMARK    4  A    between atoms: N_10  and  N_12 
REMARK    5  A    between atoms: C_14  and  C_16 
REMARK    6  A    between atoms: C_17  and  C_15 
ROOT
ATOM      1  N   UNL d   1       2.466  -0.073  -0.169  0.00  0.00    -0.277 N 
ATOM      2  H   UNL d   1       2.951  -0.554   0.580  0.00  0.00     0.189 HD
ENDROOT
BRANCH   1   3
ATOM      3  N   UNL d   1       3.152   0.633  -1.105  0.00  0.00    -0.310 N 
ATOM      4  C   UNL d   1       4.441   0.678  -0.971  0.00  0.00     0.107 C 
ATOM      5  HN  UNL d   1       2.677   1.104  -1.875  1.00  0.00     0.186 HD
BRANCH   4   6
ATOM      6  C   UNL d   1       5.212   1.478  -1.940  0.00  0.00     0.019 C 
ATOM      7  C   UNL d   1       6.534   1.665  -1.875  0.00  0.00     0.013 C 
BRANCH   7   8
ATOM      8  C   UNL d   1       7.229   2.514  -2.862  0.00  0.00    -0.036 A 
ATOM      9  C   UNL d   1       6.620   3.649  -3.419  0.00  0.00     0.011 A 
ATOM     10  C   UNL d   1       7.283   4.428  -4.369  0.00  0.00     0.001 A 
ATOM     11  C   UNL d   1       8.575   4.093  -4.758  0.00  0.00     0.000 A 
ATOM     12  C   UNL d   1       9.208   2.991  -4.193  0.00  0.00     0.001 A 
ATOM     13  C   UNL d   1       8.540   2.204  -3.242  0.00  0.00     0.011 A 
ENDBRANCH   7   8
ENDBRANCH   4   6
ENDBRANCH   1   3
BRANCH   1  14
ATOM     14  C   UNL d   1       1.088  -0.014  -0.120  0.00  0.00     0.186 C 
ATOM     15  S   UNL d   1       0.281  -0.775   1.127  0.00  0.00    -0.040 SA
BRANCH  14  16
ATOM     16  N   UNL d   1       0.526   0.710  -1.143  0.00  0.00    -0.361 N 
ATOM     17  H   UNL d   1       1.223   1.057  -1.796  0.00  0.00     0.162 HD
BRANCH  16  18
ATOM     18  C   UNL d   1      -0.865   1.102  -1.291  0.00  0.00     0.092 C 
ATOM     19  C   UNL d   1      -1.348   2.227  -0.330  0.00  0.00     0.031 C 
ATOM     20  C   UNL d   1      -0.620   3.527  -0.605  0.00  0.00    -0.024 C 
ATOM     21  C   UNL d   1      -2.683   2.570  -1.005  0.00  0.00     0.019 C 
ATOM     22  C   UNL d   1      -1.042   3.982  -1.796  0.00  0.00    -0.026 C 
ATOM     23  C   UNL d   1      -2.024   2.968  -2.329  0.00  0.00     0.010 C 
ATOM     24  C   UNL d   1      -1.223   1.692  -2.690  0.00  0.00     0.034 C 
ENDBRANCH  16  18
ENDBRANCH  14  16
ENDBRANCH   1  14
TORSDOF 6
