REMARK  7 active torsions:
REMARK  status: ('A' for Active; 'I' for Inactive)
REMARK    1  A    between atoms: N_2  and  S_1 
REMARK    2  A    between atoms: C_14  and  S_1 
REMARK       I    between atoms: C_3  and  N_2 
REMARK       I    between atoms: N_5  and  C_3 
REMARK    3  A    between atoms: C_10  and  C_4 
REMARK    4  A    between atoms: C_6  and  N_12 
REMARK    5  A    between atoms: C_9  and  C_7 
REMARK    6  A    between atoms: C_11  and  C_9 
REMARK    7  A    between atoms: O_27  and  C_10 
REMARK       I    between atoms: N_12  and  C_11 
ROOT
ATOM      1  N   UNL d   1       0.597   1.671  -1.542  0.00  0.00    -0.232 N 
ATOM      2  C   UNL d   1       0.342   2.685  -0.643  0.00  0.00     0.332 C 
ATOM      3  N   UNL d   1       1.376   3.214   0.128  0.00  0.00    -0.318 N 
ATOM      4  C   UNL d   1       2.571   2.518   0.669  0.00  0.00     0.189 C 
ATOM      5  C   UNL d   1       2.362   2.072   2.126  0.00  0.00     0.241 C 
ATOM      6  N   UNL d   1       1.731   2.989   2.940  0.00  0.00    -0.358 N 
ATOM      7  O   UNL d   1      -0.778   3.182  -0.590  0.00  0.00    -0.246 OA
ATOM      8  O   UNL d   1       2.881   1.066   2.606  0.00  0.00    -0.271 OA
ATOM      9  C   UNL d   1       0.991   4.351   0.989  0.00  0.00     0.148 C 
ATOM     10  C   UNL d   1       0.695   3.865   2.414  0.00  0.00     0.142 C 
ATOM     11  H   UNL d   1       1.522   1.323  -1.797  0.00  0.00     0.183 HD
ATOM     12  H   UNL d   1       1.658   2.694   3.908  0.00  0.00     0.162 HD
ENDROOT
BRANCH   4  13
ATOM     13  C   UNL d   1       3.434   1.574  -0.153  0.00  0.00     0.138 C 
BRANCH  13  14
ATOM     14  C   UNL d   1       3.016   0.154  -0.474  0.00  0.00     0.224 C 
ATOM     15  N   UNL d   1       2.566  -0.679   0.523  0.00  0.00    -0.326 N 
ATOM     16  H   UNL d   1       2.818  -0.478   1.496  0.00  0.00     0.169 HD
ATOM     17  O   UNL d   1       3.174  -0.194  -1.648  0.00  0.00    -0.273 OA
BRANCH  15  18
ATOM     18  C   UNL d   1       2.099  -1.974   0.225  0.00  0.00     0.058 A 
ATOM     19  C   UNL d   1       2.224  -3.088   1.044  0.00  0.00     0.106 A 
ATOM     20  S   UNL d   1       1.495  -4.488   0.334  0.00  0.00    -0.094 SA
ATOM     21  C   UNL d   1       1.063  -3.650  -1.072  0.00  0.00     0.053 A 
ATOM     22  C   UNL d   1       1.457  -2.339  -0.998  0.00  0.00     0.038 A 
BRANCH  19  23
ATOM     23  C   UNL d   1       2.958  -3.209   2.289  0.00  0.00     0.302 C 
ATOM     24  O   UNL d   1       3.662  -2.332   2.775  0.00  0.00    -0.259 OA
BRANCH  23  25
ATOM     25  O   UNL d   1       2.793  -4.450   2.833  0.00  0.00    -0.322 OA
ATOM     26  C   UNL d   1       3.548  -4.715   4.011  0.00  0.00     0.213 C 
ENDBRANCH  23  25
ENDBRANCH  19  23
ENDBRANCH  15  18
ENDBRANCH  13  14
ENDBRANCH   4  13
BRANCH   1  27
ATOM     27  S   UNL d   1      -0.594   0.816  -2.345  0.00  0.00     0.266 S 
ATOM     28  O   UNL d   1      -1.740   0.630  -1.482  0.00  0.00    -0.200 OA
ATOM     29  O   UNL d   1       0.072  -0.318  -2.939  0.00  0.00    -0.200 OA
BRANCH  27  30
ATOM     30  C   UNL d   1      -1.089   1.769  -3.752  0.00  0.00     0.080 A 
ATOM     31  C   UNL d   1      -0.671   3.079  -3.970  0.00  0.00     0.026 A 
ATOM     32  C   UNL d   1      -0.834   3.634  -5.243  0.00  0.00     0.008 A 
ATOM     33  C   UNL d   1      -1.394   2.886  -6.289  0.00  0.00    -0.062 A 
ATOM     34  C   UNL d   1      -1.866   1.595  -6.037  0.00  0.00     0.008 A 
ATOM     35  C   UNL d   1      -1.430   3.440  -7.682  0.00  0.00     0.048 C 
ATOM     36  C   UNL d   1      -1.716   1.040  -4.772  0.00  0.00     0.026 A 
ENDBRANCH  27  30
ENDBRANCH   1  27
TORSDOF 7
