REMARK  4 active torsions:
REMARK  status: ('A' for Active; 'I' for Inactive)
REMARK    1  A    between atoms: C_5  and  C_1 
REMARK    2  A    between atoms: C_9  and  C_4 
REMARK       I    between atoms: N_10  and  C_5 
REMARK       I    between atoms: C_8  and  N_11 
REMARK       I    between atoms: N_12  and  C_8 
REMARK    3  A    between atoms: N_11  and  N_10 
REMARK    4  A    between atoms: C_19  and  N_12 
ROOT
ATOM      1  C   UNL d   1       1.117   0.884   0.067  0.00  0.00     0.110 A 
ATOM      2  N   UNL d   1      -0.170   1.359   0.345  0.00  0.00    -0.345 N 
ATOM      3  HN  UNL d   1      -0.391   2.318   0.614  1.00  0.00     0.167 HD
ATOM      4  C   UNL d   1      -1.059   0.390   0.209  0.00  0.00     0.086 A 
ATOM      5  S   UNL d   1      -0.394  -1.137  -0.246  0.00  0.00    -0.081 SA
ATOM      6  C   UNL d   1       1.169  -0.454  -0.273  0.00  0.00     0.087 A 
ENDROOT
BRANCH   1   7
ATOM      7  C   UNL d   1       2.306   1.738   0.105  0.00  0.00     0.287 C 
ATOM      8  N   UNL d   1       2.090   2.998   0.624  0.00  0.00    -0.261 N 
ATOM      9  H   UNL d   1       1.209   3.246   1.076  0.00  0.00     0.190 HD
ATOM     10  O   UNL d   1       3.406   1.364  -0.301  0.00  0.00    -0.264 OA
BRANCH   8  11
ATOM     11  N   UNL d   1       3.193   3.846   0.805  0.00  0.00    -0.249 N 
ATOM     12  C   UNL d   1       3.061   4.945   1.624  0.00  0.00     0.335 C 
ATOM     13  N   UNL d   1       4.182   5.743   1.584  0.00  0.00    -0.338 N 
ATOM     14  O   UNL d   1       2.061   5.174   2.293  0.00  0.00    -0.246 OA
ATOM     15  H   UNL d   1       5.037   5.280   1.316  0.00  0.00     0.164 HD
ATOM     16  H   UNL d   1       3.855   3.869   0.036  0.00  0.00     0.192 HD
BRANCH  13  17
ATOM     17  C   UNL d   1       4.306   6.923   2.428  0.00  0.00     0.078 C 
ATOM     18  C   UNL d   1       4.861   6.549   3.802  0.00  0.00     0.032 C 
ATOM     19  C   UNL d   1       5.203   7.955   1.752  0.00  0.00     0.032 C 
ENDBRANCH  13  17
ENDBRANCH   8  11
ENDBRANCH   1   7
BRANCH   4  20
ATOM     20  C   UNL d   1      -2.513   0.557   0.343  0.00  0.00     0.013 A 
ATOM     21  C   UNL d   1      -3.365  -0.465   0.759  0.00  0.00     0.101 A 
ATOM     22  N   UNL d   1      -4.714  -0.356   0.860  0.00  0.00    -0.374 N 
ATOM     23  C   UNL d   1      -5.250   0.838   0.537  0.00  0.00     0.087 A 
ATOM     24  HN  UNL d   1      -5.293  -1.138   1.166  1.00  0.00     0.164 HD
ATOM     25  C   UNL d   1      -4.501   1.927   0.126  0.00  0.00     0.018 A 
ATOM     26  C   UNL d   1      -3.116   1.782   0.035  0.00  0.00     0.017 A 
ENDBRANCH   4  20
TORSDOF 4
