REMARK  8 active torsions:
REMARK  status: ('A' for Active; 'I' for Inactive)
REMARK    1  A    between atoms: N_2  and  C_1 
REMARK    2  A    between atoms: C_3  and  C_1 
REMARK    3  A    between atoms: C_5  and  C_1 
REMARK    4  A    between atoms: N_6  and  C_1 
REMARK       I    between atoms: C_4  and  N_2 
REMARK    5  A    between atoms: C_7  and  C_4 
REMARK    6  A    between atoms: O_16  and  C_5 
REMARK    7  A    between atoms: C_14  and  N_6 
REMARK    8  A    between atoms: C_21  and  O_16 
ROOT
ATOM      1  C   UNL d   1       0.941  -0.105   0.059  0.00  0.00     0.297 C 
ENDROOT
BRANCH   1   2
ATOM      2  N   UNL d   1       0.517  -1.331  -0.639  0.00  0.00    -0.315 N 
ATOM      3  C   UNL d   1       0.327  -2.534  -0.014  0.00  0.00     0.254 C 
ATOM      4  O   UNL d   1       0.545  -2.722   1.173  0.00  0.00    -0.268 OA
ATOM      5  H   UNL d   1       0.112  -1.188  -1.557  0.00  0.00     0.166 HD
BRANCH   3   6
ATOM      6  C   UNL d   1      -0.239  -3.609  -0.875  0.00  0.00     0.033 A 
ATOM      7  C   UNL d   1       0.178  -3.759  -2.202  0.00  0.00     0.041 A 
ATOM      8  C   UNL d   1      -0.390  -4.755  -2.995  0.00  0.00     0.035 A 
ATOM      9 CL   UNL d   1       0.117  -4.936  -4.629  0.00  0.00    -0.084 Cl
ATOM     10  C   UNL d   1      -1.369  -5.604  -2.476  0.00  0.00     0.024 A 
ATOM     11  C   UNL d   1      -1.776  -5.464  -1.150  0.00  0.00     0.003 A 
ATOM     12  C   UNL d   1      -1.208  -4.471  -0.345  0.00  0.00     0.017 A 
ENDBRANCH   3   6
ENDBRANCH   1   2
BRANCH   1  13
ATOM     13  C   UNL d   1       0.207   0.213   1.416  0.00  0.00     0.442 C 
ATOM     14  F   UNL d   1      -0.956  -0.468   1.560  0.00  0.00    -0.166 F 
ATOM     15  F   UNL d   1       0.992  -0.092   2.485  0.00  0.00    -0.166 F 
ATOM     16  F   UNL d   1      -0.114   1.526   1.558  0.00  0.00    -0.166 F 
ENDBRANCH   1  13
BRANCH   1  17
ATOM     17  C   UNL d   1       0.512   1.079  -0.835  0.00  0.00     0.318 C 
ATOM     18  O   UNL d   1      -0.415   1.002  -1.644  0.00  0.00    -0.260 OA
BRANCH  17  19
ATOM     19  O   UNL d   1       1.278   2.190  -0.650  0.00  0.00    -0.318 OA
BRANCH  19  20
ATOM     20  C   UNL d   1       0.963   3.327  -1.466  0.00  0.00     0.174 C 
ATOM     21  C   UNL d   1       1.514   3.163  -2.872  0.00  0.00     0.034 C 
ENDBRANCH  19  20
ENDBRANCH  17  19
ENDBRANCH   1  17
BRANCH   1  22
ATOM     22  N   UNL d   1       2.414  -0.192   0.207  0.00  0.00    -0.348 N 
ATOM     23  H   UNL d   1       2.694  -0.587   1.103  0.00  0.00     0.163 HD
BRANCH  22  24
ATOM     24  C   UNL d   1       3.389  -0.192  -0.771  0.00  0.00     0.030 A 
ATOM     25  C   UNL d   1       3.138  -0.209  -2.147  0.00  0.00     0.029 A 
ATOM     26  C   UNL d   1       4.176  -0.103  -3.082  0.00  0.00     0.002 A 
ATOM     27  C   UNL d   1       5.491   0.046  -2.655  0.00  0.00     0.000 A 
ATOM     28  C   UNL d   1       5.766   0.084  -1.294  0.00  0.00     0.002 A 
ATOM     29  C   UNL d   1       4.724  -0.034  -0.368  0.00  0.00     0.029 A 
ENDBRANCH  22  24
ENDBRANCH   1  22
TORSDOF 8
