REMARK  8 active torsions:
REMARK  status: ('A' for Active; 'I' for Inactive)
REMARK    1  A    between atoms: C_9  and  C_2 
REMARK    2  A    between atoms: S_14  and  C_5 
REMARK    3  A    between atoms: C_8  and  C_11 
REMARK    4  A    between atoms: C_10  and  C_24 
REMARK    5  A    between atoms: C_19  and  S_14 
REMARK    6  A    between atoms: O_23  and  C_15 
REMARK    7  A    between atoms: C_17  and  C_19 
REMARK    8  A    between atoms: C_24  and  O_23 
ROOT
ATOM      1  O   UNL d   1      -1.202  -0.207  -0.589  0.00  0.00    -0.267 OA
ATOM      2  C   UNL d   1      -0.328  -1.113  -0.047  0.00  0.00     0.176 A 
ATOM      3  N   UNL d   1       0.791  -0.553   0.355  0.00  0.00    -0.277 N 
ATOM      4  HN  UNL d   1       1.585  -1.020   0.794  1.00  0.00     0.189 HD
ATOM      5  C   UNL d   1      -0.497   0.965  -0.500  0.00  0.00     0.204 A 
ATOM      6  N   UNL d   1       0.681   0.795   0.063  0.00  0.00    -0.272 N 
ATOM      7  HN  UNL d   1       1.377   1.517   0.248  1.00  0.00     0.189 HD
ENDROOT
BRANCH   2   8
ATOM      8  C   UNL d   1      -0.751  -2.501  -0.023  0.00  0.00     0.032 A 
ATOM      9  C   UNL d   1      -2.006  -2.908  -0.461  0.00  0.00     0.106 A 
ATOM     10  N   UNL d   1      -2.446  -4.191  -0.455  0.00  0.00    -0.346 N 
ATOM     11  C   UNL d   1      -1.603  -5.136   0.003  0.00  0.00     0.142 A 
ATOM     12  HN  UNL d   1      -3.381  -4.430  -0.785  1.00  0.00     0.167 HD
ATOM     13  C   UNL d   1      -0.331  -4.837   0.468  0.00  0.00     0.057 A 
ATOM     14  C   UNL d   1       0.097  -3.506   0.452  0.00  0.00     0.021 A 
BRANCH  11  15
ATOM     15  O   UNL d   1      -2.156  -6.382   0.043  0.00  0.00    -0.327 OA
BRANCH  15  16
ATOM     16  C   UNL d   1      -1.274  -7.458  -0.291  0.00  0.00     0.294 C 
BRANCH  16  17
ATOM     17  C   UNL d   1      -2.030  -8.780  -0.401  0.00  0.00     0.408 C 
ATOM     18  F   UNL d   1      -3.369  -8.639  -0.329  0.00  0.00    -0.169 F 
ATOM     19  F   UNL d   1      -1.749  -9.398  -1.573  0.00  0.00    -0.169 F 
ATOM     20  F   UNL d   1      -1.657  -9.624   0.591  0.00  0.00    -0.169 F 
ENDBRANCH  16  17
ENDBRANCH  15  16
ENDBRANCH  11  15
ENDBRANCH   2   8
BRANCH   5  21
ATOM     21  S   UNL d   1      -1.096   2.488  -1.086  0.00  0.00    -0.080 SA
BRANCH  21  22
ATOM     22  C   UNL d   1      -2.718   1.962  -1.700  0.00  0.00     0.122 C 
BRANCH  22  23
ATOM     23  C   UNL d   1      -3.480   3.087  -2.364  0.00  0.00    -0.033 A 
ATOM     24  C   UNL d   1      -3.417   3.370  -3.749  0.00  0.00     0.054 A 
ATOM     25  C   UNL d   1      -4.241   4.393  -4.269  0.00  0.00     0.017 A 
ATOM     26  C   UNL d   1      -5.072   5.148  -3.444  0.00  0.00     0.001 A 
ATOM     27  C   UNL d   1      -5.090   4.906  -2.078  0.00  0.00     0.001 A 
ATOM     28  C   UNL d   1      -4.304   3.886  -1.543  0.00  0.00     0.009 A 
BRANCH  24  29
ATOM     29  C   UNL d   1      -2.528   2.650  -4.744  0.00  0.00     0.418 C 
ATOM     30  F   UNL d   1      -1.656   1.756  -4.207  0.00  0.00    -0.166 F 
ATOM     31  F   UNL d   1      -3.253   1.947  -5.660  0.00  0.00    -0.166 F 
ATOM     32  F   UNL d   1      -1.761   3.514  -5.468  0.00  0.00    -0.166 F 
ENDBRANCH  24  29
ENDBRANCH  22  23
ENDBRANCH  21  22
ENDBRANCH   5  21
TORSDOF 8
