REMARK  3 active torsions:
REMARK  status: ('A' for Active; 'I' for Inactive)
REMARK    1  A    between atoms: C_2  and  S_1 
REMARK    2  A    between atoms: C_4  and  S_1 
REMARK    3  A    between atoms: C_5  and  C_2 
ROOT
ATOM      1  S   UNL d   1       0.956  -0.218  -0.158  0.00  0.00     0.054 S 
ATOM      2  O   UNL d   1       0.238  -1.006  -1.217  0.00  0.00    -0.252 OA
ENDROOT
BRANCH   1   3
ATOM      3  C   UNL d   1       0.507  -0.910   1.470  0.00  0.00     0.152 C 
BRANCH   3   4
ATOM      4  C   UNL d   1       0.954  -2.345   1.609  0.00  0.00    -0.046 A 
ATOM      5  C   UNL d   1       2.241  -2.662   2.067  0.00  0.00     0.008 A 
ATOM      6  C   UNL d   1       2.655  -3.994   2.148  0.00  0.00     0.001 A 
ATOM      7  C   UNL d   1       1.789  -5.021   1.775  0.00  0.00     0.000 A 
ATOM      8  C   UNL d   1       0.508  -4.718   1.319  0.00  0.00     0.001 A 
ATOM      9  C   UNL d   1       0.095  -3.388   1.234  0.00  0.00     0.008 A 
ENDBRANCH   3   4
ENDBRANCH   1   3
BRANCH   1  10
ATOM     10  C   UNL d   1       0.060   1.353  -0.040  0.00  0.00     0.031 A 
ATOM     11  C   UNL d   1       0.396   2.298   0.937  0.00  0.00     0.021 A 
ATOM     12  C   UNL d   1      -0.267   3.528   0.984  0.00  0.00     0.001 A 
ATOM     13  C   UNL d   1      -1.259   3.826   0.051  0.00  0.00     0.000 A 
ATOM     14  C   UNL d   1      -1.593   2.896  -0.930  0.00  0.00     0.001 A 
ATOM     15  C   UNL d   1      -0.936   1.665  -0.975  0.00  0.00     0.021 A 
ENDBRANCH   1  10
TORSDOF 3
