REMARK  4 active torsions:
REMARK  status: ('A' for Active; 'I' for Inactive)
REMARK    1  A    between atoms: C_2  and  S_1 
REMARK    2  A    between atoms: C_8  and  S_1 
REMARK    3  A    between atoms: C_9  and  C_2 
REMARK    4  A    between atoms: N_4  and  C_9 
ROOT
ATOM      1  N   UNL d   1      -1.666  -0.166  -7.771  0.00  0.00    -0.197 NA
ATOM      2  N   UNL d   1       0.417  -0.841  -3.649  0.00  0.00     0.089 N 
ATOM      3  C   UNL d   1      -1.236   0.366  -6.834  0.00  0.00     0.064 C 
ATOM      4  C   UNL d   1      -1.030  -0.743  -3.875  0.00  0.00     0.273 C 
ATOM      5  C   UNL d   1       1.140  -0.546  -4.897  0.00  0.00     0.273 C 
ATOM      6  C   UNL d   1      -0.706   1.056  -5.642  0.00  0.00     0.096 C 
ATOM      7  C   UNL d   1       0.803   0.822  -5.499  0.00  0.00     0.049 C 
ATOM      8  C   UNL d   1      -1.473   0.630  -4.385  0.00  0.00     0.049 C 
ENDROOT
BRANCH   2   9
ATOM      9  C   UNL d   1       0.921  -0.046  -2.509  0.00  0.00     0.287 C 
BRANCH   9  10
ATOM     10  C   UNL d   1       0.389  -0.527  -1.160  0.00  0.00     0.176 C 
BRANCH  10  11
ATOM     11  S   UNL d   1       1.101   0.432   0.162  0.00  0.00     0.177 S 
ATOM     12  O   UNL d   1       0.699   1.814  -0.017  0.00  0.00    -0.223 OA
ATOM     13  O   UNL d   1       2.502   0.077   0.289  0.00  0.00    -0.223 OA
BRANCH  11  14
ATOM     14  C   UNL d   1       0.265  -0.179   1.610  0.00  0.00     0.059 A 
ATOM     15  C   UNL d   1       0.782  -1.285   2.291  0.00  0.00     0.023 A 
ATOM     16  C   UNL d   1       0.142  -1.740   3.445  0.00  0.00     0.002 A 
ATOM     17  C   UNL d   1      -0.999  -1.088   3.916  0.00  0.00     0.000 A 
ATOM     18  C   UNL d   1      -1.503   0.024   3.240  0.00  0.00     0.002 A 
ATOM     19  C   UNL d   1      -0.869   0.486   2.085  0.00  0.00     0.023 A 
ENDBRANCH  11  14
ENDBRANCH  10  11
ENDBRANCH   9  10
ENDBRANCH   2   9
TORSDOF 4
