REMARK  3 active torsions:
REMARK  status: ('A' for Active; 'I' for Inactive)
REMARK    1  A    between atoms: N_2  and  S_1 
REMARK    2  A    between atoms: C_13  and  S_1 
REMARK    3  A    between atoms: C_4  and  N_3 
ROOT
ATOM      1  C   UNL d   1       3.674  -2.151  -3.862  0.00  0.00     0.082 A 
ATOM      2  N   UNL d   1       4.822  -1.450  -3.973  0.00  0.00    -0.355 N 
ATOM      3  HN  UNL d   1       4.932  -0.542  -3.523  1.00  0.00     0.166 HD
ATOM      4  N   UNL d   1       7.710  -4.167  -6.753  0.00  0.00    -0.191 NA
ATOM      5  C   UNL d   1       6.836  -3.728  -6.131  0.00  0.00     0.101 C 
ATOM      6  C   UNL d   1       5.741  -3.214  -5.370  0.00  0.00     0.060 A 
ATOM      7  C   UNL d   1       3.513  -3.377  -4.512  0.00  0.00     0.044 A 
ATOM      8  C   UNL d   1       5.830  -1.998  -4.708  0.00  0.00     0.112 A 
ATOM      9  C   UNL d   1       4.548  -3.913  -5.274  0.00  0.00     0.027 A 
ENDROOT
BRANCH   1  10
ATOM     10  N   UNL d   1       2.591  -1.662  -3.132  0.00  0.00    -0.266 NA
ATOM     11  C   UNL d   1       2.522  -0.202  -2.935  0.00  0.00     0.117 C 
ATOM     12  C   UNL d   1       1.086   0.140  -2.480  0.00  0.00     0.150 C 
ATOM     13  N   UNL d   1       0.700  -0.603  -1.234  0.00  0.00    -0.304 N 
ATOM     14  C   UNL d   1       0.915  -2.080  -1.379  0.00  0.00     0.150 C 
ATOM     15  C   UNL d   1       2.344  -2.401  -1.875  0.00  0.00     0.117 C 
BRANCH  13  16
ATOM     16  S   UNL d   1       1.161   0.083   0.247  0.00  0.00     0.260 S 
ATOM     17  O   UNL d   1       1.394   1.499   0.053  0.00  0.00    -0.200 OA
ATOM     18  O   UNL d   1       2.158  -0.768   0.859  0.00  0.00    -0.200 OA
BRANCH  16  19
ATOM     19  C   UNL d   1      -0.348  -0.077   1.185  0.00  0.00     0.079 A 
ATOM     20  C   UNL d   1      -0.556  -1.193   2.000  0.00  0.00     0.025 A 
ATOM     21  C   UNL d   1      -1.741  -1.299   2.732  0.00  0.00     0.002 A 
ATOM     22  C   UNL d   1      -2.701  -0.288   2.661  0.00  0.00     0.000 A 
ATOM     23  C   UNL d   1      -2.476   0.840   1.870  0.00  0.00     0.002 A 
ATOM     24  C   UNL d   1      -1.296   0.951   1.133  0.00  0.00     0.025 A 
ENDBRANCH  16  19
ENDBRANCH  13  16
ENDBRANCH   1  10
TORSDOF 3
