REMARK  4 active torsions:
REMARK  status: ('A' for Active; 'I' for Inactive)
REMARK    1  A    between atoms: C_9  and  N_2 
REMARK    2  A    between atoms: O_15  and  C_6 
REMARK    3  A    between atoms: O_16  and  C_8 
REMARK    4  A    between atoms: C_13  and  C_9 
ROOT
ATOM      1  C   UNL d   1      -1.319   0.793   0.180  0.00  0.00     0.254 C 
ATOM      2  N   UNL d   1      -2.239  -0.240   0.045  0.00  0.00    -0.343 N 
ATOM      3  C   UNL d   1       0.118   0.445   0.013  0.00  0.00     0.041 A 
ATOM      4  C   UNL d   1       0.532  -0.887   0.069  0.00  0.00    -0.038 A 
ATOM      5  C   UNL d   1       1.053   1.476  -0.137  0.00  0.00     0.057 A 
ATOM      6  C   UNL d   1       2.425   1.203  -0.209  0.00  0.00     0.102 A 
ATOM      7  C   UNL d   1       1.903  -1.163   0.028  0.00  0.00     0.047 A 
ATOM      8  C   UNL d   1       2.855  -0.134  -0.109  0.00  0.00     0.102 A 
ATOM      9  C   UNL d   1      -1.811  -1.554  -0.421  0.00  0.00     0.131 C 
ATOM     10  O   UNL d   1      -1.623   1.949   0.466  0.00  0.00    -0.267 OA
ATOM     11  C   UNL d   1      -0.494  -1.972   0.244  0.00  0.00     0.059 C 
ENDROOT
BRANCH   2  12
ATOM     12  C   UNL d   1      -3.656   0.023   0.267  0.00  0.00     0.164 C 
BRANCH  12  13
ATOM     13  C   UNL d   1      -4.439   0.499  -0.938  0.00  0.00    -0.040 A 
ATOM     14  C   UNL d   1      -5.481  -0.283  -1.463  0.00  0.00     0.012 A 
ATOM     15  C   UNL d   1      -6.319   0.227  -2.460  0.00  0.00     0.043 A 
ATOM     16  C   UNL d   1      -6.112   1.514  -2.944  0.00  0.00     0.116 A 
ATOM     17  C   UNL d   1      -5.070   2.293  -2.465  0.00  0.00     0.043 A 
ATOM     18  F   UNL d   1      -6.945   2.014  -3.866  0.00  0.00    -0.206 F 
ATOM     19  C   UNL d   1      -4.235   1.787  -1.467  0.00  0.00     0.012 A 
ENDBRANCH  12  13
ENDBRANCH   2  12
BRANCH   6  20
ATOM     20  O   UNL d   1       3.364   2.187  -0.366  0.00  0.00    -0.353 OA
ATOM     21  C   UNL d   1       2.923   3.537  -0.456  0.00  0.00     0.210 C 
ENDBRANCH   6  20
BRANCH   8  22
ATOM     22  O   UNL d   1       4.138  -0.620  -0.122  0.00  0.00    -0.353 OA
ATOM     23  C   UNL d   1       5.219   0.298  -0.208  0.00  0.00     0.210 C 
ENDBRANCH   8  22
TORSDOF 4
