REMARK  4 active torsions:
REMARK  status: ('A' for Active; 'I' for Inactive)
REMARK    1  A    between atoms: N_2  and  C_1 
REMARK    2  A    between atoms: N_3  and  C_1 
REMARK    3  A    between atoms: C_7  and  N_3 
REMARK    4  A    between atoms: C_6  and  C_5 
ROOT
ATOM      1  C   UNL d   1      -3.278  -0.123   1.127  0.00  0.00    -0.048 A 
ATOM      2  C   UNL d   1      -1.137   0.999   0.705  0.00  0.00     0.034 A 
ATOM      3  C   UNL d   1      -1.873  -0.135   1.068  0.00  0.00     0.037 A 
ATOM      4  C   UNL d   1      -3.918   1.104   0.871  0.00  0.00     0.008 A 
ATOM      5  C   UNL d   1      -3.186   2.259   0.580  0.00  0.00     0.003 A 
ATOM      6  C   UNL d   1      -1.794   2.210   0.506  0.00  0.00     0.029 A 
ENDROOT
BRANCH   2   7
ATOM      7  N   UNL d   1       0.273   0.950   0.566  0.00  0.00    -0.333 N 
ATOM      8  H   UNL d   1       0.731   1.845   0.473  0.00  0.00     0.168 HD
BRANCH   7   9
ATOM      9  C   UNL d   1       1.026  -0.111   0.066  0.00  0.00     0.174 C 
ATOM     10  S   UNL d   1       0.418  -1.222  -1.052  0.00  0.00    -0.041 SA
BRANCH   9  11
ATOM     11  N   UNL d   1       2.369  -0.095   0.508  0.00  0.00    -0.357 N 
ATOM     12  C   UNL d   1       3.348  -1.111   0.057  0.00  0.00     0.135 C 
ATOM     13  C   UNL d   1       4.696  -0.508  -0.336  0.00  0.00     0.093 C 
ATOM     14  S   UNL d   1       5.497   0.332   1.064  0.00  0.00    -0.166 SA
ATOM     15  C   UNL d   1       4.106   1.409   1.529  0.00  0.00     0.093 C 
ATOM     16  C   UNL d   1       2.798   0.637   1.720  0.00  0.00     0.135 C 
ENDBRANCH   9  11
ENDBRANCH   7   9
ENDBRANCH   2   7
BRANCH   1  17
ATOM     17  C   UNL d   1      -4.094  -1.395   1.409  0.00  0.00    -0.024 C 
ATOM     18  C   UNL d   1      -3.227  -2.654   1.654  0.00  0.00     0.019 C 
ATOM     19  C   UNL d   1      -4.969  -1.195   2.663  0.00  0.00     0.019 C 
ATOM     20  C   UNL d   1      -4.998  -1.701   0.196  0.00  0.00     0.019 C 
ENDBRANCH   1  17
TORSDOF 4
