REMARK  3 active torsions:
REMARK  status: ('A' for Active; 'I' for Inactive)
REMARK    1  A    between atoms: C_10  and  C_1 
REMARK       I    between atoms: C_5  and  N_9 
REMARK    2  A    between atoms: C_8  and  C_5 
REMARK    3  A    between atoms: N_9  and  C_20 
ROOT
ATOM      1  C   UNL d   1      -3.856  -0.712   0.212  0.00  0.00    -0.002 A 
ATOM      2  C   UNL d   1      -4.621   0.038  -0.694  0.00  0.00     0.016 A 
ATOM      3  C   UNL d   1      -4.530  -1.623   1.031  0.00  0.00     0.016 A 
ATOM      4  C   UNL d   1      -6.662  -1.111  -0.014  0.00  0.00     0.035 A 
ATOM      5  C   UNL d   1      -5.910  -1.821   0.919  0.00  0.00     0.030 A 
ATOM      6  C   UNL d   1      -6.009  -0.162  -0.808  0.00  0.00     0.030 A 
ENDROOT
BRANCH   1   7
ATOM      7  C   UNL d   1      -2.395  -0.527   0.296  0.00  0.00     0.085 A 
ATOM      8  N   UNL d   1      -1.753   0.582  -0.013  0.00  0.00    -0.349 N 
ATOM      9  C   UNL d   1      -0.395   0.437   0.241  0.00  0.00     0.050 A 
ATOM     10  HN  UNL d   1      -2.191   1.425  -0.384  1.00  0.00     0.166 HD
ATOM     11  C   UNL d   1       0.592   1.429   0.084  0.00  0.00     0.031 A 
ATOM     12  C   UNL d   1      -0.003  -0.819   0.700  0.00  0.00     0.034 A 
ATOM     13  C   UNL d   1       1.927   1.143   0.398  0.00  0.00     0.009 A 
ATOM     14  C   UNL d   1       2.302  -0.122   0.862  0.00  0.00    -0.061 A 
ATOM     15  C   UNL d   1       1.332  -1.122   1.014  0.00  0.00     0.028 A 
ATOM     16  C   UNL d   1       3.740  -0.405   1.190  0.00  0.00     0.048 C 
ATOM     17  S   UNL d   1      -1.381  -1.832   0.795  0.00  0.00    -0.070 SA
ENDBRANCH   1   7
BRANCH   4  18
ATOM     18  N   UNL d   1      -8.041  -1.331  -0.222  0.00  0.00    -0.321 N 
ATOM     19  C   UNL d   1      -8.839  -2.273   0.412  0.00  0.00     0.279 C 
ATOM     20  O   UNL d   1      -8.496  -2.973   1.360  0.00  0.00    -0.265 OA
ATOM     21  H   UNL d   1      -8.495  -0.807  -0.962  0.00  0.00     0.169 HD
BRANCH  19  22
ATOM     22  C   UNL d   1     -10.165  -2.404  -0.160  0.00  0.00     0.142 A 
ATOM     23  O   UNL d   1     -10.566  -1.588  -1.186  0.00  0.00    -0.317 OA
ATOM     24  C   UNL d   1     -11.825  -1.974  -1.526  0.00  0.00     0.143 A 
ATOM     25  C   UNL d   1     -12.241  -3.026  -0.744  0.00  0.00     0.027 A 
ATOM     26  C   UNL d   1     -11.177  -3.297   0.145  0.00  0.00     0.045 A 
ENDBRANCH  19  22
ENDBRANCH   4  18
TORSDOF 3
