REMARK  3 active torsions:
REMARK  status: ('A' for Active; 'I' for Inactive)
REMARK    1  A    between atoms: C_2  and  C_1 
REMARK       I    between atoms: N_5  and  C_2 
REMARK    2  A    between atoms: N_7  and  N_5 
REMARK    3  A    between atoms: C_9  and  N_7 
ROOT
ATOM      1  C   UNL d   1      -1.115   2.232   0.707  0.00  0.00     0.291 C 
ATOM      2  N   UNL d   1      -0.709   3.457   0.199  0.00  0.00    -0.281 N 
ATOM      3  O   UNL d   1      -0.336   1.278   0.779  0.00  0.00    -0.264 OA
ATOM      4  H   UNL d   1      -1.364   4.208  -0.012  0.00  0.00     0.184 HD
ENDROOT
BRANCH   2   5
ATOM      5  N   UNL d   1       0.578   3.535  -0.368  0.00  0.00    -0.200 NA
ATOM      6  H   UNL d   1       1.139   2.721  -0.090  0.00  0.00     0.153 HD
BRANCH   5   7
ATOM      7  C   UNL d   1       1.254   4.755  -0.108  0.00  0.00     0.066 A 
ATOM      8  C   UNL d   1       0.612   6.004  -0.058  0.00  0.00     0.139 A 
ATOM      9  F   UNL d   1      -0.726   6.083  -0.166  0.00  0.00    -0.204 F 
ATOM     10  C   UNL d   1       1.328   7.192   0.089  0.00  0.00     0.044 A 
ATOM     11  C   UNL d   1       2.718   7.158   0.168  0.00  0.00     0.003 A 
ATOM     12  C   UNL d   1       3.383   5.936   0.091  0.00  0.00     0.002 A 
ATOM     13  C   UNL d   1       2.658   4.748  -0.061  0.00  0.00     0.028 A 
ENDBRANCH   5   7
ENDBRANCH   2   5
BRANCH   1  14
ATOM     14  C   UNL d   1      -2.487   2.162   1.141  0.00  0.00     0.168 A 
ATOM     15  O   UNL d   1      -3.264   3.283   1.118  0.00  0.00    -0.233 OA
ATOM     16  N   UNL d   1      -4.527   2.982   1.605  0.00  0.00    -0.272 N 
ATOM     17  C   UNL d   1      -4.488   1.682   1.909  0.00  0.00     0.117 A 
ATOM     18  HN  UNL d   1      -5.317   3.618   1.710  1.00  0.00     0.194 HD
ATOM     19  C   UNL d   1      -3.235   1.114   1.629  0.00  0.00     0.064 A 
ENDBRANCH   1  14
TORSDOF 3
