REMARK  1 active torsions:
REMARK  status: ('A' for Active; 'I' for Inactive)
REMARK    1  A    between atoms: C_12  and  N_3 
ROOT
ATOM      1  C   UNL d   1      -0.163  -0.794   0.100  0.00  0.00     0.060 A 
ATOM      2  C   UNL d   1       1.139  -1.418  -0.175  0.00  0.00     0.256 C 
ATOM      3  N   UNL d   1       1.968  -0.625  -0.946  0.00  0.00    -0.334 N 
ATOM      4  N   UNL d   1       0.712   1.368   1.037  0.00  0.00    -0.320 N 
ATOM      5  C   UNL d   1      -0.334   0.502   0.593  0.00  0.00     0.052 A 
ATOM      6  C   UNL d   1       1.968   1.523   0.469  0.00  0.00     0.242 C 
ATOM      7  C   UNL d   1       2.698   0.364  -0.192  0.00  0.00     0.229 C 
ATOM      8  C   UNL d   1      -1.273  -1.599  -0.232  0.00  0.00     0.043 A 
ATOM      9  C   UNL d   1      -1.660   0.986   0.665  0.00  0.00     0.032 A 
ATOM     10  O   UNL d   1       1.320  -2.611   0.056  0.00  0.00    -0.267 OA
ATOM     11  O   UNL d   1       2.613   2.566   0.662  0.00  0.00    -0.271 OA
ATOM     12  C   UNL d   1      -2.563  -1.098  -0.131  0.00  0.00     0.035 A 
ATOM     13  C   UNL d   1      -2.761   0.203   0.301  0.00  0.00     0.026 A 
ATOM     14  C   UNL d   1       0.429   2.305   2.122  0.00  0.00     0.159 C 
ATOM     15 CL   UNL d   1      -3.907  -2.072  -0.576  0.00  0.00    -0.084 Cl
ENDROOT
BRANCH   3  16
ATOM     16  C   UNL d   1       2.617  -1.283  -2.104  0.00  0.00     0.088 C 
ATOM     17  C   UNL d   1       4.133  -1.539  -2.015  0.00  0.00     0.025 C 
ATOM     18  C   UNL d   1       5.039  -0.401  -2.501  0.00  0.00     0.002 C 
ATOM     19  C   UNL d   1       4.532   0.303  -3.756  0.00  0.00     0.000 C 
ATOM     20  C   UNL d   1       3.058   0.671  -3.677  0.00  0.00     0.002 C 
ATOM     21  C   UNL d   1       2.209  -0.558  -3.393  0.00  0.00     0.025 C 
ENDBRANCH   3  16
TORSDOF 1
