REMARK  5 active torsions:
REMARK  status: ('A' for Active; 'I' for Inactive)
REMARK    1  A    between atoms: C_6  and  C_1 
REMARK    2  A    between atoms: C_13  and  N_2 
REMARK    3  A    between atoms: C_18  and  C_3 
REMARK       I    between atoms: N_8  and  C_6 
REMARK    4  A    between atoms: C_11  and  N_8 
REMARK    5  A    between atoms: C_23  and  C_18 
ROOT
ATOM      1  C   UNL d   1      -0.198   1.141   0.060  0.00  0.00     0.073 C 
ATOM      2  N   UNL d   1       0.705  -0.901   0.184  0.00  0.00    -0.260 N 
ATOM      3  C   UNL d   1       1.028   0.466   0.188  0.00  0.00     0.051 C 
ATOM      4  N   UNL d   1      -0.631  -1.093   0.311  0.00  0.00    -0.304 N 
ATOM      5  HN  UNL d   1      -1.121  -1.962   0.526  1.00  0.00     0.186 HD
ATOM      6  C   UNL d   1      -1.156   0.103   0.091  0.00  0.00     0.126 C 
ENDROOT
BRANCH   1   7
ATOM      7  C   UNL d   1      -0.609   2.547  -0.054  0.00  0.00     0.260 C 
ATOM      8  N   UNL d   1       0.373   3.492   0.140  0.00  0.00    -0.309 N 
ATOM      9  H   UNL d   1       1.292   3.183   0.386  0.00  0.00     0.170 HD
ATOM     10  O   UNL d   1      -1.783   2.791  -0.307  0.00  0.00    -0.267 OA
BRANCH   8  11
ATOM     11  C   UNL d   1       0.206   4.872  -0.047  0.00  0.00     0.108 A 
ATOM     12  N   UNL d   1      -0.989   5.381  -0.393  0.00  0.00    -0.342 N 
ATOM     13  C   UNL d   1      -1.097   6.688  -0.683  0.00  0.00     0.043 A 
ATOM     14  HN  UNL d   1      -1.810   4.777  -0.436  1.00  0.00     0.167 HD
ATOM     15  C   UNL d   1      -2.326   7.201  -1.080  0.00  0.00     0.030 A 
ATOM     16  C   UNL d   1       0.003   7.563  -0.626  0.00  0.00    -0.009 A 
ATOM     17  C   UNL d   1      -2.475   8.537  -1.464  0.00  0.00     0.002 A 
ATOM     18  C   UNL d   1      -1.377   9.391  -1.435  0.00  0.00     0.001 A 
ATOM     19  C   UNL d   1      -0.143   8.911  -1.002  0.00  0.00     0.013 A 
ATOM     20  C   UNL d   1       1.228   7.034  -0.208  0.00  0.00     0.017 A 
ATOM     21  C   UNL d   1       1.331   5.676   0.086  0.00  0.00     0.049 A 
ENDBRANCH   8  11
ENDBRANCH   1   7
BRANCH   3  22
ATOM     22  C   UNL d   1       2.422   0.966   0.431  0.00  0.00     0.060 C 
BRANCH  22  23
ATOM     23  C   UNL d   1       3.095   1.561  -0.810  0.00  0.00     0.002 C 
ATOM     24  C   UNL d   1       4.463   2.135  -0.473  0.00  0.00     0.005 C 
ENDBRANCH  22  23
ENDBRANCH   3  22
BRANCH   2  25
ATOM     25  C   UNL d   1       1.509  -2.068   0.008  0.00  0.00     0.056 A 
ATOM     26  C   UNL d   1       1.064  -3.282   0.559  0.00  0.00     0.031 A 
ATOM     27  C   UNL d   1       1.726  -4.477   0.275  0.00  0.00     0.002 A 
ATOM     28  C   UNL d   1       2.826  -4.475  -0.578  0.00  0.00     0.000 A 
ATOM     29  C   UNL d   1       3.283  -3.275  -1.118  0.00  0.00     0.002 A 
ATOM     30  C   UNL d   1       2.637  -2.070  -0.817  0.00  0.00     0.031 A 
ENDBRANCH   2  25
TORSDOF 5
