REMARK  4 active torsions:
REMARK  status: ('A' for Active; 'I' for Inactive)
REMARK    1  A    between atoms: C_2  and  S_1 
REMARK    2  A    between atoms: C_5  and  S_1 
REMARK    3  A    between atoms: S_9  and  C_3 
REMARK    4  A    between atoms: S_10  and  C_3 
ROOT
ATOM      1  C   UNL d   1       0.362  -1.573  -0.816  0.00  0.00     0.167 C 
ATOM      2  C   UNL d   1      -0.640  -2.311  -0.278  0.00  0.00     0.068 C 
ATOM      3  C   UNL d   1       0.890  -1.881  -2.099  0.00  0.00     0.114 C 
ATOM      4  N   UNL d   1       1.281  -2.080  -3.176  0.00  0.00    -0.191 NA
ENDROOT
BRANCH   1   5
ATOM      5  S   UNL d   1       0.913  -0.063  -0.128  0.00  0.00     0.218 S 
ATOM      6  O   UNL d   1       0.807  -0.078   1.318  0.00  0.00    -0.216 OA
ATOM      7  O   UNL d   1       0.336   1.026  -0.884  0.00  0.00    -0.216 OA
BRANCH   5   8
ATOM      8  C   UNL d   1       2.686   0.007  -0.441  0.00  0.00     0.065 A 
ATOM      9  C   UNL d   1       3.166   0.217  -1.737  0.00  0.00     0.025 A 
ATOM     10  C   UNL d   1       4.545   0.257  -1.967  0.00  0.00     0.025 A 
ATOM     11  C   UNL d   1       5.435   0.155  -0.898  0.00  0.00     0.034 A 
ATOM     12  C   UNL d   1       4.958   0.022   0.406  0.00  0.00     0.025 A 
ATOM     13 CL   UNL d   1       7.128   0.206  -1.187  0.00  0.00    -0.084 Cl
ATOM     14  C   UNL d   1       3.582  -0.056   0.638  0.00  0.00     0.025 A 
ENDBRANCH   5   8
ENDBRANCH   1   5
BRANCH   2  15
ATOM     15  S   UNL d   1      -1.084  -3.856  -1.035  0.00  0.00    -0.125 SA
ATOM     16  C   UNL d   1      -1.611  -4.890   0.354  0.00  0.00     0.096 C 
ENDBRANCH   2  15
BRANCH   2  17
ATOM     17  S   UNL d   1      -1.659  -1.789   1.050  0.00  0.00    -0.125 SA
ATOM     18  C   UNL d   1      -2.618  -0.494   0.220  0.00  0.00     0.096 C 
ENDBRANCH   2  17
TORSDOF 4
