REMARK  7 active torsions:
REMARK  status: ('A' for Active; 'I' for Inactive)
REMARK    1  A    between atoms: C_6  and  C_1 
REMARK    2  A    between atoms: C_2  and  C_5 
REMARK    3  A    between atoms: C_10  and  C_3 
REMARK    4  A    between atoms: C_4  and  C_8 
REMARK    5  A    between atoms: S_7  and  C_4 
REMARK    6  A    between atoms: C_9  and  S_7 
REMARK    7  A    between atoms: O_22  and  C_10 
ROOT
ATOM      1  C   UNL d   1       1.304   0.008  -1.891  0.00  0.00     0.049 A 
ATOM      2  C   UNL d   1       0.177   1.139  -3.739  0.00  0.00     0.049 A 
ATOM      3  C   UNL d   1       0.037  -1.296  -3.538  0.00  0.00     0.023 A 
ATOM      4  C   UNL d   1       0.973   1.183  -2.584  0.00  0.00     0.032 A 
ATOM      5  C   UNL d   1       0.823  -1.223  -2.374  0.00  0.00     0.032 A 
ATOM      6  C   UNL d   1      -0.290  -0.105  -4.198  0.00  0.00     0.032 A 
ENDROOT
BRANCH   3   7
ATOM      7  C   UNL d   1      -0.385  -2.651  -4.018  0.00  0.00     0.224 C 
ATOM      8  O   UNL d   1      -0.078  -3.655  -3.386  0.00  0.00    -0.279 OA
BRANCH   7   9
ATOM      9  S   UNL d   1      -1.318  -2.796  -5.508  0.00  0.00    -0.046 SA
BRANCH   9  10
ATOM     10  C   UNL d   1      -0.008  -2.907  -6.730  0.00  0.00     0.025 A 
ATOM     11  C   UNL d   1       0.060  -2.104  -7.887  0.00  0.00     0.056 A 
ATOM     12  C   UNL d   1       1.134  -2.263  -8.786  0.00  0.00     0.019 A 
ATOM     13  C   UNL d   1       2.112  -3.230  -8.567  0.00  0.00     0.001 A 
ATOM     14  C   UNL d   1       2.026  -4.055  -7.453  0.00  0.00     0.001 A 
ATOM     15  C   UNL d   1       0.974  -3.898  -6.547  0.00  0.00     0.020 A 
BRANCH  11  16
ATOM     16  C   UNL d   1      -0.948  -1.053  -8.201  0.00  0.00     0.294 C 
ATOM     17  O   UNL d   1      -1.483  -0.326  -7.382  0.00  0.00    -0.259 OA
BRANCH  16  18
ATOM     18  O   UNL d   1      -1.155  -1.024  -9.544  0.00  0.00    -0.322 OA
ATOM     19  C   UNL d   1      -2.063  -0.010  -9.979  0.00  0.00     0.213 C 
ENDBRANCH  16  18
ENDBRANCH  11  16
ENDBRANCH   9  10
ENDBRANCH   7   9
ENDBRANCH   3   7
BRANCH   2  20
ATOM     20  C   UNL d   1      -0.171   2.395  -4.506  0.00  0.00     0.417 C 
ATOM     21  F   UNL d   1       0.343   3.525  -3.946  0.00  0.00    -0.166 F 
ATOM     22  F   UNL d   1      -1.513   2.598  -4.592  0.00  0.00    -0.166 F 
ATOM     23  F   UNL d   1       0.297   2.368  -5.783  0.00  0.00    -0.166 F 
ENDBRANCH   2  20
BRANCH   1  24
ATOM     24  C   UNL d   1       2.162   0.056  -0.646  0.00  0.00     0.417 C 
ATOM     25  F   UNL d   1       2.731   1.274  -0.432  0.00  0.00    -0.166 F 
ATOM     26  F   UNL d   1       1.458  -0.233   0.481  0.00  0.00    -0.166 F 
ATOM     27  F   UNL d   1       3.192  -0.833  -0.689  0.00  0.00    -0.166 F 
ENDBRANCH   1  24
TORSDOF 7
