REMARK  1 active torsions:
REMARK  status: ('A' for Active; 'I' for Inactive)
REMARK    1  A    between atoms: C_8  and  C_3 
ROOT
ATOM      1  N   UNL d   1      -1.797  -1.597   0.052  0.00  0.00    -0.296 N 
ATOM      2  HN  UNL d   1      -2.515  -2.322   0.033  1.00  0.00     0.187 HD
ATOM      3  C   UNL d   1      -0.539  -1.908  -0.068  0.00  0.00     0.069 A 
ATOM      4  N   UNL d   1      -2.138  -0.292   0.201  0.00  0.00    -0.265 N 
ATOM      5  C   UNL d   1       0.539  -0.880  -0.089  0.00  0.00     0.009 A 
ATOM      6  C   UNL d   1      -1.269   0.765   0.288  0.00  0.00     0.271 A 
ATOM      7  C   UNL d   1       0.156   0.444   0.127  0.00  0.00     0.046 A 
ATOM      8  O   UNL d   1      -1.652   1.916   0.472  0.00  0.00    -0.266 OA
ATOM      9  C   UNL d   1       1.889  -1.158  -0.343  0.00  0.00     0.015 A 
ATOM     10  C   UNL d   1       1.106   1.474   0.150  0.00  0.00     0.018 A 
ATOM     11  C   UNL d   1       2.841  -0.133  -0.313  0.00  0.00     0.001 A 
ATOM     12  C   UNL d   1       2.452   1.181  -0.058  0.00  0.00     0.001 A 
ATOM     13  H   UNL d   1      -3.128  -0.090   0.307  0.00  0.00     0.190 HD
ENDROOT
BRANCH   3  14
ATOM     14  C   UNL d   1      -0.240  -3.366  -0.189  0.00  0.00    -0.005 A 
ATOM     15  C   UNL d   1       0.738  -3.985   0.598  0.00  0.00     0.040 A 
ATOM     16  C   UNL d   1       0.966  -5.356   0.460  0.00  0.00     0.073 A 
ATOM     17 CL   UNL d   1       2.210  -6.099   1.391  0.00  0.00    -0.081 Cl
ATOM     18  C   UNL d   1       0.196  -6.110  -0.425  0.00  0.00     0.138 A 
ATOM     19  C   UNL d   1      -0.808  -5.508  -1.177  0.00  0.00     0.045 A 
ATOM     20  F   UNL d   1       0.403  -7.427  -0.563  0.00  0.00    -0.204 F 
ATOM     21  C   UNL d   1      -1.028  -4.135  -1.058  0.00  0.00     0.017 A 
ENDBRANCH   3  14
TORSDOF 1
