REMARK  6 active torsions:
REMARK  status: ('A' for Active; 'I' for Inactive)
REMARK    1  A    between atoms: C_8  and  C_1 
REMARK    2  A    between atoms: C_9  and  C_2 
REMARK    3  A    between atoms: C_11  and  C_6 
REMARK    4  A    between atoms: C_7  and  C_12 
REMARK    5  A    between atoms: O_13  and  C_7 
REMARK    6  A    between atoms: C_12  and  C_11 
ROOT
ATOM      1  C   UNL d   1      -0.817  -1.015   0.094  0.00  0.00     0.079 A 
ATOM      2  C   UNL d   1       0.564  -1.040  -0.006  0.00  0.00     0.115 A 
ATOM      3  N   UNL d   1      -1.263   0.289   0.099  0.00  0.00    -0.337 N 
ATOM      4  HN  UNL d   1      -2.226   0.624   0.139  1.00  0.00     0.168 HD
ATOM      5  O   UNL d   1       0.995   0.263  -0.006  0.00  0.00    -0.295 OA
ATOM      6  C   UNL d   1      -0.157   1.000   0.043  0.00  0.00     0.125 A 
ENDROOT
BRANCH   1   7
ATOM      7  C   UNL d   1      -1.720  -2.154   0.166  0.00  0.00    -0.007 A 
ATOM      8  C   UNL d   1      -1.362  -3.342   0.822  0.00  0.00     0.014 A 
ATOM      9  C   UNL d   1      -2.211  -4.450   0.809  0.00  0.00     0.001 A 
ATOM     10  C   UNL d   1      -3.449  -4.368   0.180  0.00  0.00     0.000 A 
ATOM     11  C   UNL d   1      -3.841  -3.178  -0.432  0.00  0.00     0.001 A 
ATOM     12  C   UNL d   1      -2.980  -2.077  -0.440  0.00  0.00     0.014 A 
ENDBRANCH   1   7
BRANCH   2  13
ATOM     13  C   UNL d   1       1.589  -2.071  -0.105  0.00  0.00     0.000 A 
ATOM     14  C   UNL d   1       1.372  -3.212  -0.895  0.00  0.00     0.014 A 
ATOM     15  C   UNL d   1       2.265  -4.285  -0.864  0.00  0.00     0.001 A 
ATOM     16  C   UNL d   1       3.409  -4.212  -0.075  0.00  0.00     0.000 A 
ATOM     17  C   UNL d   1       3.669  -3.061   0.667  0.00  0.00     0.001 A 
ATOM     18  C   UNL d   1       2.765  -1.993   0.651  0.00  0.00     0.014 A 
ENDBRANCH   2  13
BRANCH   6  19
ATOM     19  C   UNL d   1      -0.021   2.478   0.050  0.00  0.00     0.095 C 
BRANCH  19  20
ATOM     20  C   UNL d   1      -0.761   3.073   1.244  0.00  0.00     0.118 C 
BRANCH  20  21
ATOM     21  C   UNL d   1      -0.662   4.573   1.254  0.00  0.00     0.139 C 
ATOM     22  O   UNL d   1      -0.054   5.245   0.436  0.00  0.00    -0.650 OA
BRANCH  21  23
ATOM     23  O   UNL d   1      -1.329   5.127   2.293  0.00  0.00    -0.776 OA
ATOM     24  H   UNL d   1      -1.778   4.478   2.868  0.00  0.00     0.167 HD
ENDBRANCH  21  23
ENDBRANCH  20  21
ENDBRANCH  19  20
ENDBRANCH   6  19
TORSDOF 6
