REMARK  5 active torsions:
REMARK  status: ('A' for Active; 'I' for Inactive)
REMARK    1  A    between atoms: N_9  and  C_3 
REMARK    2  A    between atoms: C_7  and  C_4 
REMARK    3  A    between atoms: C_10  and  C_14 
REMARK    4  A    between atoms: C_20  and  C_10 
REMARK    5  A    between atoms: C_21  and  C_10 
ROOT
ATOM      1  N   UNL d   1       3.600  -1.396  -0.171  0.00  0.00    -0.380 N 
ATOM      2  C   UNL d   1       3.772  -2.192  -1.395  0.00  0.00     0.123 C 
ATOM      3  C   UNL d   1       4.621  -1.563   0.871  0.00  0.00     0.123 C 
ATOM      4  C   UNL d   1       6.277  -2.345  -0.916  0.00  0.00     0.001 C 
ATOM      5  C   UNL d   1       6.020  -1.395   0.276  0.00  0.00     0.025 C 
ATOM      6  C   UNL d   1       5.182  -2.047  -1.960  0.00  0.00     0.025 C 
ENDROOT
BRANCH   1   7
ATOM      7  C   UNL d   1       2.550  -0.482  -0.043  0.00  0.00     0.045 A 
ATOM      8  C   UNL d   1       1.223  -0.713  -0.535  0.00  0.00     0.019 A 
ATOM      9  C   UNL d   1       0.293   0.357  -0.503  0.00  0.00     0.067 A 
ATOM     10  C   UNL d   1       0.761  -1.962  -1.032  0.00  0.00     0.016 A 
ATOM     11  N   UNL d   1       0.595   1.541   0.065  0.00  0.00    -0.350 N 
ATOM     12  C   UNL d   1      -0.973   0.163  -1.080  0.00  0.00     0.061 A 
ATOM     13  C   UNL d   1       1.819   1.741   0.606  0.00  0.00     0.119 A 
ATOM     14  HN  UNL d   1      -0.100   2.288   0.087  1.00  0.00     0.166 HD
ATOM     15  C   UNL d   1       2.805   0.764   0.550  0.00  0.00     0.064 A 
ATOM     16 CL   UNL d   1      -2.143   1.447  -1.110  0.00  0.00    -0.082 Cl
ATOM     17  C   UNL d   1      -1.360  -1.050  -1.656  0.00  0.00     0.026 A 
ATOM     18  C   UNL d   1      -0.495  -2.126  -1.613  0.00  0.00     0.003 A 
BRANCH  13  19
ATOM     19  C   UNL d   1       2.131   3.071   1.278  0.00  0.00     0.432 C 
ATOM     20  F   UNL d   1       1.122   3.985   1.223  0.00  0.00    -0.165 F 
ATOM     21  F   UNL d   1       2.426   2.925   2.605  0.00  0.00    -0.165 F 
ATOM     22  F   UNL d   1       3.220   3.688   0.733  0.00  0.00    -0.165 F 
ENDBRANCH  13  19
ENDBRANCH   1   7
BRANCH   4  23
ATOM     23  C   UNL d   1       6.338  -3.865  -0.520  0.00  0.00     0.056 C 
BRANCH  23  24
ATOM     24  C   UNL d   1       6.551  -4.774  -1.735  0.00  0.00    -0.049 A 
ATOM     25  C   UNL d   1       7.676  -4.644  -2.561  0.00  0.00     0.008 A 
ATOM     26  C   UNL d   1       7.853  -5.476  -3.669  0.00  0.00     0.001 A 
ATOM     27  C   UNL d   1       6.905  -6.457  -3.961  0.00  0.00     0.000 A 
ATOM     28  C   UNL d   1       5.785  -6.606  -3.147  0.00  0.00     0.001 A 
ATOM     29  C   UNL d   1       5.608  -5.773  -2.038  0.00  0.00     0.008 A 
ENDBRANCH  23  24
BRANCH  23  30
ATOM     30  C   UNL d   1       7.334  -4.217   0.587  0.00  0.00    -0.049 A 
ATOM     31  C   UNL d   1       7.022  -5.259   1.480  0.00  0.00     0.008 A 
ATOM     32  C   UNL d   1       7.904  -5.618   2.501  0.00  0.00     0.001 A 
ATOM     33  C   UNL d   1       9.114  -4.946   2.644  0.00  0.00     0.000 A 
ATOM     34  C   UNL d   1       9.449  -3.925   1.757  0.00  0.00     0.001 A 
ATOM     35  C   UNL d   1       8.572  -3.571   0.730  0.00  0.00     0.008 A 
ENDBRANCH  23  30
ENDBRANCH   4  23
TORSDOF 5
