REMARK  5 active torsions:
REMARK  status: ('A' for Active; 'I' for Inactive)
REMARK       I    between atoms: N_3  and  C_1 
REMARK       I    between atoms: N_5  and  C_1 
REMARK    1  A    between atoms: C_2  and  C_4 
REMARK    2  A    between atoms: O_15  and  C_2 
REMARK    3  A    between atoms: C_10  and  N_3 
REMARK    4  A    between atoms: C_14  and  N_5 
REMARK    5  A    between atoms: C_6  and  C_7 
ROOT
ATOM      1  C   UNL d   1       1.146  -2.105  -0.824  0.00  0.00     0.325 C 
ATOM      2  N   UNL d   1       2.448  -1.810  -0.442  0.00  0.00    -0.309 N 
ATOM      3  N   UNL d   1       0.313  -1.007  -0.701  0.00  0.00    -0.309 N 
ATOM      4  O   UNL d   1       0.782  -3.214  -1.198  0.00  0.00    -0.247 OA
ATOM      5  H   UNL d   1       2.560  -1.001   0.152  0.00  0.00     0.170 HD
ATOM      6  H   UNL d   1       0.748  -0.097  -0.725  0.00  0.00     0.170 HD
ENDROOT
BRANCH   2   7
ATOM      7  C   UNL d   1       3.495  -2.763  -0.429  0.00  0.00     0.037 A 
ATOM      8  C   UNL d   1       3.453  -3.931  -1.196  0.00  0.00     0.048 A 
ATOM      9  C   UNL d   1       4.413  -4.931  -1.029  0.00  0.00     0.039 A 
ATOM     10  C   UNL d   1       5.491  -4.717  -0.168  0.00  0.00     0.018 A 
ATOM     11  C   UNL d   1       5.588  -3.516   0.536  0.00  0.00     0.003 A 
ATOM     12  C   UNL d   1       4.590  -2.543   0.411  0.00  0.00     0.029 A 
BRANCH   9  13
ATOM     13  C   UNL d   1       4.316  -6.219  -1.758  0.00  0.00     0.176 C 
ATOM     14  O   UNL d   1       5.300  -6.869  -2.072  0.00  0.00    -0.646 OA
BRANCH  13  15
ATOM     15  O   UNL d   1       3.053  -6.637  -1.984  0.00  0.00    -0.773 OA
ATOM     16  H   UNL d   1       2.346  -6.101  -1.576  0.00  0.00     0.167 HD
ENDBRANCH  13  15
ENDBRANCH   9  13
ENDBRANCH   2   7
BRANCH   3  17
ATOM     17  C   UNL d   1      -1.097  -1.047  -0.815  0.00  0.00     0.036 A 
ATOM     18  C   UNL d   1      -1.831  -2.229  -0.740  0.00  0.00     0.030 A 
ATOM     19  C   UNL d   1      -3.224  -2.218  -0.845  0.00  0.00     0.010 A 
ATOM     20  C   UNL d   1      -3.938  -1.022  -1.014  0.00  0.00    -0.051 A 
ATOM     21  C   UNL d   1      -3.188   0.164  -1.086  0.00  0.00     0.010 A 
ATOM     22  C   UNL d   1      -1.787   0.153  -0.980  0.00  0.00     0.030 A 
BRANCH  20  23
ATOM     23  C   UNL d   1      -5.473  -1.059  -1.085  0.00  0.00    -0.024 C 
ATOM     24  C   UNL d   1      -6.117   0.334  -1.244  0.00  0.00     0.019 C 
ATOM     25  C   UNL d   1      -5.924  -1.919  -2.287  0.00  0.00     0.019 C 
ATOM     26  C   UNL d   1      -6.033  -1.679   0.215  0.00  0.00     0.019 C 
ENDBRANCH  20  23
ENDBRANCH   3  17
TORSDOF 5
