REMARK  5 active torsions:
REMARK  status: ('A' for Active; 'I' for Inactive)
REMARK    1  A    between atoms: C_2  and  S_1 
REMARK    2  A    between atoms: N_4  and  S_1 
REMARK    3  A    between atoms: C_5  and  C_3 
REMARK    4  A    between atoms: C_13  and  N_4 
REMARK    5  A    between atoms: O_19  and  C_5 
ROOT
ATOM      1  S   UNL d   1       0.839  -0.033  -0.097  0.00  0.00     0.264 S 
ATOM      2  O   UNL d   1       0.609  -1.235   0.674  0.00  0.00    -0.200 OA
ATOM      3  O   UNL d   1       2.160   0.550  -0.199  0.00  0.00    -0.200 OA
ENDROOT
BRANCH   1   4
ATOM      4  C   UNL d   1      -0.127   1.165   0.715  0.00  0.00     0.103 A 
ATOM      5  C   UNL d   1      -1.494   1.085   0.960  0.00  0.00     0.103 A 
ATOM      6  S   UNL d   1      -2.018   2.472   1.856  0.00  0.00    -0.094 SA
ATOM      7  C   UNL d   1      -0.460   3.157   1.885  0.00  0.00     0.052 A 
ATOM      8  C   UNL d   1       0.457   2.366   1.238  0.00  0.00     0.034 A 
BRANCH   5   9
ATOM      9  C   UNL d   1      -2.519   0.105   0.633  0.00  0.00     0.301 C 
ATOM     10  O   UNL d   1      -3.694   0.162   0.981  0.00  0.00    -0.259 OA
BRANCH   9  11
ATOM     11  O   UNL d   1      -2.026  -0.886  -0.159  0.00  0.00    -0.322 OA
ATOM     12  C   UNL d   1      -2.955  -1.903  -0.557  0.00  0.00     0.213 C 
ENDBRANCH   9  11
ENDBRANCH   5   9
ENDBRANCH   1   4
BRANCH   1  13
ATOM     13  N   UNL d   1       0.200  -0.280  -1.627  0.00  0.00    -0.280 N 
ATOM     14  H   UNL d   1      -0.012  -1.264  -1.778  0.00  0.00     0.179 HD
BRANCH  13  15
ATOM     15  C   UNL d   1       0.723   0.430  -2.739  0.00  0.00     0.045 A 
ATOM     16  C   UNL d   1       0.031   1.543  -3.208  0.00  0.00     0.069 A 
ATOM     17  C   UNL d   1       0.407   2.118  -4.421  0.00  0.00     0.104 A 
ATOM     18  O   UNL d   1      -0.389   3.129  -4.895  0.00  0.00    -0.346 OA
ATOM     19  C   UNL d   1       1.515   1.632  -5.125  0.00  0.00     0.102 A 
ATOM     20  C   UNL d   1      -0.263   3.229  -6.318  0.00  0.00     0.202 C 
ATOM     21  C   UNL d   1       1.204   3.316  -6.707  0.00  0.00     0.202 C 
ATOM     22  O   UNL d   1       1.916   2.128  -6.338  0.00  0.00    -0.346 OA
ATOM     23  C   UNL d   1       2.242   0.554  -4.619  0.00  0.00     0.042 A 
ATOM     24  C   UNL d   1       1.839  -0.055  -3.425  0.00  0.00     0.033 A 
ENDBRANCH  13  15
ENDBRANCH   1  13
TORSDOF 5
