REMARK  6 active torsions:
REMARK  status: ('A' for Active; 'I' for Inactive)
REMARK       I    between atoms: N_3  and  C_1 
REMARK    1  A    between atoms: C_5  and  C_1 
REMARK       I    between atoms: C_2  and  N_4 
REMARK    2  A    between atoms: C_14  and  C_2 
REMARK    3  A    between atoms: N_4  and  N_3 
REMARK    4  A    between atoms: N_7  and  C_6 
REMARK    5  A    between atoms: O_15  and  C_14 
REMARK    6  A    between atoms: C_16  and  O_15 
ROOT
ATOM      1  C   UNL d   1       1.085  -0.609   0.248  0.00  0.00     0.270 C 
ATOM      2  N   UNL d   1       0.356   0.260   1.047  0.00  0.00    -0.263 N 
ATOM      3  O   UNL d   1       2.286  -0.774   0.445  0.00  0.00    -0.266 OA
ATOM      4  H   UNL d   1       0.859   0.685   1.824  0.00  0.00     0.190 HD
ENDROOT
BRANCH   2   5
ATOM      5  N   UNL d   1      -1.017   0.487   0.967  0.00  0.00    -0.265 N 
ATOM      6  C   UNL d   1      -1.642   1.288   0.033  0.00  0.00     0.260 C 
ATOM      7  O   UNL d   1      -2.850   1.499   0.161  0.00  0.00    -0.269 OA
ATOM      8  H   UNL d   1      -1.594   0.178   1.743  0.00  0.00     0.190 HD
BRANCH   6   9
ATOM      9  C   UNL d   1      -0.814   1.832  -1.138  0.00  0.00     0.280 C 
BRANCH   9  10
ATOM     10  O   UNL d   1      -1.344   3.007  -1.735  0.00  0.00    -0.342 OA
BRANCH  10  11
ATOM     11  C   UNL d   1      -1.983   2.859  -2.934  0.00  0.00     0.069 A 
ATOM     12  C   UNL d   1      -2.715   1.737  -3.338  0.00  0.00     0.037 A 
ATOM     13  C   UNL d   1      -3.368   1.740  -4.572  0.00  0.00     0.003 A 
ATOM     14  C   UNL d   1      -3.303   2.855  -5.405  0.00  0.00     0.000 A 
ATOM     15  C   UNL d   1      -2.575   3.973  -5.005  0.00  0.00     0.003 A 
ATOM     16  C   UNL d   1      -1.923   3.972  -3.772  0.00  0.00     0.037 A 
ENDBRANCH  10  11
ENDBRANCH   9  10
ENDBRANCH   6   9
ENDBRANCH   2   5
BRANCH   1  17
ATOM     17  C   UNL d   1       0.441  -1.226  -0.933  0.00  0.00     0.033 A 
ATOM     18  C   UNL d   1       1.046  -1.047  -2.175  0.00  0.00     0.019 A 
ATOM     19  C   UNL d   1       0.324  -1.323  -3.347  0.00  0.00     0.030 A 
ATOM     20  C   UNL d   1      -1.009  -1.774  -3.332  0.00  0.00     0.029 A 
ATOM     21  C   UNL d   1      -1.523  -2.073  -2.054  0.00  0.00     0.030 A 
ATOM     22  C   UNL d   1      -0.814  -1.813  -0.871  0.00  0.00     0.019 A 
BRANCH  20  23
ATOM     23  N   UNL d   1      -1.783  -1.857  -4.479  0.00  0.00    -0.390 N 
ATOM     24  C   UNL d   1      -3.136  -2.414  -4.505  0.00  0.00     0.149 C 
ATOM     25  C   UNL d   1      -1.285  -1.492  -5.807  0.00  0.00     0.149 C 
ENDBRANCH  20  23
ENDBRANCH   1  17
TORSDOF 6
