REMARK  6 active torsions:
REMARK  status: ('A' for Active; 'I' for Inactive)
REMARK    1  A    between atoms: S_11  and  C_1 
REMARK    2  A    between atoms: C_9  and  C_4 
REMARK    3  A    between atoms: C_8  and  C_5 
REMARK    4  A    between atoms: O_18  and  C_9 
REMARK    5  A    between atoms: C_17  and  S_11 
REMARK    6  A    between atoms: C_25  and  O_18 
ROOT
ATOM      1  C   UNL d   1       1.093  -0.889   0.202  0.00  0.00     0.094 A 
ATOM      2  N   UNL d   1       1.252   0.456   0.178  0.00  0.00    -0.335 N 
ATOM      3  HN  UNL d   1       2.179   0.880   0.186  1.00  0.00     0.168 HD
ATOM      4  C   UNL d   1      -0.157  -1.479   0.180  0.00  0.00     0.088 A 
ATOM      5  C   UNL d   1       0.140   1.209   0.144  0.00  0.00     0.123 A 
ATOM      6  N   UNL d   1      -1.116   0.726   0.135  0.00  0.00    -0.350 N 
ATOM      7  HN  UNL d   1      -1.931   1.339   0.109  1.00  0.00     0.166 HD
ATOM      8  C   UNL d   1      -1.233  -0.619   0.161  0.00  0.00     0.110 A 
ENDROOT
BRANCH   1   9
ATOM      9  S   UNL d   1       2.619  -1.811   0.194  0.00  0.00    -0.072 SA
BRANCH   9  10
ATOM     10  C   UNL d   1       3.178  -1.807   1.889  0.00  0.00     0.007 A 
ATOM     11  C   UNL d   1       3.930  -2.912   2.317  0.00  0.00     0.020 A 
ATOM     12  C   UNL d   1       4.473  -2.957   3.606  0.00  0.00     0.025 A 
ATOM     13  C   UNL d   1       4.265  -1.894   4.478  0.00  0.00     0.034 A 
ATOM     14  C   UNL d   1       3.520  -0.790   4.072  0.00  0.00     0.025 A 
ATOM     15 CL   UNL d   1       4.949  -1.936   6.056  0.00  0.00    -0.084 Cl
ATOM     16  C   UNL d   1       2.982  -0.744   2.779  0.00  0.00     0.020 A 
ENDBRANCH   9  10
ENDBRANCH   1   9
BRANCH   4  17
ATOM     17  C   UNL d   1      -0.424  -2.913   0.222  0.00  0.00     0.297 C 
ATOM     18  O   UNL d   1      -1.177  -3.417   1.039  0.00  0.00    -0.259 OA
BRANCH  17  19
ATOM     19  O   UNL d   1       0.193  -3.529  -0.810  0.00  0.00    -0.318 OA
BRANCH  19  20
ATOM     20  C   UNL d   1       0.061  -4.958  -0.851  0.00  0.00     0.174 C 
ATOM     21  C   UNL d   1      -1.229  -5.368  -1.538  0.00  0.00     0.034 C 
ENDBRANCH  19  20
ENDBRANCH  17  19
ENDBRANCH   4  17
BRANCH   5  22
ATOM     22  C   UNL d   1       0.278   2.668   0.123  0.00  0.00     0.049 A 
ATOM     23  S   UNL d   1       1.821   3.418   0.254  0.00  0.00    -0.098 SA
ATOM     24  C   UNL d   1       1.155   4.988   0.154  0.00  0.00     0.050 A 
ATOM     25  C   UNL d   1      -0.214   4.960   0.026  0.00  0.00     0.009 A 
ATOM     26  C   UNL d   1      -0.717   3.627   0.011  0.00  0.00     0.023 A 
ENDBRANCH   5  22
TORSDOF 6
