REMARK  3 active torsions:
REMARK  status: ('A' for Active; 'I' for Inactive)
REMARK    1  A    between atoms: C_2  and  C_1 
REMARK    2  A    between atoms: O_8  and  C_5 
REMARK    3  A    between atoms: C_12  and  O_8 
ROOT
ATOM      1  C   UNL d   1       0.451  -1.325   0.311  0.00  0.00     0.063 A 
ATOM      2  N   UNL d   1      -1.107  -2.776   1.449  0.00  0.00    -0.346 N 
ATOM      3  HN  UNL d   1      -1.945  -2.898   2.018  1.00  0.00     0.167 HD
ATOM      4  C   UNL d   1      -0.390  -3.837   1.012  0.00  0.00     0.147 A 
ATOM      5  C   UNL d   1      -0.665  -1.548   1.099  0.00  0.00     0.106 A 
ATOM      6  C   UNL d   1       1.140  -2.445  -0.172  0.00  0.00     0.022 A 
ATOM      7  C   UNL d   1       0.710  -3.724   0.178  0.00  0.00     0.057 A 
ENDROOT
BRANCH   4   8
ATOM      8  O   UNL d   1      -0.757  -5.119   1.397  0.00  0.00    -0.294 OA
BRANCH   8   9
ATOM      9  C   UNL d   1      -1.315  -5.276   2.647  0.00  0.00     0.077 A 
ATOM     10  C   UNL d   1      -2.296  -6.263   2.774  0.00  0.00     0.039 A 
ATOM     11  C   UNL d   1      -2.900  -6.495   4.012  0.00  0.00     0.022 A 
ATOM     12  C   UNL d   1      -2.514  -5.744   5.122  0.00  0.00     0.011 A 
ATOM     13  C   UNL d   1      -1.514  -4.781   5.011  0.00  0.00     0.022 A 
ATOM     14 BR   UNL d   1      -3.349  -6.035   6.792  0.00  0.00    -0.051 Br
ATOM     15  C   UNL d   1      -0.901  -4.561   3.776  0.00  0.00     0.039 A 
ENDBRANCH   8   9
ENDBRANCH   4   8
BRANCH   1  16
ATOM     16  C   UNL d   1       0.909   0.071   0.015  0.00  0.00     0.418 C 
ATOM     17  F   UNL d   1       0.140   1.032   0.598  0.00  0.00    -0.166 F 
ATOM     18  F   UNL d   1       0.909   0.349  -1.317  0.00  0.00    -0.166 F 
ATOM     19  F   UNL d   1       2.180   0.301   0.447  0.00  0.00    -0.166 F 
ENDBRANCH   1  16
TORSDOF 3
