REMARK  4 active torsions:
REMARK  status: ('A' for Active; 'I' for Inactive)
REMARK    1  A    between atoms: C_2  and  C_1 
REMARK       I    between atoms: N_5  and  C_1 
REMARK    2  A    between atoms: C_3  and  C_2 
REMARK    3  A    between atoms: C_4  and  C_2 
REMARK    4  A    between atoms: C_6  and  N_5 
ROOT
ATOM      1  C   UNL d   1       0.909  -0.117  -0.071  0.00  0.00     0.244 C 
ATOM      2  N   UNL d   1       0.177   0.499  -1.067  0.00  0.00    -0.326 N 
ATOM      3  O   UNL d   1       0.406  -0.588   0.957  0.00  0.00    -0.272 OA
ATOM      4  H   UNL d   1       0.550   0.473  -2.009  0.00  0.00     0.169 HD
ENDROOT
BRANCH   1   5
ATOM      5  C   UNL d   1       2.391  -0.164  -0.222  0.00  0.00     0.292 C 
BRANCH   5   6
ATOM      6  C   UNL d   1       2.875  -0.640  -1.552  0.00  0.00     0.408 C 
ATOM      7  F   UNL d   1       1.849  -0.953  -2.383  0.00  0.00    -0.170 F 
ATOM      8  F   UNL d   1       3.640   0.234  -2.232  0.00  0.00    -0.170 F 
ATOM      9  F   UNL d   1       3.608  -1.773  -1.419  0.00  0.00    -0.170 F 
ENDBRANCH   5   6
BRANCH   5  10
ATOM     10  C   UNL d   1       2.975   1.139   0.207  0.00  0.00     0.408 C 
ATOM     11  F   UNL d   1       2.091   1.904   0.885  0.00  0.00    -0.170 F 
ATOM     12  F   UNL d   1       4.013   0.925   1.053  0.00  0.00    -0.170 F 
ATOM     13  F   UNL d   1       3.438   1.908  -0.797  0.00  0.00    -0.170 F 
ENDBRANCH   5  10
ENDBRANCH   1   5
BRANCH   2  14
ATOM     14  C   UNL d   1      -1.203   0.779  -0.965  0.00  0.00     0.040 A 
ATOM     15  C   UNL d   1      -2.034   0.646  -2.092  0.00  0.00    -0.035 A 
ATOM     16  C   UNL d   1      -1.601   0.002  -3.380  0.00  0.00     0.050 C 
ATOM     17  C   UNL d   1      -3.379   1.053  -1.998  0.00  0.00     0.009 A 
ATOM     18  C   UNL d   1      -3.896   1.557  -0.805  0.00  0.00     0.001 A 
ATOM     19  C   UNL d   1      -3.083   1.645   0.317  0.00  0.00     0.002 A 
ATOM     20  C   UNL d   1      -1.743   1.258   0.240  0.00  0.00     0.030 A 
ENDBRANCH   2  14
TORSDOF 4
