REMARK  8 active torsions:
REMARK  status: ('A' for Active; 'I' for Inactive)
REMARK    1  A    between atoms: C_2  and  S_1 
REMARK    2  A    between atoms: N_8  and  S_1 
REMARK    3  A    between atoms: C_11  and  N_4 
REMARK    4  A    between atoms: N_5  and  C_19 
REMARK    5  A    between atoms: C_22  and  N_8 
REMARK    6  A    between atoms: C_18  and  C_11 
REMARK    7  A    between atoms: C_19  and  C_20 
REMARK    8  A    between atoms: C_20  and  C_22 
ROOT
ATOM      1  C   UNL d   1       4.672  -2.353   0.095  0.00  0.00     0.050 C 
ENDROOT
BRANCH   1   2
ATOM      2  C   UNL d   1       5.139  -2.336  -1.368  0.00  0.00     0.274 C 
BRANCH   2   3
ATOM      3  N   UNL d   1       6.603  -2.346  -1.505  0.00  0.00     0.091 N 
ATOM      4  C   UNL d   1       7.213  -3.610  -1.037  0.00  0.00     0.302 C 
ATOM      5  C   UNL d   1       7.013  -4.813  -1.993  0.00  0.00     0.303 C 
ATOM      6  N   UNL d   1       7.443  -4.560  -3.386  0.00  0.00     0.096 N 
ATOM      7  C   UNL d   1       6.818  -3.302  -3.851  0.00  0.00     0.303 C 
ATOM      8  C   UNL d   1       7.015  -2.096  -2.903  0.00  0.00     0.302 C 
BRANCH   6   9
ATOM      9  C   UNL d   1       8.917  -4.529  -3.455  0.00  0.00     0.311 C 
BRANCH   9  10
ATOM     10  C   UNL d   1       9.471  -4.289  -4.841  0.00  0.00    -0.030 A 
ATOM     11  C   UNL d   1      10.243  -3.147  -5.104  0.00  0.00     0.009 A 
ATOM     12  C   UNL d   1      10.756  -2.920  -6.381  0.00  0.00     0.001 A 
ATOM     13  C   UNL d   1      10.505  -3.832  -7.404  0.00  0.00     0.000 A 
ATOM     14  C   UNL d   1       9.739  -4.970  -7.153  0.00  0.00     0.001 A 
ATOM     15  C   UNL d   1       9.224  -5.198  -5.877  0.00  0.00     0.009 A 
ENDBRANCH   9  10
ENDBRANCH   6   9
ENDBRANCH   2   3
ENDBRANCH   1   2
BRANCH   1  16
ATOM     16  C   UNL d   1       5.330  -1.231   0.889  0.00  0.00     0.134 C 
BRANCH  16  17
ATOM     17  N   UNL d   1       4.837  -1.235   2.272  0.00  0.00    -0.315 N 
ATOM     18  H   UNL d   1       3.840  -1.386   2.431  0.00  0.00     0.172 HD
BRANCH  17  19
ATOM     19  S   UNL d   1       5.473  -0.072   3.315  0.00  0.00     0.260 S 
ATOM     20  O   UNL d   1       4.707  -0.102   4.539  0.00  0.00    -0.200 OA
ATOM     21  O   UNL d   1       6.909  -0.244   3.325  0.00  0.00    -0.200 OA
BRANCH  19  22
ATOM     22  C   UNL d   1       5.114   1.453   2.479  0.00  0.00     0.102 A 
ATOM     23  C   UNL d   1       3.801   1.808   2.136  0.00  0.00     0.079 A 
ATOM     24  C   UNL d   1       3.599   2.989   1.403  0.00  0.00     0.057 A 
ATOM     25 CL   UNL d   1       2.438   0.810   2.538  0.00  0.00    -0.081 Cl
ATOM     26 CL   UNL d   1       2.029   3.510   0.890  0.00  0.00    -0.083 Cl
ATOM     27  C   UNL d   1       4.682   3.794   1.030  0.00  0.00     0.026 A 
ATOM     28  C   UNL d   1       5.980   3.433   1.381  0.00  0.00     0.003 A 
ATOM     29  C   UNL d   1       6.198   2.264   2.105  0.00  0.00     0.027 A 
ENDBRANCH  19  22
ENDBRANCH  17  19
ENDBRANCH  16  17
ENDBRANCH   1  16
TORSDOF 8
