REMARK  3 active torsions:
REMARK  status: ('A' for Active; 'I' for Inactive)
REMARK    1  A    between atoms: N_2  and  C_1 
REMARK    2  A    between atoms: S_4  and  C_1 
REMARK    3  A    between atoms: C_5  and  N_2 
ROOT
ATOM      1  C   UNL d   1       1.038   1.810   1.909  0.00  0.00     0.033 A 
ATOM      2  C   UNL d   1       2.038   3.554   3.861  0.00  0.00     0.011 A 
ATOM      3 BR   UNL d   1       2.724   4.726   5.174  0.00  0.00    -0.051 Br
ATOM      4  C   UNL d   1       0.787   1.576   3.267  0.00  0.00     0.031 A 
ATOM      5  C   UNL d   1       1.815   2.914   1.545  0.00  0.00     0.031 A 
ATOM      6  C   UNL d   1       2.316   3.782   2.516  0.00  0.00     0.021 A 
ATOM      7  C   UNL d   1       1.271   2.455   4.241  0.00  0.00     0.021 A 
ENDROOT
BRANCH   1   8
ATOM      8  N   UNL d   1       0.572   0.856   0.984  0.00  0.00    -0.342 N 
ATOM      9  H   UNL d   1       0.386  -0.071   1.349  0.00  0.00     0.167 HD
BRANCH   8  10
ATOM     10  C   UNL d   1       0.332   0.972  -0.365  0.00  0.00     0.138 C 
ATOM     11  S   UNL d   1      -0.017   2.346  -1.249  0.00  0.00    -0.053 SA
BRANCH  10  12
ATOM     12  S   UNL d   1       0.293  -0.652  -1.044  0.00  0.00    -0.105 SA
ATOM     13  C   UNL d   1       1.479  -0.448  -2.399  0.00  0.00     0.098 C 
ENDBRANCH  10  12
ENDBRANCH   8  10
ENDBRANCH   1   8
TORSDOF 3
