REMARK  4 active torsions:
REMARK  status: ('A' for Active; 'I' for Inactive)
REMARK    1  A    between atoms: N_3  and  C_2 
REMARK       I    between atoms: C_10  and  N_3 
REMARK    2  A    between atoms: C_9  and  C_7 
REMARK    3  A    between atoms: O_22  and  C_8 
REMARK    4  A    between atoms: C_13  and  C_10 
ROOT
ATOM      1  C   UNL d   1      -0.058  -0.646   0.081  0.00  0.00     0.051 A 
ATOM      2  C   UNL d   1       1.355  -0.891  -0.064  0.00  0.00     0.056 A 
ATOM      3  N   UNL d   1      -1.846   0.980  -0.129  0.00  0.00    -0.351 N 
ATOM      4  HN  UNL d   1      -2.138   1.934  -0.339  1.00  0.00     0.166 HD
ATOM      5  C   UNL d   1      -0.546   0.646  -0.189  0.00  0.00     0.048 A 
ATOM      6  C   UNL d   1      -2.772   0.045   0.215  0.00  0.00     0.119 A 
ATOM      7  C   UNL d   1      -1.050  -1.597   0.435  0.00  0.00     0.085 A 
ATOM      8  C   UNL d   1      -2.401  -1.259   0.510  0.00  0.00     0.072 A 
ATOM      9  C   UNL d   1       2.233   0.144  -0.443  0.00  0.00    -0.034 A 
ATOM     10  C   UNL d   1       0.334   1.647  -0.547  0.00  0.00     0.031 A 
ATOM     11  C   UNL d   1       1.700   1.417  -0.669  0.00  0.00     0.011 A 
ATOM     12  C   UNL d   1       3.732   0.021  -0.502  0.00  0.00     0.050 C 
ENDROOT
BRANCH   2  13
ATOM     13  N   UNL d   1       1.863  -2.186   0.224  0.00  0.00    -0.322 N 
ATOM     14  C   UNL d   1       2.540  -2.925  -0.734  0.00  0.00     0.256 C 
ATOM     15  O   UNL d   1       2.658  -2.611  -1.914  0.00  0.00    -0.267 OA
ATOM     16  H   UNL d   1       1.277  -2.747   0.836  0.00  0.00     0.169 HD
BRANCH  14  17
ATOM     17  C   UNL d   1       3.129  -4.208  -0.263  0.00  0.00     0.032 A 
ATOM     18  C   UNL d   1       3.373  -5.222  -1.200  0.00  0.00     0.018 A 
ATOM     19  C   UNL d   1       4.008  -6.404  -0.808  0.00  0.00     0.025 A 
ATOM     20  C   UNL d   1       4.408  -6.567   0.517  0.00  0.00     0.034 A 
ATOM     21  C   UNL d   1       4.170  -5.563   1.456  0.00  0.00     0.025 A 
ATOM     22 CL   UNL d   1       5.221  -8.006   0.993  0.00  0.00    -0.084 Cl
ATOM     23  C   UNL d   1       3.529  -4.382   1.069  0.00  0.00     0.018 A 
ENDBRANCH  14  17
ENDBRANCH   2  13
BRANCH   7  24
ATOM     24  O   UNL d   1      -0.688  -2.880   0.784  0.00  0.00    -0.355 OA
ATOM     25  C   UNL d   1      -0.920  -3.787  -0.299  0.00  0.00     0.210 C 
ENDBRANCH   7  24
BRANCH   6  26
ATOM     26  C   UNL d   1      -4.243   0.435   0.224  0.00  0.00     0.432 C 
ATOM     27  F   UNL d   1      -4.466   1.779   0.283  0.00  0.00    -0.165 F 
ATOM     28  F   UNL d   1      -4.904  -0.005  -0.886  0.00  0.00    -0.165 F 
ATOM     29  F   UNL d   1      -4.921  -0.096   1.284  0.00  0.00    -0.165 F 
ENDBRANCH   6  26
TORSDOF 4
