REMARK  1 active torsions:
REMARK  status: ('A' for Active; 'I' for Inactive)
REMARK    1  A    between atoms: C_9  and  C_5 
ROOT
ATOM      1  C   UNL d   1      -0.317  -0.498   0.575  0.00  0.00     0.688 A 
ATOM      2  N   UNL d   1      -1.576  -0.658   0.928  0.00  0.00    -0.189 N 
ATOM      3  HN  UNL d   1      -1.922  -1.160   1.746  1.00  0.00     0.184 HD
ATOM      4  N   UNL d   1      -0.241   0.249  -0.597  0.00  0.00    -0.166 N 
ATOM      5  C   UNL d   1      -2.334  -0.013  -0.026  0.00  0.00     0.076 A 
ATOM      6  C   UNL d   1      -1.518   0.559  -0.978  0.00  0.00     0.145 A 
ATOM      7  N   UNL d   1       0.818  -0.953   1.185  0.00  0.00    -0.201 N 
ATOM      8  HN  UNL d   1       0.787  -1.502   2.044  1.00  0.00     0.183 HD
ATOM      9  C   UNL d   1       0.964   0.573  -1.202  0.00  0.00     0.116 A 
ATOM     10  C   UNL d   1       2.107   0.152  -0.644  0.00  0.00     0.036 A 
ATOM     11  C   UNL d   1       1.939  -0.643   0.606  0.00  0.00     0.107 A 
ENDROOT
BRANCH   5  12
ATOM     12  C   UNL d   1      -3.788   0.036   0.002  0.00  0.00    -0.005 A 
ATOM     13  C   UNL d   1      -4.523   0.654  -1.020  0.00  0.00     0.053 A 
ATOM     14  C   UNL d   1      -5.917   0.692  -0.969  0.00  0.00     0.103 A 
ATOM     15  O   UNL d   1      -6.546   1.334  -2.006  0.00  0.00    -0.346 OA
ATOM     16  C   UNL d   1      -6.600   0.089   0.089  0.00  0.00     0.102 A 
ATOM     17  C   UNL d   1      -7.914   1.612  -1.692  0.00  0.00     0.202 C 
ATOM     18  C   UNL d   1      -8.581   0.396  -1.069  0.00  0.00     0.202 C 
ATOM     19  O   UNL d   1      -7.968   0.066   0.183  0.00  0.00    -0.346 OA
ATOM     20  C   UNL d   1      -5.885  -0.517   1.118  0.00  0.00     0.040 A 
ATOM     21  C   UNL d   1      -4.486  -0.546   1.072  0.00  0.00     0.017 A 
ENDBRANCH   5  12
TORSDOF 1
