REMARK  3 active torsions:
REMARK  status: ('A' for Active; 'I' for Inactive)
REMARK    1  A    between atoms: C_6  and  C_1 
REMARK    2  A    between atoms: O_10  and  C_4 
REMARK    3  A    between atoms: O_11  and  C_6 
ROOT
ATOM      1  C   UNL d   1       1.279  -1.482  -0.073  0.00  0.00     0.085 A 
ATOM      2  N   UNL d   1       1.215   1.287   0.014  0.00  0.00    -0.357 N 
ATOM      3  HN  UNL d   1       1.194   2.307   0.051  1.00  0.00     0.166 HD
ATOM      4  C   UNL d   1       2.474  -0.750  -0.084  0.00  0.00     0.105 A 
ATOM      5  C   UNL d   1       0.026  -0.817  -0.026  0.00  0.00     0.010 A 
ATOM      6  C   UNL d   1       2.400   0.633  -0.021  0.00  0.00     0.040 A 
ATOM      7  C   UNL d   1       0.069   0.592   0.001  0.00  0.00     0.043 A 
ATOM      8  C   UNL d   1       3.614   1.514  -0.034  0.00  0.00     0.071 C 
ATOM      9  C   UNL d   1      -1.246  -1.448   0.006  0.00  0.00     0.015 A 
ATOM     10  C   UNL d   1      -1.119   1.308   0.004  0.00  0.00     0.030 A 
ATOM     11  C   UNL d   1      -2.428  -0.706   0.013  0.00  0.00     0.001 A 
ATOM     12  C   UNL d   1      -2.363   0.679   0.002  0.00  0.00     0.002 A 
ENDROOT
BRANCH   1  13
ATOM     13  C   UNL d   1       1.337  -2.963  -0.179  0.00  0.00     0.180 C 
ATOM     14  O   UNL d   1       0.614  -3.620  -0.904  0.00  0.00    -0.646 OA
BRANCH  13  15
ATOM     15  O   UNL d   1       2.322  -3.512   0.566  0.00  0.00    -0.773 OA
ATOM     16  H   UNL d   1       2.770  -2.895   1.182  0.00  0.00     0.167 HD
ENDBRANCH  13  15
ENDBRANCH   1  13
BRANCH   4  17
ATOM     17  O   UNL d   1       3.703  -1.351  -0.145  0.00  0.00    -0.358 OA
ATOM     18  H   UNL d   1       3.648  -2.156  -0.696  0.00  0.00     0.217 HD
ENDBRANCH   4  17
TORSDOF 3
