REMARK  8 active torsions:
REMARK  status: ('A' for Active; 'I' for Inactive)
REMARK    1  A    between atoms: S_16  and  C_2 
REMARK    2  A    between atoms: C_18  and  C_3 
REMARK    3  A    between atoms: C_10  and  C_11 
REMARK    4  A    between atoms: C_12  and  S_17 
REMARK    5  A    between atoms: C_20  and  S_16 
REMARK    6  A    between atoms: S_17  and  C_18 
REMARK    7  A    between atoms: C_19  and  C_20 
REMARK    8  A    between atoms: C_25  and  C_19 
ROOT
ATOM      1  N   UNL d   1       0.938   0.137   0.013  0.00  0.00    -0.319 N 
ATOM      2  C   UNL d   1       0.087   1.212   0.028  0.00  0.00     0.162 A 
ATOM      3  C   UNL d   1       0.127  -0.980   0.038  0.00  0.00     0.109 A 
ATOM      4  N   UNL d   1      -1.151   0.794   0.084  0.00  0.00    -0.278 N 
ATOM      5  HN  UNL d   1      -1.983   1.384   0.123  1.00  0.00     0.189 HD
ATOM      6  N   UNL d   1      -1.132  -0.582   0.081  0.00  0.00    -0.286 N 
ATOM      7  HN  UNL d   1      -1.951  -1.190   0.106  1.00  0.00     0.188 HD
ATOM      8  C   UNL d   1       2.378   0.134   0.004  0.00  0.00     0.159 C 
ENDROOT
BRANCH   3   9
ATOM      9  C   UNL d   1       0.595  -2.404  -0.026  0.00  0.00     0.157 C 
BRANCH   9  10
ATOM     10  S   UNL d   1       1.292  -2.940   1.581  0.00  0.00    -0.121 SA
BRANCH  10  11
ATOM     11  C   UNL d   1       1.911  -4.591   1.200  0.00  0.00     0.015 A 
ATOM     12  C   UNL d   1       3.302  -4.747   1.234  0.00  0.00     0.053 A 
ATOM     13  C   UNL d   1       3.854  -6.013   1.071  0.00  0.00     0.118 A 
ATOM     14  N   UNL d   1       3.075  -7.107   0.868  0.00  0.00    -0.352 N 
ATOM     15  C   UNL d   1       1.740  -6.973   0.851  0.00  0.00     0.044 A 
ATOM     16  HN  UNL d   1       3.501  -8.023   0.728  1.00  0.00     0.166 HD
ATOM     17  C   UNL d   1       1.086  -5.731   1.018  0.00  0.00     0.007 A 
ATOM     18  C   UNL d   1       0.988  -8.127   0.685  0.00  0.00     0.030 A 
ATOM     19  C   UNL d   1      -0.332  -5.723   1.020  0.00  0.00     0.015 A 
ATOM     20  C   UNL d   1      -1.069  -6.896   0.843  0.00  0.00     0.001 A 
ATOM     21  C   UNL d   1      -0.406  -8.103   0.674  0.00  0.00     0.002 A 
BRANCH  13  22
ATOM     22  C   UNL d   1       5.366  -6.184   1.147  0.00  0.00     0.432 C 
ATOM     23  F   UNL d   1       5.798  -7.469   1.014  0.00  0.00    -0.165 F 
ATOM     24  F   UNL d   1       6.016  -5.472   0.179  0.00  0.00    -0.165 F 
ATOM     25  F   UNL d   1       5.882  -5.740   2.331  0.00  0.00    -0.165 F 
ENDBRANCH  13  22
ENDBRANCH  10  11
ENDBRANCH   9  10
ENDBRANCH   3   9
BRANCH   2  26
ATOM     26  S   UNL d   1       0.589   2.863  -0.091  0.00  0.00    -0.085 SA
BRANCH  26  27
ATOM     27  C   UNL d   1       0.390   3.401   1.636  0.00  0.00     0.166 C 
BRANCH  27  28
ATOM     28  C   UNL d   1       1.454   2.797   2.541  0.00  0.00     0.169 C 
ATOM     29  O   UNL d   1       2.559   2.442   2.128  0.00  0.00    -0.291 OA
BRANCH  28  30
ATOM     30  C   UNL d   1       1.171   2.655   4.003  0.00  0.00     0.010 A 
ATOM     31  C   UNL d   1       0.026   3.178   4.614  0.00  0.00     0.015 A 
ATOM     32  C   UNL d   1      -0.196   2.973   5.980  0.00  0.00     0.001 A 
ATOM     33  C   UNL d   1       0.727   2.259   6.744  0.00  0.00     0.000 A 
ATOM     34  C   UNL d   1       1.881   1.757   6.149  0.00  0.00     0.001 A 
ATOM     35  C   UNL d   1       2.103   1.956   4.786  0.00  0.00     0.015 A 
ENDBRANCH  28  30
ENDBRANCH  27  28
ENDBRANCH  26  27
ENDBRANCH   2  26
TORSDOF 8
