REMARK  7 active torsions:
REMARK  status: ('A' for Active; 'I' for Inactive)
REMARK    1  A    between atoms: N_2  and  C_1 
REMARK    2  A    between atoms: N_3  and  C_1 
REMARK    3  A    between atoms: C_4  and  N_2 
REMARK    4  A    between atoms: C_8  and  N_3 
REMARK    5  A    between atoms: C_22  and  C_6 
REMARK    6  A    between atoms: O_7  and  C_9 
REMARK    7  A    between atoms: C_10  and  O_7 
ROOT
ATOM      1  C   UNL d   1      -1.292  -1.206   0.277  0.00  0.00     0.034 A 
ATOM      2  C   UNL d   1      -3.995  -1.298  -0.455  0.00  0.00     0.076 A 
ATOM      3  C   UNL d   1      -1.807  -0.279  -0.628  0.00  0.00     0.032 A 
ATOM      4  C   UNL d   1      -2.119  -2.249   0.719  0.00  0.00     0.032 A 
ATOM      5  C   UNL d   1      -3.154  -0.330  -1.004  0.00  0.00     0.039 A 
ATOM      6  C   UNL d   1      -3.468  -2.292   0.362  0.00  0.00     0.039 A 
ENDROOT
BRANCH   1   7
ATOM      7  N   UNL d   1       0.027  -1.195   0.774  0.00  0.00    -0.333 N 
ATOM      8  H   UNL d   1       0.265  -2.002   1.338  0.00  0.00     0.168 HD
BRANCH   7   9
ATOM      9  C   UNL d   1       0.965  -0.196   0.883  0.00  0.00     0.176 C 
ATOM     10  S   UNL d   1       0.756   1.453   0.692  0.00  0.00    -0.041 SA
BRANCH   9  11
ATOM     11  N   UNL d   1       2.195  -0.600   1.357  0.00  0.00    -0.333 N 
ATOM     12  H   UNL d   1       2.748   0.167   1.725  0.00  0.00     0.168 HD
BRANCH  11  13
ATOM     13  C   UNL d   1       2.785  -1.881   1.395  0.00  0.00     0.040 A 
ATOM     14  C   UNL d   1       3.770  -2.167   2.361  0.00  0.00    -0.032 A 
ATOM     15  C   UNL d   1       4.358  -3.446   2.374  0.00  0.00     0.009 A 
ATOM     16  C   UNL d   1       3.985  -4.420   1.450  0.00  0.00     0.001 A 
ATOM     17  C   UNL d   1       3.030  -4.125   0.484  0.00  0.00     0.002 A 
ATOM     18  C   UNL d   1       2.443  -2.862   0.452  0.00  0.00     0.030 A 
BRANCH  14  19
ATOM     19  C   UNL d   1       4.211  -1.177   3.417  0.00  0.00     0.036 C 
ATOM     20  C   UNL d   1       5.449  -0.402   2.992  0.00  0.00     0.010 C 
ENDBRANCH  14  19
ENDBRANCH  11  13
ENDBRANCH   9  11
ENDBRANCH   7   9
ENDBRANCH   1   7
BRANCH   2  21
ATOM     21  O   UNL d   1      -5.343  -1.349  -0.715  0.00  0.00    -0.311 OA
BRANCH  21  22
ATOM     22  C   UNL d   1      -6.084  -0.193  -0.581  0.00  0.00     0.076 A 
ATOM     23  C   UNL d   1      -7.264  -0.140  -1.327  0.00  0.00     0.039 A 
ATOM     24  C   UNL d   1      -8.077   0.995  -1.278  0.00  0.00     0.026 A 
ATOM     25  C   UNL d   1      -7.709   2.075  -0.477  0.00  0.00     0.034 A 
ATOM     26  C   UNL d   1      -6.554   2.016   0.299  0.00  0.00     0.026 A 
ATOM     27 CL   UNL d   1      -8.690   3.488  -0.444  0.00  0.00    -0.084 Cl
ATOM     28  C   UNL d   1      -5.751   0.873   0.263  0.00  0.00     0.039 A 
ENDBRANCH  21  22
ENDBRANCH   2  21
TORSDOF 7
