REMARK  1 active torsions:
REMARK  status: ('A' for Active; 'I' for Inactive)
REMARK    1  A    between atoms: C_4  and  N_1 
ROOT
ATOM      1  N   UNL d   1       2.421  -0.651  -0.088  0.00  0.00    -0.264 N 
ATOM      2  C   UNL d   1       1.260  -1.438  -0.090  0.00  0.00     0.266 A 
ATOM      3  C   UNL d   1       2.337   0.733  -0.047  0.00  0.00     0.087 A 
ATOM      4  N   UNL d   1       1.216   1.384   0.003  0.00  0.00    -0.345 N 
ATOM      5  HN  UNL d   1       1.211   2.403   0.046  1.00  0.00     0.167 HD
ATOM      6  C   UNL d   1      -0.023  -0.718  -0.048  0.00  0.00     0.059 A 
ATOM      7  C   UNL d   1       0.015   0.670  -0.002  0.00  0.00     0.049 A 
ATOM      8  O   UNL d   1       1.241  -2.668  -0.096  0.00  0.00    -0.267 OA
ATOM      9  C   UNL d   1       3.587   1.587  -0.131  0.00  0.00     0.089 C 
ATOM     10  C   UNL d   1      -1.241  -1.409  -0.054  0.00  0.00     0.019 A 
ATOM     11  C   UNL d   1      -1.190   1.375   0.018  0.00  0.00     0.030 A 
ATOM     12  C   UNL d   1      -2.438  -0.696  -0.031  0.00  0.00     0.001 A 
ATOM     13  C   UNL d   1      -2.413   0.697   0.000  0.00  0.00     0.002 A 
ENDROOT
BRANCH   1  14
ATOM     14  C   UNL d   1       3.667  -1.351  -0.083  0.00  0.00     0.085 A 
ATOM     15  C   UNL d   1       3.940  -2.300  -1.081  0.00  0.00     0.078 A 
ATOM     16  C   UNL d   1       5.144  -2.997  -1.063  0.00  0.00     0.157 A 
ATOM     17  F   UNL d   1       5.403  -3.881  -2.038  0.00  0.00    -0.203 F 
ATOM     18  C   UNL d   1       6.074  -2.779  -0.054  0.00  0.00     0.157 A 
ATOM     19  C   UNL d   1       5.816  -1.860   0.954  0.00  0.00     0.090 A 
ATOM     20  F   UNL d   1       7.228  -3.458  -0.043  0.00  0.00    -0.203 F 
ATOM     21  C   UNL d   1       4.616  -1.152   0.932  0.00  0.00     0.146 A 
ATOM     22  F   UNL d   1       4.363  -0.295   1.932  0.00  0.00    -0.204 F 
ENDBRANCH   1  14
TORSDOF 1
