REMARK  4 active torsions:
REMARK  status: ('A' for Active; 'I' for Inactive)
REMARK    1  A    between atoms: C_13  and  C_1 
REMARK    2  A    between atoms: C_6  and  C_4 
REMARK    3  A    between atoms: C_8  and  C_11 
REMARK    4  A    between atoms: N_12  and  C_13 
ROOT
ATOM      1  C   UNL d   1      -0.200  -0.844  -1.246  0.00  0.00     0.092 C 
ATOM      2  C   UNL d   1       0.184   0.640  -1.322  0.00  0.00     0.034 C 
ATOM      3  C   UNL d   1      -0.462  -1.029   0.258  0.00  0.00     0.034 A 
ATOM      4  C   UNL d   1       1.817  -0.861  -0.450  0.00  0.00     0.132 C 
ATOM      5  C   UNL d   1       1.639   0.618  -0.775  0.00  0.00     0.027 C 
ATOM      6  C   UNL d   1       0.984  -1.058   0.815  0.00  0.00     0.027 A 
ATOM      7  C   UNL d   1      -0.662   0.361   0.900  0.00  0.00     0.002 A 
ATOM      8  C   UNL d   1       0.791   0.332   1.440  0.00  0.00     0.002 A 
ATOM      9  O   UNL d   1       1.058  -1.499  -1.478  0.00  0.00    -0.371 OA
ATOM     10  C   UNL d   1      -0.592   1.397  -0.231  0.00  0.00    -0.002 C 
ATOM     11  C   UNL d   1       1.509   1.367   0.553  0.00  0.00    -0.002 C 
ATOM     12  C   UNL d   1       0.429   2.409   0.281  0.00  0.00     0.011 C 
ENDROOT
BRANCH   1  13
ATOM     13  C   UNL d   1      -1.286  -1.229  -2.217  0.00  0.00     0.240 C 
BRANCH  13  14
ATOM     14  N   UNL d   1      -1.367  -2.722  -2.339  0.00  0.00    -0.153 N 
ATOM     15  O   UNL d   1      -0.893  -3.240  -3.357  0.00  0.00    -0.536 OA
ATOM     16  O   UNL d   1      -1.962  -3.326  -1.438  0.00  0.00    -0.536 OA
ENDBRANCH  13  14
ENDBRANCH   1  13
TORSDOF 4
