REMARK  5 active torsions:
REMARK  status: ('A' for Active; 'I' for Inactive)
REMARK    1  A    between atoms: C_10  and  C_1 
REMARK    2  A    between atoms: C_7  and  C_2 
REMARK    3  A    between atoms: N_9  and  C_3 
REMARK    4  A    between atoms: O_18  and  C_10 
REMARK    5  A    between atoms: C_23  and  O_18 
ROOT
ATOM      1  C   UNL d   1      -1.584   1.269   0.126  0.00  0.00     0.072 A 
ATOM      2  C   UNL d   1      -2.222   0.044  -0.030  0.00  0.00     0.134 A 
ATOM      3  C   UNL d   1      -0.138  -1.100  -0.009  0.00  0.00     0.125 A 
ATOM      4  N   UNL d   1      -1.496  -1.126  -0.070  0.00  0.00    -0.337 N 
ATOM      5  HN  UNL d   1      -1.982  -2.020  -0.146  1.00  0.00     0.167 HD
ATOM      6  C   UNL d   1       0.536   0.117   0.104  0.00  0.00     0.089 A 
ATOM      7  C   UNL d   1      -0.189   1.304   0.182  0.00  0.00     0.046 A 
ATOM      8  C   UNL d   1       1.960   0.183   0.226  0.00  0.00     0.103 C 
ATOM      9  N   UNL d   1       3.115   0.277   0.291  0.00  0.00    -0.191 NA
ENDROOT
BRANCH   3  10
ATOM     10  N   UNL d   1       0.552  -2.300   0.018  0.00  0.00    -0.363 N 
ATOM     11  C   UNL d   1      -0.136  -3.487   0.543  0.00  0.00     0.154 C 
ATOM     12  C   UNL d   1       0.947  -4.518   0.960  0.00  0.00     0.289 C 
ATOM     13  N   UNL d   1       1.902  -4.864  -0.118  0.00  0.00     0.086 N 
ATOM     14  C   UNL d   1       2.455  -3.635  -0.730  0.00  0.00     0.289 C 
ATOM     15  H   UNL d   1       2.672  -5.398   0.288  0.00  0.00     0.316 HD
ATOM     16  C   UNL d   1       1.363  -2.634  -1.167  0.00  0.00     0.154 C 
ENDBRANCH   3  10
BRANCH   1  17
ATOM     17  C   UNL d   1      -2.310   2.544   0.275  0.00  0.00     0.295 C 
ATOM     18  O   UNL d   1      -3.291   2.693   0.974  0.00  0.00    -0.259 OA
BRANCH  17  19
ATOM     19  O   UNL d   1      -1.702   3.457  -0.519  0.00  0.00    -0.318 OA
BRANCH  19  20
ATOM     20  C   UNL d   1      -2.411   4.679  -0.759  0.00  0.00     0.174 C 
ATOM     21  C   UNL d   1      -3.007   4.577  -2.148  0.00  0.00     0.034 C 
ENDBRANCH  19  20
ENDBRANCH  17  19
ENDBRANCH   1  17
BRANCH   2  22
ATOM     22  C   UNL d   1      -3.726  -0.089  -0.224  0.00  0.00     0.433 C 
ATOM     23  F   UNL d   1      -4.393   1.057  -0.516  0.00  0.00    -0.165 F 
ATOM     24  F   UNL d   1      -4.026  -0.919  -1.271  0.00  0.00    -0.165 F 
ATOM     25  F   UNL d   1      -4.353  -0.634   0.861  0.00  0.00    -0.165 F 
ENDBRANCH   2  22
TORSDOF 5
