REMARK  5 active torsions:
REMARK  status: ('A' for Active; 'I' for Inactive)
REMARK    1  A    between atoms: C_9  and  N_1 
REMARK    2  A    between atoms: S_12  and  C_5 
REMARK    3  A    between atoms: O_17  and  C_18 
REMARK    4  A    between atoms: C_19  and  O_17 
REMARK    5  A    between atoms: C_22  and  C_19 
ROOT
ATOM      1  N   UNL d   1      -0.268  -1.305  -0.031  0.00  0.00    -0.273 N 
ATOM      2  C   UNL d   1       0.859  -0.655   0.475  0.00  0.00     0.163 A 
ATOM      3  N   UNL d   1       0.701   0.653   0.399  0.00  0.00    -0.281 N 
ATOM      4  HN  UNL d   1       1.354   1.356   0.744  1.00  0.00     0.188 HD
ATOM      5  C   UNL d   1      -1.060  -0.254  -0.488  0.00  0.00     0.167 A 
ATOM      6  N   UNL d   1      -0.491   0.900  -0.222  0.00  0.00    -0.278 N 
ATOM      7  HN  UNL d   1      -0.873   1.820  -0.440  1.00  0.00     0.189 HD
ATOM      8  C   UNL d   1       2.068  -1.260   0.949  0.00  0.00     0.120 A 
ATOM      9  O   UNL d   1       2.581  -2.425   0.436  0.00  0.00    -0.319 OA
ATOM     10  C   UNL d   1       2.908  -0.825   1.962  0.00  0.00     0.043 A 
ATOM     11  C   UNL d   1       3.693  -2.742   1.143  0.00  0.00     0.142 A 
ATOM     12  C   UNL d   1       3.936  -1.791   2.102  0.00  0.00     0.027 A 
ENDROOT
BRANCH   1  13
ATOM     13  C   UNL d   1      -0.534  -2.712  -0.019  0.00  0.00     0.043 A 
ATOM     14  C   UNL d   1      -0.075  -3.503   1.045  0.00  0.00     0.033 A 
ATOM     15  C   UNL d   1      -0.262  -4.890   1.050  0.00  0.00     0.039 A 
ATOM     16  C   UNL d   1      -0.941  -5.508   0.004  0.00  0.00     0.069 A 
ATOM     17  C   UNL d   1      -1.447  -4.721  -1.031  0.00  0.00     0.039 A 
ATOM     18  C   UNL d   1      -1.234  -3.336  -1.056  0.00  0.00     0.033 A 
BRANCH  16  19
ATOM     19  O   UNL d   1      -1.206  -6.847  -0.087  0.00  0.00    -0.347 OA
BRANCH  19  20
ATOM     20  C   UNL d   1      -0.271  -7.716   0.557  0.00  0.00     0.214 C 
BRANCH  20  21
ATOM     21  C   UNL d   1      -0.694  -9.162   0.411  0.00  0.00    -0.034 A 
ATOM     22  C   UNL d   1       0.273 -10.170   0.295  0.00  0.00     0.009 A 
ATOM     23  C   UNL d   1      -0.101 -11.515   0.251  0.00  0.00     0.001 A 
ATOM     24  C   UNL d   1      -1.446 -11.868   0.330  0.00  0.00     0.000 A 
ATOM     25  C   UNL d   1      -2.419 -10.877   0.449  0.00  0.00     0.001 A 
ATOM     26  C   UNL d   1      -2.046  -9.532   0.495  0.00  0.00     0.009 A 
ENDBRANCH  20  21
ENDBRANCH  19  20
ENDBRANCH  16  19
ENDBRANCH   1  13
BRANCH   5  27
ATOM     27  S   UNL d   1      -2.673  -0.397  -1.125  0.00  0.00    -0.096 SA
ATOM     28  C   UNL d   1      -3.056   1.324  -1.523  0.00  0.00     0.099 C 
ENDBRANCH   5  27
TORSDOF 5
