REMARK  6 active torsions:
REMARK  status: ('A' for Active; 'I' for Inactive)
REMARK       I    between atoms: N_3  and  C_1 
REMARK       I    between atoms: N_4  and  C_1 
REMARK    1  A    between atoms: C_2  and  C_6 
REMARK    2  A    between atoms: C_11  and  N_3 
REMARK    3  A    between atoms: C_17  and  N_3 
REMARK    4  A    between atoms: C_9  and  N_4 
REMARK    5  A    between atoms: C_16  and  C_11 
REMARK    6  A    between atoms: C_15  and  C_17 
ROOT
ATOM      1  N   UNL d   1       2.070   1.549   5.551  0.00  0.00    -0.197 NA
ATOM      2  C   UNL d   1       1.544   0.996   4.681  0.00  0.00     0.060 C 
ATOM      3  C   UNL d   1       0.883   0.294   3.565  0.00  0.00     0.144 C 
ENDROOT
BRANCH   3   4
ATOM      4  C   UNL d   1       0.791   1.199   2.332  0.00  0.00     0.142 C 
BRANCH   4   5
ATOM      5  N   UNL d   1       0.237   0.524   1.143  0.00  0.00    -0.329 N 
ATOM      6  C   UNL d   1       0.962   0.030   0.053  0.00  0.00     0.323 C 
ATOM      7  N   UNL d   1       2.337   0.043   0.188  0.00  0.00    -0.309 N 
ATOM      8  O   UNL d   1       0.394  -0.452  -0.923  0.00  0.00    -0.247 OA
ATOM      9  H   UNL d   1       2.684   0.061   1.131  0.00  0.00     0.170 HD
BRANCH   7  10
ATOM     10  C   UNL d   1       3.217  -0.541  -0.761  0.00  0.00     0.037 A 
ATOM     11  C   UNL d   1       2.956  -0.574  -2.138  0.00  0.00     0.045 A 
ATOM     12  C   UNL d   1       3.797  -1.282  -3.017  0.00  0.00     0.050 A 
ATOM     13  C   UNL d   1       4.896  -1.975  -2.491  0.00  0.00     0.016 A 
ATOM     14  C   UNL d   1       5.196  -1.894  -1.133  0.00  0.00     0.003 A 
ATOM     15  C   UNL d   1       4.377  -1.155  -0.277  0.00  0.00     0.029 A 
BRANCH  12  16
ATOM     16  C   UNL d   1       3.509  -1.342  -4.497  0.00  0.00     0.417 C 
ATOM     17  F   UNL d   1       2.789  -0.282  -4.959  0.00  0.00    -0.166 F 
ATOM     18  F   UNL d   1       4.647  -1.366  -5.250  0.00  0.00    -0.166 F 
ATOM     19  F   UNL d   1       2.812  -2.457  -4.851  0.00  0.00    -0.166 F 
ENDBRANCH  12  16
ENDBRANCH   7  10
BRANCH   5  20
ATOM     20  C   UNL d   1      -1.210   0.264   1.131  0.00  0.00     0.166 C 
BRANCH  20  21
ATOM     21  C   UNL d   1      -2.057   1.244   0.347  0.00  0.00    -0.040 A 
ATOM     22  C   UNL d   1      -2.350   1.003  -1.006  0.00  0.00     0.009 A 
ATOM     23  C   UNL d   1      -3.222   1.832  -1.715  0.00  0.00     0.001 A 
ATOM     24  C   UNL d   1      -3.817   2.917  -1.079  0.00  0.00     0.000 A 
ATOM     25  C   UNL d   1      -3.524   3.182   0.259  0.00  0.00     0.001 A 
ATOM     26  C   UNL d   1      -2.645   2.355   0.967  0.00  0.00     0.009 A 
ENDBRANCH  20  21
ENDBRANCH   5  20
ENDBRANCH   4   5
ENDBRANCH   3   4
TORSDOF 6
