REMARK  3 active torsions:
REMARK  status: ('A' for Active; 'I' for Inactive)
REMARK    1  A    between atoms: C_12  and  N_1 
REMARK    2  A    between atoms: C_11  and  N_3 
REMARK    3  A    between atoms: C_18  and  C_12 
ROOT
ATOM      1  N   UNL d   1       2.099   0.670   0.038  0.00  0.00    -0.260 N 
ATOM      2  C   UNL d   1       2.132  -0.736   0.166  0.00  0.00     0.338 A 
ATOM      3  N   UNL d   1       0.902  -1.415   0.123  0.00  0.00    -0.247 N 
ATOM      4  C   UNL d   1      -0.272  -0.690   0.051  0.00  0.00     0.150 A 
ATOM      5  C   UNL d   1      -0.243   0.671  -0.033  0.00  0.00     0.147 A 
ATOM      6  C   UNL d   1       0.944   1.444  -0.057  0.00  0.00     0.282 A 
ATOM      7  N   UNL d   1      -1.561  -1.148   0.001  0.00  0.00    -0.336 N 
ATOM      8  HN  UNL d   1      -1.875  -2.119   0.026  1.00  0.00     0.168 HD
ATOM      9  N   UNL d   1      -1.547   1.070  -0.104  0.00  0.00    -0.345 N 
ATOM     10  C   UNL d   1      -2.308  -0.067  -0.087  0.00  0.00     0.182 A 
ATOM     11  O   UNL d   1       3.203  -1.322   0.365  0.00  0.00    -0.246 OA
ATOM     12  O   UNL d   1       0.922   2.670  -0.140  0.00  0.00    -0.265 OA
ATOM     13  H   UNL d   1      -1.879   2.024  -0.171  0.00  0.00     0.167 HD
ENDROOT
BRANCH   1  14
ATOM     14  C   UNL d   1       3.378   1.369   0.053  0.00  0.00     0.175 C 
BRANCH  14  15
ATOM     15  C   UNL d   1       4.035   1.382  -1.311  0.00  0.00    -0.040 A 
ATOM     16  C   UNL d   1       3.768   2.410  -2.224  0.00  0.00     0.009 A 
ATOM     17  C   UNL d   1       4.345   2.393  -3.496  0.00  0.00     0.001 A 
ATOM     18  C   UNL d   1       5.186   1.346  -3.870  0.00  0.00     0.000 A 
ATOM     19  C   UNL d   1       5.463   0.321  -2.970  0.00  0.00     0.001 A 
ATOM     20  C   UNL d   1       4.894   0.341  -1.696  0.00  0.00     0.009 A 
ENDBRANCH  14  15
ENDBRANCH   1  14
BRANCH   3  21
ATOM     21  C   UNL d   1       0.834  -2.838   0.167  0.00  0.00     0.046 A 
ATOM     22  C   UNL d   1      -0.090  -3.507   0.987  0.00  0.00     0.033 A 
ATOM     23  C   UNL d   1      -0.082  -4.902   1.080  0.00  0.00     0.044 A 
ATOM     24  C   UNL d   1       0.827  -5.636   0.329  0.00  0.00     0.116 A 
ATOM     25  C   UNL d   1       1.729  -5.003  -0.513  0.00  0.00     0.044 A 
ATOM     26  F   UNL d   1       0.836  -6.972   0.424  0.00  0.00    -0.206 F 
ATOM     27  C   UNL d   1       1.740  -3.608  -0.584  0.00  0.00     0.033 A 
ENDBRANCH   3  21
TORSDOF 3
