REMARK  1 active torsions:
REMARK  status: ('A' for Active; 'I' for Inactive)
REMARK    1  A    between atoms: C_3  and  N_1 
ROOT
ATOM      1  O   UNL d   1      -1.880  -4.353  -1.833  0.00  0.00    -0.275 OA
ATOM      2  C   UNL d   1       0.212  -1.040  -0.399  0.00  0.00     0.103 A 
ATOM      3  C   UNL d   1      -2.971  -4.234  -2.684  0.00  0.00     0.288 A 
ATOM      4  C   UNL d   1      -1.625  -1.931  -1.696  0.00  0.00     0.000 A 
ATOM      5  C   UNL d   1      -1.204  -3.216  -1.351  0.00  0.00     0.089 A 
ATOM      6  C   UNL d   1      -2.796  -1.779  -2.544  0.00  0.00     0.020 A 
ATOM      7  C   UNL d   1      -3.421  -2.868  -3.003  0.00  0.00     0.083 A 
ATOM      8  C   UNL d   1      -0.910  -0.831  -1.218  0.00  0.00     0.050 A 
ATOM      9  O   UNL d   1      -3.549  -5.209  -3.151  0.00  0.00    -0.260 OA
ATOM     10  C   UNL d   1       0.619  -2.338  -0.050  0.00  0.00     0.039 A 
ATOM     11  C   UNL d   1      -0.098  -3.434  -0.531  0.00  0.00     0.041 A 
ENDROOT
BRANCH   2  12
ATOM     12  N   UNL d   1       0.973   0.116   0.093  0.00  0.00    -0.116 N 
ATOM     13  O   UNL d   1       0.583   1.244  -0.238  0.00  0.00    -0.532 OA
ATOM     14  O   UNL d   1       1.960  -0.106   0.809  0.00  0.00    -0.532 OA
ENDBRANCH   2  12
TORSDOF 1
