REMARK  5 active torsions:
REMARK  status: ('A' for Active; 'I' for Inactive)
REMARK    1  A    between atoms: N_3  and  C_1 
REMARK    2  A    between atoms: C_4  and  S_14 
REMARK    3  A    between atoms: C_16  and  C_6 
REMARK    4  A    between atoms: S_14  and  C_9 
REMARK    5  A    between atoms: C_19  and  C_20 
ROOT
ATOM      1  C   UNL d   1       0.820   4.554  -0.058  0.00  0.00     0.209 A 
ATOM      2  O   UNL d   1       1.678   4.991  -1.034  0.00  0.00    -0.267 OA
ATOM      3  C   UNL d   1       2.901   4.768  -0.455  0.00  0.00     0.175 A 
ATOM      4  N   UNL d   1       2.798   4.227   0.743  0.00  0.00    -0.277 N 
ATOM      5  HN  UNL d   1       3.566   3.962   1.360  1.00  0.00     0.189 HD
ATOM      6  N   UNL d   1       1.451   4.089   0.999  0.00  0.00    -0.272 N 
ATOM      7  HN  UNL d   1       1.027   3.701   1.842  1.00  0.00     0.189 HD
ENDROOT
BRANCH   1   8
ATOM      8  S   UNL d   1      -0.907   4.655  -0.186  0.00  0.00    -0.036 SA
BRANCH   8   9
ATOM      9  C   UNL d   1      -1.224   3.106  -0.946  0.00  0.00     0.068 A 
ATOM     10  S   UNL d   1      -2.584   2.906  -1.984  0.00  0.00    -0.039 SA
ATOM     11  C   UNL d   1      -2.160   1.272  -2.199  0.00  0.00     0.217 A 
ATOM     12  N   UNL d   1      -1.091   0.844  -1.558  0.00  0.00    -0.340 N 
ATOM     13  C   UNL d   1      -0.563   1.896  -0.826  0.00  0.00     0.117 A 
ATOM     14  HN  UNL d   1      -0.716  -0.104  -1.594  1.00  0.00     0.167 HD
BRANCH  11  15
ATOM     15  N   UNL d   1      -2.951   0.407  -3.051  0.00  0.00    -0.090 N 
ATOM     16  O   UNL d   1      -3.942   0.895  -3.613  0.00  0.00    -0.530 OA
ATOM     17  O   UNL d   1      -2.577  -0.771  -3.164  0.00  0.00    -0.530 OA
ENDBRANCH  11  15
ENDBRANCH   8   9
ENDBRANCH   1   8
BRANCH   3  18
ATOM     18  C   UNL d   1       4.093   5.150  -1.201  0.00  0.00     0.017 A 
ATOM     19  C   UNL d   1       4.045   5.652  -2.505  0.00  0.00     0.016 A 
ATOM     20  C   UNL d   1       5.224   5.994  -3.188  0.00  0.00     0.009 A 
ATOM     21  C   UNL d   1       6.492   5.845  -2.594  0.00  0.00    -0.051 A 
ATOM     22  C   UNL d   1       6.523   5.355  -1.279  0.00  0.00     0.009 A 
ATOM     23  C   UNL d   1       5.348   5.014  -0.598  0.00  0.00     0.016 A 
BRANCH  21  24
ATOM     24  C   UNL d   1       7.775   6.184  -3.377  0.00  0.00    -0.024 C 
ATOM     25  C   UNL d   1       9.071   5.943  -2.567  0.00  0.00     0.019 C 
ATOM     26  C   UNL d   1       7.858   5.304  -4.643  0.00  0.00     0.019 C 
ATOM     27  C   UNL d   1       7.775   7.669  -3.800  0.00  0.00     0.019 C 
ENDBRANCH  21  24
ENDBRANCH   3  18
TORSDOF 5
