REMARK  5 active torsions:
REMARK  status: ('A' for Active; 'I' for Inactive)
REMARK    1  A    between atoms: C_6  and  C_1 
REMARK    2  A    between atoms: C_9  and  N_3 
REMARK    3  A    between atoms: O_14  and  C_6 
REMARK    4  A    between atoms: O_15  and  C_12 
REMARK    5  A    between atoms: C_18  and  O_14 
ROOT
ATOM      1  C   UNL d   1       1.666  -1.155  -0.031  0.00  0.00     0.074 A 
ATOM      2  C   UNL d   1       2.461  -0.002  -0.034  0.00  0.00     0.030 A 
ATOM      3  N   UNL d   1       1.614   1.118  -0.040  0.00  0.00    -0.314 N 
ATOM      4  C   UNL d   1       0.301  -0.721  -0.016  0.00  0.00     0.012 A 
ATOM      5  C   UNL d   1       0.285   0.677  -0.028  0.00  0.00     0.051 A 
ATOM      6  C   UNL d   1      -0.941   1.377  -0.076  0.00  0.00     0.034 A 
ATOM      7  C   UNL d   1      -0.933  -1.420   0.015  0.00  0.00     0.051 A 
ATOM      8  C   UNL d   1       3.951   0.118   0.081  0.00  0.00     0.070 C 
ATOM      9  C   UNL d   1      -2.132  -0.714   0.019  0.00  0.00     0.066 A 
ATOM     10  C   UNL d   1      -2.142   0.666  -0.028  0.00  0.00     0.039 A 
ENDROOT
BRANCH   3  11
ATOM     11  C   UNL d   1       2.025   2.496  -0.017  0.00  0.00     0.039 A 
ATOM     12  C   UNL d   1       3.135   2.928  -0.754  0.00  0.00     0.030 A 
ATOM     13  C   UNL d   1       3.541   4.266  -0.711  0.00  0.00     0.002 A 
ATOM     14  C   UNL d   1       2.822   5.191   0.041  0.00  0.00     0.000 A 
ATOM     15  C   UNL d   1       1.707   4.777   0.764  0.00  0.00     0.002 A 
ATOM     16  C   UNL d   1       1.320   3.433   0.751  0.00  0.00     0.030 A 
ENDBRANCH   3  11
BRANCH   1  17
ATOM     17  C   UNL d   1       2.088  -2.559   0.039  0.00  0.00     0.296 C 
ATOM     18  O   UNL d   1       1.300  -3.492   0.194  0.00  0.00    -0.259 OA
BRANCH  17  19
ATOM     19  O   UNL d   1       3.438  -2.727   0.004  0.00  0.00    -0.318 OA
BRANCH  19  20
ATOM     20  C   UNL d   1       3.928  -3.937   0.594  0.00  0.00     0.174 C 
ATOM     21  C   UNL d   1       4.013  -3.739   2.099  0.00  0.00     0.034 C 
ENDBRANCH  19  20
ENDBRANCH  17  19
ENDBRANCH   1  17
BRANCH   9  22
ATOM     22  O   UNL d   1      -3.333  -1.360   0.058  0.00  0.00    -0.361 OA
ATOM     23  H   UNL d   1      -3.165  -2.317   0.081  0.00  0.00     0.217 HD
ENDBRANCH   9  22
TORSDOF 5
