REMARK  4 active torsions:
REMARK  status: ('A' for Active; 'I' for Inactive)
REMARK    1  A    between atoms: S_8  and  C_7 
REMARK    2  A    between atoms: C_11  and  S_8 
REMARK    3  A    between atoms: C_9  and  C_11 
REMARK    4  A    between atoms: O_16  and  C_9 
ROOT
ATOM      1  C   UNL d   1      -1.000  -0.875   0.009  0.00  0.00     0.007 A 
ATOM      2  C   UNL d   1      -0.729   0.511   0.100  0.00  0.00     0.045 A 
ATOM      3  C   UNL d   1       0.585   0.953   0.095  0.00  0.00     0.054 A 
ATOM      4  C   UNL d   1       0.098  -1.765  -0.123  0.00  0.00     0.017 A 
ATOM      5  N   UNL d   1      -1.691   1.441   0.185  0.00  0.00    -0.365 N 
ATOM      6  HN  UNL d   1      -1.456   2.432   0.250  1.00  0.00     0.165 HD
ATOM      7  C   UNL d   1      -2.364  -1.264   0.041  0.00  0.00     0.014 A 
ATOM      8  C   UNL d   1       1.649   0.061  -0.004  0.00  0.00     0.036 A 
ATOM      9  C   UNL d   1       1.411  -1.299  -0.117  0.00  0.00     0.025 A 
ATOM     10  C   UNL d   1      -2.975   1.035   0.182  0.00  0.00     0.089 A 
ATOM     11  C   UNL d   1      -3.358  -0.286   0.112  0.00  0.00     0.036 A 
ATOM     12 CL   UNL d   1       3.265   0.650   0.002  0.00  0.00    -0.084 Cl
ENDROOT
BRANCH   7  13
ATOM     13  S   UNL d   1      -2.953  -2.959  -0.076  0.00  0.00    -0.119 SA
BRANCH  13  14
ATOM     14  C   UNL d   1      -2.352  -3.672   1.490  0.00  0.00     0.190 C 
BRANCH  14  15
ATOM     15  C   UNL d   1      -2.929  -3.038   2.736  0.00  0.00     0.268 C 
ATOM     16  O   UNL d   1      -3.769  -2.152   2.798  0.00  0.00    -0.264 OA
BRANCH  15  17
ATOM     17  O   UNL d   1      -2.354  -3.639   3.824  0.00  0.00    -0.326 OA
ATOM     18  C   UNL d   1      -2.797  -3.138   5.085  0.00  0.00     0.213 C 
ENDBRANCH  15  17
ENDBRANCH  14  15
ENDBRANCH  13  14
ENDBRANCH   7  13
TORSDOF 4
