REMARK  5 active torsions:
REMARK  status: ('A' for Active; 'I' for Inactive)
REMARK    1  A    between atoms: C_8  and  C_1 
REMARK    2  A    between atoms: S_13  and  C_5 
REMARK    3  A    between atoms: C_9  and  C_12 
REMARK    4  A    between atoms: C_28  and  S_13 
REMARK    5  A    between atoms: C_27  and  C_28 
ROOT
ATOM      1  N   UNL d   1       4.102  -8.249  -0.268  0.00  0.00    -0.352 N 
ATOM      2  HN  UNL d   1       3.431  -9.017  -0.262  1.00  0.00     0.166 HD
ATOM      3  C   UNL d   1       5.440  -8.502  -0.307  0.00  0.00     0.117 A 
ATOM      4  C   UNL d   1       3.678  -6.973  -0.237  0.00  0.00     0.043 A 
ATOM      5  C   UNL d   1       4.559  -5.877  -0.235  0.00  0.00    -0.009 A 
ATOM      6  C   UNL d   1       6.379  -7.474  -0.326  0.00  0.00     0.035 A 
ATOM      7  C   UNL d   1       4.051  -4.559  -0.181  0.00  0.00     0.021 A 
ATOM      8  C   UNL d   1       5.933  -6.153  -0.291  0.00  0.00     0.016 A 
ATOM      9  C   UNL d   1       2.318  -6.718  -0.211  0.00  0.00     0.031 A 
ATOM     10  C   UNL d   1       2.669  -4.310  -0.123  0.00  0.00    -0.048 A 
ATOM     11  C   UNL d   1       1.810  -5.415  -0.174  0.00  0.00     0.010 A 
ENDROOT
BRANCH  10  12
ATOM     12  C   UNL d   1       2.156  -2.880  -0.099  0.00  0.00     0.121 C 
BRANCH  12  13
ATOM     13  S   UNL d   1       0.650  -2.647   0.904  0.00  0.00    -0.088 SA
BRANCH  13  14
ATOM     14  C   UNL d   1       0.332  -0.965   0.666  0.00  0.00     0.162 A 
ATOM     15  N   UNL d   1      -0.774  -0.322   1.167  0.00  0.00    -0.312 N 
ATOM     16  C   UNL d   1      -0.621   1.005   0.818  0.00  0.00     0.209 A 
ATOM     17  C   UNL d   1      -1.843  -0.958   1.896  0.00  0.00     0.160 C 
ATOM     18  N   UNL d   1       0.496   1.117   0.111  0.00  0.00    -0.279 N 
ATOM     19  N   UNL d   1       1.088  -0.116   0.019  0.00  0.00    -0.278 N 
ATOM     20  HN  UNL d   1       0.855   1.980  -0.298  1.00  0.00     0.188 HD
ATOM     21  HN  UNL d   1       1.959  -0.332  -0.466  1.00  0.00     0.189 HD
BRANCH  16  22
ATOM     22  C   UNL d   1      -1.524   2.138   1.164  0.00  0.00     0.450 C 
ATOM     23  F   UNL d   1      -2.577   1.786   1.948  0.00  0.00    -0.163 F 
ATOM     24  F   UNL d   1      -0.870   3.116   1.843  0.00  0.00    -0.163 F 
ATOM     25  F   UNL d   1      -2.058   2.717   0.058  0.00  0.00    -0.163 F 
ENDBRANCH  16  22
ENDBRANCH  13  14
ENDBRANCH  12  13
ENDBRANCH  10  12
BRANCH   3  26
ATOM     26  C   UNL d   1       5.923  -9.948  -0.326  0.00  0.00     0.432 C 
ATOM     27  F   UNL d   1       4.929 -10.879  -0.277  0.00  0.00    -0.165 F 
ATOM     28  F   UNL d   1       6.649 -10.240  -1.447  0.00  0.00    -0.165 F 
ATOM     29  F   UNL d   1       6.750 -10.235   0.723  0.00  0.00    -0.165 F 
ENDBRANCH   3  26
TORSDOF 5
