REMARK  6 active torsions:
REMARK  status: ('A' for Active; 'I' for Inactive)
REMARK    1  A    between atoms: N_11  and  C_1 
REMARK    2  A    between atoms: C_7  and  C_2 
REMARK    3  A    between atoms: C_10  and  N_3 
REMARK       I    between atoms: N_12  and  C_7 
REMARK    4  A    between atoms: N_8  and  N_12 
REMARK    5  A    between atoms: C_16  and  C_14 
REMARK    6  A    between atoms: O_18  and  C_17 
ROOT
ATOM      1  C   UNL d   1       0.909  -0.723   0.607  0.00  0.00     0.118 A 
ATOM      2  C   UNL d   1      -0.159  -1.272  -0.080  0.00  0.00     0.090 A 
ATOM      3  N   UNL d   1       0.845   0.667   0.385  0.00  0.00    -0.245 N 
ATOM      4  N   UNL d   1      -0.269   1.006  -0.313  0.00  0.00    -0.303 N 
ATOM      5  HN  UNL d   1      -0.598   1.942  -0.549  1.00  0.00     0.186 HD
ATOM      6  C   UNL d   1      -0.836  -0.159  -0.620  0.00  0.00     0.128 A 
ENDROOT
BRANCH   2   7
ATOM      7  C   UNL d   1      -0.618  -2.648  -0.144  0.00  0.00     0.274 C 
ATOM      8  N   UNL d   1       0.370  -3.613   0.021  0.00  0.00    -0.266 N 
ATOM      9  H   UNL d   1       1.346  -3.344   0.077  0.00  0.00     0.190 HD
ATOM     10  O   UNL d   1      -1.807  -2.902  -0.330  0.00  0.00    -0.266 OA
BRANCH   8  11
ATOM     11  N   UNL d   1      -0.010  -4.915   0.162  0.00  0.00    -0.308 N 
ATOM     12  C   UNL d   1       0.911  -5.815   0.267  0.00  0.00     0.118 C 
ATOM     13  HN  UNL d   1      -0.997  -5.172   0.184  1.00  0.00     0.186 HD
BRANCH  12  14
ATOM     14  C   UNL d   1       0.540  -7.231   0.506  0.00  0.00    -0.017 A 
ATOM     15  C   UNL d   1      -0.813  -7.601   0.567  0.00  0.00     0.049 A 
ATOM     16  C   UNL d   1      -1.167  -8.915   0.868  0.00  0.00     0.069 A 
ATOM     17  C   UNL d   1      -0.161  -9.854   1.109  0.00  0.00     0.037 A 
ATOM     18  C   UNL d   1       1.186  -9.494   1.030  0.00  0.00     0.004 A 
ATOM     19  C   UNL d   1       1.542  -8.180   0.722  0.00  0.00     0.013 A 
BRANCH  16  20
ATOM     20  O   UNL d   1      -2.442  -9.403   0.963  0.00  0.00    -0.356 OA
ATOM     21  C   UNL d   1      -3.503  -8.477   0.748  0.00  0.00     0.210 C 
ENDBRANCH  16  20
ENDBRANCH  12  14
ENDBRANCH   8  11
ENDBRANCH   2   7
BRANCH   1  22
ATOM     22  N   UNL d   1       1.785  -1.321   1.476  0.00  0.00    -0.286 NA
ATOM     23  H   UNL d   1       1.470  -2.181   1.937  0.00  0.00     0.125 HD
ATOM     24  H   UNL d   1       2.208  -0.723   2.187  0.00  0.00     0.125 HD
ENDBRANCH   1  22
BRANCH   3  25
ATOM     25  C   UNL d   1       1.714   1.680   0.882  0.00  0.00     0.058 A 
ATOM     26  C   UNL d   1       3.069   1.410   1.113  0.00  0.00     0.031 A 
ATOM     27  C   UNL d   1       3.883   2.371   1.714  0.00  0.00     0.002 A 
ATOM     28  C   UNL d   1       3.352   3.608   2.075  0.00  0.00     0.000 A 
ATOM     29  C   UNL d   1       2.017   3.904   1.796  0.00  0.00     0.002 A 
ATOM     30  C   UNL d   1       1.200   2.951   1.181  0.00  0.00     0.031 A 
ENDBRANCH   3  25
TORSDOF 6
