REMARK  0 active torsions:
REMARK  status: ('A' for Active; 'I' for Inactive)
ROOT
ATOM      1  C   UNL d   1       0.299  -0.738   0.000  0.00  0.00     0.073 A 
ATOM      2  C   UNL d   1      -0.900  -1.514   0.001  0.00  0.00    -0.026 A 
ATOM      3  C   UNL d   1       0.262   0.769   0.001  0.00  0.00     0.067 A 
ATOM      4  S   UNL d   1       2.573   0.087  -0.002  0.00  0.00     0.068 SA
ATOM      5  N   UNL d   1       1.554  -1.221  -0.002  0.00  0.00    -0.310 N 
ATOM      6  HN  UNL d   1       1.827  -2.204  -0.003  1.00  0.00     0.176 HD
ATOM      7  N   UNL d   1       1.480   1.334  -0.001  0.00  0.00    -0.310 N 
ATOM      8  HN  UNL d   1       1.691   2.332  -0.001  1.00  0.00     0.176 HD
ATOM      9  C   UNL d   1      -2.109  -0.755   0.004  0.00  0.00    -0.054 A 
ATOM     10  C   UNL d   1      -0.962   1.469   0.002  0.00  0.00     0.033 A 
ATOM     11  C   UNL d   1      -2.119   0.673   0.004  0.00  0.00     0.010 A 
ATOM     12  C   UNL d   1      -0.895  -3.014  -0.001  0.00  0.00     0.051 C 
ATOM     13  C   UNL d   1      -3.465  -1.426   0.008  0.00  0.00     0.049 C 
ENDROOT
TORSDOF 0
