REMARK  8 active torsions:
REMARK  status: ('A' for Active; 'I' for Inactive)
REMARK    1  A    between atoms: S_9  and  C_2 
REMARK    2  A    between atoms: S_11  and  C_3 
REMARK    3  A    between atoms: C_8  and  C_13 
REMARK    4  A    between atoms: O_12  and  C_8 
REMARK    5  A    between atoms: C_14  and  S_11 
REMARK    6  A    between atoms: C_15  and  O_12 
REMARK    7  A    between atoms: C_13  and  C_16 
REMARK    8  A    between atoms: C_16  and  C_14 
ROOT
ATOM      1  S   UNL d   1       0.890  -1.134   0.009  0.00  0.00    -0.038 SA
ATOM      2  C   UNL d   1      -0.123   0.243  -0.011  0.00  0.00     0.126 A 
ATOM      3  C   UNL d   1       2.223  -0.052  -0.002  0.00  0.00     0.129 A 
ATOM      4  N   UNL d   1       0.515   1.395  -0.034  0.00  0.00    -0.287 N 
ATOM      5  HN  UNL d   1       0.055   2.304  -0.054  1.00  0.00     0.188 HD
ATOM      6  N   UNL d   1       1.888   1.220  -0.028  0.00  0.00    -0.287 N 
ATOM      7  HN  UNL d   1       2.561   1.987  -0.041  1.00  0.00     0.188 HD
ENDROOT
BRANCH   3   8
ATOM      8  S   UNL d   1       3.875  -0.616   0.020  0.00  0.00    -0.103 SA
BRANCH   8   9
ATOM      9  C   UNL d   1       4.801   0.951   0.024  0.00  0.00     0.082 C 
BRANCH   9  10
ATOM     10  C   UNL d   1       6.297   0.626   0.060  0.00  0.00     0.020 C 
BRANCH  10  11
ATOM     11  C   UNL d   1       7.177   1.859  -0.091  0.00  0.00     0.112 C 
BRANCH  11  12
ATOM     12  C   UNL d   1       7.097   2.798   1.085  0.00  0.00     0.258 C 
ATOM     13  O   UNL d   1       6.356   3.769   1.130  0.00  0.00    -0.265 OA
BRANCH  12  14
ATOM     14  O   UNL d   1       7.990   2.433   2.045  0.00  0.00    -0.322 OA
BRANCH  14  15
ATOM     15  C   UNL d   1       8.225   3.402   3.078  0.00  0.00     0.174 C 
ATOM     16  C   UNL d   1       9.359   4.306   2.633  0.00  0.00     0.034 C 
ENDBRANCH  14  15
ENDBRANCH  12  14
ENDBRANCH  11  12
ENDBRANCH  10  11
ENDBRANCH   9  10
ENDBRANCH   8   9
ENDBRANCH   3   8
BRANCH   2  17
ATOM     17  S   UNL d   1      -1.864   0.146  -0.006  0.00  0.00    -0.117 SA
ATOM     18  H   UNL d   1      -1.955  -1.190   0.016  0.00  0.00     0.109 HD
ENDBRANCH   2  17
TORSDOF 8
