REMARK  3 active torsions:
REMARK  status: ('A' for Active; 'I' for Inactive)
REMARK       I    between atoms: N_2  and  C_1 
REMARK    1  A    between atoms: C_5  and  C_1 
REMARK    2  A    between atoms: C_15  and  N_3 
REMARK    3  A    between atoms: C_14  and  C_15 
ROOT
ATOM      1  C   UNL d   1       0.995   0.110  -0.054  0.00  0.00     0.227 C 
ATOM      2  N   UNL d   1       0.342  -0.238  -1.230  0.00  0.00    -0.348 N 
ATOM      3  N   UNL d   1      -0.383  -0.665  -4.072  0.00  0.00     0.095 N 
ATOM      4  O   UNL d   1       2.030  -0.484   0.268  0.00  0.00    -0.273 OA
ATOM      5  C   UNL d   1       0.816  -1.429  -1.954  0.00  0.00     0.156 C 
ATOM      6  C   UNL d   1      -0.889   0.330  -1.788  0.00  0.00     0.156 C 
ATOM      7  C   UNL d   1       0.864  -1.203  -3.477  0.00  0.00     0.292 C 
ATOM      8  C   UNL d   1      -0.765   0.549  -3.313  0.00  0.00     0.292 C 
ENDROOT
BRANCH   3   9
ATOM      9  C   UNL d   1      -1.499  -1.626  -4.071  0.00  0.00     0.311 C 
BRANCH   9  10
ATOM     10  C   UNL d   1      -1.237  -2.913  -4.819  0.00  0.00    -0.027 A 
ATOM     11  C   UNL d   1      -1.310  -4.138  -4.135  0.00  0.00     0.048 A 
ATOM     12  C   UNL d   1      -1.113  -5.295  -4.854  0.00  0.00     0.105 A 
ATOM     13  O   UNL d   1      -1.162  -6.557  -4.348  0.00  0.00    -0.323 OA
ATOM     14  C   UNL d   1      -0.845  -5.275  -6.200  0.00  0.00     0.105 A 
ATOM     15  C   UNL d   1      -0.906  -7.331  -5.538  0.00  0.00     0.352 A 
ATOM     16  O   UNL d   1      -0.694  -6.525  -6.716  0.00  0.00    -0.323 OA
ATOM     17  C   UNL d   1      -0.755  -4.094  -6.905  0.00  0.00     0.040 A 
ATOM     18  C   UNL d   1      -0.954  -2.901  -6.204  0.00  0.00     0.012 A 
ENDBRANCH   9  10
ENDBRANCH   3   9
BRANCH   1  19
ATOM     19  C   UNL d   1       0.440   1.211   0.888  0.00  0.00     0.030 C 
ATOM     20  C   UNL d   1      -0.944   0.809   1.425  0.00  0.00     0.025 C 
ATOM     21  C   UNL d   1       1.373   1.311   2.125  0.00  0.00     0.025 C 
ATOM     22  C   UNL d   1       0.449   2.610   0.250  0.00  0.00     0.025 C 
ENDBRANCH   1  19
TORSDOF 3
