REMARK  2 active torsions:
REMARK  status: ('A' for Active; 'I' for Inactive)
REMARK    1  A    between atoms: C_2  and  C_1 
REMARK       I    between atoms: N_4  and  C_1 
REMARK    2  A    between atoms: C_3  and  N_5 
ROOT
ATOM      1  C   UNL d   1       0.812  -0.054  -0.083  0.00  0.00     0.260 C 
ATOM      2  N   UNL d   1       0.233   1.121  -0.558  0.00  0.00    -0.345 N 
ATOM      3  N   UNL d   1      -0.156   3.879  -1.191  0.00  0.00    -0.214 N 
ATOM      4  O   UNL d   1       1.708  -0.647  -0.676  0.00  0.00    -0.267 OA
ATOM      5  C   UNL d   1       0.628   1.630  -1.883  0.00  0.00     0.146 C 
ATOM      6  C   UNL d   1      -0.840   1.895   0.086  0.00  0.00     0.146 C 
ATOM      7  C   UNL d   1       0.914   3.149  -1.875  0.00  0.00     0.161 C 
ATOM      8  C   UNL d   1      -0.518   3.394   0.133  0.00  0.00     0.161 C 
ENDROOT
BRANCH   1   9
ATOM      9  C   UNL d   1       0.366  -0.627   1.207  0.00  0.00     0.109 A 
ATOM     10  C   UNL d   1      -0.976  -0.898   1.471  0.00  0.00     0.135 A 
ATOM     11  F   UNL d   1      -1.915  -0.682   0.539  0.00  0.00    -0.205 F 
ATOM     12  C   UNL d   1      -1.385  -1.357   2.720  0.00  0.00     0.043 A 
ATOM     13  C   UNL d   1      -0.439  -1.624   3.708  0.00  0.00     0.006 A 
ATOM     14  C   UNL d   1       0.915  -1.436   3.431  0.00  0.00     0.043 A 
ATOM     15  C   UNL d   1       1.312  -0.937   2.188  0.00  0.00     0.135 A 
ATOM     16  F   UNL d   1       2.621  -0.732   1.980  0.00  0.00    -0.205 F 
ENDBRANCH   1   9
BRANCH   3  17
ATOM     17  C   UNL d   1      -0.963   4.768  -1.848  0.00  0.00     0.680 A 
ATOM     18  N   UNL d   1      -2.078   5.206  -1.232  0.00  0.00    -0.201 N 
ATOM     19  C   UNL d   1      -2.821   6.146  -1.851  0.00  0.00     0.126 A 
ATOM     20  HN  UNL d   1      -2.354   4.836  -0.322  1.00  0.00     0.183 HD
ATOM     21  C   UNL d   1      -2.500   6.677  -3.071  0.00  0.00     0.042 A 
ATOM     22  C   UNL d   1      -1.362   6.167  -3.642  0.00  0.00     0.126 A 
ATOM     23 BR   UNL d   1      -3.532   8.011  -3.892  0.00  0.00    -0.048 Br
ATOM     24  N   UNL d   1      -0.596   5.217  -3.060  0.00  0.00    -0.201 N 
ATOM     25  HN  UNL d   1       0.235   4.853  -3.526  1.00  0.00     0.183 HD
ENDBRANCH   3  17
TORSDOF 2
