REMARK  3 active torsions:
REMARK  status: ('A' for Active; 'I' for Inactive)
REMARK    1  A    between atoms: C_9  and  N_1 
REMARK    2  A    between atoms: C_8  and  C_2 
REMARK    3  A    between atoms: C_12  and  C_9 
ROOT
ATOM      1  N   UNL d   1       0.897  -0.705  -0.095  0.00  0.00    -0.304 N 
ATOM      2  C   UNL d   1       0.942   0.666  -0.110  0.00  0.00     0.135 A 
ATOM      3  N   UNL d   1      -0.237   1.234  -0.100  0.00  0.00    -0.282 N 
ATOM      4  HN  UNL d   1      -0.448   2.232  -0.098  1.00  0.00     0.188 HD
ATOM      5  C   UNL d   1      -0.447  -1.012  -0.064  0.00  0.00     0.194 A 
ATOM      6  N   UNL d   1      -1.118   0.199  -0.091  0.00  0.00    -0.274 N 
ATOM      7  S   UNL d   1      -1.223  -2.475   0.016  0.00  0.00    -0.039 SA
ATOM      8  H   UNL d   1      -2.120   0.340  -0.039  0.00  0.00     0.189 HD
ENDROOT
BRANCH   2   9
ATOM      9  C   UNL d   1       2.180   1.480  -0.090  0.00  0.00     0.012 A 
ATOM     10  C   UNL d   1       3.345   1.118  -0.759  0.00  0.00     0.032 A 
ATOM     11  C   UNL d   1       4.439   1.963  -0.678  0.00  0.00     0.088 A 
ATOM     12  N   UNL d   1       4.435   3.135  -0.012  0.00  0.00    -0.375 N 
ATOM     13  C   UNL d   1       3.279   3.489   0.589  0.00  0.00     0.088 A 
ATOM     14  HN  UNL d   1       5.265   3.725   0.037  1.00  0.00     0.164 HD
ATOM     15  C   UNL d   1       2.141   2.706   0.579  0.00  0.00     0.032 A 
ENDBRANCH   2   9
BRANCH   1  16
ATOM     16  C   UNL d   1       1.980  -1.665   0.089  0.00  0.00     0.160 C 
BRANCH  16  17
ATOM     17  C   UNL d   1       2.553  -2.164  -1.214  0.00  0.00    -0.017 C 
ATOM     18  C   UNL d   1       1.990  -2.141  -2.430  0.00  0.00     0.008 C 
ENDBRANCH  16  17
ENDBRANCH   1  16
TORSDOF 3
