REMARK  8 active torsions:
REMARK  status: ('A' for Active; 'I' for Inactive)
REMARK    1  A    between atoms: C_8  and  C_1 
REMARK    2  A    between atoms: C_9  and  C_2 
REMARK    3  A    between atoms: C_11  and  C_3 
REMARK    4  A    between atoms: N_7  and  C_10 
REMARK    5  A    between atoms: O_21  and  C_8 
REMARK    6  A    between atoms: O_20  and  C_9 
REMARK    7  A    between atoms: C_25  and  O_20 
REMARK    8  A    between atoms: C_24  and  O_21 
ROOT
ATOM      1  C   UNL d   1      -1.301  -1.009   0.112  0.00  0.00     0.052 C 
ATOM      2  C   UNL d   1       1.263  -1.017   0.143  0.00  0.00     0.052 C 
ATOM      3  C   UNL d   1      -0.015  -1.840  -0.073  0.00  0.00     0.100 C 
ATOM      4  C   UNL d   1      -1.243   0.343   0.021  0.00  0.00     0.018 C 
ATOM      5  C   UNL d   1       1.212   0.333   0.059  0.00  0.00     0.018 C 
ATOM      6  N   UNL d   1      -0.007   0.959  -0.132  0.00  0.00    -0.362 N 
ATOM      7  C   UNL d   1      -2.389   1.324   0.061  0.00  0.00     0.069 C 
ATOM      8  C   UNL d   1       2.412   1.243   0.140  0.00  0.00     0.069 C 
ATOM      9  H   UNL d   1      -0.003   1.976  -0.150  0.00  0.00     0.165 HD
ENDROOT
BRANCH   3  10
ATOM     10  C   UNL d   1       0.021  -2.494  -1.470  0.00  0.00    -0.044 A 
ATOM     11  C   UNL d   1      -0.058  -3.889  -1.611  0.00  0.00     0.011 A 
ATOM     12  C   UNL d   1       0.032  -4.489  -2.874  0.00  0.00     0.036 A 
ATOM     13  C   UNL d   1       0.190  -3.688  -4.011  0.00  0.00     0.102 A 
ATOM     14  C   UNL d   1       0.245  -2.296  -3.894  0.00  0.00     0.036 A 
ATOM     15  C   UNL d   1       0.158  -1.707  -2.630  0.00  0.00     0.011 A 
BRANCH  13  16
ATOM     16  N   UNL d   1       0.307  -4.306  -5.337  0.00  0.00    -0.116 N 
ATOM     17  O   UNL d   1       0.421  -3.562  -6.318  0.00  0.00    -0.532 OA
ATOM     18  O   UNL d   1       0.291  -5.546  -5.399  0.00  0.00    -0.532 OA
ENDBRANCH  13  16
ENDBRANCH   3  10
BRANCH   2  19
ATOM     19  C   UNL d   1       2.556  -1.725   0.324  0.00  0.00     0.292 C 
ATOM     20  O   UNL d   1       3.652  -1.236   0.090  0.00  0.00    -0.259 OA
BRANCH  19  21
ATOM     21  O   UNL d   1       2.354  -3.007   0.723  0.00  0.00    -0.318 OA
BRANCH  21  22
ATOM     22  C   UNL d   1       3.489  -3.869   0.548  0.00  0.00     0.174 C 
ATOM     23  C   UNL d   1       3.419  -4.455  -0.850  0.00  0.00     0.034 C 
ENDBRANCH  21  22
ENDBRANCH  19  21
ENDBRANCH   2  19
BRANCH   1  24
ATOM     24  C   UNL d   1      -2.511  -1.837   0.408  0.00  0.00     0.292 C 
ATOM     25  O   UNL d   1      -2.573  -3.039   0.184  0.00  0.00    -0.259 OA
BRANCH  24  26
ATOM     26  O   UNL d   1      -3.472  -1.117   1.032  0.00  0.00    -0.318 OA
BRANCH  26  27
ATOM     27  C   UNL d   1      -4.693  -1.805   1.345  0.00  0.00     0.174 C 
ATOM     28  C   UNL d   1      -5.590  -1.886   0.123  0.00  0.00     0.034 C 
ENDBRANCH  26  27
ENDBRANCH  24  26
ENDBRANCH   1  24
TORSDOF 8
