REMARK  4 active torsions:
REMARK  status: ('A' for Active; 'I' for Inactive)
REMARK    1  A    between atoms: C_2  and  C_5 
REMARK    2  A    between atoms: N_6  and  O_12 
REMARK    3  A    between atoms: C_13  and  C_11 
REMARK    4  A    between atoms: O_12  and  C_13 
ROOT
ATOM      1  N   UNL d   1       1.047  -1.579   0.716  0.00  0.00    -0.197 NA
ATOM      2  C   UNL d   1       2.179  -1.521   0.965  0.00  0.00     0.061 C 
ATOM      3  C   UNL d   1       3.609  -1.441   1.272  0.00  0.00     0.152 C 
ENDROOT
BRANCH   3   4
ATOM      4  C   UNL d   1       4.433  -1.433  -0.006  0.00  0.00     0.215 C 
BRANCH   4   5
ATOM      5  O   UNL d   1       5.826  -1.345   0.311  0.00  0.00    -0.280 OA
BRANCH   5   6
ATOM      6  N   UNL d   1       6.319  -2.641   0.528  0.00  0.00    -0.275 N 
ATOM      7  C   UNL d   1       7.589  -2.579   0.783  0.00  0.00     0.151 C 
ATOM      8  HN  UNL d   1       5.766  -3.497   0.490  1.00  0.00     0.193 HD
BRANCH   7   9
ATOM      9  C   UNL d   1       8.343  -3.772   1.038  0.00  0.00     0.092 A 
ATOM     10  O   UNL d   1       9.667  -3.646   1.353  0.00  0.00    -0.321 OA
ATOM     11  C   UNL d   1      10.149  -4.898   1.565  0.00  0.00     0.142 A 
ATOM     12  C   UNL d   1       9.157  -5.833   1.385  0.00  0.00     0.027 A 
ATOM     13  C   UNL d   1       7.992  -5.108   1.039  0.00  0.00     0.040 A 
ENDBRANCH   7   9
ENDBRANCH   5   6
ENDBRANCH   4   5
ENDBRANCH   3   4
TORSDOF 4
