REMARK  4 active torsions:
REMARK  status: ('A' for Active; 'I' for Inactive)
REMARK    1  A    between atoms: N_2  and  S_1 
REMARK    2  A    between atoms: C_3  and  S_1 
REMARK    3  A    between atoms: C_6  and  C_9 
REMARK    4  A    between atoms: O_18  and  C_10 
ROOT
ATOM      1  N   UNL d   1       0.404   1.071   1.268  0.00  0.00    -0.307 N 
ATOM      2  C   UNL d   1       0.944   2.441   1.153  0.00  0.00     0.136 C 
ATOM      3  C   UNL d   1      -1.022   0.880   1.607  0.00  0.00     0.136 C 
ATOM      4  C   UNL d   1      -1.241   3.333   2.267  0.00  0.00     0.024 C 
ATOM      5  C   UNL d   1       0.264   3.495   2.022  0.00  0.00     0.030 C 
ATOM      6  C   UNL d   1      -1.527   1.877   2.638  0.00  0.00     0.030 C 
ENDROOT
BRANCH   1   7
ATOM      7  S   UNL d   1       1.071  -0.078   0.175  0.00  0.00     0.260 S 
ATOM      8  O   UNL d   1       0.634  -1.394   0.592  0.00  0.00    -0.200 OA
ATOM      9  O   UNL d   1       2.480   0.222   0.018  0.00  0.00    -0.200 OA
BRANCH   7  10
ATOM     10  C   UNL d   1       0.284   0.257  -1.401  0.00  0.00     0.079 A 
ATOM     11  C   UNL d   1       0.891   1.118  -2.321  0.00  0.00     0.026 A 
ATOM     12  C   UNL d   1       0.307   1.320  -3.578  0.00  0.00     0.008 A 
ATOM     13  C   UNL d   1      -0.869   0.648  -3.936  0.00  0.00    -0.062 A 
ATOM     14  C   UNL d   1      -1.444  -0.247  -3.025  0.00  0.00     0.008 A 
ATOM     15  C   UNL d   1      -1.514   0.913  -5.268  0.00  0.00     0.048 C 
ATOM     16  C   UNL d   1      -0.865  -0.452  -1.768  0.00  0.00     0.026 A 
ENDBRANCH   7  10
ENDBRANCH   1   7
BRANCH   4  17
ATOM     17  C   UNL d   1      -2.185   3.880   1.194  0.00  0.00    -0.021 A 
ATOM     18  C   UNL d   1      -3.385   4.542   1.551  0.00  0.00     0.074 A 
ATOM     19  C   UNL d   1      -4.289   4.967   0.565  0.00  0.00     0.037 A 
ATOM     20  C   UNL d   1      -3.991   4.799  -0.781  0.00  0.00     0.003 A 
ATOM     21  C   UNL d   1      -2.796   4.197  -1.151  0.00  0.00     0.001 A 
ATOM     22  C   UNL d   1      -1.912   3.732  -0.174  0.00  0.00     0.010 A 
BRANCH  18  23
ATOM     23  O   UNL d   1      -3.642   4.731   2.889  0.00  0.00    -0.355 OA
ATOM     24  C   UNL d   1      -4.277   5.976   3.199  0.00  0.00     0.210 C 
ENDBRANCH  18  23
ENDBRANCH   4  17
TORSDOF 4
