REMARK  8 active torsions:
REMARK  status: ('A' for Active; 'I' for Inactive)
REMARK    1  A    between atoms: N_2  and  S_1 
REMARK    2  A    between atoms: C_3  and  S_1 
REMARK    3  A    between atoms: C_4  and  N_2 
REMARK    4  A    between atoms: C_10  and  N_2 
REMARK    5  A    between atoms: C_6  and  C_4 
REMARK    6  A    between atoms: C_5  and  C_9 
REMARK       I    between atoms: N_12  and  C_5 
REMARK    7  A    between atoms: C_9  and  C_10 
REMARK    8  A    between atoms: C_20  and  N_12 
ROOT
ATOM      1  N   UNL d   1       0.144   1.547  -0.250  0.00  0.00    -0.200 NA
ENDROOT
BRANCH   1   2
ATOM      2  S   UNL d   1       0.865  -0.009  -0.200  0.00  0.00     0.244 S 
ATOM      3  O   UNL d   1       0.686  -0.511   1.146  0.00  0.00    -0.206 OA
ATOM      4  O   UNL d   1       2.192   0.125  -0.778  0.00  0.00    -0.206 OA
BRANCH   2   5
ATOM      5  C   UNL d   1      -0.028  -1.074  -1.302  0.00  0.00     0.074 A 
ATOM      6  C   UNL d   1       0.001  -0.824  -2.677  0.00  0.00     0.026 A 
ATOM      7  C   UNL d   1      -0.528  -1.774  -3.556  0.00  0.00     0.025 A 
ATOM      8  C   UNL d   1      -1.068  -2.963  -3.060  0.00  0.00     0.034 A 
ATOM      9  C   UNL d   1      -1.110  -3.204  -1.687  0.00  0.00     0.025 A 
ATOM     10 CL   UNL d   1      -1.652  -4.158  -4.151  0.00  0.00    -0.084 Cl
ATOM     11  C   UNL d   1      -0.590  -2.256  -0.802  0.00  0.00     0.026 A 
ENDBRANCH   2   5
ENDBRANCH   1   2
BRANCH   1  12
ATOM     12  C   UNL d   1      -1.353   1.517  -0.110  0.00  0.00     0.172 C 
BRANCH  12  13
ATOM     13  C   UNL d   1      -1.934   2.888  -0.249  0.00  0.00     0.066 A 
ATOM     14  O   UNL d   1      -2.640   3.355   0.823  0.00  0.00    -0.326 OA
ATOM     15  C   UNL d   1      -3.010   4.629   0.535  0.00  0.00     0.142 A 
ATOM     16  C   UNL d   1      -2.558   4.990  -0.712  0.00  0.00     0.027 A 
ATOM     17  C   UNL d   1      -1.874   3.861  -1.227  0.00  0.00     0.036 A 
ENDBRANCH  12  13
ENDBRANCH   1  12
BRANCH   1  18
ATOM     18  C   UNL d   1       0.740   2.488   0.797  0.00  0.00     0.117 C 
BRANCH  18  19
ATOM     19  C   UNL d   1       2.252   2.660   0.774  0.00  0.00     0.118 C 
BRANCH  19  20
ATOM     20  C   UNL d   1       2.688   3.530  -0.382  0.00  0.00     0.223 C 
ATOM     21  N   UNL d   1       3.186   2.826  -1.461  0.00  0.00    -0.327 N 
ATOM     22  H   UNL d   1       3.085   1.812  -1.428  0.00  0.00     0.169 HD
ATOM     23  O   UNL d   1       2.562   4.749  -0.298  0.00  0.00    -0.273 OA
BRANCH  21  24
ATOM     24  C   UNL d   1       3.732   3.377  -2.643  0.00  0.00     0.034 A 
ATOM     25  C   UNL d   1       4.006   4.738  -2.809  0.00  0.00     0.029 A 
ATOM     26  C   UNL d   1       4.514   5.226  -4.017  0.00  0.00     0.002 A 
ATOM     27  C   UNL d   1       4.761   4.355  -5.074  0.00  0.00     0.000 A 
ATOM     28  C   UNL d   1       4.523   2.992  -4.912  0.00  0.00     0.002 A 
ATOM     29  C   UNL d   1       4.019   2.504  -3.700  0.00  0.00     0.029 A 
ENDBRANCH  21  24
ENDBRANCH  19  20
ENDBRANCH  18  19
ENDBRANCH   1  18
TORSDOF 8
