REMARK  7 active torsions:
REMARK  status: ('A' for Active; 'I' for Inactive)
REMARK    1  A    between atoms: C_2  and  C_1 
REMARK    2  A    between atoms: C_3  and  C_2 
REMARK    3  A    between atoms: C_4  and  C_3 
REMARK    4  A    between atoms: N_7  and  C_4 
REMARK    5  A    between atoms: C_9  and  C_4 
REMARK    6  A    between atoms: C_10  and  N_7 
REMARK    7  A    between atoms: O_16  and  C_11 
ROOT
ATOM      1  C   UNL d   1      -1.685   0.100  -2.075  0.00  0.00     0.100 C 
ENDROOT
BRANCH   1   2
ATOM      2  C   UNL d   1      -0.755   1.293  -2.334  0.00  0.00     0.103 C 
BRANCH   2   3
ATOM      3  C   UNL d   1       0.104   1.645  -1.140  0.00  0.00     0.133 C 
ATOM      4  O   UNL d   1       1.313   1.400  -1.111  0.00  0.00    -0.298 OA
BRANCH   3   5
ATOM      5  C   UNL d   1      -0.542   2.409  -0.029  0.00  0.00     0.055 A 
ATOM      6  C   UNL d   1       0.033   3.735   0.413  0.00  0.00     0.013 A 
ATOM      7  C   UNL d   1       0.129   2.542   1.319  0.00  0.00     0.013 A 
ENDBRANCH   3   5
ENDBRANCH   2   3
ENDBRANCH   1   2
BRANCH   1   8
ATOM      8  N   UNL d   1      -2.763   0.454  -1.126  0.00  0.00    -0.284 NA
ATOM      9  H   UNL d   1      -3.470   1.029  -1.579  0.00  0.00     0.128 HD
BRANCH   8  10
ATOM     10  C   UNL d   1      -3.392  -0.595  -0.425  0.00  0.00     0.009 A 
ATOM     11  C   UNL d   1      -2.701  -1.718   0.041  0.00  0.00     0.026 A 
ATOM     12  C   UNL d   1      -3.363  -2.763   0.698  0.00  0.00     0.038 A 
ATOM     13  C   UNL d   1      -4.726  -2.680   0.953  0.00  0.00     0.068 A 
ATOM     14  C   UNL d   1      -5.407  -1.517   0.596  0.00  0.00     0.038 A 
ATOM     15  C   UNL d   1      -4.742  -0.479  -0.073  0.00  0.00     0.026 A 
BRANCH  13  16
ATOM     16  O   UNL d   1      -5.483  -3.648   1.552  0.00  0.00    -0.356 OA
ATOM     17  C   UNL d   1      -4.837  -4.894   1.792  0.00  0.00     0.210 C 
ENDBRANCH  13  16
ENDBRANCH   8  10
ENDBRANCH   1   8
BRANCH   1  18
ATOM     18  C   UNL d   1      -2.325  -0.412  -3.370  0.00  0.00    -0.040 A 
ATOM     19  C   UNL d   1      -2.247  -1.775  -3.692  0.00  0.00     0.009 A 
ATOM     20  C   UNL d   1      -2.861  -2.275  -4.842  0.00  0.00     0.001 A 
ATOM     21  C   UNL d   1      -3.570  -1.421  -5.684  0.00  0.00     0.000 A 
ATOM     22  C   UNL d   1      -3.663  -0.066  -5.375  0.00  0.00     0.001 A 
ATOM     23  C   UNL d   1      -3.048   0.438  -4.226  0.00  0.00     0.009 A 
ENDBRANCH   1  18
TORSDOF 7
