REMARK  5 active torsions:
REMARK  status: ('A' for Active; 'I' for Inactive)
REMARK    1  A    between atoms: C_12  and  C_3 
REMARK    2  A    between atoms: O_13  and  C_6 
REMARK    3  A    between atoms: C_11  and  C_7 
REMARK    4  A    between atoms: O_18  and  C_12 
REMARK    5  A    between atoms: C_19  and  O_13 
ROOT
ATOM      1  C   UNL d   1      -0.298  -0.753   0.013  0.00  0.00     0.069 A 
ATOM      2  C   UNL d   1      -0.225   0.687   0.002  0.00  0.00     0.033 A 
ATOM      3  C   UNL d   1      -1.593  -1.228  -0.018  0.00  0.00     0.107 A 
ATOM      4  N   UNL d   1       0.819  -1.527   0.042  0.00  0.00    -0.350 N 
ATOM      5  HN  UNL d   1       0.792  -2.547   0.020  1.00  0.00     0.166 HD
ATOM      6  C   UNL d   1       0.954   1.438   0.022  0.00  0.00     0.091 A 
ATOM      7  C   UNL d   1       1.988  -0.804   0.103  0.00  0.00     0.119 A 
ATOM      8  S   UNL d   1      -2.710   0.093  -0.051  0.00  0.00    -0.093 SA
ATOM      9  C   UNL d   1       2.081   0.614   0.141  0.00  0.00     0.072 A 
ATOM     10  C   UNL d   1      -1.467   1.270  -0.038  0.00  0.00     0.067 A 
ENDROOT
BRANCH   6  11
ATOM     11  O   UNL d   1       0.960   2.808  -0.032  0.00  0.00    -0.310 OA
BRANCH  11  12
ATOM     12  C   UNL d   1       2.023   3.448  -0.630  0.00  0.00     0.076 A 
ATOM     13  C   UNL d   1       2.717   2.944  -1.736  0.00  0.00     0.037 A 
ATOM     14  C   UNL d   1       3.834   3.618  -2.228  0.00  0.00     0.003 A 
ATOM     15  C   UNL d   1       4.219   4.832  -1.663  0.00  0.00     0.000 A 
ATOM     16  C   UNL d   1       3.476   5.381  -0.618  0.00  0.00     0.003 A 
ATOM     17  C   UNL d   1       2.379   4.689  -0.101  0.00  0.00     0.037 A 
ENDBRANCH  11  12
ENDBRANCH   6  11
BRANCH   7  18
ATOM     18  C   UNL d   1       3.316  -1.563   0.074  0.00  0.00     0.432 C 
ATOM     19  F   UNL d   1       3.196  -2.917   0.006  0.00  0.00    -0.165 F 
ATOM     20  F   UNL d   1       4.082  -1.206  -1.001  0.00  0.00    -0.165 F 
ATOM     21  F   UNL d   1       4.088  -1.307   1.169  0.00  0.00    -0.165 F 
ENDBRANCH   7  18
BRANCH   3  22
ATOM     22  C   UNL d   1      -2.135  -2.570  -0.025  0.00  0.00     0.302 C 
ATOM     23  O   UNL d   1      -3.332  -2.857  -0.048  0.00  0.00    -0.259 OA
BRANCH  22  24
ATOM     24  O   UNL d   1      -1.148  -3.509  -0.004  0.00  0.00    -0.322 OA
ATOM     25  C   UNL d   1      -1.622  -4.856  -0.009  0.00  0.00     0.213 C 
ENDBRANCH  22  24
ENDBRANCH   3  22
TORSDOF 5
