REMARK  5 active torsions:
REMARK  status: ('A' for Active; 'I' for Inactive)
REMARK    1  A    between atoms: N_13  and  C_3 
REMARK    2  A    between atoms: C_12  and  C_10 
REMARK    3  A    between atoms: C_15  and  C_11 
REMARK    4  A    between atoms: N_16  and  N_13 
REMARK       I    between atoms: C_14  and  N_16 
REMARK       I    between atoms: N_17  and  C_14 
REMARK    5  A    between atoms: C_22  and  N_17 
ROOT
ATOM      1  N   UNL d   1       0.163   0.585   0.145  0.00  0.00    -0.222 N 
ATOM      2  C   UNL d   1       0.047  -0.802  -0.001  0.00  0.00     0.131 A 
ATOM      3  C   UNL d   1      -1.000   1.396   0.233  0.00  0.00     0.141 A 
ATOM      4  N   UNL d   1       1.475   0.969   0.170  0.00  0.00    -0.294 N 
ATOM      5  HN  UNL d   1       1.841   1.916   0.267  1.00  0.00     0.187 HD
ATOM      6  N   UNL d   1      -1.153  -1.448  -0.042  0.00  0.00    -0.337 N 
ATOM      7  HN  UNL d   1      -1.211  -2.461  -0.139  1.00  0.00     0.167 HD
ATOM      8  C   UNL d   1       1.327  -1.288  -0.079  0.00  0.00     0.077 A 
ATOM      9  C   UNL d   1      -2.199   0.787   0.180  0.00  0.00     0.085 A 
ATOM     10  C   UNL d   1      -2.227  -0.707   0.050  0.00  0.00     0.121 A 
ATOM     11  C   UNL d   1       2.178  -0.164   0.041  0.00  0.00     0.037 A 
ENDROOT
BRANCH   3  12
ATOM     12  N   UNL d   1      -0.834   2.772   0.381  0.00  0.00    -0.297 N 
ATOM     13  H   UNL d   1       0.132   3.083   0.170  0.00  0.00     0.183 HD
BRANCH  12  14
ATOM     14  N   UNL d   1      -1.818   3.693  -0.070  0.00  0.00    -0.153 NA
ATOM     15  C   UNL d   1      -1.327   4.926  -0.512  0.00  0.00     0.317 C 
ATOM     16  N   UNL d   1      -2.366   5.779  -0.839  0.00  0.00    -0.312 N 
ATOM     17  O   UNL d   1      -0.125   5.155  -0.589  0.00  0.00    -0.252 OA
ATOM     18  H   UNL d   1      -3.274   5.347  -0.931  0.00  0.00     0.170 HD
ATOM     19  H   UNL d   1      -2.606   3.766   0.565  0.00  0.00     0.157 HD
BRANCH  16  20
ATOM     20  C   UNL d   1      -2.278   7.138  -1.206  0.00  0.00     0.035 A 
ATOM     21  C   UNL d   1      -1.092   7.873  -1.172  0.00  0.00     0.029 A 
ATOM     22  C   UNL d   1      -1.085   9.230  -1.513  0.00  0.00     0.002 A 
ATOM     23  C   UNL d   1      -2.266   9.865  -1.891  0.00  0.00     0.000 A 
ATOM     24  C   UNL d   1      -3.454   9.141  -1.936  0.00  0.00     0.002 A 
ATOM     25  C   UNL d   1      -3.460   7.785  -1.596  0.00  0.00     0.029 A 
ENDBRANCH  16  20
ENDBRANCH  12  14
ENDBRANCH   3  12
BRANCH  10  26
ATOM     26  C   UNL d   1      -3.607  -1.368   0.039  0.00  0.00     0.432 C 
ATOM     27  F   UNL d   1      -4.623  -0.462   0.131  0.00  0.00    -0.165 F 
ATOM     28  F   UNL d   1      -3.837  -2.076  -1.099  0.00  0.00    -0.165 F 
ATOM     29  F   UNL d   1      -3.775  -2.228   1.079  0.00  0.00    -0.165 F 
ENDBRANCH  10  26
BRANCH  11  30
ATOM     30  C   UNL d   1       3.704  -0.191   0.021  0.00  0.00    -0.007 C 
ATOM     31  C   UNL d   1       4.324   1.197   0.279  0.00  0.00     0.021 C 
ATOM     32  C   UNL d   1       4.230  -1.153   1.110  0.00  0.00     0.021 C 
ATOM     33  C   UNL d   1       4.201  -0.691  -1.352  0.00  0.00     0.021 C 
ENDBRANCH  11  30
TORSDOF 5
