REMARK  2 active torsions:
REMARK  status: ('A' for Active; 'I' for Inactive)
REMARK    1  A    between atoms: C_3  and  N_1 
REMARK    2  A    between atoms: C_2  and  C_3 
ROOT
ATOM      1  N   UNL d   1       0.841  -0.637   0.000  0.00  0.00    -0.350 N 
ATOM      2  C   UNL d   1       0.920   0.761  -0.028  0.00  0.00     0.008 A 
ATOM      3  C   UNL d   1      -0.493  -0.993   0.105  0.00  0.00     0.008 A 
ATOM      4  C   UNL d   1      -1.244   0.170   0.066  0.00  0.00     0.026 A 
ATOM      5  C   UNL d   1      -0.365   1.262  -0.010  0.00  0.00     0.026 A 
ATOM      6  C   UNL d   1      -1.048  -2.367   0.231  0.00  0.00     0.068 C 
ATOM      7  C   UNL d   1       2.186   1.549  -0.061  0.00  0.00     0.068 C 
ENDROOT
BRANCH   1   8
ATOM      8  C   UNL d   1       2.067  -1.454  -0.077  0.00  0.00     0.175 C 
BRANCH   8   9
ATOM      9  C   UNL d   1       1.975  -2.952  -0.078  0.00  0.00     0.006 A 
ATOM     10  C   UNL d   1       1.770  -3.828  -1.138  0.00  0.00    -0.047 A 
ATOM     11  C   UNL d   1       1.885  -5.193  -0.709  0.00  0.00     0.015 A 
ATOM     12  C   UNL d   1       1.488  -3.448  -2.556  0.00  0.00     0.049 C 
ATOM     13  C   UNL d   1       2.167  -5.312   0.631  0.00  0.00     0.051 A 
ATOM     14  S   UNL d   1       2.321  -3.793   1.385  0.00  0.00    -0.104 SA
ENDBRANCH   8   9
ENDBRANCH   1   8
TORSDOF 2
