REMARK  1 active torsions:
REMARK  status: ('A' for Active; 'I' for Inactive)
REMARK    1  A    between atoms: C_2  and  N_1 
ROOT
ATOM      1  C   UNL d   1       0.012   2.299  -0.142  0.00  0.00     0.084 A 
ATOM      2  C   UNL d   1      -0.578   3.074   0.869  0.00  0.00     0.146 A 
ATOM      3  C   UNL d   1      -0.585   4.463   0.802  0.00  0.00     0.086 A 
ATOM      4  C   UNL d   1       0.603   2.950  -1.234  0.00  0.00     0.036 A 
ATOM      5  C   UNL d   1      -0.025   5.085  -0.304  0.00  0.00     0.119 A 
ATOM      6  F   UNL d   1      -1.064   2.486   1.973  0.00  0.00    -0.204 F 
ATOM      7  C   UNL d   1       0.562   4.343  -1.325  0.00  0.00     0.045 A 
ATOM      8  F   UNL d   1      -0.040   6.421  -0.388  0.00  0.00    -0.206 F 
ENDROOT
BRANCH   1   9
ATOM      9  N   UNL d   1       0.013   0.892  -0.058  0.00  0.00    -0.249 N 
ATOM     10  C   UNL d   1       1.119   0.115  -0.288  0.00  0.00     0.231 C 
ATOM     11  C   UNL d   1       0.745  -1.322  -0.072  0.00  0.00     0.113 C 
ATOM     12  O   UNL d   1       2.252   0.478  -0.561  0.00  0.00    -0.273 OA
ATOM     13  C   UNL d   1      -0.756  -1.303   0.125  0.00  0.00     0.113 C 
ATOM     14  C   UNL d   1      -1.116   0.151   0.184  0.00  0.00     0.231 C 
ATOM     15  O   UNL d   1      -2.269   0.547   0.314  0.00  0.00    -0.273 OA
ENDBRANCH   1   9
TORSDOF 1
