REMARK  8 active torsions:
REMARK  status: ('A' for Active; 'I' for Inactive)
REMARK    1  A    between atoms: C_10  and  C_1 
REMARK    2  A    between atoms: C_2  and  C_9 
REMARK    3  A    between atoms: C_12  and  C_3 
REMARK    4  A    between atoms: C_11  and  C_4 
REMARK       I    between atoms: C_9  and  N_13 
REMARK       I    between atoms: N_14  and  C_10 
REMARK    5  A    between atoms: C_43  and  C_35 
REMARK    6  A    between atoms: C_36  and  C_42 
REMARK    7  A    between atoms: C_39  and  C_43 
REMARK    8  A    between atoms: C_42  and  C_39 
ROOT
ATOM      1  C   UNL d   1      -3.156  -7.046   1.804  0.00  0.00     0.001 C 
ENDROOT
BRANCH   1   2
ATOM      2  C   UNL d   1      -3.186  -6.160   0.557  0.00  0.00     0.005 C 
BRANCH   2   3
ATOM      3  C   UNL d   1      -3.687  -4.720   0.793  0.00  0.00    -0.012 C 
ATOM      4  C   UNL d   1      -3.854  -3.971  -0.528  0.00  0.00     0.024 C 
ATOM      5  C   UNL d   1      -2.524  -3.625  -1.176  0.00  0.00     0.126 C 
ATOM      6  N   UNL d   1      -1.575  -2.966  -0.275  0.00  0.00    -0.348 N 
ATOM      7  C   UNL d   1      -0.541  -2.110  -0.719  0.00  0.00     0.258 C 
ATOM      8  C   UNL d   1      -1.431  -3.553   1.058  0.00  0.00     0.126 C 
ATOM      9  O   UNL d   1       0.365  -1.755   0.024  0.00  0.00    -0.267 OA
ATOM     10  C   UNL d   1      -2.774  -3.894   1.707  0.00  0.00     0.024 C 
BRANCH   7  11
ATOM     11  C   UNL d   1      -0.636  -1.587  -2.067  0.00  0.00     0.092 C 
ATOM     12  C   UNL d   1      -0.664  -0.220  -2.515  0.00  0.00     0.085 C 
ATOM     13  N   UNL d   1      -0.918  -0.197  -3.837  0.00  0.00    -0.259 N 
ATOM     14  O   UNL d   1      -0.814  -1.486  -4.288  0.00  0.00    -0.241 OA
ATOM     15  HN  UNL d   1      -1.146   0.624  -4.396  1.00  0.00     0.195 HD
ATOM     16  C   UNL d   1      -0.583  -2.314  -3.243  0.00  0.00     0.090 C 
ATOM     17  C   UNL d   1      -0.349  -3.726  -3.596  0.00  0.00     0.080 C 
BRANCH  12  18
ATOM     18  C   UNL d   1      -0.488   1.039  -1.769  0.00  0.00     0.015 A 
ATOM     19  C   UNL d   1       0.168   2.163  -2.322  0.00  0.00     0.046 A 
ATOM     20 CL   UNL d   1       0.857   2.203  -3.915  0.00  0.00    -0.083 Cl
ATOM     21  C   UNL d   1       0.348   3.334  -1.570  0.00  0.00     0.025 A 
ATOM     22  C   UNL d   1      -0.097   3.405  -0.255  0.00  0.00     0.002 A 
ATOM     23  C   UNL d   1      -0.743   2.310   0.309  0.00  0.00     0.001 A 
ATOM     24  C   UNL d   1      -0.947   1.145  -0.443  0.00  0.00     0.015 A 
ENDBRANCH  12  18
ENDBRANCH   7  11
ENDBRANCH   2   3
ENDBRANCH   1   2
BRANCH   1  25
ATOM     25  C   UNL d   1      -4.530  -7.209   2.469  0.00  0.00     0.005 C 
BRANCH  25  26
ATOM     26  C   UNL d   1      -4.491  -8.090   3.731  0.00  0.00    -0.012 C 
ATOM     27  C   UNL d   1      -3.930  -9.498   3.472  0.00  0.00     0.024 C 
ATOM     28  C   UNL d   1      -4.913 -10.349   2.670  0.00  0.00     0.126 C 
ATOM     29  N   UNL d   1      -6.136 -10.477   3.451  0.00  0.00    -0.348 N 
ATOM     30  C   UNL d   1      -6.601 -11.639   4.086  0.00  0.00     0.258 C 
ATOM     31  C   UNL d   1      -6.816  -9.201   3.682  0.00  0.00     0.126 C 
ATOM     32  O   UNL d   1      -7.594 -11.605   4.812  0.00  0.00    -0.267 OA
ATOM     33  C   UNL d   1      -5.889  -8.201   4.385  0.00  0.00     0.024 C 
BRANCH  30  34
ATOM     34  C   UNL d   1      -5.970 -12.912   3.792  0.00  0.00     0.092 C 
ATOM     35  C   UNL d   1      -6.614 -14.130   3.375  0.00  0.00     0.085 C 
ATOM     36  N   UNL d   1      -5.691 -15.073   3.124  0.00  0.00    -0.259 N 
ATOM     37  O   UNL d   1      -4.488 -14.566   3.532  0.00  0.00    -0.241 OA
ATOM     38  HN  UNL d   1      -5.856 -15.990   2.709  1.00  0.00     0.195 HD
ATOM     39  C   UNL d   1      -4.653 -13.295   3.978  0.00  0.00     0.090 C 
ATOM     40  C   UNL d   1      -3.430 -12.688   4.537  0.00  0.00     0.080 C 
BRANCH  35  41
ATOM     41  C   UNL d   1      -8.037 -14.419   3.158  0.00  0.00     0.015 A 
ATOM     42  C   UNL d   1      -8.640 -15.619   3.591  0.00  0.00     0.046 A 
ATOM     43 CL   UNL d   1      -7.808 -16.832   4.510  0.00  0.00    -0.083 Cl
ATOM     44  C   UNL d   1      -9.993 -15.873   3.327  0.00  0.00     0.025 A 
ATOM     45  C   UNL d   1     -10.769 -14.933   2.653  0.00  0.00     0.002 A 
ATOM     46  C   UNL d   1     -10.195 -13.736   2.240  0.00  0.00     0.001 A 
ATOM     47  C   UNL d   1      -8.840 -13.484   2.481  0.00  0.00     0.015 A 
ENDBRANCH  35  41
ENDBRANCH  30  34
ENDBRANCH  25  26
ENDBRANCH   1  25
TORSDOF 8
