REMARK  4 active torsions:
REMARK  status: ('A' for Active; 'I' for Inactive)
REMARK       I    between atoms: N_4  and  C_1 
REMARK    1  A    between atoms: C_5  and  C_1 
REMARK       I    between atoms: C_2  and  N_3 
REMARK    2  A    between atoms: C_6  and  C_2 
REMARK    3  A    between atoms: N_3  and  N_4 
REMARK    4  A    between atoms: N_8  and  C_7 
ROOT
ATOM      1  C   UNL d   1       1.121  -0.137  -0.141  0.00  0.00     0.270 C 
ATOM      2  N   UNL d   1       2.478   0.032   0.048  0.00  0.00    -0.263 N 
ATOM      3  O   UNL d   1       0.562   0.122  -1.205  0.00  0.00    -0.266 OA
ATOM      4  H   UNL d   1       2.998  -0.349   0.837  0.00  0.00     0.190 HD
ENDROOT
BRANCH   2   5
ATOM      5  N   UNL d   1       3.239   0.483  -1.031  0.00  0.00    -0.263 N 
ATOM      6  C   UNL d   1       4.603   0.615  -0.871  0.00  0.00     0.270 C 
ATOM      7  O   UNL d   1       5.187   0.351   0.172  0.00  0.00    -0.266 OA
ATOM      8  H   UNL d   1       2.713   0.867  -1.815  0.00  0.00     0.190 HD
BRANCH   6   9
ATOM      9  C   UNL d   1       5.344   1.130  -2.055  0.00  0.00     0.033 A 
ATOM     10  C   UNL d   1       6.514   1.873  -1.852  0.00  0.00     0.019 A 
ATOM     11  C   UNL d   1       7.231   2.364  -2.948  0.00  0.00     0.025 A 
ATOM     12  C   UNL d   1       6.785   2.098  -4.242  0.00  0.00     0.034 A 
ATOM     13  C   UNL d   1       5.633   1.342  -4.452  0.00  0.00     0.025 A 
ATOM     14 CL   UNL d   1       7.667   2.698  -5.592  0.00  0.00    -0.084 Cl
ATOM     15  C   UNL d   1       4.911   0.856  -3.360  0.00  0.00     0.019 A 
ENDBRANCH   6   9
ENDBRANCH   2   5
BRANCH   1  16
ATOM     16  C   UNL d   1       0.353  -0.667   1.019  0.00  0.00     0.033 A 
ATOM     17  C   UNL d   1       0.782  -0.493   2.335  0.00  0.00     0.019 A 
ATOM     18  C   UNL d   1       0.002  -0.964   3.402  0.00  0.00     0.030 A 
ATOM     19  C   UNL d   1      -1.232  -1.607   3.208  0.00  0.00     0.029 A 
ATOM     20  C   UNL d   1      -1.633  -1.770   1.870  0.00  0.00     0.030 A 
ATOM     21  C   UNL d   1      -0.861  -1.312   0.791  0.00  0.00     0.019 A 
BRANCH  19  22
ATOM     22  N   UNL d   1      -2.039  -2.001   4.265  0.00  0.00    -0.390 N 
ATOM     23  C   UNL d   1      -2.918  -3.165   4.165  0.00  0.00     0.149 C 
ATOM     24  C   UNL d   1      -1.829  -1.515   5.626  0.00  0.00     0.149 C 
ENDBRANCH  19  22
ENDBRANCH   1  16
TORSDOF 4
