REMARK  5 active torsions:
REMARK  status: ('A' for Active; 'I' for Inactive)
REMARK    1  A    between atoms: C_7  and  C_1 
REMARK    2  A    between atoms: N_9  and  N_3 
REMARK       I    between atoms: N_8  and  C_7 
REMARK       I    between atoms: C_10  and  N_8 
REMARK    3  A    between atoms: C_11  and  N_9 
REMARK    4  A    between atoms: O_21  and  C_10 
REMARK    5  A    between atoms: C_24  and  O_21 
ROOT
ATOM      1  C   UNL d   1      -0.606  -1.276   0.156  0.00  0.00     0.117 C 
ATOM      2  N   UNL d   1      -0.748   1.111  -0.247  0.00  0.00    -0.273 N 
ATOM      3  N   UNL d   1       1.334   0.106   0.093  0.00  0.00    -0.233 N 
ATOM      4  C   UNL d   1       0.615   1.264  -0.225  0.00  0.00     0.344 C 
ATOM      5  C   UNL d   1      -1.412  -0.084  -0.197  0.00  0.00     0.266 C 
ATOM      6  C   UNL d   1       0.710  -1.089   0.363  0.00  0.00     0.139 C 
ATOM      7  O   UNL d   1       1.138   2.350  -0.483  0.00  0.00    -0.245 OA
ATOM      8  O   UNL d   1      -2.612  -0.179  -0.419  0.00  0.00    -0.267 OA
ATOM      9  H   UNL d   1      -1.285   1.932  -0.483  0.00  0.00     0.173 HD
ENDROOT
BRANCH   3  10
ATOM     10  N   UNL d   1       2.739   0.294   0.235  0.00  0.00    -0.192 NA
ATOM     11  H   UNL d   1       3.016   1.105  -0.338  0.00  0.00     0.153 HD
BRANCH  10  12
ATOM     12  C   UNL d   1       3.622  -0.783  -0.047  0.00  0.00     0.067 C 
ATOM     13  C   UNL d   1       3.385  -1.813  -0.973  0.00  0.00     0.142 C 
ATOM     14  C   UNL d   1       4.242  -2.902  -1.084  0.00  0.00     0.086 C 
ATOM     15  F   UNL d   1       2.292  -1.795  -1.752  0.00  0.00    -0.204 F 
ATOM     16  C   UNL d   1       5.404  -2.923  -0.329  0.00  0.00     0.119 C 
ATOM     17  C   UNL d   1       5.739  -1.856   0.496  0.00  0.00     0.044 C 
ATOM     18  F   UNL d   1       6.220  -3.982  -0.401  0.00  0.00    -0.206 F 
ATOM     19  C   UNL d   1       4.857  -0.781   0.624  0.00  0.00     0.031 C 
ENDBRANCH  10  12
ENDBRANCH   3  10
BRANCH   1  20
ATOM     20  C   UNL d   1      -1.137  -2.673   0.206  0.00  0.00     0.267 C 
ATOM     21  N   UNL d   1      -2.507  -2.792   0.189  0.00  0.00    -0.269 N 
ATOM     22  C   UNL d   1      -3.166  -3.990   0.188  0.00  0.00     0.367 C 
ATOM     23  H   UNL d   1      -3.076  -1.982  -0.035  0.00  0.00     0.174 HD
ATOM     24  O   UNL d   1      -2.713  -5.079   0.501  0.00  0.00    -0.238 OA
ATOM     25  O   UNL d   1      -0.353  -3.619   0.194  0.00  0.00    -0.267 OA
BRANCH  22  26
ATOM     26  O   UNL d   1      -4.454  -3.791  -0.210  0.00  0.00    -0.304 OA
BRANCH  26  27
ATOM     27  C   UNL d   1      -5.171  -4.982  -0.584  0.00  0.00     0.176 C 
ATOM     28  C   UNL d   1      -4.945  -5.219  -2.067  0.00  0.00     0.034 C 
ENDBRANCH  26  27
ENDBRANCH  22  26
ENDBRANCH   1  20
TORSDOF 5
