REMARK  5 active torsions:
REMARK  status: ('A' for Active; 'I' for Inactive)
REMARK    1  A    between atoms: N_6  and  C_1 
REMARK    2  A    between atoms: C_2  and  C_3 
REMARK       I    between atoms: C_8  and  N_6 
REMARK    3  A    between atoms: C_11  and  C_8 
REMARK    4  A    between atoms: C_15  and  C_12 
REMARK    5  A    between atoms: O_19  and  C_15 
ROOT
ATOM      1  C   UNL d   1      -0.707   1.213  -0.277  0.00  0.00     0.090 A 
ATOM      2  C   UNL d   1       0.676   1.288  -0.217  0.00  0.00     0.038 A 
ATOM      3  S   UNL d   1      -1.259  -0.384  -0.452  0.00  0.00    -0.083 SA
ATOM      4  C   UNL d   1       1.285  -0.025  -0.237  0.00  0.00    -0.040 A 
ATOM      5  C   UNL d   1       0.323  -1.010  -0.386  0.00  0.00     0.059 A 
ATOM      6  C   UNL d   1       2.731  -0.356  -0.047  0.00  0.00     0.049 C 
ENDROOT
BRANCH   1   7
ATOM      7  N   UNL d   1      -1.617   2.265  -0.326  0.00  0.00    -0.316 N 
ATOM      8  C   UNL d   1      -2.894   2.206   0.180  0.00  0.00     0.257 C 
ATOM      9  O   UNL d   1      -3.460   1.249   0.698  0.00  0.00    -0.267 OA
ATOM     10  H   UNL d   1      -1.218   3.176  -0.508  0.00  0.00     0.169 HD
BRANCH   8  11
ATOM     11  C   UNL d   1      -3.654   3.475   0.127  0.00  0.00     0.049 A 
ATOM     12  C   UNL d   1      -3.801   4.255  -1.026  0.00  0.00     0.053 A 
ATOM     13  C   UNL d   1      -4.536   5.454  -0.951  0.00  0.00     0.019 A 
ATOM     14  C   UNL d   1      -5.132   5.852   0.250  0.00  0.00     0.001 A 
ATOM     15  C   UNL d   1      -4.997   5.064   1.388  0.00  0.00     0.001 A 
ATOM     16  C   UNL d   1      -4.263   3.880   1.328  0.00  0.00     0.018 A 
BRANCH  12  17
ATOM     17  C   UNL d   1      -3.206   3.942  -2.348  0.00  0.00     0.177 C 
ATOM     18  O   UNL d   1      -2.740   4.826  -3.054  0.00  0.00    -0.646 OA
BRANCH  17  19
ATOM     19  O   UNL d   1      -3.246   2.660  -2.729  0.00  0.00    -0.773 OA
ATOM     20  H   UNL d   1      -3.656   2.001  -2.129  0.00  0.00     0.167 HD
ENDBRANCH  17  19
ENDBRANCH  12  17
ENDBRANCH   8  11
ENDBRANCH   1   7
BRANCH   2  21
ATOM     21  C   UNL d   1       1.421   2.602  -0.087  0.00  0.00     0.089 A 
ATOM     22  N   UNL d   1       2.654   2.756  -0.522  0.00  0.00    -0.349 N 
ATOM     23  C   UNL d   1       3.060   4.073  -0.355  0.00  0.00     0.050 A 
ATOM     24  HN  UNL d   1       3.228   2.015  -0.924  1.00  0.00     0.166 HD
ATOM     25  C   UNL d   1       4.280   4.632  -0.785  0.00  0.00     0.031 A 
ATOM     26  C   UNL d   1       2.143   4.901   0.293  0.00  0.00     0.033 A 
ATOM     27  C   UNL d   1       4.550   5.980  -0.532  0.00  0.00     0.002 A 
ATOM     28  C   UNL d   1       3.630   6.777   0.143  0.00  0.00     0.002 A 
ATOM     29  C   UNL d   1       2.411   6.250   0.571  0.00  0.00     0.021 A 
ATOM     30  S   UNL d   1       0.730   4.004   0.640  0.00  0.00    -0.069 SA
ENDBRANCH   2  21
TORSDOF 5
