REMARK  6 active torsions:
REMARK  status: ('A' for Active; 'I' for Inactive)
REMARK    1  A    between atoms: C_2  and  S_1 
REMARK    2  A    between atoms: C_11  and  S_1 
REMARK    3  A    between atoms: C_6  and  S_20 
REMARK    4  A    between atoms: C_7  and  C_8 
REMARK    5  A    between atoms: C_25  and  C_11 
REMARK    6  A    between atoms: S_20  and  C_25 
ROOT
ATOM      1  S   UNL d   1       0.317   1.403  -4.035  0.00  0.00    -0.093 SA
ENDROOT
BRANCH   1   2
ATOM      2  C   UNL d   1       0.947   2.954  -4.624  0.00  0.00     0.144 A 
ATOM      3  N   UNL d   1       1.092   3.975  -3.763  0.00  0.00    -0.336 N 
ATOM      4  C   UNL d   1       1.481   5.155  -4.295  0.00  0.00     0.052 A 
ATOM      5  HN  UNL d   1       0.918   3.866  -2.764  1.00  0.00     0.168 HD
ATOM      6  C   UNL d   1       1.706   5.332  -5.647  0.00  0.00     0.048 A 
ATOM      7  C   UNL d   1       1.529   4.224  -6.433  0.00  0.00     0.092 A 
ATOM      8  N   UNL d   1       1.155   3.031  -5.950  0.00  0.00    -0.347 N 
ATOM      9  HN  UNL d   1       1.035   2.221  -6.558  1.00  0.00     0.167 HD
BRANCH   4  10
ATOM     10  C   UNL d   1       1.578   6.268  -3.337  0.00  0.00     0.031 A 
ATOM     11  S   UNL d   1       2.689   7.559  -3.590  0.00  0.00    -0.100 SA
ATOM     12  C   UNL d   1       2.151   8.398  -2.205  0.00  0.00     0.050 A 
ATOM     13  C   UNL d   1       1.178   7.702  -1.527  0.00  0.00     0.008 A 
ATOM     14  C   UNL d   1       0.862   6.467  -2.168  0.00  0.00     0.021 A 
ENDBRANCH   4  10
ENDBRANCH   1   2
BRANCH   1  15
ATOM     15  C   UNL d   1       0.871   1.436  -2.298  0.00  0.00     0.097 C 
BRANCH  15  16
ATOM     16  C   UNL d   1       0.376   0.175  -1.612  0.00  0.00     0.156 C 
BRANCH  16  17
ATOM     17  S   UNL d   1       0.879   0.072   0.085  0.00  0.00     0.177 S 
ATOM     18  O   UNL d   1       0.249  -1.087   0.683  0.00  0.00    -0.223 OA
ATOM     19  O   UNL d   1       2.330   0.180   0.089  0.00  0.00    -0.223 OA
BRANCH  17  20
ATOM     20  C   UNL d   1       0.253   1.487   0.966  0.00  0.00     0.081 A 
ATOM     21  C   UNL d   1      -1.109   1.779   1.067  0.00  0.00     0.057 A 
ATOM     22  C   UNL d   1      -1.528   2.877   1.834  0.00  0.00     0.049 A 
ATOM     23 CL   UNL d   1      -2.357   0.858   0.316  0.00  0.00    -0.083 Cl
ATOM     24  C   UNL d   1      -0.592   3.666   2.501  0.00  0.00     0.035 A 
ATOM     25  C   UNL d   1       0.763   3.371   2.417  0.00  0.00     0.025 A 
ATOM     26 CL   UNL d   1      -1.117   5.003   3.446  0.00  0.00    -0.084 Cl
ATOM     27  C   UNL d   1       1.188   2.279   1.656  0.00  0.00     0.027 A 
ENDBRANCH  17  20
ENDBRANCH  16  17
ENDBRANCH  15  16
ENDBRANCH   1  15
TORSDOF 6
