REMARK  5 active torsions:
REMARK  status: ('A' for Active; 'I' for Inactive)
REMARK    1  A    between atoms: N_2  and  C_1 
REMARK    2  A    between atoms: C_3  and  C_7 
REMARK    3  A    between atoms: S_6  and  C_4 
REMARK    4  A    between atoms: C_8  and  S_6 
REMARK    5  A    between atoms: N_17  and  C_12 
ROOT
ATOM      1  C   UNL d   1       1.404  -0.115  -0.233  0.00  0.00     0.120 A 
ATOM      2  C   UNL d   1       0.635  -1.286  -0.168  0.00  0.00     0.038 A 
ATOM      3  C   UNL d   1       0.825   1.166  -0.108  0.00  0.00     0.053 A 
ATOM      4  C   UNL d   1      -0.557   1.299   0.078  0.00  0.00     0.050 A 
ATOM      5  C   UNL d   1      -0.753  -1.133  -0.018  0.00  0.00     0.022 A 
ATOM      6  C   UNL d   1      -1.340   0.136   0.095  0.00  0.00     0.017 A 
ENDROOT
BRANCH   2   7
ATOM      7  S   UNL d   1       1.275  -2.958  -0.117  0.00  0.00    -0.086 SA
BRANCH   7   8
ATOM      8  C   UNL d   1       1.229  -3.443  -1.840  0.00  0.00     0.026 A 
ATOM      9  C   UNL d   1       2.385  -3.381  -2.645  0.00  0.00     0.023 A 
ATOM     10  C   UNL d   1       2.306  -3.821  -3.973  0.00  0.00     0.024 A 
ATOM     11  C   UNL d   1       1.101  -4.280  -4.509  0.00  0.00     0.002 A 
ATOM     12  C   UNL d   1      -0.036  -4.342  -3.710  0.00  0.00     0.001 A 
ATOM     13  C   UNL d   1       0.028  -3.930  -2.378  0.00  0.00     0.021 A 
BRANCH   9  14
ATOM     14  N   UNL d   1       3.654  -3.117  -2.102  0.00  0.00    -0.302 NA
ATOM     15  H   UNL d   1       3.644  -2.680  -1.183  0.00  0.00     0.124 HD
ATOM     16  H   UNL d   1       4.315  -2.691  -2.742  0.00  0.00     0.124 HD
ENDBRANCH   9  14
ENDBRANCH   7   8
ENDBRANCH   2   7
BRANCH   1  17
ATOM     17  N   UNL d   1       2.839  -0.151  -0.438  0.00  0.00    -0.114 N 
ATOM     18  O   UNL d   1       3.524  -0.806   0.361  0.00  0.00    -0.532 OA
ATOM     19  O   UNL d   1       3.287   0.509  -1.385  0.00  0.00    -0.532 OA
ENDBRANCH   1  17
BRANCH   4  20
ATOM     20  C   UNL d   1      -1.196   2.656   0.273  0.00  0.00     0.417 C 
ATOM     21  F   UNL d   1      -0.295   3.676   0.299  0.00  0.00    -0.166 F 
ATOM     22  F   UNL d   1      -2.084   2.959  -0.711  0.00  0.00    -0.166 F 
ATOM     23  F   UNL d   1      -1.885   2.736   1.444  0.00  0.00    -0.166 F 
ENDBRANCH   4  20
TORSDOF 5
