REMARK  8 active torsions:
REMARK  status: ('A' for Active; 'I' for Inactive)
REMARK    1  A    between atoms: C_4  and  C_1 
REMARK       I    between atoms: N_15  and  C_1 
REMARK       I    between atoms: C_2  and  N_3 
REMARK    2  A    between atoms: N_3  and  C_7 
REMARK    3  A    between atoms: C_5  and  C_6 
REMARK    4  A    between atoms: C_20  and  N_15 
REMARK    5  A    between atoms: C_16  and  O_18 
REMARK    6  A    between atoms: C_17  and  C_20 
REMARK    7  A    between atoms: C_26  and  C_17 
REMARK    8  A    between atoms: O_18  and  C_26 
ROOT
ATOM      1  C   UNL d   1       3.313   0.944  -0.840  0.00  0.00     0.125 C 
ENDROOT
BRANCH   1   2
ATOM      2  C   UNL d   1       4.806   0.734  -0.584  0.00  0.00     0.046 C 
BRANCH   2   3
ATOM      3  C   UNL d   1       5.218  -0.667  -1.006  0.00  0.00     0.177 C 
BRANCH   3   4
ATOM      4  O   UNL d   1       6.628  -0.875  -0.868  0.00  0.00    -0.351 OA
BRANCH   4   5
ATOM      5  C   UNL d   1       7.035  -2.154  -1.176  0.00  0.00     0.070 A 
ATOM      6  C   UNL d   1       6.183  -3.171  -1.623  0.00  0.00     0.066 A 
ATOM      7  C   UNL d   1       6.648  -4.454  -1.896  0.00  0.00     0.037 A 
ATOM      8  C   UNL d   1       8.011  -4.715  -1.744  0.00  0.00     0.029 A 
ATOM      9  C   UNL d   1       8.880  -3.707  -1.308  0.00  0.00     0.005 A 
ATOM     10  C   UNL d   1       8.391  -2.430  -1.019  0.00  0.00     0.037 A 
BRANCH   7  11
ATOM     11  N   UNL d   1       5.793  -5.504  -2.307  0.00  0.00    -0.327 N 
ATOM     12  C   UNL d   1       4.415  -5.443  -2.461  0.00  0.00     0.218 C 
ATOM     13  O   UNL d   1       3.691  -4.467  -2.297  0.00  0.00    -0.274 OA
ATOM     14  C   UNL d   1       3.799  -6.755  -2.878  0.00  0.00     0.117 C 
ATOM     15  H   UNL d   1       6.243  -6.395  -2.477  0.00  0.00     0.169 HD
ENDBRANCH   7  11
ENDBRANCH   4   5
ENDBRANCH   3   4
ENDBRANCH   2   3
ENDBRANCH   1   2
BRANCH   1  16
ATOM     16  N   UNL d   1       2.466   0.008  -0.120  0.00  0.00    -0.357 N 
ATOM     17  C   UNL d   1       2.034   0.260   1.164  0.00  0.00     0.251 C 
ATOM     18  O   UNL d   1       2.345   1.269   1.789  0.00  0.00    -0.268 OA
ATOM     19  H   UNL d   1       2.329  -0.916  -0.511  0.00  0.00     0.162 HD
BRANCH  17  20
ATOM     20  C   UNL d   1       1.156  -0.768   1.794  0.00  0.00     0.032 A 
ATOM     21  C   UNL d   1       0.317  -1.605   1.054  0.00  0.00     0.017 A 
ATOM     22  C   UNL d   1      -0.564  -2.479   1.710  0.00  0.00     0.009 A 
ATOM     23  C   UNL d   1      -0.638  -2.536   3.117  0.00  0.00    -0.051 A 
ATOM     24  C   UNL d   1       0.243  -1.712   3.837  0.00  0.00     0.009 A 
ATOM     25  C   UNL d   1       1.121  -0.836   3.188  0.00  0.00     0.017 A 
BRANCH  23  26
ATOM     26  C   UNL d   1      -1.689  -3.424   3.812  0.00  0.00    -0.024 C 
ATOM     27  C   UNL d   1      -1.634  -3.346   5.355  0.00  0.00     0.019 C 
ATOM     28  C   UNL d   1      -3.105  -2.976   3.386  0.00  0.00     0.019 C 
ATOM     29  C   UNL d   1      -1.497  -4.904   3.422  0.00  0.00     0.019 C 
ENDBRANCH  23  26
ENDBRANCH  17  20
ENDBRANCH   1  16
TORSDOF 8
