REMARK  2 active torsions:
REMARK  status: ('A' for Active; 'I' for Inactive)
REMARK    1  A    between atoms: O_8  and  C_6 
REMARK    2  A    between atoms: C_9  and  N_7 
ROOT
ATOM      1  C   UNL d   1      -0.449  -1.049   0.025  0.00  0.00     0.126 A 
ATOM      2  N   UNL d   1       0.801  -0.640  -0.397  0.00  0.00    -0.279 N 
ATOM      3  N   UNL d   1       0.980   0.698  -0.323  0.00  0.00    -0.277 N 
ATOM      4  HN  UNL d   1       1.804   1.244  -0.573  1.00  0.00     0.189 HD
ATOM      5  C   UNL d   1      -1.106   0.111   0.390  0.00  0.00     0.107 A 
ATOM      6  C   UNL d   1      -0.179   1.127   0.154  0.00  0.00     0.158 A 
ATOM      7  N   UNL d   1      -0.835  -2.349   0.067  0.00  0.00    -0.341 N 
ATOM      8  C   UNL d   1       1.865  -1.431  -0.965  0.00  0.00     0.179 C 
ATOM      9  H   UNL d   1      -0.154  -3.100   0.134  0.00  0.00     0.167 HD
ENDROOT
BRANCH   7  10
ATOM     10  C   UNL d   1      -2.159  -2.827  -0.036  0.00  0.00     0.033 A 
ATOM     11  C   UNL d   1      -3.151  -2.147  -0.757  0.00  0.00     0.029 A 
ATOM     12  C   UNL d   1      -4.463  -2.625  -0.806  0.00  0.00     0.002 A 
ATOM     13  C   UNL d   1      -4.806  -3.783  -0.114  0.00  0.00     0.000 A 
ATOM     14  C   UNL d   1      -3.839  -4.464   0.620  0.00  0.00     0.002 A 
ATOM     15  C   UNL d   1      -2.524  -3.989   0.658  0.00  0.00     0.029 A 
ENDBRANCH   7  10
BRANCH   6  16
ATOM     16  O   UNL d   1      -0.302   2.442   0.349  0.00  0.00    -0.345 OA
ATOM     17  H   UNL d   1      -1.181   2.630   0.710  0.00  0.00     0.219 HD
ENDBRANCH   6  16
TORSDOF 2
