REMARK  2 active torsions:
REMARK  status: ('A' for Active; 'I' for Inactive)
REMARK    1  A    between atoms: C_12  and  N_1 
REMARK    2  A    between atoms: N_2  and  C_11 
ROOT
ATOM      1  C   UNL d   1      -5.534   0.547  -1.872  0.00  0.00     0.118 A 
ATOM      2  C   UNL d   1      -3.687  -0.093  -0.525  0.00  0.00     0.118 A 
ATOM      3  N   UNL d   1      -4.193   0.528  -1.630  0.00  0.00    -0.328 N 
ATOM      4  HN  UNL d   1      -3.558   0.986  -2.285  1.00  0.00     0.169 HD
ATOM      5  C   UNL d   1      -6.414  -0.030  -0.964  0.00  0.00     0.049 A 
ATOM      6  C   UNL d   1      -4.558  -0.683   0.390  0.00  0.00     0.049 A 
ATOM      7  C   UNL d   1      -5.927  -0.647   0.176  0.00  0.00     0.007 A 
ENDROOT
BRANCH   1   8
ATOM      8  N   UNL d   1      -6.037   1.149  -3.062  0.00  0.00    -0.236 N 
ATOM      9  C   UNL d   1      -5.361   2.107  -3.788  0.00  0.00     0.238 A 
ATOM     10  C   UNL d   1      -6.198   2.496  -4.988  0.00  0.00     0.100 A 
ATOM     11  O   UNL d   1      -4.318   2.689  -3.525  0.00  0.00    -0.272 OA
ATOM     12  C   UNL d   1      -6.661   3.971  -4.959  0.00  0.00     0.022 C 
ATOM     13  C   UNL d   1      -7.516   1.732  -4.790  0.00  0.00     0.100 A 
ATOM     14  C   UNL d   1      -7.594   4.199  -6.135  0.00  0.00    -0.025 C 
ATOM     15  C   UNL d   1      -7.725   3.942  -3.853  0.00  0.00     0.018 C 
ATOM     16  C   UNL d   1      -8.738   3.542  -5.877  0.00  0.00    -0.025 C 
ATOM     17  C   UNL d   1      -8.552   2.850  -4.546  0.00  0.00     0.022 C 
ATOM     18  C   UNL d   1      -7.281   0.877  -3.587  0.00  0.00     0.238 A 
ATOM     19  O   UNL d   1      -8.127   0.075  -3.212  0.00  0.00    -0.272 OA
ENDBRANCH   1   8
BRANCH   2  20
ATOM     20  N   UNL d   1      -2.273  -0.155  -0.334  0.00  0.00    -0.236 N 
ATOM     21  C   UNL d   1      -1.645  -0.781   0.723  0.00  0.00     0.238 C 
ATOM     22  C   UNL d   1      -0.156  -0.743   0.520  0.00  0.00     0.100 C 
ATOM     23  O   UNL d   1      -2.124  -1.292   1.728  0.00  0.00    -0.272 OA
ATOM     24  C   UNL d   1       0.576   0.017   1.646  0.00  0.00     0.022 C 
ATOM     25  C   UNL d   1       0.027   0.168  -0.700  0.00  0.00     0.100 C 
ATOM     26  C   UNL d   1       2.044   0.088   1.276  0.00  0.00    -0.025 C 
ATOM     27  C   UNL d   1       0.202   1.470   1.328  0.00  0.00     0.018 C 
ATOM     28  C   UNL d   1       2.150   0.932   0.236  0.00  0.00    -0.025 C 
ATOM     29  C   UNL d   1       0.748   1.399  -0.105  0.00  0.00     0.022 C 
ATOM     30  C   UNL d   1      -1.370   0.421  -1.200  0.00  0.00     0.238 C 
ATOM     31  O   UNL d   1      -1.552   1.048  -2.235  0.00  0.00    -0.272 OA
ENDBRANCH   2  20
TORSDOF 2
