REMARK  3 active torsions:
REMARK  status: ('A' for Active; 'I' for Inactive)
REMARK       I    between atoms: N_2  and  C_1 
REMARK       I    between atoms: N_6  and  C_1 
REMARK    1  A    between atoms: C_3  and  N_2 
REMARK    2  A    between atoms: C_10  and  N_6 
REMARK    3  A    between atoms: C_11  and  C_10 
ROOT
ATOM      1  C   UNL d   1       1.104   0.019  -0.049  0.00  0.00     0.320 C 
ATOM      2  N   UNL d   1       0.440   0.476   1.072  0.00  0.00    -0.308 N 
ATOM      3  O   UNL d   1       2.099   0.524  -0.546  0.00  0.00    -0.247 OA
ATOM      4  N   UNL d   1       0.526  -1.134  -0.531  0.00  0.00    -0.343 N 
ATOM      5  H   UNL d   1      -0.075  -0.226   1.575  0.00  0.00     0.170 HD
ATOM      6  H   UNL d   1      -0.334  -1.462  -0.120  0.00  0.00     0.164 HD
ENDROOT
BRANCH   2   7
ATOM      7  C   UNL d   1       0.731   1.677   1.755  0.00  0.00     0.042 A 
ATOM      8  C   UNL d   1       0.536   1.761   3.148  0.00  0.00    -0.035 A 
ATOM      9  C   UNL d   1       0.179   0.584   4.016  0.00  0.00     0.050 C 
ATOM     10  C   UNL d   1       0.726   2.999   3.789  0.00  0.00     0.009 A 
ATOM     11  C   UNL d   1       1.130   4.125   3.073  0.00  0.00     0.001 A 
ATOM     12  C   UNL d   1       1.358   4.028   1.704  0.00  0.00     0.002 A 
ATOM     13  C   UNL d   1       1.159   2.810   1.052  0.00  0.00     0.030 A 
ENDBRANCH   2   7
BRANCH   4  14
ATOM     14  C   UNL d   1       1.150  -1.925  -1.570  0.00  0.00     0.124 C 
BRANCH  14  15
ATOM     15  C   UNL d   1       0.169  -2.343  -2.660  0.00  0.00     0.015 C 
ATOM     16  C   UNL d   1      -0.371  -1.160  -3.450  0.00  0.00     0.006 C 
ENDBRANCH  14  15
ENDBRANCH   4  14
TORSDOF 3
