REMARK  7 active torsions:
REMARK  status: ('A' for Active; 'I' for Inactive)
REMARK    1  A    between atoms: C_3  and  C_1 
REMARK    2  A    between atoms: N_8  and  C_2 
REMARK       I    between atoms: C_13  and  N_8 
REMARK    3  A    between atoms: C_19  and  C_13 
REMARK    4  A    between atoms: C_14  and  C_20 
REMARK    5  A    between atoms: O_17  and  C_14 
REMARK    6  A    between atoms: C_21  and  C_19 
REMARK    7  A    between atoms: C_20  and  C_21 
ROOT
ATOM      1  C   UNL d   1      -3.902  -2.258   0.900  0.00  0.00     0.090 A 
ATOM      2  C   UNL d   1      -3.382  -1.373  -0.040  0.00  0.00     0.038 A 
ATOM      3  S   UNL d   1      -5.489  -2.725   0.501  0.00  0.00    -0.083 SA
ATOM      4  C   UNL d   1      -4.319  -1.115  -1.124  0.00  0.00    -0.040 A 
ATOM      5  C   UNL d   1      -5.506  -1.785  -0.904  0.00  0.00     0.059 A 
ATOM      6  C   UNL d   1      -4.114  -0.316  -2.370  0.00  0.00     0.049 C 
ENDROOT
BRANCH   1   7
ATOM      7  N   UNL d   1      -3.293  -2.737   2.061  0.00  0.00    -0.321 N 
ATOM      8  C   UNL d   1      -3.891  -3.537   3.021  0.00  0.00     0.222 C 
ATOM      9  O   UNL d   1      -5.052  -3.937   3.033  0.00  0.00    -0.273 OA
ATOM     10  H   UNL d   1      -2.323  -2.450   2.187  0.00  0.00     0.169 HD
BRANCH   8  11
ATOM     11  C   UNL d   1      -2.965  -3.913   4.165  0.00  0.00     0.103 C 
BRANCH  11  12
ATOM     12  C   UNL d   1      -3.324  -5.290   4.746  0.00  0.00     0.019 C 
BRANCH  12  13
ATOM     13  C   UNL d   1      -3.142  -6.438   3.747  0.00  0.00     0.110 C 
BRANCH  13  14
ATOM     14  C   UNL d   1      -1.701  -6.598   3.328  0.00  0.00     0.139 C 
ATOM     15  O   UNL d   1      -0.741  -6.346   4.041  0.00  0.00    -0.650 OA
BRANCH  14  16
ATOM     16  O   UNL d   1      -1.560  -7.067   2.069  0.00  0.00    -0.776 OA
ATOM     17  H   UNL d   1      -2.405  -7.224   1.605  0.00  0.00     0.167 HD
ENDBRANCH  14  16
ENDBRANCH  13  14
ENDBRANCH  12  13
ENDBRANCH  11  12
ENDBRANCH   8  11
ENDBRANCH   1   7
BRANCH   2  18
ATOM     18  C   UNL d   1      -1.990  -0.789   0.092  0.00  0.00     0.089 C 
ATOM     19  N   UNL d   1      -1.016  -1.443   0.696  0.00  0.00    -0.349 N 
ATOM     20  C   UNL d   1       0.185  -0.762   0.512  0.00  0.00     0.050 A 
ATOM     21  HN  UNL d   1      -1.125  -2.312   1.217  1.00  0.00     0.166 HD
ATOM     22  C   UNL d   1       1.470  -1.216   0.873  0.00  0.00     0.031 A 
ATOM     23  C   UNL d   1       0.075   0.488  -0.099  0.00  0.00     0.033 A 
ATOM     24  C   UNL d   1       2.590  -0.408   0.629  0.00  0.00     0.002 A 
ATOM     25  C   UNL d   1       2.446   0.842   0.035  0.00  0.00     0.002 A 
ATOM     26  C   UNL d   1       1.186   1.311  -0.340  0.00  0.00     0.021 A 
ATOM     27  S   UNL d   1      -1.570   0.779  -0.471  0.00  0.00    -0.069 SA
ENDBRANCH   2  18
TORSDOF 7
