REMARK  4 active torsions:
REMARK  status: ('A' for Active; 'I' for Inactive)
REMARK    1  A    between atoms: C_2  and  S_1 
REMARK    2  A    between atoms: N_6  and  S_1 
REMARK    3  A    between atoms: N_9  and  C_5 
REMARK    4  A    between atoms: N_10  and  N_6 
ROOT
ATOM      1  C   UNL d   1       0.405   0.101  -1.644  0.00  0.00     0.086 A 
ATOM      2  C   UNL d   1       0.068  -1.037  -2.445  0.00  0.00    -0.001 A 
ATOM      3  C   UNL d   1      -0.508  -0.819  -3.734  0.00  0.00     0.002 A 
ATOM      4  C   UNL d   1      -0.829  -1.929  -4.593  0.00  0.00     0.040 A 
ATOM      5  C   UNL d   1       0.258  -2.379  -2.035  0.00  0.00     0.014 A 
ATOM      6  C   UNL d   1      -0.783   0.522  -4.104  0.00  0.00     0.014 A 
ATOM      7  C   UNL d   1       0.165   1.409  -2.090  0.00  0.00     0.026 A 
ATOM      8  C   UNL d   1      -0.582  -3.228  -4.118  0.00  0.00     0.030 A 
ATOM      9  C   UNL d   1      -0.056  -3.455  -2.855  0.00  0.00     0.003 A 
ATOM     10  C   UNL d   1      -0.438   1.617  -3.315  0.00  0.00     0.002 A 
ENDROOT
BRANCH   1  11
ATOM     11  S   UNL d   1       1.098  -0.064  -0.009  0.00  0.00     0.255 S 
ATOM     12  O   UNL d   1       0.328  -1.046   0.721  0.00  0.00    -0.205 OA
ATOM     13  O   UNL d   1       1.329   1.255   0.548  0.00  0.00    -0.205 OA
BRANCH  11  14
ATOM     14  N   UNL d   1       2.675  -0.721  -0.346  0.00  0.00    -0.150 NA
ATOM     15  H   UNL d   1       2.603  -1.561  -0.931  0.00  0.00     0.159 HD
BRANCH  14  16
ATOM     16  N   UNL d   1       3.353  -0.988   0.876  0.00  0.00    -0.257 NA
ATOM     17  H   UNL d   1       3.135  -0.229   1.537  0.00  0.00     0.138 HD
ATOM     18  H   UNL d   1       4.357  -0.892   0.702  0.00  0.00     0.138 HD
ENDBRANCH  14  16
ENDBRANCH  11  14
ENDBRANCH   1  11
BRANCH   4  19
ATOM     19  N   UNL d   1      -1.409  -1.742  -5.868  0.00  0.00    -0.389 N 
ATOM     20  C   UNL d   1      -2.199  -2.829  -6.447  0.00  0.00     0.149 C 
ATOM     21  C   UNL d   1      -0.615  -0.988  -6.843  0.00  0.00     0.149 C 
ENDBRANCH   4  19
TORSDOF 4
