REMARK  7 active torsions:
REMARK  status: ('A' for Active; 'I' for Inactive)
REMARK    1  A    between atoms: C_5  and  C_1 
REMARK    2  A    between atoms: N_3  and  C_2 
REMARK       I    between atoms: C_4  and  N_3 
REMARK    3  A    between atoms: C_8  and  C_4 
REMARK    4  A    between atoms: O_9  and  C_5 
REMARK    5  A    between atoms: C_13  and  O_9 
REMARK    6  A    between atoms: C_10  and  C_13 
REMARK    7  A    between atoms: C_15  and  C_10 
ROOT
ATOM      1  C   UNL d   1       2.122   0.189   0.100  0.00  0.00     0.066 C 
ATOM      2  C   UNL d   1       1.740  -0.955  -0.633  0.00  0.00     0.052 C 
ATOM      3  C   UNL d   1       0.376  -1.183  -0.876  0.00  0.00     0.054 C 
ATOM      4  C   UNL d   1       1.159   1.171   0.403  0.00  0.00     0.022 C 
ATOM      5  C   UNL d   1      -0.572  -0.223  -0.526  0.00  0.00     0.036 C 
ATOM      6  C   UNL d   1      -0.183   0.972   0.070  0.00  0.00     0.025 C 
ATOM      7 CL   UNL d   1      -2.236  -0.514  -0.850  0.00  0.00    -0.084 Cl
ENDROOT
BRANCH   1   8
ATOM      8  C   UNL d   1       3.454   0.252   0.769  0.00  0.00     0.296 C 
ATOM      9  O   UNL d   1       4.106  -0.748   1.042  0.00  0.00    -0.259 OA
BRANCH   8  10
ATOM     10  O   UNL d   1       3.761   1.516   1.151  0.00  0.00    -0.310 OA
BRANCH  10  11
ATOM     11  C   UNL d   1       5.026   1.675   1.800  0.00  0.00     0.263 C 
BRANCH  11  12
ATOM     12  C   UNL d   1       4.902   2.275   3.197  0.00  0.00     0.183 C 
ATOM     13  O   UNL d   1       5.078   3.483   3.386  0.00  0.00    -0.290 OA
BRANCH  12  14
ATOM     14  C   UNL d   1       4.603   1.399   4.374  0.00  0.00     0.012 A 
ATOM     15  C   UNL d   1       4.139   0.086   4.253  0.00  0.00     0.015 A 
ATOM     16  C   UNL d   1       3.853  -0.678   5.390  0.00  0.00     0.001 A 
ATOM     17  C   UNL d   1       4.042  -0.142   6.659  0.00  0.00     0.000 A 
ATOM     18  C   UNL d   1       4.516   1.159   6.794  0.00  0.00     0.001 A 
ATOM     19  C   UNL d   1       4.793   1.927   5.661  0.00  0.00     0.015 A 
ENDBRANCH  12  14
ENDBRANCH  11  12
ENDBRANCH  10  11
ENDBRANCH   8  10
ENDBRANCH   1   8
BRANCH   2  20
ATOM     20  N   UNL d   1       2.633  -1.900  -1.208  0.00  0.00    -0.322 N 
ATOM     21  C   UNL d   1       3.873  -1.555  -1.735  0.00  0.00     0.256 C 
ATOM     22  O   UNL d   1       4.315  -0.408  -1.752  0.00  0.00    -0.267 OA
ATOM     23  H   UNL d   1       2.221  -2.769  -1.510  0.00  0.00     0.169 HD
BRANCH  21  24
ATOM     24  C   UNL d   1       4.655  -2.622  -2.441  0.00  0.00     0.032 A 
ATOM     25  C   UNL d   1       4.173  -3.914  -2.698  0.00  0.00     0.018 A 
ATOM     26  C   UNL d   1       4.910  -4.794  -3.504  0.00  0.00     0.025 A 
ATOM     27  C   UNL d   1       6.136  -4.398  -4.036  0.00  0.00     0.034 A 
ATOM     28  C   UNL d   1       6.655  -3.143  -3.741  0.00  0.00     0.025 A 
ATOM     29 CL   UNL d   1       6.998  -5.457  -5.081  0.00  0.00    -0.084 Cl
ATOM     30  C   UNL d   1       5.919  -2.262  -2.944  0.00  0.00     0.018 A 
ENDBRANCH  21  24
ENDBRANCH   2  20
TORSDOF 7
