REMARK  1 active torsions:
REMARK  status: ('A' for Active; 'I' for Inactive)
REMARK    1  A    between atoms: C_12  and  C_6 
ROOT
ATOM      1  C   UNL d   1       0.251   0.699   0.007  0.00  0.00     0.700 A 
ATOM      2  N   UNL d   1       1.480   1.151  -0.000  0.00  0.00    -0.185 N 
ATOM      3  HN  UNL d   1       1.803   2.118  -0.022  1.00  0.00     0.185 HD
ATOM      4  N   UNL d   1      -0.938   1.330  -0.039  0.00  0.00    -0.190 N 
ATOM      5  N   UNL d   1       0.274  -0.669   0.052  0.00  0.00    -0.119 N 
ATOM      6  C   UNL d   1      -2.136   0.649  -0.101  0.00  0.00     0.057 A 
ATOM      7  N   UNL d   1       1.531  -1.147   0.062  0.00  0.00    -0.279 N 
ATOM      8  HN  UNL d   1       1.863  -2.111   0.088  1.00  0.00     0.188 HD
ATOM      9  C   UNL d   1      -2.186  -0.697  -0.059  0.00  0.00     0.026 A 
ATOM     10  C   UNL d   1       2.224  -0.002   0.028  0.00  0.00     0.215 A 
ATOM     11  C   UNL d   1      -0.914  -1.509   0.063  0.00  0.00     0.197 A 
ATOM     12  H   UNL d   1      -0.973   2.344  -0.094  0.00  0.00     0.184 HD
ENDROOT
BRANCH   6  13
ATOM     13  C   UNL d   1      -3.360   1.444  -0.241  0.00  0.00    -0.009 A 
ATOM     14  C   UNL d   1      -4.079   1.845   0.890  0.00  0.00     0.013 A 
ATOM     15  C   UNL d   1      -5.233   2.620   0.750  0.00  0.00     0.001 A 
ATOM     16  C   UNL d   1      -5.672   2.996  -0.519  0.00  0.00     0.000 A 
ATOM     17  C   UNL d   1      -4.962   2.596  -1.651  0.00  0.00     0.001 A 
ATOM     18  C   UNL d   1      -3.808   1.822  -1.513  0.00  0.00     0.013 A 
ENDBRANCH   6  13
TORSDOF 1
