REMARK  5 active torsions:
REMARK  status: ('A' for Active; 'I' for Inactive)
REMARK    1  A    between atoms: C_7  and  C_1 
REMARK    2  A    between atoms: N_17  and  C_3 
REMARK    3  A    between atoms: C_13  and  C_6 
REMARK       I    between atoms: N_12  and  C_7 
REMARK    4  A    between atoms: C_20  and  N_12 
REMARK    5  A    between atoms: C_15  and  C_16 
ROOT
ATOM      1  C   UNL d   1      -3.320   0.615  -0.183  0.00  0.00     0.102 A 
ATOM      2  C   UNL d   1      -1.190  -0.475  -0.111  0.00  0.00     0.037 A 
ATOM      3  C   UNL d   1      -2.631  -0.588  -0.305  0.00  0.00     0.062 A 
ATOM      4  C   UNL d   1      -0.889   0.885   0.024  0.00  0.00     0.088 A 
ATOM      5  S   UNL d   1      -2.241   1.907   0.084  0.00  0.00    -0.064 SA
ATOM      6  C   UNL d   1      -0.071  -1.393  -0.062  0.00  0.00    -0.001 A 
ATOM      7  N   UNL d   1       0.322   1.463   0.120  0.00  0.00    -0.353 N 
ATOM      8  HN  UNL d   1       0.457   2.469   0.224  1.00  0.00     0.166 HD
ATOM      9  C   UNL d   1       1.206  -0.787  -0.009  0.00  0.00    -0.023 A 
ATOM     10  C   UNL d   1       1.327   0.591   0.066  0.00  0.00     0.017 A 
ATOM     11  C   UNL d   1       2.567  -1.416  -0.008  0.00  0.00     0.042 A 
ATOM     12  C   UNL d   1       2.748   1.060   0.070  0.00  0.00     0.058 A 
ATOM     13  C   UNL d   1       3.547  -0.238   0.085  0.00  0.00     0.011 A 
ENDROOT
BRANCH   1  14
ATOM     14  C   UNL d   1      -4.767   0.849  -0.240  0.00  0.00     0.265 C 
ATOM     15  N   UNL d   1      -5.171   2.168  -0.063  0.00  0.00    -0.322 N 
ATOM     16  H   UNL d   1      -4.430   2.855  -0.051  0.00  0.00     0.169 HD
ATOM     17  O   UNL d   1      -5.557  -0.080  -0.440  0.00  0.00    -0.267 OA
BRANCH  15  18
ATOM     18  C   UNL d   1      -6.472   2.645   0.206  0.00  0.00     0.035 A 
ATOM     19  C   UNL d   1      -7.564   1.822   0.457  0.00  0.00     0.030 A 
ATOM     20  C   UNL d   1      -8.792   2.366   0.865  0.00  0.00     0.010 A 
ATOM     21  C   UNL d   1      -8.973   3.751   1.030  0.00  0.00    -0.051 A 
ATOM     22  C   UNL d   1      -7.887   4.573   0.703  0.00  0.00     0.010 A 
ATOM     23  C   UNL d   1      -6.652   4.028   0.307  0.00  0.00     0.030 A 
BRANCH  21  24
ATOM     24  C   UNL d   1     -10.296   4.290   1.607  0.00  0.00    -0.024 C 
ATOM     25  C   UNL d   1     -10.330   5.829   1.742  0.00  0.00     0.019 C 
ATOM     26  C   UNL d   1     -11.489   3.875   0.721  0.00  0.00     0.019 C 
ATOM     27  C   UNL d   1     -10.504   3.705   3.024  0.00  0.00     0.019 C 
ENDBRANCH  21  24
ENDBRANCH  15  18
ENDBRANCH   1  14
BRANCH   3  28
ATOM     28  N   UNL d   1      -3.285  -1.738  -0.588  0.00  0.00    -0.397 N 
ATOM     29  H   UNL d   1      -2.818  -2.581  -0.913  0.00  0.00     0.156 HD
ATOM     30  H   UNL d   1      -4.282  -1.716  -0.826  0.00  0.00     0.156 HD
ENDBRANCH   3  28
BRANCH   6  31
ATOM     31  C   UNL d   1      -0.248  -2.868  -0.017  0.00  0.00    -0.009 A 
ATOM     32  C   UNL d   1       0.564  -3.754  -0.735  0.00  0.00     0.100 A 
ATOM     33  N   UNL d   1       0.508  -5.112  -0.684  0.00  0.00    -0.374 N 
ATOM     34  C   UNL d   1      -0.440  -5.648   0.104  0.00  0.00     0.087 A 
ATOM     35  HN  UNL d   1       1.153  -5.694  -1.217  1.00  0.00     0.164 HD
ATOM     36  C   UNL d   1      -1.324  -4.886   0.843  0.00  0.00     0.018 A 
ATOM     37  C   UNL d   1      -1.202  -3.493   0.801  0.00  0.00     0.015 A 
ENDBRANCH   6  31
TORSDOF 5
