REMARK  5 active torsions:
REMARK  status: ('A' for Active; 'I' for Inactive)
REMARK    1  A    between atoms: N_14  and  C_3 
REMARK    2  A    between atoms: S_4  and  N_13 
REMARK    3  A    between atoms: C_20  and  S_4 
REMARK    4  A    between atoms: C_15  and  C_11 
REMARK    5  A    between atoms: C_21  and  C_12 
ROOT
ATOM      1  N   UNL d   1      -0.732   0.641  -1.168  0.00  0.00    -0.224 N 
ATOM      2  C   UNL d   1      -0.924  -0.746  -1.071  0.00  0.00     0.131 A 
ATOM      3  C   UNL d   1      -0.850   1.470  -0.008  0.00  0.00     0.129 A 
ATOM      4  N   UNL d   1      -0.462   0.995  -2.461  0.00  0.00    -0.294 N 
ATOM      5  HN  UNL d   1      -0.284   1.934  -2.817  1.00  0.00     0.187 HD
ATOM      6  C   UNL d   1      -1.137   0.856   1.156  0.00  0.00     0.084 A 
ATOM      7  N   UNL d   1      -1.202  -1.383   0.104  0.00  0.00    -0.337 N 
ATOM      8  HN  UNL d   1      -1.327  -2.394   0.147  1.00  0.00     0.167 HD
ATOM      9  C   UNL d   1      -0.781  -1.250  -2.339  0.00  0.00     0.077 A 
ATOM     10  C   UNL d   1      -1.300  -0.636   1.170  0.00  0.00     0.121 A 
ATOM     11  C   UNL d   1      -0.480  -0.146  -3.164  0.00  0.00     0.037 A 
ENDROOT
BRANCH   3  12
ATOM     12  N   UNL d   1      -0.688   2.883  -0.111  0.00  0.00    -0.363 N 
ATOM     13  C   UNL d   1       0.599   3.411  -0.663  0.00  0.00     0.140 C 
ATOM     14  C   UNL d   1       0.511   4.903  -1.040  0.00  0.00     0.127 C 
ATOM     15  N   UNL d   1       0.038   5.751   0.115  0.00  0.00    -0.203 NA
ATOM     16  C   UNL d   1      -1.314   5.259   0.515  0.00  0.00     0.127 C 
ATOM     17  C   UNL d   1      -1.312   3.772   0.910  0.00  0.00     0.140 C 
BRANCH  15  18
ATOM     18  S   UNL d   1       1.224   5.940   1.334  0.00  0.00     0.243 S 
ATOM     19  O   UNL d   1       1.249   4.735   2.138  0.00  0.00    -0.206 OA
ATOM     20  O   UNL d   1       2.431   6.405   0.690  0.00  0.00    -0.206 OA
BRANCH  18  21
ATOM     21  C   UNL d   1       0.659   7.265   2.378  0.00  0.00     0.074 A 
ATOM     22  C   UNL d   1       0.375   7.010   3.726  0.00  0.00     0.025 A 
ATOM     23  C   UNL d   1       0.166   8.075   4.604  0.00  0.00     0.002 A 
ATOM     24  C   UNL d   1       0.243   9.388   4.139  0.00  0.00     0.000 A 
ATOM     25  C   UNL d   1       0.514   9.641   2.792  0.00  0.00     0.002 A 
ATOM     26  C   UNL d   1       0.724   8.580   1.907  0.00  0.00     0.025 A 
ENDBRANCH  18  21
ENDBRANCH  15  18
ENDBRANCH   3  12
BRANCH  10  27
ATOM     27  C   UNL d   1      -1.607  -1.279   2.525  0.00  0.00     0.432 C 
ATOM     28  F   UNL d   1      -1.661  -0.370   3.541  0.00  0.00    -0.165 F 
ATOM     29  F   UNL d   1      -2.808  -1.919   2.532  0.00  0.00    -0.165 F 
ATOM     30  F   UNL d   1      -0.671  -2.196   2.889  0.00  0.00    -0.165 F 
ENDBRANCH  10  27
BRANCH  11  31
ATOM     31  C   UNL d   1      -0.194  -0.130  -4.658  0.00  0.00    -0.007 C 
ATOM     32  C   UNL d   1       1.235   0.391  -4.916  0.00  0.00     0.021 C 
ATOM     33  C   UNL d   1      -0.302  -1.540  -5.278  0.00  0.00     0.021 C 
ATOM     34  C   UNL d   1      -1.200   0.784  -5.385  0.00  0.00     0.021 C 
ENDBRANCH  11  31
TORSDOF 5
