REMARK  6 active torsions:
REMARK  status: ('A' for Active; 'I' for Inactive)
REMARK    1  A    between atoms: O_2  and  S_1 
REMARK    2  A    between atoms: C_6  and  S_1 
REMARK    3  A    between atoms: C_3  and  O_2 
REMARK    4  A    between atoms: C_7  and  C_4 
REMARK    5  A    between atoms: C_18  and  N_9 
REMARK    6  A    between atoms: S_23  and  C_20 
ROOT
ATOM      1  C   UNL d   1      -4.231   0.189  -4.304  0.00  0.00     0.123 A 
ATOM      2  C   UNL d   1      -2.934   0.719  -4.343  0.00  0.00     0.017 A 
ATOM      3  C   UNL d   1      -5.173   0.661  -5.245  0.00  0.00     0.071 A 
ATOM      4  C   UNL d   1      -4.824   1.572  -6.246  0.00  0.00     0.050 A 
ATOM      5  C   UNL d   1      -2.583   1.613  -5.379  0.00  0.00     0.039 A 
ATOM      6  C   UNL d   1      -3.522   2.035  -6.314  0.00  0.00     0.036 A 
ATOM      7 CL   UNL d   1      -6.834   0.179  -5.173  0.00  0.00    -0.081 Cl
ATOM      8 CL   UNL d   1      -3.074   3.173  -7.522  0.00  0.00    -0.084 Cl
ENDROOT
BRANCH   1   9
ATOM      9  O   UNL d   1      -4.730  -0.625  -3.323  0.00  0.00    -0.226 OA
BRANCH   9  10
ATOM     10  S   UNL d   1      -4.266  -2.163  -3.067  0.00  0.00     0.303 S 
ATOM     11  O   UNL d   1      -5.174  -2.740  -2.092  0.00  0.00    -0.193 OA
ATOM     12  O   UNL d   1      -2.833  -2.213  -2.851  0.00  0.00    -0.193 OA
BRANCH  10  13
ATOM     13  C   UNL d   1      -4.542  -3.091  -4.565  0.00  0.00     0.087 A 
ATOM     14  C   UNL d   1      -3.463  -3.801  -5.116  0.00  0.00     0.029 A 
ATOM     15  C   UNL d   1      -3.678  -4.672  -6.181  0.00  0.00     0.044 A 
ATOM     16  C   UNL d   1      -4.962  -4.820  -6.691  0.00  0.00     0.116 A 
ATOM     17  C   UNL d   1      -6.037  -4.112  -6.155  0.00  0.00     0.044 A 
ATOM     18  F   UNL d   1      -5.172  -5.677  -7.698  0.00  0.00    -0.206 F 
ATOM     19  C   UNL d   1      -5.834  -3.250  -5.074  0.00  0.00     0.029 A 
ENDBRANCH  10  13
ENDBRANCH   9  10
ENDBRANCH   1   9
BRANCH   2  20
ATOM     20  C   UNL d   1      -1.814   0.533  -3.397  0.00  0.00     0.102 C 
ATOM     21  N   UNL d   1      -1.727   0.482  -2.106  0.00  0.00    -0.365 N 
ATOM     22  HN  UNL d   1      -0.785   0.442  -1.717  1.00  0.00     0.165 HD
BRANCH  21  23
ATOM     23  C   UNL d   1      -2.774   0.475  -1.189  0.00  0.00     0.033 A 
ATOM     24  C   UNL d   1      -3.863   1.346  -1.199  0.00  0.00     0.048 A 
ATOM     25  C   UNL d   1      -4.901   1.205  -0.264  0.00  0.00     0.002 A 
ATOM     26  C   UNL d   1      -4.787   0.234   0.738  0.00  0.00     0.018 A 
ATOM     27  C   UNL d   1      -3.671  -0.595   0.798  0.00  0.00     0.004 A 
ATOM     28  C   UNL d   1      -2.675  -0.470  -0.162  0.00  0.00     0.029 A 
BRANCH  25  29
ATOM     29  S   UNL d   1      -6.312   2.293  -0.435  0.00  0.00    -0.134 SA
ATOM     30  C   UNL d   1      -7.597   1.428   0.512  0.00  0.00     0.095 C 
ENDBRANCH  25  29
ENDBRANCH  21  23
ENDBRANCH   2  20
TORSDOF 6
