REMARK  5 active torsions:
REMARK  status: ('A' for Active; 'I' for Inactive)
REMARK    1  A    between atoms: C_3  and  C_1 
REMARK       I    between atoms: C_2  and  N_5 
REMARK       I    between atoms: N_6  and  C_2 
REMARK       I    between atoms: N_7  and  C_3 
REMARK    2  A    between atoms: N_5  and  C_4 
REMARK    3  A    between atoms: C_8  and  N_6 
REMARK    4  A    between atoms: C_18  and  N_7 
REMARK    5  A    between atoms: C_9  and  C_18 
ROOT
ATOM      1  C   UNL d   1       1.377  -0.657   0.382  0.00  0.00     0.058 C 
ATOM      2  C   UNL d   1       0.582  -1.775   0.044  0.00  0.00     0.052 C 
ATOM      3  C   UNL d   1       0.740   0.583   0.543  0.00  0.00     0.019 C 
ATOM      4  C   UNL d   1      -0.805  -1.700   0.228  0.00  0.00     0.030 C 
ATOM      5  C   UNL d   1      -0.655   0.678   0.525  0.00  0.00     0.001 C 
ATOM      6  C   UNL d   1      -1.427  -0.474   0.439  0.00  0.00     0.002 C 
ENDROOT
BRANCH   2   7
ATOM      7  N   UNL d   1       1.159  -2.934  -0.540  0.00  0.00    -0.308 N 
ATOM      8  C   UNL d   1       0.763  -3.615  -1.693  0.00  0.00     0.325 C 
ATOM      9  N   UNL d   1      -0.422  -3.211  -2.257  0.00  0.00    -0.309 N 
ATOM     10  O   UNL d   1       1.504  -4.476  -2.154  0.00  0.00    -0.247 OA
ATOM     11  H   UNL d   1      -0.962  -2.550  -1.742  0.00  0.00     0.170 HD
ATOM     12  H   UNL d   1       2.167  -3.043  -0.394  0.00  0.00     0.170 HD
BRANCH   9  13
ATOM     13  C   UNL d   1      -1.015  -3.563  -3.481  0.00  0.00     0.037 A 
ATOM     14  C   UNL d   1      -0.350  -4.209  -4.520  0.00  0.00     0.036 A 
ATOM     15  C   UNL d   1      -1.001  -4.415  -5.747  0.00  0.00    -0.059 A 
ATOM     16  C   UNL d   1      -0.277  -5.037  -6.905  0.00  0.00     0.048 C 
ATOM     17  C   UNL d   1      -2.342  -4.028  -5.901  0.00  0.00     0.013 A 
ATOM     18  C   UNL d   1      -3.034  -3.419  -4.852  0.00  0.00    -0.059 A 
ATOM     19  C   UNL d   1      -2.349  -3.161  -3.660  0.00  0.00     0.036 A 
ATOM     20  C   UNL d   1      -4.461  -2.991  -5.022  0.00  0.00     0.048 C 
ENDBRANCH   9  13
ENDBRANCH   2   7
BRANCH   1  21
ATOM     21  C   UNL d   1       2.854  -0.815   0.630  0.00  0.00     0.253 C 
ATOM     22  N   UNL d   1       3.533   0.229   1.248  0.00  0.00    -0.356 N 
ATOM     23  H   UNL d   1       3.026   1.037   1.572  0.00  0.00     0.162 HD
ATOM     24  O   UNL d   1       3.394  -1.889   0.375  0.00  0.00    -0.268 OA
BRANCH  22  25
ATOM     25  C   UNL d   1       4.776  -0.038   1.946  0.00  0.00     0.127 C 
BRANCH  25  26
ATOM     26  C   UNL d   1       5.763   1.089   1.933  0.00  0.00     0.003 A 
ATOM     27  C   UNL d   1       5.455   2.434   2.549  0.00  0.00     0.007 A 
ATOM     28  C   UNL d   1       5.655   2.316   1.062  0.00  0.00     0.007 A 
ENDBRANCH  25  26
ENDBRANCH  22  25
ENDBRANCH   1  21
TORSDOF 5
