REMARK  3 active torsions:
REMARK  status: ('A' for Active; 'I' for Inactive)
REMARK    1  A    between atoms: C_5  and  N_1 
REMARK    2  A    between atoms: C_3  and  O_10 
REMARK    3  A    between atoms: C_11  and  C_5 
ROOT
ATOM      1  N   UNL d   1       0.603   1.387  -0.179  0.00  0.00     0.100 N 
ATOM      2  C   UNL d   1       1.245   0.073   0.093  0.00  0.00     0.252 C 
ATOM      3  C   UNL d   1       0.745  -0.622   1.395  0.00  0.00     0.151 C 
ATOM      4  C   UNL d   1      -0.867   1.284  -0.128  0.00  0.00     0.278 C 
ATOM      5  C   UNL d   1       0.838  -0.842  -1.083  0.00  0.00     0.039 C 
ATOM      6  C   UNL d   1      -0.792  -0.678   1.397  0.00  0.00     0.040 C 
ATOM      7  C   UNL d   1      -1.313  -0.184   0.036  0.00  0.00     0.016 C 
ATOM      8  C   UNL d   1      -0.687  -1.032  -1.086  0.00  0.00     0.008 C 
ENDROOT
BRANCH   1   9
ATOM      9  C   UNL d   1       1.167   2.471   0.635  0.00  0.00     0.311 C 
BRANCH   9  10
ATOM     10  C   UNL d   1       0.657   3.870   0.339  0.00  0.00    -0.030 A 
ATOM     11  C   UNL d   1       0.514   4.780   1.402  0.00  0.00     0.009 A 
ATOM     12  C   UNL d   1       0.093   6.091   1.168  0.00  0.00     0.001 A 
ATOM     13  C   UNL d   1      -0.182   6.512  -0.130  0.00  0.00     0.000 A 
ATOM     14  C   UNL d   1      -0.030   5.625  -1.195  0.00  0.00     0.001 A 
ATOM     15  C   UNL d   1       0.397   4.314  -0.965  0.00  0.00     0.009 A 
ENDBRANCH   9  10
ENDBRANCH   1   9
BRANCH   3  16
ATOM     16  O   UNL d   1       1.253  -0.013   2.577  0.00  0.00    -0.393 OA
ATOM     17  H   UNL d   1       0.620   0.661   2.870  0.00  0.00     0.210 HD
ENDBRANCH   3  16
TORSDOF 3
