REMARK  3 active torsions:
REMARK  status: ('A' for Active; 'I' for Inactive)
REMARK    1  A    between atoms: N_2  and  S_1 
REMARK    2  A    between atoms: C_3  and  S_1 
REMARK    3  A    between atoms: C_11  and  N_4 
ROOT
ATOM      1  N   UNL d   1       0.337   0.047  -1.456  0.00  0.00    -0.203 NA
ATOM      2  N   UNL d   1      -2.551   0.150  -1.522  0.00  0.00    -0.379 N 
ATOM      3  C   UNL d   1      -0.382   1.326  -1.777  0.00  0.00     0.127 C 
ATOM      4  C   UNL d   1      -0.497  -1.138  -1.840  0.00  0.00     0.127 C 
ATOM      5  C   UNL d   1      -1.800   1.369  -1.154  0.00  0.00     0.138 C 
ATOM      6  C   UNL d   1      -1.879  -1.109  -1.158  0.00  0.00     0.138 C 
ENDROOT
BRANCH   1   7
ATOM      7  S   UNL d   1       1.065  -0.036   0.080  0.00  0.00     0.243 S 
ATOM      8  O   UNL d   1       1.267  -1.431   0.419  0.00  0.00    -0.206 OA
ATOM      9  O   UNL d   1       0.365   0.858   0.973  0.00  0.00    -0.206 OA
BRANCH   7  10
ATOM     10  C   UNL d   1       2.679   0.640  -0.230  0.00  0.00     0.075 A 
ATOM     11  C   UNL d   1       3.538  -0.053  -1.095  0.00  0.00     0.034 A 
ATOM     12  C   UNL d   1       4.828   0.424  -1.239  0.00  0.00    -0.021 A 
ATOM     13  C   UNL d   1       5.931  -0.075  -2.089  0.00  0.00     0.068 C 
ATOM     14  C   UNL d   1       5.247   1.559  -0.562  0.00  0.00     0.075 A 
ATOM     15  C   UNL d   1       7.083   0.748  -1.510  0.00  0.00     0.180 C 
ATOM     16  O   UNL d   1       6.549   1.902  -0.816  0.00  0.00    -0.350 OA
ATOM     17  C   UNL d   1       4.409   2.264   0.281  0.00  0.00     0.039 A 
ATOM     18  C   UNL d   1       3.104   1.794   0.455  0.00  0.00     0.027 A 
ENDBRANCH   7  10
ENDBRANCH   1   7
BRANCH   2  19
ATOM     19  C   UNL d   1      -3.913   0.213  -1.752  0.00  0.00     0.030 A 
ATOM     20  C   UNL d   1      -4.817  -0.735  -1.245  0.00  0.00     0.032 A 
ATOM     21  C   UNL d   1      -6.179  -0.690  -1.564  0.00  0.00     0.044 A 
ATOM     22  C   UNL d   1      -6.655   0.307  -2.402  0.00  0.00     0.116 A 
ATOM     23  C   UNL d   1      -5.797   1.264  -2.916  0.00  0.00     0.044 A 
ATOM     24  F   UNL d   1      -7.954   0.340  -2.726  0.00  0.00    -0.206 F 
ATOM     25  C   UNL d   1      -4.439   1.214  -2.588  0.00  0.00     0.032 A 
ENDBRANCH   2  19
TORSDOF 3
