REMARK  0 active torsions:
REMARK  status: ('A' for Active; 'I' for Inactive)
ROOT
ATOM      1  N   UNL d   1       1.217  -1.156   0.576  0.00  0.00    -0.278 N 
ATOM      2  C   UNL d   1       1.034  -0.931  -0.782  0.00  0.00     0.116 C 
ATOM      3  N   UNL d   1       1.511  -1.682  -1.719  0.00  0.00    -0.312 N 
ATOM      4  HN  UNL d   1       1.270  -1.519  -2.696  1.00  0.00     0.170 HD
ATOM      5  C   UNL d   1       1.732  -2.367   1.024  0.00  0.00     0.238 C 
ATOM      6  C   UNL d   1       2.348  -2.701  -1.362  0.00  0.00     0.232 C 
ATOM      7  C   UNL d   1       2.109  -3.344  -0.040  0.00  0.00     0.206 C 
ATOM      8  C   UNL d   1       0.844  -0.193   1.510  0.00  0.00     0.101 C 
ATOM      9  C   UNL d   1       0.244   0.271  -1.168  0.00  0.00     0.049 C 
ATOM     10  O   UNL d   1       1.809  -2.686   2.212  0.00  0.00    -0.272 OA
ATOM     11  O   UNL d   1       3.217  -3.129  -2.117  0.00  0.00    -0.273 OA
ATOM     12  C   UNL d   1       0.240   0.945   1.147  0.00  0.00     0.018 C 
ATOM     13  C   UNL d   1      -0.107   1.159  -0.231  0.00  0.00     0.005 C 
ENDROOT
TORSDOF 0
