REMARK  4 active torsions:
REMARK  status: ('A' for Active; 'I' for Inactive)
REMARK    1  A    between atoms: C_2  and  C_1 
REMARK       I    between atoms: N_12  and  C_2 
REMARK    2  A    between atoms: C_3  and  C_4 
REMARK    3  A    between atoms: N_6  and  N_12 
REMARK    4  A    between atoms: C_8  and  C_11 
ROOT
ATOM      1  N   UNL d   1       4.106  -2.849  -0.031  0.00  0.00    -0.305 N 
ATOM      2  HN  UNL d   1       4.998  -2.550   0.364  1.00  0.00     0.186 HD
ATOM      3  C   UNL d   1       3.984  -4.079  -0.392  0.00  0.00     0.138 C 
ENDROOT
BRANCH   1   4
ATOM      4  N   UNL d   1       3.095  -1.908  -0.147  0.00  0.00    -0.262 N 
ATOM      5  C   UNL d   1       1.729  -2.257  -0.171  0.00  0.00     0.273 C 
ATOM      6  O   UNL d   1       1.312  -3.420  -0.198  0.00  0.00    -0.266 OA
ATOM      7  C   UNL d   1       3.616  -0.562   0.096  0.00  0.00     0.181 C 
BRANCH   5   8
ATOM      8  C   UNL d   1       0.651  -1.231  -0.035  0.00  0.00     0.055 A 
ATOM      9  C   UNL d   1       0.467  -0.098  -0.841  0.00  0.00     0.052 A 
ATOM     10  C   UNL d   1      -0.636   0.747  -0.633  0.00  0.00     0.067 A 
ATOM     11 CL   UNL d   1       1.441   0.266  -2.217  0.00  0.00    -0.083 Cl
ATOM     12  C   UNL d   1      -1.599   0.416   0.311  0.00  0.00     0.118 A 
ATOM     13  C   UNL d   1      -1.482  -0.735   1.071  0.00  0.00     0.043 A 
ATOM     14  F   UNL d   1      -2.680   1.196   0.456  0.00  0.00    -0.206 F 
ATOM     15  C   UNL d   1      -0.355  -1.544   0.909  0.00  0.00     0.022 A 
ENDBRANCH   5   8
ENDBRANCH   1   4
BRANCH   3  16
ATOM     16  C   UNL d   1       5.103  -5.045  -0.198  0.00  0.00     0.071 A 
ATOM     17  N   UNL d   1       5.084  -6.077  -1.090  0.00  0.00    -0.363 N 
ATOM     18  C   UNL d   1       6.134  -6.930  -1.080  0.00  0.00     0.104 A 
ATOM     19  HN  UNL d   1       4.308  -6.201  -1.740  1.00  0.00     0.165 HD
ATOM     20  C   UNL d   1       7.216  -6.818  -0.218  0.00  0.00     0.065 A 
ATOM     21  C   UNL d   1       7.187  -5.781   0.721  0.00  0.00     0.043 A 
ATOM     22  C   UNL d   1       6.119  -4.880   0.744  0.00  0.00     0.062 A 
ATOM     23 CL   UNL d   1       6.156  -3.667   1.970  0.00  0.00    -0.082 Cl
BRANCH  20  24
ATOM     24  C   UNL d   1       8.362  -7.779  -0.322  0.00  0.00     0.418 C 
ATOM     25  F   UNL d   1       9.349  -7.540   0.585  0.00  0.00    -0.166 F 
ATOM     26  F   UNL d   1       7.971  -9.063  -0.130  0.00  0.00    -0.166 F 
ATOM     27  F   UNL d   1       8.957  -7.742  -1.543  0.00  0.00    -0.166 F 
ENDBRANCH  20  24
ENDBRANCH   3  16
TORSDOF 4
