REMARK  3 active torsions:
REMARK  status: ('A' for Active; 'I' for Inactive)
REMARK    1  A    between atoms: C_6  and  C_1 
REMARK    2  A    between atoms: O_9  and  C_6 
REMARK    3  A    between atoms: O_10  and  C_7 
ROOT
ATOM      1  C   UNL d   1      -2.381  -0.138  -0.028  0.00  0.00     0.150 A 
ATOM      2  O   UNL d   1      -1.621   1.012  -0.024  0.00  0.00    -0.300 OA
ATOM      3  C   UNL d   1      -0.296   0.623  -0.007  0.00  0.00     0.120 A 
ATOM      4  C   UNL d   1      -1.556  -1.241   0.000  0.00  0.00     0.058 A 
ATOM      5  C   UNL d   1      -0.225  -0.770   0.006  0.00  0.00     0.004 A 
ATOM      6  C   UNL d   1       0.843   1.452  -0.006  0.00  0.00     0.102 A 
ATOM      7  C   UNL d   1       1.029  -1.400   0.015  0.00  0.00     0.014 A 
ATOM      8  C   UNL d   1       2.177  -0.610   0.005  0.00  0.00     0.004 A 
ATOM      9  C   UNL d   1       2.084   0.784  -0.006  0.00  0.00     0.040 A 
ENDROOT
BRANCH   1  10
ATOM     10  C   UNL d   1      -3.826  -0.095  -0.070  0.00  0.00     0.201 C 
ATOM     11  O   UNL d   1      -4.561  -1.069  -0.084  0.00  0.00    -0.645 OA
BRANCH  10  12
ATOM     12  O   UNL d   1      -4.303   1.176  -0.102  0.00  0.00    -0.771 OA
ATOM     13  H   UNL d   1      -3.566   1.818  -0.088  0.00  0.00     0.167 HD
ENDBRANCH  10  12
ENDBRANCH   1  10
BRANCH   6  14
ATOM     14  O   UNL d   1       0.692   2.816  -0.007  0.00  0.00    -0.353 OA
ATOM     15  C   UNL d   1       1.895   3.585  -0.004  0.00  0.00     0.210 C 
ENDBRANCH   6  14
TORSDOF 3
