REMARK  1 active torsions:
REMARK  status: ('A' for Active; 'I' for Inactive)
REMARK    1  A    between atoms: S_11  and  C_3 
ROOT
ATOM      1  C   UNL d   1       0.939   0.337   0.004  0.00  0.00     0.146 A 
ATOM      2  N   UNL d   1      -1.186   1.366   0.045  0.00  0.00    -0.301 N 
ATOM      3  C   UNL d   1       0.179   1.444   0.015  0.00  0.00     0.100 A 
ATOM      4  N   UNL d   1      -1.133  -0.935   0.074  0.00  0.00    -0.274 N 
ATOM      5  C   UNL d   1       0.235  -0.970   0.052  0.00  0.00     0.273 A 
ATOM      6  C   UNL d   1      -1.889   0.198   0.066  0.00  0.00     0.328 A 
ATOM      7  C   UNL d   1       2.356   0.337  -0.063  0.00  0.00     0.108 C 
ATOM      8  N   UNL d   1       3.516   0.378  -0.098  0.00  0.00    -0.191 NA
ATOM      9  O   UNL d   1       0.839  -2.038   0.071  0.00  0.00    -0.266 OA
ATOM     10  O   UNL d   1      -3.113   0.171   0.076  0.00  0.00    -0.247 OA
ATOM     11  H   UNL d   1      -1.726   2.223   0.019  0.00  0.00     0.171 HD
ATOM     12  H   UNL d   1      -1.623  -1.817   0.090  0.00  0.00     0.173 HD
ENDROOT
BRANCH   3  13
ATOM     13  S   UNL d   1       0.751   3.076  -0.083  0.00  0.00    -0.115 SA
ATOM     14  C   UNL d   1       1.559   3.283   1.522  0.00  0.00     0.097 C 
ENDBRANCH   3  13
TORSDOF 1
