REMARK  5 active torsions:
REMARK  status: ('A' for Active; 'I' for Inactive)
REMARK    1  A    between atoms: C_2  and  S_1 
REMARK    2  A    between atoms: N_8  and  S_1 
REMARK    3  A    between atoms: C_13  and  N_8 
REMARK    4  A    between atoms: C_14  and  C_13 
REMARK    5  A    between atoms: C_15  and  C_14 
ROOT
ATOM      1  S   UNL d   1       0.916  -0.019  -0.021  0.00  0.00     0.242 S 
ATOM      2  O   UNL d   1       0.436  -1.379  -0.024  0.00  0.00    -0.206 OA
ATOM      3  O   UNL d   1       0.679   0.846   1.117  0.00  0.00    -0.206 OA
ENDROOT
BRANCH   1   4
ATOM      4  C   UNL d   1       0.407   0.891  -1.464  0.00  0.00     0.091 A 
ATOM      5  C   UNL d   1      -0.444   0.422  -2.473  0.00  0.00     0.030 A 
ATOM      6  C   UNL d   1      -0.828   1.298  -3.508  0.00  0.00     0.043 A 
ATOM      7  I   UNL d   1      -1.254  -1.503  -2.656  0.00  0.00    -0.043 I 
ATOM      8  C   UNL d   1      -0.371   2.615  -3.539  0.00  0.00     0.035 A 
ATOM      9  C   UNL d   1       0.480   3.083  -2.547  0.00  0.00     0.025 A 
ATOM     10 CL   UNL d   1      -0.868   3.665  -4.807  0.00  0.00    -0.084 Cl
ATOM     11  C   UNL d   1       0.864   2.226  -1.514  0.00  0.00     0.028 A 
ENDBRANCH   1   4
BRANCH   1  12
ATOM     12  N   UNL d   1       2.600  -0.083  -0.189  0.00  0.00    -0.216 NA
ATOM     13  H   UNL d   1       3.041   0.120   0.710  0.00  0.00     0.139 HD
BRANCH  12  14
ATOM     14  C   UNL d   1       3.149  -1.207  -0.959  0.00  0.00     0.104 C 
BRANCH  14  15
ATOM     15  C   UNL d   1       4.674  -1.104  -1.009  0.00  0.00     0.015 C 
BRANCH  15  16
ATOM     16  C   UNL d   1       5.264  -2.283  -1.785  0.00  0.00    -0.003 C 
ATOM     17  C   UNL d   1       6.781  -2.224  -1.853  0.00  0.00     0.005 C 
ENDBRANCH  15  16
ENDBRANCH  14  15
ENDBRANCH  12  14
ENDBRANCH   1  12
TORSDOF 5
