REMARK  5 active torsions:
REMARK  status: ('A' for Active; 'I' for Inactive)
REMARK    1  A    between atoms: C_7  and  C_1 
REMARK    2  A    between atoms: C_6  and  C_3 
REMARK    3  A    between atoms: S_11  and  C_5 
REMARK    4  A    between atoms: O_13  and  C_7 
REMARK    5  A    between atoms: O_16  and  C_14 
ROOT
ATOM      1  C   UNL d   1       1.316  -1.277   0.007  0.00  0.00     0.094 A 
ATOM      2  C   UNL d   1      -0.682  -0.060   0.185  0.00  0.00     0.081 A 
ATOM      3  C   UNL d   1      -0.073  -1.380   0.079  0.00  0.00     0.020 A 
ATOM      4  S   UNL d   1       1.838   0.355   0.097  0.00  0.00    -0.075 SA
ATOM      5  C   UNL d   1       0.245   0.963   0.135  0.00  0.00     0.063 A 
ATOM      6  C   UNL d   1      -2.093   0.186   0.275  0.00  0.00     0.102 C 
ATOM      7  N   UNL d   1      -3.239   0.381   0.338  0.00  0.00    -0.191 NA
ENDROOT
BRANCH   3   8
ATOM      8  C   UNL d   1      -0.786  -2.670  -0.004  0.00  0.00    -0.020 A 
ATOM      9  C   UNL d   1      -1.966  -2.770  -0.765  0.00  0.00     0.049 A 
ATOM     10  C   UNL d   1      -2.675  -3.971  -0.857  0.00  0.00     0.069 A 
ATOM     11  C   UNL d   1      -2.162  -5.113  -0.247  0.00  0.00     0.037 A 
ATOM     12  C   UNL d   1      -0.986  -5.044   0.498  0.00  0.00     0.004 A 
ATOM     13  C   UNL d   1      -0.324  -3.823   0.647  0.00  0.00     0.012 A 
BRANCH  10  14
ATOM     14  O   UNL d   1      -3.855  -4.147  -1.525  0.00  0.00    -0.356 OA
ATOM     15  C   UNL d   1      -4.515  -2.966  -1.973  0.00  0.00     0.210 C 
ENDBRANCH  10  14
ENDBRANCH   3   8
BRANCH   5  16
ATOM     16  S   UNL d   1      -0.022   2.703  -0.001  0.00  0.00    -0.126 SA
ATOM     17  C   UNL d   1      -0.892   3.100   1.528  0.00  0.00     0.096 C 
ENDBRANCH   5  16
BRANCH   1  18
ATOM     18  C   UNL d   1       2.316  -2.315  -0.204  0.00  0.00     0.300 C 
ATOM     19  O   UNL d   1       2.178  -3.302  -0.917  0.00  0.00    -0.259 OA
BRANCH  18  20
ATOM     20  O   UNL d   1       3.420  -2.086   0.569  0.00  0.00    -0.322 OA
ATOM     21  C   UNL d   1       4.393  -3.131   0.520  0.00  0.00     0.213 C 
ENDBRANCH  18  20
ENDBRANCH   1  18
TORSDOF 5
