REMARK  2 active torsions:
REMARK  status: ('A' for Active; 'I' for Inactive)
REMARK       I    between atoms: N_2  and  C_1 
REMARK    1  A    between atoms: C_8  and  C_1 
REMARK    2  A    between atoms: C_4  and  N_2 
ROOT
ATOM      1  C   UNL d   1       1.080  -0.087  -0.289  0.00  0.00     0.256 C 
ATOM      2  N   UNL d   1       0.468  -1.197   0.256  0.00  0.00    -0.320 N 
ATOM      3  O   UNL d   1       0.502   0.861  -0.810  0.00  0.00    -0.267 OA
ATOM      4  H   UNL d   1       0.945  -1.663   1.024  0.00  0.00     0.169 HD
ENDROOT
BRANCH   2   5
ATOM      5  C   UNL d   1      -0.899  -1.516   0.060  0.00  0.00     0.074 A 
ATOM      6  C   UNL d   1      -1.645  -2.169   1.045  0.00  0.00     0.130 A 
ATOM      7  N   UNL d   1      -2.935  -2.555   0.909  0.00  0.00    -0.355 N 
ATOM      8 CL   UNL d   1      -0.989  -2.499   2.604  0.00  0.00    -0.062 Cl
ATOM      9  C   UNL d   1      -3.517  -2.294  -0.285  0.00  0.00     0.089 A 
ATOM     10  HN  UNL d   1      -3.440  -3.016   1.665  1.00  0.00     0.166 HD
ATOM     11  C   UNL d   1      -2.864  -1.663  -1.332  0.00  0.00     0.019 A 
ATOM     12  C   UNL d   1      -1.541  -1.259  -1.151  0.00  0.00     0.034 A 
ENDBRANCH   2   5
BRANCH   1  13
ATOM     13  C   UNL d   1       2.559  -0.060  -0.191  0.00  0.00     0.032 A 
ATOM     14  C   UNL d   1       3.308  -1.177  -0.585  0.00  0.00     0.017 A 
ATOM     15  C   UNL d   1       4.700  -1.092  -0.645  0.00  0.00     0.001 A 
ATOM     16  C   UNL d   1       5.339   0.100  -0.294  0.00  0.00     0.000 A 
ATOM     17  C   UNL d   1       4.595   1.206   0.116  0.00  0.00     0.001 A 
ATOM     18  C   UNL d   1       3.204   1.128   0.167  0.00  0.00     0.017 A 
ENDBRANCH   1  13
TORSDOF 2
