REMARK  4 active torsions:
REMARK  status: ('A' for Active; 'I' for Inactive)
REMARK    1  A    between atoms: C_8  and  C_1 
REMARK    2  A    between atoms: C_9  and  N_6 
REMARK    3  A    between atoms: C_10  and  C_7 
REMARK    4  A    between atoms: O_12  and  C_8 
ROOT
ATOM      1  C   UNL d   1      -0.209  -0.959   0.181  0.00  0.00     0.197 C 
ATOM      2  N   UNL d   1       1.111  -0.605  -0.032  0.00  0.00    -0.320 N 
ATOM      3  HN  UNL d   1       1.911  -1.219  -0.179  1.00  0.00     0.169 HD
ATOM      4  N   UNL d   1      -1.032   0.081   0.362  0.00  0.00    -0.271 N 
ATOM      5  HN  UNL d   1      -2.011   0.078   0.648  1.00  0.00     0.189 HD
ATOM      6  N   UNL d   1      -0.238   1.136   0.069  0.00  0.00    -0.237 N 
ATOM      7  C   UNL d   1       1.093   0.720  -0.002  0.00  0.00     0.139 C 
ENDROOT
BRANCH   6   8
ATOM      8  C   UNL d   1      -0.804   2.421  -0.153  0.00  0.00     0.058 A 
ATOM      9  C   UNL d   1      -1.974   2.782   0.528  0.00  0.00     0.031 A 
ATOM     10  C   UNL d   1      -2.494   4.070   0.377  0.00  0.00     0.002 A 
ATOM     11  C   UNL d   1      -1.873   4.984  -0.474  0.00  0.00     0.000 A 
ATOM     12  C   UNL d   1      -0.740   4.609  -1.193  0.00  0.00     0.002 A 
ATOM     13  C   UNL d   1      -0.206   3.329  -1.040  0.00  0.00     0.031 A 
ENDBRANCH   6   8
BRANCH   7  14
ATOM     14  C   UNL d   1       2.288   1.577  -0.009  0.00  0.00     0.010 A 
ATOM     15  C   UNL d   1       3.423   1.176  -0.727  0.00  0.00     0.015 A 
ATOM     16  C   UNL d   1       4.540   2.011  -0.821  0.00  0.00     0.001 A 
ATOM     17  C   UNL d   1       4.537   3.256  -0.197  0.00  0.00     0.000 A 
ATOM     18  C   UNL d   1       3.441   3.646   0.565  0.00  0.00     0.001 A 
ATOM     19  C   UNL d   1       2.337   2.798   0.684  0.00  0.00     0.015 A 
ENDBRANCH   7  14
BRANCH   1  20
ATOM     20  C   UNL d   1      -0.607  -2.377   0.190  0.00  0.00     0.213 C 
ATOM     21  O   UNL d   1      -1.741  -2.803   0.365  0.00  0.00    -0.644 OA
BRANCH  20  22
ATOM     22  O   UNL d   1       0.453  -3.208  -0.046  0.00  0.00    -0.771 OA
ATOM     23  H   UNL d   1       1.256  -2.651  -0.158  0.00  0.00     0.168 HD
ENDBRANCH  20  22
ENDBRANCH   1  20
TORSDOF 4
