REMARK  5 active torsions:
REMARK  status: ('A' for Active; 'I' for Inactive)
REMARK    1  A    between atoms: C_16  and  C_3 
REMARK    2  A    between atoms: C_8  and  N_18 
REMARK    3  A    between atoms: N_13  and  C_8 
REMARK    4  A    between atoms: N_18  and  N_11 
REMARK    5  A    between atoms: C_19  and  N_13 
ROOT
ATOM      1  C   UNL d   1       0.168  -0.284  -1.371  0.00  0.00     0.052 A 
ATOM      2  C   UNL d   1       1.421  -1.054  -1.470  0.00  0.00     0.198 A 
ATOM      3  C   UNL d   1       2.437  -0.788  -0.437  0.00  0.00     0.054 A 
ATOM      4  C   UNL d   1      -0.027   0.560  -0.275  0.00  0.00     0.111 A 
ATOM      5  O   UNL d   1       0.918   0.705   0.710  0.00  0.00    -0.319 OA
ATOM      6  C   UNL d   1       2.118   0.051   0.558  0.00  0.00     0.159 A 
ATOM      7  C   UNL d   1      -1.219   1.285  -0.174  0.00  0.00     0.070 A 
ATOM      8  C   UNL d   1      -2.199   1.175  -1.160  0.00  0.00     0.050 A 
ATOM      9  C   UNL d   1      -0.808  -0.396  -2.369  0.00  0.00     0.042 A 
ATOM     10  C   UNL d   1      -1.987   0.338  -2.255  0.00  0.00     0.036 A 
ATOM     11  O   UNL d   1       1.613  -1.858  -2.374  0.00  0.00    -0.286 OA
ATOM     12 CL   UNL d   1      -1.516   2.336   1.164  0.00  0.00    -0.081 Cl
ATOM     13 CL   UNL d   1      -3.192   0.210  -3.475  0.00  0.00    -0.084 Cl
ENDROOT
BRANCH   3  14
ATOM     14  C   UNL d   1       3.778  -1.403  -0.477  0.00  0.00     0.124 C 
ATOM     15  N   UNL d   1       4.806  -0.867   0.096  0.00  0.00    -0.309 N 
ATOM     16  HN  UNL d   1       4.731  -0.027   0.670  1.00  0.00     0.186 HD
BRANCH  15  17
ATOM     17  N   UNL d   1       5.997  -1.496  -0.115  0.00  0.00    -0.277 N 
ATOM     18  H   UNL d   1       5.998  -2.415  -0.532  0.00  0.00     0.189 HD
BRANCH  17  19
ATOM     19  C   UNL d   1       7.185  -0.856   0.117  0.00  0.00     0.187 C 
ATOM     20  S   UNL d   1       7.387   0.532   1.033  0.00  0.00    -0.040 SA
BRANCH  19  21
ATOM     21  N   UNL d   1       8.294  -1.346  -0.507  0.00  0.00    -0.358 N 
ATOM     22  H   UNL d   1       9.111  -0.790  -0.270  0.00  0.00     0.162 HD
BRANCH  21  23
ATOM     23  C   UNL d   1       8.463  -2.272  -1.648  0.00  0.00     0.021 C 
ATOM     24  C   UNL d   1       7.466  -1.972  -2.781  0.00  0.00     0.037 C 
ATOM     25  C   UNL d   1       9.883  -2.050  -2.209  0.00  0.00     0.037 C 
ATOM     26  C   UNL d   1       8.350  -3.735  -1.201  0.00  0.00     0.037 C 
ENDBRANCH  21  23
ENDBRANCH  19  21
ENDBRANCH  17  19
ENDBRANCH  15  17
ENDBRANCH   3  14
TORSDOF 5
