REMARK  16 active torsions:
REMARK  status: ('A' for Active; 'I' for Inactive)
REMARK    1  A    between atoms: C_9  and  S_1 
REMARK    2  A    between atoms: N_13  and  S_1 
REMARK    3  A    between atoms: S_2  and  C_8 
REMARK    4  A    between atoms: N_12  and  S_2 
REMARK    5  A    between atoms: C_23  and  N_12 
REMARK    6  A    between atoms: C_24  and  N_12 
REMARK    7  A    between atoms: C_25  and  N_13 
REMARK    8  A    between atoms: C_26  and  N_13 
REMARK    9  A    between atoms: C_28  and  C_23 
REMARK   10  A    between atoms: C_27  and  C_24 
REMARK   11  A    between atoms: C_29  and  C_25 
REMARK   12  A    between atoms: C_30  and  C_26 
REMARK   13  A    between atoms: C_31  and  C_27 
REMARK   14  A    between atoms: C_33  and  C_28 
REMARK   15  A    between atoms: C_32  and  C_29 
REMARK   16  A    between atoms: C_34  and  C_30 
ROOT
ATOM      1  C   UNL d   1      -1.925   5.202  -2.414  0.00  0.00     0.027 A 
ATOM      2  C   UNL d   1      -1.017   3.211  -1.524  0.00  0.00     0.027 A 
ATOM      3  C   UNL d   1      -1.984   3.731  -2.509  0.00  0.00     0.194 A 
ATOM      4  C   UNL d   1      -0.458   4.308  -0.846  0.00  0.00    -0.011 A 
ATOM      5  C   UNL d   1      -0.981   5.526  -1.421  0.00  0.00    -0.011 A 
ATOM      6  C   UNL d   1      -2.215   7.472  -2.973  0.00  0.00     0.075 A 
ATOM      7  C   UNL d   1       0.324   1.703  -0.316  0.00  0.00     0.080 A 
ATOM      8  C   UNL d   1      -0.633   1.909  -1.308  0.00  0.00     0.041 A 
ATOM      9  C   UNL d   1      -2.576   6.142  -3.186  0.00  0.00     0.041 A 
ATOM     10  C   UNL d   1      -0.623   6.843  -1.215  0.00  0.00     0.015 A 
ATOM     11  C   UNL d   1       0.482   4.098   0.149  0.00  0.00     0.015 A 
ATOM     12  O   UNL d   1      -2.679   3.073  -3.254  0.00  0.00    -0.287 OA
ATOM     13  C   UNL d   1      -1.207   7.810  -2.037  0.00  0.00     0.026 A 
ATOM     14  C   UNL d   1       0.870   2.781   0.420  0.00  0.00     0.026 A 
ENDROOT
BRANCH   6  15
ATOM     15  S   UNL d   1      -2.874   8.735  -4.042  0.00  0.00     0.243 S 
ATOM     16  O   UNL d   1      -1.755   9.555  -4.448  0.00  0.00    -0.206 OA
ATOM     17  O   UNL d   1      -3.694   8.059  -5.021  0.00  0.00    -0.206 OA
BRANCH  15  18
ATOM     18  N   UNL d   1      -3.913   9.739  -3.052  0.00  0.00    -0.206 NA
BRANCH  18  19
ATOM     19  C   UNL d   1      -3.229  10.226  -1.801  0.00  0.00     0.107 C 
BRANCH  19  20
ATOM     20  C   UNL d   1      -4.075  11.084  -0.863  0.00  0.00     0.015 C 
BRANCH  20  21
ATOM     21  C   UNL d   1      -5.318  10.357  -0.357  0.00  0.00    -0.003 C 
ATOM     22  C   UNL d   1      -6.106  11.240   0.596  0.00  0.00     0.005 C 
ENDBRANCH  20  21
ENDBRANCH  19  20
ENDBRANCH  18  19
BRANCH  18  23
ATOM     23  C   UNL d   1      -4.463  10.908  -3.842  0.00  0.00     0.107 C 
BRANCH  23  24
ATOM     24  C   UNL d   1      -5.361  10.512  -5.010  0.00  0.00     0.015 C 
BRANCH  24  25
ATOM     25  C   UNL d   1      -5.919  11.751  -5.713  0.00  0.00    -0.003 C 
ATOM     26  C   UNL d   1      -6.770  11.362  -6.911  0.00  0.00     0.005 C 
ENDBRANCH  24  25
ENDBRANCH  23  24
ENDBRANCH  18  23
ENDBRANCH  15  18
ENDBRANCH   6  15
BRANCH   7  27
ATOM     27  S   UNL d   1       1.006   0.075  -0.095  0.00  0.00     0.260 S 
ATOM     28  O   UNL d   1       2.352   0.278   0.387  0.00  0.00    -0.200 OA
ATOM     29  O   UNL d   1       0.774  -0.678  -1.307  0.00  0.00    -0.200 OA
BRANCH  27  30
ATOM     30  N   UNL d   1       0.055  -0.602   1.159  0.00  0.00    -0.307 N 
BRANCH  30  31
ATOM     31  C   UNL d   1      -1.439  -0.585   1.016  0.00  0.00     0.135 C 
BRANCH  31  32
ATOM     32  C   UNL d   1      -1.990  -1.366  -0.180  0.00  0.00     0.020 C 
BRANCH  32  33
ATOM     33  C   UNL d   1      -3.522  -1.301  -0.232  0.00  0.00    -0.003 C 
ATOM     34  C   UNL d   1      -4.074  -1.990  -1.472  0.00  0.00     0.005 C 
ENDBRANCH  32  33
ENDBRANCH  31  32
ENDBRANCH  30  31
BRANCH  30  35
ATOM     35  C   UNL d   1       0.559  -1.908   1.691  0.00  0.00     0.135 C 
BRANCH  35  36
ATOM     36  C   UNL d   1       1.875  -1.788   2.466  0.00  0.00     0.020 C 
BRANCH  36  37
ATOM     37  C   UNL d   1       1.811  -0.788   3.623  0.00  0.00    -0.003 C 
ATOM     38  C   UNL d   1       3.166  -0.629   4.297  0.00  0.00     0.005 C 
ENDBRANCH  36  37
ENDBRANCH  35  36
ENDBRANCH  30  35
ENDBRANCH  27  30
ENDBRANCH   7  27
TORSDOF 16
