REMARK  4 active torsions:
REMARK  status: ('A' for Active; 'I' for Inactive)
REMARK    1  A    between atoms: C_5  and  C_1 
REMARK    2  A    between atoms: O_14  and  C_3 
REMARK    3  A    between atoms: C_12  and  N_7 
REMARK    4  A    between atoms: C_21  and  C_16 
ROOT
ATOM      1  N   UNL d   1      -2.090  10.676  -1.525  0.00  0.00    -0.197 NA
ATOM      2  C   UNL d   1      -1.267  10.345  -0.773  0.00  0.00     0.063 C 
ATOM      3  C   UNL d   1      -0.220   9.960   0.189  0.00  0.00     0.162 C 
ENDROOT
BRANCH   3   4
ATOM      4  C   UNL d   1       0.059   8.474   0.179  0.00  0.00    -0.045 A 
ATOM      5  C   UNL d   1       1.002   7.920  -0.698  0.00  0.00     0.010 A 
ATOM      6  C   UNL d   1       1.210   6.535  -0.736  0.00  0.00     0.030 A 
ATOM      7  C   UNL d   1       0.488   5.673   0.095  0.00  0.00     0.031 A 
ATOM      8  C   UNL d   1      -0.429   6.236   0.991  0.00  0.00     0.030 A 
ATOM      9  C   UNL d   1      -0.652   7.616   1.027  0.00  0.00     0.010 A 
BRANCH   7  10
ATOM     10  N   UNL d   1       0.775   4.294   0.052  0.00  0.00    -0.365 N 
ATOM     11  C   UNL d   1      -0.193   3.446   0.208  0.00  0.00     0.102 C 
ATOM     12  HN  UNL d   1       1.730   3.968  -0.101  1.00  0.00     0.165 HD
BRANCH  11  13
ATOM     13  C   UNL d   1       0.044   1.986   0.243  0.00  0.00     0.016 A 
ATOM     14  C   UNL d   1      -1.001   1.113   0.566  0.00  0.00     0.099 A 
ATOM     15  C   UNL d   1      -0.764  -0.266   0.618  0.00  0.00     0.069 A 
ATOM     16 CL   UNL d   1      -2.041  -1.353   1.022  0.00  0.00    -0.081 Cl
ATOM     17  C   UNL d   1       0.505  -0.777   0.351  0.00  0.00     0.050 A 
ATOM     18  C   UNL d   1       1.540   0.099   0.031  0.00  0.00     0.036 A 
ATOM     19  C   UNL d   1       1.320   1.475  -0.023  0.00  0.00     0.039 A 
ATOM     20 CL   UNL d   1       3.108  -0.529  -0.294  0.00  0.00    -0.084 Cl
BRANCH  14  21
ATOM     21  O   UNL d   1      -2.246   1.614   0.846  0.00  0.00    -0.358 OA
ATOM     22  H   UNL d   1      -2.833   0.860   1.052  0.00  0.00     0.217 HD
ENDBRANCH  14  21
ENDBRANCH  11  13
ENDBRANCH   7  10
ENDBRANCH   3   4
TORSDOF 4
