REMARK  3 active torsions:
REMARK  status: ('A' for Active; 'I' for Inactive)
REMARK    1  A    between atoms: C_14  and  N_1 
REMARK    2  A    between atoms: C_10  and  C_12 
REMARK    3  A    between atoms: C_13  and  C_14 
ROOT
ATOM      1  C   UNL d   1       5.013   3.274  -0.739  0.00  0.00     0.076 A 
ATOM      2  C   UNL d   1       3.924   1.456  -0.068  0.00  0.00     0.072 A 
ATOM      3  O   UNL d   1       4.689   1.977  -1.067  0.00  0.00    -0.313 OA
ATOM      4  C   UNL d   1       4.465   3.541   0.510  0.00  0.00     0.040 A 
ATOM      5  C   UNL d   1       3.786   2.377   0.944  0.00  0.00     0.037 A 
ENDROOT
BRANCH   1   6
ATOM      6  C   UNL d   1       5.785   4.106  -1.593  0.00  0.00     0.055 C 
ATOM      7  C   UNL d   1       5.228   4.944  -2.478  0.00  0.00     0.047 A 
ATOM      8  C   UNL d   1       3.751   5.204  -2.665  0.00  0.00     0.257 A 
ATOM      9  C   UNL d   1       5.933   5.763  -3.476  0.00  0.00     0.006 A 
ATOM     10  N   UNL d   1       3.678   6.109  -3.712  0.00  0.00    -0.322 N 
ATOM     11  O   UNL d   1       2.810   4.758  -2.043  0.00  0.00    -0.267 OA
ATOM     12  C   UNL d   1       4.938   6.439  -4.193  0.00  0.00     0.046 A 
ATOM     13  H   UNL d   1       2.800   6.460  -4.060  0.00  0.00     0.169 HD
ATOM     14  C   UNL d   1       5.215   7.296  -5.238  0.00  0.00     0.030 A 
ATOM     15  C   UNL d   1       6.555   7.476  -5.580  0.00  0.00     0.002 A 
ATOM     16  C   UNL d   1       7.571   6.804  -4.875  0.00  0.00     0.001 A 
ATOM     17  C   UNL d   1       7.266   5.940  -3.812  0.00  0.00     0.015 A 
ENDBRANCH   1   6
BRANCH   2  18
ATOM     18  C   UNL d   1       3.382   0.088  -0.279  0.00  0.00     0.200 C 
BRANCH  18  19
ATOM     19  N   UNL d   1       4.324  -0.899   0.196  0.00  0.00    -0.274 N 
ATOM     20  C   UNL d   1       5.204  -1.563  -0.612  0.00  0.00     0.262 A 
ATOM     21  C   UNL d   1       5.938  -2.488   0.250  0.00  0.00     0.048 A 
ATOM     22  O   UNL d   1       5.374  -1.482  -1.813  0.00  0.00    -0.267 OA
ATOM     23  C   UNL d   1       6.936  -3.393  -0.056  0.00  0.00     0.018 A 
ATOM     24  C   UNL d   1       5.447  -2.344   1.535  0.00  0.00     0.048 A 
ATOM     25  C   UNL d   1       7.446  -4.161   0.995  0.00  0.00     0.001 A 
ATOM     26  C   UNL d   1       6.949  -4.012   2.307  0.00  0.00     0.001 A 
ATOM     27  C   UNL d   1       5.931  -3.094   2.589  0.00  0.00     0.018 A 
ATOM     28  C   UNL d   1       4.396  -1.328   1.492  0.00  0.00     0.262 A 
ATOM     29  O   UNL d   1       3.732  -0.991   2.454  0.00  0.00    -0.267 OA
ENDBRANCH  18  19
ENDBRANCH   2  18
TORSDOF 3
