REMARK  8 active torsions:
REMARK  status: ('A' for Active; 'I' for Inactive)
REMARK    1  A    between atoms: S_16  and  C_5 
REMARK    2  A    between atoms: C_12  and  C_10 
REMARK    3  A    between atoms: C_14  and  C_11 
REMARK    4  A    between atoms: C_13  and  O_24 
REMARK    5  A    between atoms: C_15  and  C_13 
REMARK    6  A    between atoms: C_31  and  S_16 
REMARK    7  A    between atoms: O_24  and  C_32 
REMARK    8  A    between atoms: C_32  and  C_31 
ROOT
ATOM      1  N   UNL d   1       0.308   0.666  -0.038  0.00  0.00    -0.233 N 
ATOM      2  C   UNL d   1       0.146  -0.724  -0.015  0.00  0.00     0.130 A 
ATOM      3  N   UNL d   1       1.628   0.998  -0.037  0.00  0.00    -0.295 N 
ATOM      4  HN  UNL d   1       2.026   1.937  -0.037  1.00  0.00     0.187 HD
ATOM      5  C   UNL d   1      -0.824   1.503  -0.044  0.00  0.00     0.097 A 
ATOM      6  N   UNL d   1      -1.077  -1.327   0.013  0.00  0.00    -0.337 N 
ATOM      7  HN  UNL d   1      -1.169  -2.343   0.022  1.00  0.00     0.167 HD
ATOM      8  C   UNL d   1       1.410  -1.260  -0.007  0.00  0.00     0.077 A 
ATOM      9  C   UNL d   1      -2.051   0.953  -0.006  0.00  0.00     0.073 A 
ATOM     10  C   UNL d   1      -2.128  -0.548   0.027  0.00  0.00     0.120 A 
ATOM     11  C   UNL d   1       2.296  -0.162  -0.036  0.00  0.00     0.037 A 
ENDROOT
BRANCH   5  12
ATOM     12  S   UNL d   1      -0.666   3.237   0.023  0.00  0.00    -0.108 SA
BRANCH  12  13
ATOM     13  C   UNL d   1       0.293   3.620  -1.482  0.00  0.00     0.108 C 
BRANCH  13  14
ATOM     14  C   UNL d   1       0.562   5.124  -1.544  0.00  0.00     0.189 C 
BRANCH  14  15
ATOM     15  O   UNL d   1       1.279   5.451  -2.755  0.00  0.00    -0.317 OA
BRANCH  15  16
ATOM     16  C   UNL d   1       0.683   6.351  -3.576  0.00  0.00     0.293 C 
ATOM     17  O   UNL d   1      -0.433   6.827  -3.430  0.00  0.00    -0.259 OA
BRANCH  16  18
ATOM     18  C   UNL d   1       1.574   6.738  -4.707  0.00  0.00     0.039 A 
ATOM     19  C   UNL d   1       1.101   7.703  -5.612  0.00  0.00     0.019 A 
ATOM     20  C   UNL d   1       1.895   8.124  -6.683  0.00  0.00     0.025 A 
ATOM     21  C   UNL d   1       3.165   7.579  -6.855  0.00  0.00     0.034 A 
ATOM     22  C   UNL d   1       3.647   6.618  -5.964  0.00  0.00     0.025 A 
ATOM     23 CL   UNL d   1       4.146   8.097  -8.169  0.00  0.00    -0.084 Cl
ATOM     24  C   UNL d   1       2.854   6.196  -4.889  0.00  0.00     0.019 A 
ENDBRANCH  16  18
ENDBRANCH  15  16
ENDBRANCH  14  15
ENDBRANCH  13  14
ENDBRANCH  12  13
ENDBRANCH   5  12
BRANCH  10  25
ATOM     25  C   UNL d   1      -3.526  -1.171   0.093  0.00  0.00     0.432 C 
ATOM     26  F   UNL d   1      -4.519  -0.238   0.113  0.00  0.00    -0.165 F 
ATOM     27  F   UNL d   1      -3.784  -1.975  -0.974  0.00  0.00    -0.165 F 
ATOM     28  F   UNL d   1      -3.700  -1.931   1.208  0.00  0.00    -0.165 F 
ENDBRANCH  10  25
BRANCH  11  29
ATOM     29  C   UNL d   1       3.816  -0.182  -0.025  0.00  0.00    -0.007 C 
ATOM     30  C   UNL d   1       4.321  -0.214   1.430  0.00  0.00     0.021 C 
ATOM     31  C   UNL d   1       4.358  -1.423  -0.764  0.00  0.00     0.021 C 
ATOM     32  C   UNL d   1       4.400   1.066  -0.724  0.00  0.00     0.021 C 
ENDBRANCH  11  29
TORSDOF 8
