REMARK  4 active torsions:
REMARK  status: ('A' for Active; 'I' for Inactive)
REMARK    1  A    between atoms: C_2  and  C_1 
REMARK       I    between atoms: N_8  and  C_1 
REMARK       I    between atoms: N_3  and  C_2 
REMARK    2  A    between atoms: C_13  and  N_3 
REMARK    3  A    between atoms: N_5  and  N_8 
REMARK    4  A    between atoms: C_22  and  C_21 
ROOT
ATOM      1  C   UNL d   1       0.633   0.950  -0.372  0.00  0.00     0.306 C 
ATOM      2  N   UNL d   1       1.075   2.156   0.173  0.00  0.00    -0.166 NA
ATOM      3  O   UNL d   1       0.323   0.727  -1.538  0.00  0.00    -0.267 OA
ATOM      4  H   UNL d   1       1.222   2.076   1.183  0.00  0.00     0.156 HD
ENDROOT
BRANCH   1   5
ATOM      5  C   UNL d   1       0.373  -0.136   0.692  0.00  0.00     0.309 C 
ATOM      6  N   UNL d   1      -0.177  -1.261   0.124  0.00  0.00    -0.319 N 
ATOM      7  H   UNL d   1      -0.150  -1.268  -0.893  0.00  0.00     0.169 HD
ATOM      8  O   UNL d   1       0.597   0.110   1.871  0.00  0.00    -0.263 OA
BRANCH   6   9
ATOM      9  C   UNL d   1      -1.073  -2.167   0.718  0.00  0.00     0.035 A 
ATOM     10  C   UNL d   1      -1.580  -3.172  -0.111  0.00  0.00     0.037 A 
ATOM     11  C   UNL d   1      -2.651  -3.987   0.291  0.00  0.00    -0.054 A 
ATOM     12  C   UNL d   1      -3.121  -5.038  -0.678  0.00  0.00     0.049 C 
ATOM     13  C   UNL d   1      -3.219  -3.787   1.561  0.00  0.00    -0.056 A 
ATOM     14  C   UNL d   1      -2.648  -2.830   2.419  0.00  0.00     0.009 A 
ATOM     15  C   UNL d   1      -4.482  -4.484   1.989  0.00  0.00     0.049 C 
ATOM     16  C   UNL d   1      -1.571  -2.035   2.008  0.00  0.00     0.030 A 
ENDBRANCH   6   9
ENDBRANCH   1   5
BRANCH   2  17
ATOM     17  N   UNL d   1       0.337   3.282  -0.118  0.00  0.00    -0.325 N 
ATOM     18  C   UNL d   1       0.195   3.599  -1.367  0.00  0.00     0.113 C 
ATOM     19  HN  UNL d   1      -0.084   3.845   0.622  1.00  0.00     0.180 HD
BRANCH  18  20
ATOM     20  C   UNL d   1      -0.891   4.517  -1.761  0.00  0.00    -0.017 A 
ATOM     21  C   UNL d   1      -1.975   4.669  -0.884  0.00  0.00     0.052 A 
ATOM     22  C   UNL d   1      -3.087   5.324  -1.354  0.00  0.00     0.105 A 
ATOM     23  O   UNL d   1      -4.257   5.471  -0.678  0.00  0.00    -0.323 OA
ATOM     24  C   UNL d   1      -3.133   5.856  -2.619  0.00  0.00     0.105 A 
ATOM     25  C   UNL d   1      -5.085   6.039  -1.710  0.00  0.00     0.352 C 
ATOM     26  O   UNL d   1      -4.346   6.409  -2.896  0.00  0.00    -0.323 OA
ATOM     27  C   UNL d   1      -2.058   5.773  -3.483  0.00  0.00     0.040 A 
ATOM     28  C   UNL d   1      -0.923   5.075  -3.053  0.00  0.00     0.016 A 
ENDBRANCH  18  20
ENDBRANCH   2  17
TORSDOF 4
