REMARK  5 active torsions:
REMARK  status: ('A' for Active; 'I' for Inactive)
REMARK    1  A    between atoms: O_5  and  C_1 
REMARK    2  A    between atoms: C_3  and  C_2 
REMARK       I    between atoms: N_4  and  C_3 
REMARK    3  A    between atoms: N_8  and  N_4 
REMARK    4  A    between atoms: C_11  and  O_5 
REMARK    5  A    between atoms: C_10  and  N_8 
ROOT
ATOM      1  C   UNL d   1      -0.739   0.621   0.179  0.00  0.00     0.163 A 
ATOM      2  C   UNL d   1       0.561   1.105   0.194  0.00  0.00     0.079 A 
ATOM      3  N   UNL d   1      -1.039  -0.671  -0.145  0.00  0.00    -0.346 N 
ATOM      4  HN  UNL d   1      -2.007  -0.975  -0.243  1.00  0.00     0.167 HD
ATOM      5  C   UNL d   1       1.595   0.171   0.020  0.00  0.00     0.022 A 
ATOM      6  C   UNL d   1      -0.023  -1.532  -0.331  0.00  0.00     0.090 A 
ATOM      7  C   UNL d   1       1.305  -1.167  -0.228  0.00  0.00     0.018 A 
ENDROOT
BRANCH   2   8
ATOM      8  C   UNL d   1       0.969   2.507   0.416  0.00  0.00     0.249 C 
ATOM      9  N   UNL d   1       0.561   3.472  -0.494  0.00  0.00    -0.186 NA
ATOM     10  H   UNL d   1       1.176   4.282  -0.416  0.00  0.00     0.150 HD
ATOM     11  O   UNL d   1       1.873   2.755   1.218  0.00  0.00    -0.273 OA
BRANCH   9  12
ATOM     12  N   UNL d   1      -0.782   3.892  -0.381  0.00  0.00    -0.220 NA
ATOM     13  H   UNL d   1      -0.892   4.806   0.060  0.00  0.00     0.147 HD
BRANCH  12  14
ATOM     14  C   UNL d   1      -1.559   3.779  -1.561  0.00  0.00     0.023 A 
ATOM     15  C   UNL d   1      -2.771   4.480  -1.633  0.00  0.00     0.025 A 
ATOM     16  C   UNL d   1      -3.665   4.275  -2.688  0.00  0.00     0.008 A 
ATOM     17  C   UNL d   1      -3.376   3.340  -3.686  0.00  0.00    -0.062 A 
ATOM     18  C   UNL d   1      -2.174   2.632  -3.620  0.00  0.00     0.008 A 
ATOM     19  C   UNL d   1      -4.369   3.072  -4.778  0.00  0.00     0.048 C 
ATOM     20  C   UNL d   1      -1.279   2.849  -2.568  0.00  0.00     0.025 A 
ENDBRANCH  12  14
ENDBRANCH   9  12
ENDBRANCH   2   8
BRANCH   1  21
ATOM     21  O   UNL d   1      -1.780   1.433   0.607  0.00  0.00    -0.293 OA
BRANCH  21  22
ATOM     22  C   UNL d   1      -2.870   0.795   1.157  0.00  0.00     0.077 A 
ATOM     23  C   UNL d   1      -2.740  -0.190   2.144  0.00  0.00     0.037 A 
ATOM     24  C   UNL d   1      -3.868  -0.853   2.623  0.00  0.00     0.003 A 
ATOM     25  C   UNL d   1      -5.131  -0.499   2.153  0.00  0.00     0.000 A 
ATOM     26  C   UNL d   1      -5.267   0.525   1.212  0.00  0.00     0.003 A 
ATOM     27  C   UNL d   1      -4.137   1.176   0.716  0.00  0.00     0.037 A 
ENDBRANCH  21  22
ENDBRANCH   1  21
TORSDOF 5
