REMARK  4 active torsions:
REMARK  status: ('A' for Active; 'I' for Inactive)
REMARK    1  A    between atoms: C_6  and  C_1 
REMARK    2  A    between atoms: C_12  and  C_4 
REMARK    3  A    between atoms: C_5  and  C_9 
REMARK       I    between atoms: N_16  and  C_6 
REMARK    4  A    between atoms: N_21  and  N_16 
ROOT
ATOM      1  C   UNL d   1       0.988   0.899   0.507  0.00  0.00     0.109 A 
ATOM      2  N   UNL d   1       0.975  -0.459   0.849  0.00  0.00    -0.344 N 
ATOM      3  HN  UNL d   1       1.446  -0.860   1.660  1.00  0.00     0.167 HD
ATOM      4  C   UNL d   1       0.262  -1.149  -0.030  0.00  0.00     0.101 A 
ATOM      5  S   UNL d   1      -0.448  -0.193  -1.282  0.00  0.00    -0.080 SA
ATOM      6  C   UNL d   1       0.255   1.213  -0.620  0.00  0.00     0.087 A 
ENDROOT
BRANCH   4   7
ATOM      7  C   UNL d   1       0.068  -2.614  -0.001  0.00  0.00     0.066 A 
ATOM      8  N   UNL d   1      -0.619  -3.171  -1.032  0.00  0.00    -0.363 N 
ATOM      9  C   UNL d   1      -0.779  -4.515  -1.038  0.00  0.00     0.104 A 
ATOM     10  HN  UNL d   1      -1.003  -2.593  -1.780  1.00  0.00     0.165 HD
ATOM     11  C   UNL d   1      -0.284  -5.358  -0.057  0.00  0.00     0.063 A 
ATOM     12  C   UNL d   1       0.411  -4.769   1.004  0.00  0.00     0.020 A 
ATOM     13  C   UNL d   1       0.591  -3.385   1.034  0.00  0.00     0.033 A 
BRANCH  11  14
ATOM     14  C   UNL d   1      -0.485  -6.839  -0.146  0.00  0.00     0.418 C 
ATOM     15  F   UNL d   1      -1.173  -7.232  -1.253  0.00  0.00    -0.166 F 
ATOM     16  F   UNL d   1       0.693  -7.521  -0.179  0.00  0.00    -0.166 F 
ATOM     17  F   UNL d   1      -1.175  -7.337   0.917  0.00  0.00    -0.166 F 
ENDBRANCH  11  14
ENDBRANCH   4   7
BRANCH   1  18
ATOM     18  C   UNL d   1       1.741   1.890   1.281  0.00  0.00     0.282 C 
ATOM     19  O   UNL d   1       1.804   3.080   0.982  0.00  0.00    -0.265 OA
ATOM     20  N   UNL d   1       2.391   1.344   2.381  0.00  0.00    -0.288 N 
ATOM     21  H   UNL d   1       2.214   0.365   2.605  0.00  0.00     0.183 HD
BRANCH  20  22
ATOM     22  N   UNL d   1       3.133   2.165   3.262  0.00  0.00    -0.247 NA
ATOM     23  H   UNL d   1       2.975   3.140   2.970  0.00  0.00     0.143 HD
ATOM     24  H   UNL d   1       4.127   2.007   3.077  0.00  0.00     0.143 HD
ENDBRANCH  20  22
ENDBRANCH   1  18
TORSDOF 4
