REMARK  6 active torsions:
REMARK  status: ('A' for Active; 'I' for Inactive)
REMARK    1  A    between atoms: C_14  and  N_9 
REMARK    2  A    between atoms: C_12  and  N_11 
REMARK    3  A    between atoms: N_13  and  C_21 
REMARK    4  A    between atoms: C_18  and  C_14 
REMARK    5  A    between atoms: C_21  and  C_18 
REMARK    6  A    between atoms: O_28  and  C_18 
ROOT
ATOM      1  C   UNL d   1       3.632   2.223   0.105  0.00  0.00     0.164 C 
ENDROOT
BRANCH   1   2
ATOM      2  C   UNL d   1       3.720   3.755   0.090  0.00  0.00     0.163 C 
BRANCH   2   3
ATOM      3  N   UNL d   1       3.085   4.406   1.223  0.00  0.00    -0.333 N 
ATOM      4  C   UNL d   1       3.694   4.980   2.304  0.00  0.00     0.149 A 
ATOM      5  C   UNL d   1       2.723   5.740   2.886  0.00  0.00     0.145 A 
ATOM      6  C   UNL d   1       5.027   4.917   2.798  0.00  0.00     0.282 A 
ATOM      7  N   UNL d   1       2.994   6.572   3.945  0.00  0.00    -0.287 N 
ATOM      8  N   UNL d   1       1.519   5.587   2.269  0.00  0.00    -0.336 N 
ATOM      9  C   UNL d   1       4.277   6.586   4.497  0.00  0.00     0.332 A 
ATOM     10  C   UNL d   1       1.990   7.463   4.490  0.00  0.00     0.163 C 
ATOM     11  N   UNL d   1       5.231   5.721   3.927  0.00  0.00    -0.269 N 
ATOM     12  O   UNL d   1       4.559   7.335   5.437  0.00  0.00    -0.246 OA
ATOM     13  C   UNL d   1       6.552   5.673   4.522  0.00  0.00     0.164 C 
ATOM     14  C   UNL d   1       1.758   4.746   1.284  0.00  0.00     0.185 A 
ATOM     15  HN  UNL d   1       0.632   6.026   2.514  1.00  0.00     0.168 HD
ATOM     16  O   UNL d   1       5.897   4.219   2.280  0.00  0.00    -0.265 OA
ENDBRANCH   2   3
ENDBRANCH   1   2
BRANCH   1  17
ATOM     17  C   UNL d   1       4.215   1.671  -1.227  0.00  0.00     0.305 C 
BRANCH  17  18
ATOM     18  N   UNL d   1       3.908   0.255  -1.537  0.00  0.00     0.094 N 
ATOM     19  C   UNL d   1       4.533  -0.661  -0.549  0.00  0.00     0.292 C 
ATOM     20  C   UNL d   1       4.423  -2.159  -0.919  0.00  0.00     0.153 C 
ATOM     21  N   UNL d   1       4.990  -2.380  -2.264  0.00  0.00    -0.377 N 
ATOM     22  C   UNL d   1       4.300  -1.575  -3.284  0.00  0.00     0.153 C 
ATOM     23  C   UNL d   1       4.407  -0.075  -2.901  0.00  0.00     0.292 C 
BRANCH  21  24
ATOM     24  C   UNL d   1       5.431  -3.669  -2.543  0.00  0.00     0.031 A 
ATOM     25  C   UNL d   1       6.433  -4.241  -1.739  0.00  0.00     0.053 A 
ATOM     26  C   UNL d   1       6.942  -5.513  -2.001  0.00  0.00     0.036 A 
ATOM     27 CL   UNL d   1       8.181  -6.159  -0.996  0.00  0.00    -0.084 Cl
ATOM     28  C   UNL d   1       6.464  -6.254  -3.073  0.00  0.00     0.024 A 
ATOM     29  C   UNL d   1       5.475  -5.711  -3.889  0.00  0.00     0.004 A 
ATOM     30  C   UNL d   1       4.970  -4.429  -3.627  0.00  0.00     0.029 A 
ENDBRANCH  21  24
ENDBRANCH  17  18
ENDBRANCH   1  17
BRANCH   1  31
ATOM     31  O   UNL d   1       4.352   1.710   1.233  0.00  0.00    -0.392 OA
ATOM     32  H   UNL d   1       5.218   2.159   1.294  0.00  0.00     0.210 HD
ENDBRANCH   1  31
TORSDOF 6
