REMARK  4 active torsions:
REMARK  status: ('A' for Active; 'I' for Inactive)
REMARK       I    between atoms: N_3  and  C_1 
REMARK       I    between atoms: N_7  and  C_1 
REMARK    1  A    between atoms: C_2  and  N_4 
REMARK    2  A    between atoms: C_6  and  O_13 
REMARK    3  A    between atoms: C_16  and  N_7 
REMARK    4  A    between atoms: O_13  and  C_20 
ROOT
ATOM      1  C   UNL d   1      -2.663  -3.070  -3.315  0.00  0.00     0.124 A 
ATOM      2  C   UNL d   1      -2.180  -4.109  -4.132  0.00  0.00     0.088 A 
ATOM      3  C   UNL d   1      -0.858  -4.637  -3.996  0.00  0.00     0.103 C 
ATOM      4  N   UNL d   1       0.208  -5.097  -3.905  0.00  0.00    -0.191 NA
ATOM      5  N   UNL d   1      -3.895  -2.547  -3.528  0.00  0.00    -0.351 N 
ATOM      6  HN  UNL d   1      -4.246  -1.791  -2.940  1.00  0.00     0.166 HD
ATOM      7  C   UNL d   1      -2.989  -4.609  -5.160  0.00  0.00     0.028 A 
ATOM      8  C   UNL d   1      -4.651  -3.045  -4.533  0.00  0.00     0.090 A 
ATOM      9  C   UNL d   1      -4.247  -4.067  -5.368  0.00  0.00     0.019 A 
ENDROOT
BRANCH   1  10
ATOM     10  N   UNL d   1      -1.869  -2.507  -2.316  0.00  0.00    -0.364 N 
ATOM     11  C   UNL d   1      -2.146  -1.096  -1.965  0.00  0.00     0.144 C 
ATOM     12  C   UNL d   1      -0.832  -0.301  -1.812  0.00  0.00     0.147 C 
ATOM     13  N   UNL d   1       0.185  -0.927  -0.946  0.00  0.00    -0.332 N 
ATOM     14  C   UNL d   1       0.704  -0.179   0.109  0.00  0.00     0.322 C 
ATOM     15  C   UNL d   1       0.697  -2.221  -1.408  0.00  0.00     0.129 C 
ATOM     16  N   UNL d   1       1.659  -0.828   0.860  0.00  0.00    -0.309 N 
ATOM     17  O   UNL d   1       0.330   0.973   0.311  0.00  0.00    -0.247 OA
ATOM     18  H   UNL d   1       1.747  -1.820   0.727  0.00  0.00     0.170 HD
ATOM     19  C   UNL d   1      -0.094  -3.392  -0.833  0.00  0.00     0.040 C 
ATOM     20  C   UNL d   1      -1.592  -3.362  -1.152  0.00  0.00     0.126 C 
BRANCH  16  21
ATOM     21  C   UNL d   1       2.557  -0.257   1.786  0.00  0.00     0.036 A 
ATOM     22  C   UNL d   1       2.547   1.088   2.153  0.00  0.00     0.032 A 
ATOM     23  C   UNL d   1       3.541   1.612   2.984  0.00  0.00     0.039 A 
ATOM     24  C   UNL d   1       4.584   0.804   3.420  0.00  0.00     0.078 A 
ATOM     25  C   UNL d   1       4.556  -0.560   3.130  0.00  0.00     0.039 A 
ATOM     26  C   UNL d   1       3.548  -1.089   2.318  0.00  0.00     0.032 A 
BRANCH  24  27
ATOM     27  O   UNL d   1       5.636   1.233   4.170  0.00  0.00    -0.255 OA
BRANCH  27  28
ATOM     28  C   UNL d   1       6.211   2.495   3.843  0.00  0.00     0.530 C 
ATOM     29  F   UNL d   1       5.676   3.094   2.758  0.00  0.00    -0.144 F 
ATOM     30  F   UNL d   1       6.083   3.326   4.900  0.00  0.00    -0.144 F 
ATOM     31  F   UNL d   1       7.531   2.318   3.605  0.00  0.00    -0.144 F 
ENDBRANCH  27  28
ENDBRANCH  24  27
ENDBRANCH  16  21
ENDBRANCH   1  10
TORSDOF 4
