REMARK  5 active torsions:
REMARK  status: ('A' for Active; 'I' for Inactive)
REMARK    1  A    between atoms: C_6  and  N_1 
REMARK    2  A    between atoms: C_7  and  C_6 
REMARK    3  A    between atoms: O_12  and  C_7 
REMARK    4  A    between atoms: C_14  and  C_7 
REMARK    5  A    between atoms: O_13  and  C_14 
ROOT
ATOM      1  N   UNL d   1       0.102  -1.595  -0.038  0.00  0.00    -0.343 N 
ATOM      2  C   UNL d   1      -1.064  -0.847  -0.027  0.00  0.00     0.046 A 
ATOM      3  C   UNL d   1       1.210  -0.766  -0.049  0.00  0.00     0.046 A 
ATOM      4  C   UNL d   1       0.737   0.549  -0.051  0.00  0.00     0.003 A 
ATOM      5  C   UNL d   1      -0.691   0.497  -0.040  0.00  0.00     0.003 A 
ATOM      6  C   UNL d   1      -2.417  -1.236  -0.001  0.00  0.00     0.030 A 
ATOM      7  C   UNL d   1       2.586  -1.050  -0.047  0.00  0.00     0.030 A 
ATOM      8  C   UNL d   1      -1.698   1.486  -0.029  0.00  0.00     0.014 A 
ATOM      9  C   UNL d   1       1.667   1.611  -0.050  0.00  0.00     0.014 A 
ATOM     10  C   UNL d   1       3.488   0.019  -0.053  0.00  0.00     0.002 A 
ATOM     11  C   UNL d   1       3.036   1.334  -0.052  0.00  0.00     0.001 A 
ATOM     12  C   UNL d   1      -3.043   1.107  -0.007  0.00  0.00     0.001 A 
ATOM     13  C   UNL d   1      -3.395  -0.237   0.006  0.00  0.00     0.002 A 
ENDROOT
BRANCH   1  14
ATOM     14  C   UNL d   1       0.143  -3.051   0.051  0.00  0.00     0.163 C 
BRANCH  14  15
ATOM     15  C   UNL d   1       0.026  -3.797  -1.290  0.00  0.00     0.160 C 
BRANCH  15  16
ATOM     16  O   UNL d   1      -1.183  -3.481  -1.985  0.00  0.00    -0.392 OA
ATOM     17  H   UNL d   1      -1.178  -2.525  -2.182  0.00  0.00     0.210 HD
ENDBRANCH  15  16
BRANCH  15  18
ATOM     18  C   UNL d   1       1.230  -3.624  -2.220  0.00  0.00     0.197 C 
BRANCH  18  19
ATOM     19  O   UNL d   1       2.413  -4.114  -1.603  0.00  0.00    -0.398 OA
ATOM     20  H   UNL d   1       3.111  -4.102  -2.282  0.00  0.00     0.209 HD
ENDBRANCH  18  19
ENDBRANCH  15  18
ENDBRANCH  14  15
ENDBRANCH   1  14
TORSDOF 5
