REMARK  6 active torsions:
REMARK  status: ('A' for Active; 'I' for Inactive)
REMARK    1  A    between atoms: C_2  and  C_1 
REMARK    2  A    between atoms: O_5  and  C_1 
REMARK    3  A    between atoms: C_3  and  C_10 
REMARK    4  A    between atoms: C_13  and  C_4 
REMARK    5  A    between atoms: C_12  and  O_5 
REMARK    6  A    between atoms: O_20  and  C_14 
ROOT
ATOM      1  C   UNL d   1       0.227   0.633  -1.177  0.00  0.00     0.056 A 
ATOM      2  N   UNL d   1      -1.619   1.980  -1.977  0.00  0.00    -0.373 N 
ATOM      3  HN  UNL d   1      -2.428   2.573  -1.790  1.00  0.00     0.164 HD
ATOM      4  C   UNL d   1       0.607   0.362  -2.500  0.00  0.00     0.041 A 
ATOM      5  C   UNL d   1      -0.130   0.897  -3.555  0.00  0.00     0.034 A 
ATOM      6  C   UNL d   1      -0.879   1.447  -0.972  0.00  0.00     0.105 A 
ATOM      7  C   UNL d   1      -1.230   1.687  -3.244  0.00  0.00     0.108 A 
ENDROOT
BRANCH   1   8
ATOM      8  C   UNL d   1       0.990   0.008  -0.073  0.00  0.00     0.300 C 
ATOM      9  O   UNL d   1       1.895  -0.784  -0.289  0.00  0.00    -0.259 OA
BRANCH   8  10
ATOM     10  O   UNL d   1       0.509   0.420   1.163  0.00  0.00    -0.275 OA
BRANCH  10  11
ATOM     11  C   UNL d   1       1.007  -0.161   2.349  0.00  0.00     0.079 A 
ATOM     12  C   UNL d   1       2.336  -0.546   2.517  0.00  0.00     0.040 A 
ATOM     13  C   UNL d   1       2.738  -1.167   3.704  0.00  0.00     0.039 A 
ATOM     14  C   UNL d   1       1.818  -1.377   4.732  0.00  0.00     0.068 A 
ATOM     15  C   UNL d   1       0.507  -0.913   4.588  0.00  0.00     0.039 A 
ATOM     16  C   UNL d   1       0.097  -0.310   3.396  0.00  0.00     0.040 A 
BRANCH  14  17
ATOM     17  O   UNL d   1       2.108  -1.982   5.924  0.00  0.00    -0.356 OA
ATOM     18  C   UNL d   1       3.088  -3.016   5.850  0.00  0.00     0.210 C 
ENDBRANCH  14  17
ENDBRANCH  10  11
ENDBRANCH   8  10
ENDBRANCH   1   8
BRANCH   5  19
ATOM     19  C   UNL d   1       0.224   0.649  -4.917  0.00  0.00    -0.060 C 
ATOM     20  C   UNL d   1       0.490   0.487  -6.079  0.00  0.00    -0.061 C 
BRANCH  20  21
ATOM     21  C   UNL d   1       0.763   0.354  -7.478  0.00  0.00     0.018 A 
ATOM     22  C   UNL d   1       0.598   1.458  -8.319  0.00  0.00     0.020 A 
ATOM     23  C   UNL d   1       0.840   1.339  -9.689  0.00  0.00     0.001 A 
ATOM     24  C   UNL d   1       1.250   0.116 -10.221  0.00  0.00     0.000 A 
ATOM     25  C   UNL d   1       1.420  -0.986  -9.384  0.00  0.00     0.001 A 
ATOM     26  C   UNL d   1       1.178  -0.869  -8.011  0.00  0.00     0.020 A 
ENDBRANCH  20  21
ENDBRANCH   5  19
TORSDOF 6
