REMARK  6 active torsions:
REMARK  status: ('A' for Active; 'I' for Inactive)
REMARK    1  A    between atoms: C_3  and  S_1 
REMARK    2  A    between atoms: O_14  and  S_1 
REMARK    3  A    between atoms: C_9  and  C_2 
REMARK    4  A    between atoms: C_4  and  C_10 
REMARK    5  A    between atoms: C_12  and  C_16 
REMARK    6  A    between atoms: C_20  and  O_14 
ROOT
ATOM      1  C   UNL d   1       0.365   0.394   1.511  0.00  0.00     0.128 A 
ATOM      2  S   UNL d   1       1.292   1.475   2.460  0.00  0.00    -0.074 SA
ATOM      3  C   UNL d   1       0.254   1.303   3.806  0.00  0.00     0.035 A 
ATOM      4  C   UNL d   1      -0.782   0.001   2.177  0.00  0.00     0.035 A 
ATOM      5  C   UNL d   1      -0.841   0.518   3.505  0.00  0.00     0.023 A 
ENDROOT
BRANCH   1   6
ATOM      6  S   UNL d   1       1.029  -0.067  -0.076  0.00  0.00     0.309 S 
ATOM      7  O   UNL d   1       0.372  -1.321  -0.391  0.00  0.00    -0.192 OA
ATOM      8  O   UNL d   1       2.470   0.043   0.029  0.00  0.00    -0.192 OA
BRANCH   6   9
ATOM      9  O   UNL d   1       0.442   1.110  -1.038  0.00  0.00    -0.229 OA
BRANCH   9  10
ATOM     10  C   UNL d   1       0.757   1.167  -2.376  0.00  0.00     0.090 A 
ATOM     11  C   UNL d   1       1.580   0.255  -3.047  0.00  0.00     0.054 A 
ATOM     12  C   UNL d   1       1.876   0.420  -4.412  0.00  0.00     0.050 A 
ATOM     13  C   UNL d   1       1.319   1.506  -5.102  0.00  0.00     0.016 A 
ATOM     14  C   UNL d   1       0.484   2.406  -4.442  0.00  0.00     0.004 A 
ATOM     15  C   UNL d   1       0.206   2.236  -3.084  0.00  0.00     0.038 A 
BRANCH  12  16
ATOM     16  C   UNL d   1       2.795  -0.541  -5.130  0.00  0.00     0.417 C 
ATOM     17  F   UNL d   1       3.243  -1.559  -4.343  0.00  0.00    -0.166 F 
ATOM     18  F   UNL d   1       2.197  -1.132  -6.200  0.00  0.00    -0.166 F 
ATOM     19  F   UNL d   1       3.909   0.073  -5.615  0.00  0.00    -0.166 F 
ENDBRANCH  12  16
ENDBRANCH   9  10
ENDBRANCH   6   9
ENDBRANCH   1   6
BRANCH   3  20
ATOM     20  C   UNL d   1       0.502   1.913   5.153  0.00  0.00     0.074 A 
ATOM     21  C   UNL d   1       1.599   2.720   5.533  0.00  0.00     0.077 A 
ATOM     22  C   UNL d   1       1.371   3.009   6.859  0.00  0.00     0.184 A 
ATOM     23  O   UNL d   1       0.216   2.409   7.251  0.00  0.00    -0.233 OA
ATOM     24  N   UNL d   1      -0.333   1.723   6.183  0.00  0.00    -0.260 N 
ATOM     25  HN  UNL d   1      -1.198   1.183   6.180  1.00  0.00     0.195 HD
BRANCH  22  26
ATOM     26  C   UNL d   1       2.081   3.793   7.883  0.00  0.00     0.441 C 
ATOM     27  F   UNL d   1       3.192   4.389   7.376  0.00  0.00    -0.164 F 
ATOM     28  F   UNL d   1       1.310   4.784   8.396  0.00  0.00    -0.164 F 
ATOM     29  F   UNL d   1       2.492   3.027   8.925  0.00  0.00    -0.164 F 
ENDBRANCH  22  26
ENDBRANCH   3  20
TORSDOF 6
