REMARK  6 active torsions:
REMARK  status: ('A' for Active; 'I' for Inactive)
REMARK       I    between atoms: N_6  and  C_1 
REMARK       I    between atoms: N_7  and  C_1 
REMARK    1  A    between atoms: C_3  and  C_2 
REMARK       I    between atoms: N_8  and  C_3 
REMARK    2  A    between atoms: C_4  and  N_6 
REMARK    3  A    between atoms: C_5  and  N_7 
REMARK    4  A    between atoms: C_17  and  N_8 
REMARK    5  A    between atoms: C_10  and  C_17 
REMARK    6  A    between atoms: O_22  and  C_13 
ROOT
ATOM      1  C   UNL d   1      -0.990   0.422   1.077  0.00  0.00     0.325 C 
ATOM      2  N   UNL d   1       0.377   0.357   1.250  0.00  0.00    -0.308 N 
ATOM      3  N   UNL d   1      -1.332   0.185  -0.244  0.00  0.00    -0.306 N 
ATOM      4  O   UNL d   1      -1.799   0.651   1.970  0.00  0.00    -0.247 OA
ATOM      5  H   UNL d   1       0.889   0.805   0.485  0.00  0.00     0.170 HD
ATOM      6  H   UNL d   1      -0.788  -0.551  -0.677  0.00  0.00     0.171 HD
ENDROOT
BRANCH   2   7
ATOM      7  C   UNL d   1       0.983   0.489   2.523  0.00  0.00     0.052 A 
ATOM      8  C   UNL d   1       2.079   1.359   2.713  0.00  0.00     0.058 A 
ATOM      9  C   UNL d   1       2.673   1.442   3.981  0.00  0.00     0.019 A 
ATOM     10  C   UNL d   1       2.189   0.674   5.045  0.00  0.00     0.001 A 
ATOM     11  C   UNL d   1       1.111  -0.185   4.851  0.00  0.00     0.002 A 
ATOM     12  C   UNL d   1       0.510  -0.277   3.596  0.00  0.00     0.030 A 
BRANCH   8  13
ATOM     13  C   UNL d   1       2.546   2.221   1.582  0.00  0.00     0.253 C 
ATOM     14  N   UNL d   1       3.180   3.409   1.901  0.00  0.00    -0.356 N 
ATOM     15  H   UNL d   1       3.217   3.712   2.860  0.00  0.00     0.162 HD
ATOM     16  O   UNL d   1       2.306   1.897   0.421  0.00  0.00    -0.268 OA
BRANCH  14  17
ATOM     17  C   UNL d   1       3.439   4.381   0.863  0.00  0.00     0.127 C 
BRANCH  17  18
ATOM     18  C   UNL d   1       4.002   5.680   1.352  0.00  0.00     0.003 A 
ATOM     19  C   UNL d   1       5.192   5.725   2.276  0.00  0.00     0.007 A 
ATOM     20  C   UNL d   1       3.854   6.221   2.756  0.00  0.00     0.007 A 
ENDBRANCH  17  18
ENDBRANCH  14  17
ENDBRANCH   8  13
ENDBRANCH   2   7
BRANCH   3  21
ATOM     21  C   UNL d   1      -2.656   0.350  -0.689  0.00  0.00     0.071 A 
ATOM     22  C   UNL d   1      -3.268   1.601  -0.505  0.00  0.00     0.056 A 
ATOM     23  C   UNL d   1      -4.527   1.848  -1.045  0.00  0.00     0.036 A 
ATOM     24 CL   UNL d   1      -5.228   3.415  -0.897  0.00  0.00    -0.084 Cl
ATOM     25  C   UNL d   1      -5.203   0.852  -1.742  0.00  0.00     0.026 A 
ATOM     26  C   UNL d   1      -4.604  -0.401  -1.914  0.00  0.00     0.041 A 
ATOM     27  C   UNL d   1      -3.330  -0.657  -1.391  0.00  0.00     0.095 A 
BRANCH  27  28
ATOM     28  O   UNL d   1      -2.829  -1.906  -1.661  0.00  0.00    -0.354 OA
ATOM     29  C   UNL d   1      -2.312  -2.611  -0.532  0.00  0.00     0.210 C 
ENDBRANCH  27  28
ENDBRANCH   3  21
TORSDOF 6
