REMARK  5 active torsions:
REMARK  status: ('A' for Active; 'I' for Inactive)
REMARK    1  A    between atoms: C_6  and  N_2 
REMARK    2  A    between atoms: C_9  and  C_4 
REMARK    3  A    between atoms: C_11  and  C_6 
REMARK    4  A    between atoms: O_8  and  C_9 
REMARK    5  A    between atoms: C_10  and  O_8 
ROOT
ATOM      1  C   UNL d   1      -0.649  -0.013   0.053  0.00  0.00     0.363 C 
ATOM      2  N   UNL d   1       0.142  -1.117  -0.137  0.00  0.00    -0.321 N 
ATOM      3  O   UNL d   1       0.144   1.087   0.229  0.00  0.00    -0.295 OA
ATOM      4  C   UNL d   1       1.513   0.715  -0.025  0.00  0.00     0.176 C 
ATOM      5  C   UNL d   1       1.514  -0.799   0.107  0.00  0.00     0.163 C 
ATOM      6  O   UNL d   1      -1.865   0.017   0.076  0.00  0.00    -0.238 OA
ENDROOT
BRANCH   4   7
ATOM      7  C   UNL d   1       1.944   1.161  -1.430  0.00  0.00     0.210 C 
BRANCH   7   8
ATOM      8  O   UNL d   1       1.917   2.592  -1.512  0.00  0.00    -0.349 OA
BRANCH   8   9
ATOM      9  C   UNL d   1       2.238   3.117  -2.737  0.00  0.00     0.068 A 
ATOM     10  C   UNL d   1       1.625   4.328  -3.060  0.00  0.00     0.037 A 
ATOM     11  C   UNL d   1       1.913   4.971  -4.269  0.00  0.00     0.009 A 
ATOM     12  C   UNL d   1       2.833   4.415  -5.165  0.00  0.00    -0.062 A 
ATOM     13  C   UNL d   1       3.453   3.206  -4.833  0.00  0.00     0.009 A 
ATOM     14  C   UNL d   1       3.155   5.117  -6.451  0.00  0.00     0.048 C 
ATOM     15  C   UNL d   1       3.159   2.562  -3.626  0.00  0.00     0.037 A 
ENDBRANCH   8   9
ENDBRANCH   7   8
ENDBRANCH   4   7
BRANCH   2  16
ATOM     16  C   UNL d   1      -0.361  -2.466  -0.302  0.00  0.00     0.166 C 
BRANCH  16  17
ATOM     17  C   UNL d   1      -0.483  -3.255   0.979  0.00  0.00    -0.040 A 
ATOM     18  C   UNL d   1      -1.402  -2.876   1.970  0.00  0.00     0.009 A 
ATOM     19  C   UNL d   1      -1.567  -3.648   3.123  0.00  0.00     0.001 A 
ATOM     20  C   UNL d   1      -0.822  -4.812   3.296  0.00  0.00     0.000 A 
ATOM     21  C   UNL d   1       0.091  -5.203   2.319  0.00  0.00     0.001 A 
ATOM     22  C   UNL d   1       0.260  -4.430   1.168  0.00  0.00     0.009 A 
ENDBRANCH  16  17
ENDBRANCH   2  16
TORSDOF 5
