REMARK  10 active torsions:
REMARK  status: ('A' for Active; 'I' for Inactive)
REMARK    1  A    between atoms: C_17  and  C_1 
REMARK    2  A    between atoms: C_2  and  C_18 
REMARK    3  A    between atoms: O_13  and  C_3 
REMARK    4  A    between atoms: O_14  and  C_4 
REMARK    5  A    between atoms: O_15  and  C_9 
REMARK    6  A    between atoms: O_16  and  C_10 
REMARK    7  A    between atoms: C_24  and  C_17 
REMARK    8  A    between atoms: C_18  and  C_23 
REMARK    9  A    between atoms: C_23  and  C_25 
REMARK   10  A    between atoms: C_25  and  C_24 
ROOT
ATOM      1  C   UNL d   1       4.789  -1.965   0.619  0.00  0.00     0.001 C 
ENDROOT
BRANCH   1   2
ATOM      2  C   UNL d   1       4.887  -3.495   0.516  0.00  0.00     0.005 C 
BRANCH   2   3
ATOM      3  C   UNL d   1       4.461  -4.035  -0.854  0.00  0.00     0.041 C 
BRANCH   3   4
ATOM      4  C   UNL d   1       4.569  -5.539  -0.970  0.00  0.00    -0.022 A 
ATOM      5  C   UNL d   1       5.655  -6.278  -1.459  0.00  0.00     0.074 A 
ATOM      6  C   UNL d   1       5.542  -7.679  -1.529  0.00  0.00     0.040 A 
ATOM      7  C   UNL d   1       4.393  -8.363  -1.123  0.00  0.00     0.039 A 
ATOM      8  C   UNL d   1       3.321  -7.647  -0.615  0.00  0.00     0.068 A 
ATOM      9  C   UNL d   1       3.420  -6.256  -0.540  0.00  0.00     0.046 A 
BRANCH   5  10
ATOM     10  O   UNL d   1       6.877  -5.887  -1.922  0.00  0.00    -0.355 OA
ATOM     11  C   UNL d   1       7.280  -4.535  -1.947  0.00  0.00     0.210 C 
ENDBRANCH   5  10
BRANCH   8  12
ATOM     12  O   UNL d   1       2.142  -8.169  -0.165  0.00  0.00    -0.356 OA
ATOM     13  C   UNL d   1       1.989  -9.582  -0.256  0.00  0.00     0.210 C 
ENDBRANCH   8  12
ENDBRANCH   3   4
ENDBRANCH   2   3
ENDBRANCH   1   2
BRANCH   1  14
ATOM     14  C   UNL d   1       3.407  -1.363   0.336  0.00  0.00     0.005 C 
BRANCH  14  15
ATOM     15  C   UNL d   1       2.304  -1.857   1.278  0.00  0.00     0.041 C 
BRANCH  15  16
ATOM     16  C   UNL d   1       0.939  -1.438   0.773  0.00  0.00    -0.022 A 
ATOM     17  C   UNL d   1       0.266  -0.242   1.051  0.00  0.00     0.074 A 
ATOM     18  C   UNL d   1      -0.953   0.015   0.394  0.00  0.00     0.040 A 
ATOM     19  C   UNL d   1      -1.499  -0.862  -0.540  0.00  0.00     0.039 A 
ATOM     20  C   UNL d   1      -0.829  -2.030  -0.852  0.00  0.00     0.068 A 
ATOM     21  C   UNL d   1       0.362  -2.319  -0.179  0.00  0.00     0.046 A 
BRANCH  17  22
ATOM     22  O   UNL d   1       0.631   0.825   1.818  0.00  0.00    -0.355 OA
ATOM     23  C   UNL d   1       1.472   0.672   2.944  0.00  0.00     0.210 C 
ENDBRANCH  17  22
BRANCH  20  24
ATOM     24  O   UNL d   1      -1.202  -2.950  -1.795  0.00  0.00    -0.356 OA
ATOM     25  C   UNL d   1      -2.332  -2.614  -2.598  0.00  0.00     0.210 C 
ENDBRANCH  20  24
ENDBRANCH  15  16
ENDBRANCH  14  15
ENDBRANCH   1  14
TORSDOF 10
