REMARK  6 active torsions:
REMARK  status: ('A' for Active; 'I' for Inactive)
REMARK    1  A    between atoms: C_8  and  S_1 
REMARK    2  A    between atoms: O_12  and  S_1 
REMARK    3  A    between atoms: S_2  and  C_9 
REMARK    4  A    between atoms: O_13  and  S_2 
REMARK    5  A    between atoms: C_23  and  O_12 
REMARK    6  A    between atoms: C_24  and  O_13 
ROOT
ATOM      1  C   UNL d   1       0.554  -3.619   1.622  0.00  0.00     0.028 A 
ATOM      2  C   UNL d   1       0.128  -5.751   2.567  0.00  0.00     0.028 A 
ATOM      3  C   UNL d   1       0.937  -5.043   1.555  0.00  0.00     0.194 A 
ATOM      4  C   UNL d   1      -0.676  -4.793   3.213  0.00  0.00    -0.011 A 
ATOM      5  C   UNL d   1      -0.418  -3.488   2.632  0.00  0.00    -0.011 A 
ATOM      6  C   UNL d   1       0.426  -1.320   1.090  0.00  0.00     0.087 A 
ATOM      7  C   UNL d   1      -0.752  -7.501   3.890  0.00  0.00     0.087 A 
ATOM      8  C   UNL d   1       0.121  -7.099   2.876  0.00  0.00     0.042 A 
ATOM      9  C   UNL d   1       0.997  -2.570   0.839  0.00  0.00     0.042 A 
ATOM     10  C   UNL d   1      -0.970  -2.242   2.883  0.00  0.00     0.015 A 
ATOM     11  C   UNL d   1      -1.534  -5.200   4.223  0.00  0.00     0.015 A 
ATOM     12  O   UNL d   1       1.752  -5.538   0.805  0.00  0.00    -0.287 OA
ATOM     13  C   UNL d   1      -0.549  -1.152   2.100  0.00  0.00     0.027 A 
ATOM     14  C   UNL d   1      -1.568  -6.563   4.565  0.00  0.00     0.027 A 
ENDROOT
BRANCH   6  15
ATOM     15  S   UNL d   1       0.843   0.057   0.024  0.00  0.00     0.303 S 
ATOM     16  O   UNL d   1      -0.264   0.991   0.107  0.00  0.00    -0.193 OA
ATOM     17  O   UNL d   1       1.233  -0.516  -1.252  0.00  0.00    -0.193 OA
BRANCH  15  18
ATOM     18  O   UNL d   1       2.150   0.707   0.747  0.00  0.00    -0.229 OA
BRANCH  18  19
ATOM     19  C   UNL d   1       2.798   1.811   0.247  0.00  0.00     0.089 A 
ATOM     20  C   UNL d   1       2.493   2.464  -0.949  0.00  0.00     0.038 A 
ATOM     21  C   UNL d   1       3.237   3.579  -1.348  0.00  0.00     0.003 A 
ATOM     22  C   UNL d   1       4.285   4.047  -0.558  0.00  0.00     0.000 A 
ATOM     23  C   UNL d   1       4.594   3.398   0.635  0.00  0.00     0.003 A 
ATOM     24  C   UNL d   1       3.853   2.284   1.034  0.00  0.00     0.038 A 
ENDBRANCH  18  19
ENDBRANCH  15  18
ENDBRANCH   6  15
BRANCH   7  25
ATOM     25  S   UNL d   1      -0.707  -9.199   4.453  0.00  0.00     0.303 S 
ATOM     26  O   UNL d   1       0.620  -9.696   4.141  0.00  0.00    -0.193 OA
ATOM     27  O   UNL d   1      -1.183  -9.182   5.825  0.00  0.00    -0.193 OA
BRANCH  25  28
ATOM     28  O   UNL d   1      -1.800  -9.971   3.518  0.00  0.00    -0.229 OA
BRANCH  28  29
ATOM     29  C   UNL d   1      -2.102 -11.301   3.711  0.00  0.00     0.089 A 
ATOM     30  C   UNL d   1      -1.443 -12.151   4.604  0.00  0.00     0.038 A 
ATOM     31  C   UNL d   1      -1.843 -13.484   4.738  0.00  0.00     0.003 A 
ATOM     32  C   UNL d   1      -2.898 -13.979   3.977  0.00  0.00     0.000 A 
ATOM     33  C   UNL d   1      -3.550 -13.143   3.073  0.00  0.00     0.003 A 
ATOM     34  C   UNL d   1      -3.151 -11.809   2.938  0.00  0.00     0.038 A 
ENDBRANCH  28  29
ENDBRANCH  25  28
ENDBRANCH   7  25
TORSDOF 6
