REMARK  0 active torsions:
REMARK  status: ('A' for Active; 'I' for Inactive)
ROOT
ATOM      1  C   UNL d   1       0.034  -0.821   0.014  0.00  0.00     0.038 A 
ATOM      2  C   UNL d   1       0.060   0.582   0.026  0.00  0.00     0.024 A 
ATOM      3  C   UNL d   1      -1.294  -1.502  -0.003  0.00  0.00     0.162 C 
ATOM      4  N   UNL d   1       1.211   1.306   0.051  0.00  0.00    -0.362 N 
ATOM      5  HN  UNL d   1       1.187   2.325   0.078  1.00  0.00     0.165 HD
ATOM      6  C   UNL d   1       1.264  -1.505   0.004  0.00  0.00    -0.044 A 
ATOM      7  C   UNL d   1      -2.455   0.686  -0.432  0.00  0.00    -0.036 C 
ATOM      8  C   UNL d   1      -2.516  -0.660   0.294  0.00  0.00     0.093 C 
ATOM      9  C   UNL d   1      -1.193   1.422   0.044  0.00  0.00     0.067 C 
ATOM     10  C   UNL d   1       2.448  -0.744   0.007  0.00  0.00     0.032 A 
ATOM     11  C   UNL d   1       2.385   0.642   0.039  0.00  0.00     0.006 A 
ATOM     12  O   UNL d   1      -1.422  -2.698  -0.235  0.00  0.00    -0.292 OA
ATOM     13  C   UNL d   1       1.443  -2.999  -0.048  0.00  0.00     0.049 C 
ATOM     14  C   UNL d   1      -2.442   0.489  -1.962  0.00  0.00     0.015 C 
ATOM     15  C   UNL d   1      -3.701   1.513  -0.070  0.00  0.00     0.015 C 
ATOM     16  C   UNL d   1       3.632   1.472   0.061  0.00  0.00     0.068 C 
ENDROOT
TORSDOF 0
