REMARK  7 active torsions:
REMARK  status: ('A' for Active; 'I' for Inactive)
REMARK    1  A    between atoms: N_2  and  C_1 
REMARK       I    between atoms: C_3  and  N_2 
REMARK    2  A    between atoms: C_11  and  C_3 
REMARK    3  A    between atoms: C_5  and  C_12 
REMARK    4  A    between atoms: O_13  and  C_5 
REMARK    5  A    between atoms: O_15  and  C_6 
REMARK    6  A    between atoms: O_16  and  C_10 
REMARK    7  A    between atoms: C_12  and  C_11 
ROOT
ATOM      1  C   UNL d   1       1.463  -0.489   0.192  0.00  0.00     0.071 A 
ATOM      2  C   UNL d   1       0.476  -1.462  -0.001  0.00  0.00     0.069 A 
ATOM      3  C   UNL d   1       1.092   0.864   0.258  0.00  0.00     0.095 A 
ATOM      4  C   UNL d   1      -0.246   1.235   0.153  0.00  0.00     0.042 A 
ATOM      5  C   UNL d   1      -0.869  -1.097  -0.095  0.00  0.00     0.070 A 
ATOM      6  C   UNL d   1      -1.223   0.255  -0.031  0.00  0.00     0.039 A 
ENDROOT
BRANCH   1   7
ATOM      7  N   UNL d   1       2.823  -0.822   0.373  0.00  0.00    -0.325 N 
ATOM      8  C   UNL d   1       3.453  -1.947  -0.113  0.00  0.00     0.222 C 
ATOM      9  O   UNL d   1       2.937  -2.831  -0.800  0.00  0.00    -0.273 OA
ATOM     10  H   UNL d   1       3.398  -0.059   0.715  0.00  0.00     0.169 HD
BRANCH   8  11
ATOM     11  C   UNL d   1       4.937  -1.972   0.167  0.00  0.00     0.113 C 
BRANCH  11  12
ATOM     12  C   UNL d   1       5.676  -2.450  -1.077  0.00  0.00     0.119 C 
BRANCH  12  13
ATOM     13  C   UNL d   1       5.442  -1.489  -2.216  0.00  0.00     0.139 C 
ATOM     14  O   UNL d   1       6.143  -0.511  -2.424  0.00  0.00    -0.650 OA
BRANCH  13  15
ATOM     15  O   UNL d   1       4.335  -1.759  -2.940  0.00  0.00    -0.776 OA
ATOM     16  H   UNL d   1       3.778  -2.486  -2.573  0.00  0.00     0.167 HD
ENDBRANCH  13  15
ENDBRANCH  12  13
ENDBRANCH  11  12
ENDBRANCH   8  11
ENDBRANCH   1   7
BRANCH   3  17
ATOM     17  O   UNL d   1       2.012   1.857   0.481  0.00  0.00    -0.354 OA
ATOM     18  C   UNL d   1       2.850   2.093  -0.656  0.00  0.00     0.210 C 
ENDBRANCH   3  17
BRANCH   5  19
ATOM     19  O   UNL d   1      -1.922  -1.963  -0.233  0.00  0.00    -0.356 OA
ATOM     20  C   UNL d   1      -1.623  -3.351  -0.126  0.00  0.00     0.210 C 
ENDBRANCH   5  19
TORSDOF 7
