REMARK  3 active torsions:
REMARK  status: ('A' for Active; 'I' for Inactive)
REMARK       I    between atoms: C_2  and  N_3 
REMARK    1  A    between atoms: C_9  and  C_2 
REMARK    2  A    between atoms: N_4  and  C_5 
REMARK    3  A    between atoms: N_18  and  C_12 
ROOT
ATOM      1  C   UNL d   1      -4.612  -6.368  -0.362  0.00  0.00     0.253 C 
ATOM      2  N   UNL d   1      -3.841  -5.225  -0.578  0.00  0.00    -0.345 N 
ATOM      3  N   UNL d   1      -2.886  -2.563  -0.135  0.00  0.00    -0.377 N 
ATOM      4  C   UNL d   1      -4.125  -4.133  -1.522  0.00  0.00     0.146 C 
ATOM      5  C   UNL d   1      -2.642  -4.987   0.255  0.00  0.00     0.146 C 
ATOM      6  C   UNL d   1      -4.152  -2.769  -0.842  0.00  0.00     0.143 C 
ATOM      7  C   UNL d   1      -2.664  -3.584   0.919  0.00  0.00     0.143 C 
ATOM      8  O   UNL d   1      -4.360  -7.161   0.551  0.00  0.00    -0.267 OA
ENDROOT
BRANCH   3   9
ATOM      9  C   UNL d   1      -2.467  -1.244   0.054  0.00  0.00     0.044 A 
ATOM     10  C   UNL d   1      -1.087  -0.900   0.114  0.00  0.00     0.017 A 
ATOM     11  C   UNL d   1      -0.749   0.477   0.164  0.00  0.00     0.046 A 
ATOM     12  C   UNL d   1      -0.027  -1.842   0.078  0.00  0.00     0.018 A 
ATOM     13  C   UNL d   1       0.581   0.850   0.199  0.00  0.00     0.054 A 
ATOM     14  N   UNL d   1      -1.661   1.459   0.141  0.00  0.00    -0.365 N 
ATOM     15  C   UNL d   1       1.608  -0.096   0.210  0.00  0.00     0.036 A 
ATOM     16  C   UNL d   1       1.304  -1.446   0.151  0.00  0.00     0.025 A 
ATOM     17 CL   UNL d   1       3.245   0.416   0.271  0.00  0.00    -0.084 Cl
ATOM     18  C   UNL d   1      -2.955   1.115   0.091  0.00  0.00     0.090 A 
ATOM     19  HN  UNL d   1      -1.379   2.439   0.162  1.00  0.00     0.165 HD
ATOM     20  C   UNL d   1      -3.398  -0.194   0.055  0.00  0.00     0.047 A 
ENDBRANCH   3   9
BRANCH   1  21
ATOM     21  C   UNL d   1      -5.824  -6.638  -1.194  0.00  0.00     0.032 C 
ATOM     22  C   UNL d   1      -5.908  -6.321  -2.549  0.00  0.00     0.019 C 
ATOM     23  C   UNL d   1      -7.116  -6.452  -3.245  0.00  0.00     0.030 C 
ATOM     24  C   UNL d   1      -8.252  -7.038  -2.673  0.00  0.00     0.029 C 
ATOM     25  C   UNL d   1      -8.104  -7.470  -1.342  0.00  0.00     0.030 C 
ATOM     26  C   UNL d   1      -6.924  -7.261  -0.607  0.00  0.00     0.019 C 
BRANCH  24  27
ATOM     27  N   UNL d   1      -9.421  -7.224  -3.389  0.00  0.00    -0.390 N 
ATOM     28  C   UNL d   1     -10.727  -7.298  -2.740  0.00  0.00     0.149 C 
ATOM     29  C   UNL d   1      -9.476  -7.128  -4.846  0.00  0.00     0.149 C 
ENDBRANCH  24  27
ENDBRANCH   1  21
TORSDOF 3
