REMARK  2 active torsions:
REMARK  status: ('A' for Active; 'I' for Inactive)
REMARK       I    between atoms: N_2  and  C_1 
REMARK       I    between atoms: N_6  and  C_1 
REMARK    1  A    between atoms: C_5  and  N_2 
REMARK    2  A    between atoms: C_11  and  N_6 
ROOT
ATOM      1  C   UNL d   1       0.920   0.119  -0.158  0.00  0.00     0.326 C 
ATOM      2  N   UNL d   1       0.418   0.772   0.942  0.00  0.00    -0.294 N 
ATOM      3  N   UNL d   1       2.228   0.379  -0.457  0.00  0.00    -0.309 N 
ATOM      4  O   UNL d   1       0.187  -0.673  -0.747  0.00  0.00    -0.247 OA
ATOM      5  H   UNL d   1      -0.516   0.475   1.184  0.00  0.00     0.172 HD
ATOM      6  H   UNL d   1       2.683   0.993   0.214  0.00  0.00     0.170 HD
ENDROOT
BRANCH   2   7
ATOM      7  C   UNL d   1       1.020   1.780   1.702  0.00  0.00     0.109 A 
ATOM      8  N   UNL d   1       2.210   2.279   1.301  0.00  0.00    -0.342 N 
ATOM      9  C   UNL d   1       2.781   3.261   2.013  0.00  0.00     0.043 A 
ATOM     10  HN  UNL d   1       2.668   1.913   0.466  1.00  0.00     0.167 HD
ATOM     11  C   UNL d   1       3.975   3.808   1.565  0.00  0.00     0.030 A 
ATOM     12  C   UNL d   1       2.213   3.757   3.200  0.00  0.00    -0.009 A 
ATOM     13  C   UNL d   1       4.631   4.812   2.277  0.00  0.00     0.002 A 
ATOM     14  C   UNL d   1       4.085   5.282   3.467  0.00  0.00     0.001 A 
ATOM     15  C   UNL d   1       2.876   4.761   3.928  0.00  0.00     0.013 A 
ATOM     16  C   UNL d   1       0.985   3.220   3.607  0.00  0.00     0.017 A 
ATOM     17  C   UNL d   1       0.372   2.229   2.842  0.00  0.00     0.049 A 
ENDBRANCH   2   7
BRANCH   3  18
ATOM     18  C   UNL d   1       3.007  -0.081  -1.525  0.00  0.00     0.036 A 
ATOM     19  C   UNL d   1       2.480  -0.730  -2.643  0.00  0.00     0.032 A 
ATOM     20  C   UNL d   1       3.322  -1.121  -3.687  0.00  0.00     0.044 A 
ATOM     21  C   UNL d   1       4.687  -0.878  -3.601  0.00  0.00     0.116 A 
ATOM     22  C   UNL d   1       5.231  -0.243  -2.494  0.00  0.00     0.044 A 
ATOM     23  F   UNL d   1       5.492  -1.258  -4.603  0.00  0.00    -0.206 F 
ATOM     24  C   UNL d   1       4.387   0.165  -1.458  0.00  0.00     0.032 A 
ENDBRANCH   3  18
TORSDOF 2
