REMARK  4 active torsions:
REMARK  status: ('A' for Active; 'I' for Inactive)
REMARK    1  A    between atoms: C_5  and  C_1 
REMARK    2  A    between atoms: C_9  and  C_4 
REMARK       I    between atoms: N_7  and  C_5 
REMARK    3  A    between atoms: C_10  and  C_17 
REMARK    4  A    between atoms: O_24  and  C_10 
ROOT
ATOM      1  C   UNL d   1       1.235   0.791  -0.085  0.00  0.00     0.108 A 
ATOM      2  N   UNL d   1       1.348  -0.599  -0.106  0.00  0.00    -0.345 N 
ATOM      3  HN  UNL d   1       2.233  -1.106  -0.103  1.00  0.00     0.167 HD
ATOM      4  C   UNL d   1       0.160  -1.171  -0.132  0.00  0.00     0.085 A 
ATOM      5  S   UNL d   1      -1.164  -0.071  -0.154  0.00  0.00    -0.081 SA
ATOM      6  C   UNL d   1      -0.072   1.243  -0.145  0.00  0.00     0.087 A 
ENDROOT
BRANCH   1   7
ATOM      7  C   UNL d   1       2.389   1.707  -0.071  0.00  0.00     0.270 C 
ATOM      8  N   UNL d   1       3.619   1.261   0.455  0.00  0.00    -0.347 N 
ATOM      9  C   UNL d   1       4.702   2.237   0.452  0.00  0.00     0.127 C 
ATOM     10  C   UNL d   1       3.691   0.253   1.516  0.00  0.00     0.127 C 
ATOM     11  C   UNL d   1       6.078   1.577   0.479  0.00  0.00     0.035 C 
ATOM     12  C   UNL d   1       6.213   0.560   1.616  0.00  0.00     0.087 C 
ATOM     13  C   UNL d   1       5.053  -0.439   1.552  0.00  0.00     0.035 C 
ATOM     14  O   UNL d   1       2.266   2.847  -0.526  0.00  0.00    -0.266 OA
BRANCH  12  15
ATOM     15  C   UNL d   1       6.294   1.230   2.981  0.00  0.00     0.143 C 
ATOM     16  O   UNL d   1       5.493   1.072   3.887  0.00  0.00    -0.650 OA
BRANCH  15  17
ATOM     17  O   UNL d   1       7.385   2.016   3.128  0.00  0.00    -0.776 OA
ATOM     18  H   UNL d   1       7.989   2.023   2.364  0.00  0.00     0.167 HD
ENDBRANCH  15  17
ENDBRANCH  12  15
ENDBRANCH   1   7
BRANCH   4  19
ATOM     19  C   UNL d   1      -0.050  -2.627  -0.090  0.00  0.00    -0.002 A 
ATOM     20  C   UNL d   1      -1.139  -3.246  -0.729  0.00  0.00     0.024 A 
ATOM     21  C   UNL d   1      -1.268  -4.622  -0.649  0.00  0.00    -0.022 A 
ATOM     22  C   UNL d   1      -2.264  -5.513  -1.283  0.00  0.00     0.068 C 
ATOM     23  C   UNL d   1      -0.340  -5.390   0.036  0.00  0.00     0.075 A 
ATOM     24  C   UNL d   1      -1.953  -6.802  -0.522  0.00  0.00     0.180 C 
ATOM     25  O   UNL d   1      -0.603  -6.733  -0.001  0.00  0.00    -0.350 OA
ATOM     26  C   UNL d   1       0.752  -4.825   0.658  0.00  0.00     0.038 A 
ATOM     27  C   UNL d   1       0.892  -3.435   0.592  0.00  0.00     0.017 A 
ENDBRANCH   4  19
TORSDOF 4
