REMARK  9 active torsions:
REMARK  status: ('A' for Active; 'I' for Inactive)
REMARK    1  A    between atoms: C_5  and  N_1 
REMARK    2  A    between atoms: N_2  and  C_9 
REMARK    3  A    between atoms: N_3  and  N_10 
REMARK    4  A    between atoms: C_20  and  C_5 
REMARK    5  A    between atoms: C_21  and  C_5 
REMARK    6  A    between atoms: C_6  and  C_24 
REMARK       I    between atoms: N_10  and  C_6 
REMARK    7  A    between atoms: S_16  and  C_11 
REMARK    8  A    between atoms: C_15  and  C_13 
REMARK    9  A    between atoms: C_24  and  S_16 
ROOT
ATOM      1  S   UNL d   1      -2.148  -2.584  -4.167  0.00  0.00    -0.151 SA
ENDROOT
BRANCH   1   2
ATOM      2  C   UNL d   1      -3.720  -3.513  -4.537  0.00  0.00     0.104 C 
ATOM      3  C   UNL d   1      -3.753  -3.965  -6.026  0.00  0.00     0.290 C 
ATOM      4  N   UNL d   1      -3.026  -5.203  -5.609  0.00  0.00     0.104 N 
ATOM      5  C   UNL d   1      -3.642  -5.039  -4.262  0.00  0.00     0.290 C 
BRANCH   4   6
ATOM      6  C   UNL d   1      -3.510  -6.387  -6.352  0.00  0.00     0.289 C 
BRANCH   6   7
ATOM      7  C   UNL d   1      -2.804  -6.477  -7.714  0.00  0.00    -0.021 A 
ATOM      8  C   UNL d   1      -1.402  -6.564  -7.795  0.00  0.00     0.010 A 
ATOM      9  C   UNL d   1      -0.760  -6.740  -9.022  0.00  0.00     0.001 A 
ATOM     10  C   UNL d   1      -1.510  -6.815 -10.192  0.00  0.00     0.000 A 
ATOM     11  C   UNL d   1      -2.898  -6.699 -10.136  0.00  0.00     0.001 A 
ATOM     12  C   UNL d   1      -3.543  -6.530  -8.907  0.00  0.00     0.010 A 
ENDBRANCH   6   7
BRANCH   6  13
ATOM     13  C   UNL d   1      -3.348  -7.719  -5.602  0.00  0.00    -0.021 A 
ATOM     14  C   UNL d   1      -4.256  -8.765  -5.851  0.00  0.00     0.010 A 
ATOM     15  C   UNL d   1      -4.126  -9.996  -5.206  0.00  0.00     0.001 A 
ATOM     16  C   UNL d   1      -3.083 -10.205  -4.306  0.00  0.00     0.000 A 
ATOM     17  C   UNL d   1      -2.163  -9.189  -4.060  0.00  0.00     0.001 A 
ATOM     18  C   UNL d   1      -2.289  -7.959  -4.710  0.00  0.00     0.010 A 
ENDBRANCH   6  13
ENDBRANCH   4   6
ENDBRANCH   1   2
BRANCH   1  19
ATOM     19  C   UNL d   1      -2.524  -2.041  -2.483  0.00  0.00     0.178 C 
BRANCH  19  20
ATOM     20  C   UNL d   1      -2.538  -3.203  -1.508  0.00  0.00     0.245 C 
ATOM     21  N   UNL d   1      -1.287  -3.527  -0.997  0.00  0.00    -0.269 N 
ATOM     22  H   UNL d   1      -0.458  -3.085  -1.367  0.00  0.00     0.190 HD
ATOM     23  O   UNL d   1      -3.590  -3.774  -1.226  0.00  0.00    -0.271 OA
BRANCH  21  24
ATOM     24  N   UNL d   1      -1.195  -4.561  -0.118  0.00  0.00    -0.302 N 
ATOM     25  C   UNL d   1      -0.062  -4.949   0.392  0.00  0.00     0.032 C 
ATOM     26  C   UNL d   1       1.288  -4.315   0.124  0.00  0.00     0.070 C 
ATOM     27  HN  UNL d   1      -2.047  -5.052   0.152  1.00  0.00     0.186 HD
BRANCH  25  28
ATOM     28  C   UNL d   1      -0.104  -6.121   1.344  0.00  0.00    -0.012 A 
ATOM     29  C   UNL d   1      -1.343  -6.726   1.621  0.00  0.00     0.016 A 
ATOM     30  C   UNL d   1      -1.436  -7.810   2.501  0.00  0.00     0.037 A 
ATOM     31  C   UNL d   1      -0.278  -8.299   3.112  0.00  0.00     0.102 A 
ATOM     32  C   UNL d   1       0.966  -7.712   2.845  0.00  0.00     0.037 A 
ATOM     33  C   UNL d   1       1.049  -6.625   1.963  0.00  0.00     0.016 A 
BRANCH  31  34
ATOM     34  N   UNL d   1      -0.366  -9.432   4.043  0.00  0.00    -0.116 N 
ATOM     35  O   UNL d   1      -1.483  -9.919   4.254  0.00  0.00    -0.532 OA
ATOM     36  O   UNL d   1       0.687  -9.830   4.562  0.00  0.00    -0.532 OA
ENDBRANCH  31  34
ENDBRANCH  25  28
ENDBRANCH  21  24
ENDBRANCH  19  20
ENDBRANCH   1  19
TORSDOF 9
