REMARK  8 active torsions:
REMARK  status: ('A' for Active; 'I' for Inactive)
REMARK    1  A    between atoms: N_3  and  C_1 
REMARK    2  A    between atoms: N_4  and  C_1 
REMARK    3  A    between atoms: C_5  and  C_1 
REMARK    4  A    between atoms: C_10  and  C_1 
REMARK    5  A    between atoms: C_2  and  N_4 
REMARK       I    between atoms: C_9  and  N_3 
REMARK    6  A    between atoms: C_13  and  C_9 
REMARK    7  A    between atoms: O_21  and  C_10 
REMARK    8  A    between atoms: C_28  and  O_21 
ROOT
ATOM      1  C   UNL d   1       1.139   0.029  -0.075  0.00  0.00     0.298 C 
ENDROOT
BRANCH   1   2
ATOM      2  N   UNL d   1       0.752   0.349  -1.451  0.00  0.00    -0.315 N 
ATOM      3  C   UNL d   1       0.737   1.632  -1.933  0.00  0.00     0.254 C 
ATOM      4  O   UNL d   1       0.961   2.599  -1.230  0.00  0.00    -0.268 OA
ATOM      5  H   UNL d   1       0.703  -0.425  -2.096  0.00  0.00     0.166 HD
BRANCH   3   6
ATOM      6  C   UNL d   1       0.416   1.780  -3.376  0.00  0.00     0.033 A 
ATOM      7  C   UNL d   1       0.943   0.906  -4.334  0.00  0.00     0.041 A 
ATOM      8  C   UNL d   1       0.681   1.133  -5.684  0.00  0.00     0.035 A 
ATOM      9 CL   UNL d   1       1.357   0.082  -6.866  0.00  0.00    -0.084 Cl
ATOM     10  C   UNL d   1      -0.108   2.211  -6.085  0.00  0.00     0.024 A 
ATOM     11  C   UNL d   1      -0.656   3.064  -5.127  0.00  0.00     0.003 A 
ATOM     12  C   UNL d   1      -0.394   2.851  -3.772  0.00  0.00     0.017 A 
ENDBRANCH   3   6
ENDBRANCH   1   2
BRANCH   1  13
ATOM     13  N   UNL d   1       0.579  -1.338   0.203  0.00  0.00    -0.328 N 
ATOM     14  H   UNL d   1      -0.046  -1.453   0.996  0.00  0.00     0.165 HD
BRANCH  13  15
ATOM     15  C   UNL d   1       1.040  -2.475  -0.400  0.00  0.00     0.148 A 
ATOM     16  N   UNL d   1       1.915  -2.397  -1.364  0.00  0.00    -0.336 N 
ATOM     17  C   UNL d   1       2.264  -3.684  -1.749  0.00  0.00     0.051 A 
ATOM     18  HN  UNL d   1       2.282  -1.535  -1.766  1.00  0.00     0.168 HD
ATOM     19  C   UNL d   1       3.244  -4.024  -2.703  0.00  0.00     0.031 A 
ATOM     20  C   UNL d   1       1.564  -4.712  -1.108  0.00  0.00     0.035 A 
ATOM     21  C   UNL d   1       3.500  -5.370  -2.982  0.00  0.00     0.002 A 
ATOM     22  C   UNL d   1       2.782  -6.375  -2.341  0.00  0.00     0.002 A 
ATOM     23  C   UNL d   1       1.795  -6.065  -1.401  0.00  0.00     0.021 A 
ATOM     24  S   UNL d   1       0.471  -4.016   0.028  0.00  0.00    -0.052 SA
ENDBRANCH  13  15
ENDBRANCH   1  13
BRANCH   1  25
ATOM     25  C   UNL d   1       0.616   0.977   1.071  0.00  0.00     0.442 C 
ATOM     26  F   UNL d   1      -0.462   1.711   0.710  0.00  0.00    -0.166 F 
ATOM     27  F   UNL d   1       0.164   0.187   2.099  0.00  0.00    -0.166 F 
ATOM     28  F   UNL d   1       1.540   1.802   1.601  0.00  0.00    -0.166 F 
ENDBRANCH   1  25
BRANCH   1  29
ATOM     29  C   UNL d   1       2.663   0.012   0.202  0.00  0.00     0.318 C 
ATOM     30  O   UNL d   1       3.163  -0.622   1.128  0.00  0.00    -0.260 OA
BRANCH  29  31
ATOM     31  O   UNL d   1       3.352   0.874  -0.601  0.00  0.00    -0.318 OA
BRANCH  31  32
ATOM     32  C   UNL d   1       4.655   1.284  -0.145  0.00  0.00     0.174 C 
ATOM     33  C   UNL d   1       5.717   0.864  -1.140  0.00  0.00     0.034 C 
ENDBRANCH  31  32
ENDBRANCH  29  31
ENDBRANCH   1  29
TORSDOF 8
