REMARK  3 active torsions:
REMARK  status: ('A' for Active; 'I' for Inactive)
REMARK    1  A    between atoms: C_9  and  C_3 
REMARK    2  A    between atoms: C_11  and  C_7 
REMARK    3  A    between atoms: C_14  and  C_10 
ROOT
ATOM      1  C   UNL d   1      -2.047   0.433   0.145  0.00  0.00     0.027 C 
ATOM      2  C   UNL d   1      -1.586   1.780   0.591  0.00  0.00     0.194 C 
ATOM      3  C   UNL d   1      -0.936  -0.579  -0.007  0.00  0.00     0.199 C 
ATOM      4  O   UNL d   1      -0.063  -0.584   1.141  0.00  0.00    -0.335 OA
ATOM      5  C   UNL d   1      -0.233   1.834   1.176  0.00  0.00     0.048 A 
ATOM      6  C   UNL d   1       0.452   0.650   1.435  0.00  0.00     0.084 A 
ATOM      7  C   UNL d   1      -3.320   0.137  -0.184  0.00  0.00     0.025 C 
ATOM      8  O   UNL d   1      -2.241   2.805   0.457  0.00  0.00    -0.287 OA
ATOM      9  C   UNL d   1       0.356   3.065   1.481  0.00  0.00     0.018 A 
ATOM     10  C   UNL d   1       1.714   0.685   2.026  0.00  0.00     0.038 A 
ATOM     11  C   UNL d   1       1.633   3.103   2.044  0.00  0.00     0.001 A 
ATOM     12  C   UNL d   1       2.309   1.913   2.320  0.00  0.00     0.003 A 
ENDROOT
BRANCH   3  13
ATOM     13  C   UNL d   1      -0.125  -0.481  -1.306  0.00  0.00    -0.024 A 
ATOM     14  C   UNL d   1      -0.417   0.449  -2.320  0.00  0.00     0.010 A 
ATOM     15  C   UNL d   1       0.360   0.514  -3.478  0.00  0.00     0.001 A 
ATOM     16  C   UNL d   1       1.435  -0.353  -3.649  0.00  0.00     0.000 A 
ATOM     17  C   UNL d   1       1.730  -1.293  -2.664  0.00  0.00     0.001 A 
ATOM     18  C   UNL d   1       0.955  -1.359  -1.504  0.00  0.00     0.010 A 
ENDBRANCH   3  13
BRANCH   7  19
ATOM     19  C   UNL d   1      -4.464   1.049  -0.230  0.00  0.00    -0.035 A 
ATOM     20  C   UNL d   1      -4.760   1.716  -1.421  0.00  0.00     0.012 A 
ATOM     21  C   UNL d   1      -5.885   2.539  -1.510  0.00  0.00     0.008 A 
ATOM     22  C   UNL d   1      -6.738   2.705  -0.410  0.00  0.00    -0.055 A 
ATOM     23  C   UNL d   1      -6.420   2.048   0.788  0.00  0.00     0.008 A 
ATOM     24  C   UNL d   1      -5.292   1.226   0.880  0.00  0.00     0.012 A 
BRANCH  22  25
ATOM     25  C   UNL d   1      -7.995   3.553  -0.503  0.00  0.00     0.010 C 
ATOM     26  C   UNL d   1      -7.680   5.015  -0.828  0.00  0.00     0.015 C 
ATOM     27  C   UNL d   1      -8.978   2.969  -1.521  0.00  0.00     0.015 C 
ENDBRANCH  22  25
ENDBRANCH   7  19
TORSDOF 3
