REMARK  5 active torsions:
REMARK  status: ('A' for Active; 'I' for Inactive)
REMARK    1  A    between atoms: C_6  and  C_1 
REMARK    2  A    between atoms: N_2  and  C_5 
REMARK    3  A    between atoms: S_7  and  C_3 
REMARK    4  A    between atoms: O_14  and  C_6 
REMARK    5  A    between atoms: C_13  and  S_7 
ROOT
ATOM      1  C   UNL d   1       1.418  -0.152   0.183  0.00  0.00     0.059 A 
ATOM      2  C   UNL d   1       0.607  -1.302   0.089  0.00  0.00     0.022 A 
ATOM      3  C   UNL d   1       0.826   1.128   0.168  0.00  0.00     0.055 A 
ATOM      4  C   UNL d   1      -0.563   1.263   0.061  0.00  0.00     0.103 A 
ATOM      5  C   UNL d   1      -0.789  -1.138  -0.014  0.00  0.00     0.022 A 
ATOM      6  C   UNL d   1      -1.375   0.131  -0.022  0.00  0.00     0.037 A 
ENDROOT
BRANCH   2   7
ATOM      7  S   UNL d   1       1.200  -2.984   0.030  0.00  0.00    -0.090 SA
BRANCH   7   8
ATOM      8  C   UNL d   1       1.181  -3.572   1.713  0.00  0.00     0.005 A 
ATOM      9  C   UNL d   1       0.969  -2.767   2.838  0.00  0.00     0.020 A 
ATOM     10  C   UNL d   1       1.005  -3.321   4.125  0.00  0.00     0.025 A 
ATOM     11  C   UNL d   1       1.257  -4.681   4.293  0.00  0.00     0.034 A 
ATOM     12  C   UNL d   1       1.465  -5.497   3.185  0.00  0.00     0.025 A 
ATOM     13 CL   UNL d   1       1.314  -5.354   5.872  0.00  0.00    -0.084 Cl
ATOM     14  C   UNL d   1       1.427  -4.941   1.902  0.00  0.00     0.020 A 
ENDBRANCH   7   8
ENDBRANCH   2   7
BRANCH   1  15
ATOM     15  C   UNL d   1       2.889  -0.158   0.397  0.00  0.00     0.294 C 
ATOM     16  O   UNL d   1       3.433   0.681   1.102  0.00  0.00    -0.259 OA
BRANCH  15  17
ATOM     17  O   UNL d   1       3.504  -1.131  -0.305  0.00  0.00    -0.322 OA
ATOM     18  C   UNL d   1       4.917  -1.250  -0.102  0.00  0.00     0.213 C 
ENDBRANCH  15  17
ENDBRANCH   1  15
BRANCH   4  19
ATOM     19  N   UNL d   1      -1.169   2.600   0.042  0.00  0.00    -0.116 N 
ATOM     20  O   UNL d   1      -0.409   3.577   0.017  0.00  0.00    -0.532 OA
ATOM     21  O   UNL d   1      -2.406   2.669   0.047  0.00  0.00    -0.532 OA
ENDBRANCH   4  19
TORSDOF 5
