REMARK  9 active torsions:
REMARK  status: ('A' for Active; 'I' for Inactive)
REMARK    1  A    between atoms: N_2  and  C_1 
REMARK    2  A    between atoms: N_4  and  C_1 
REMARK    3  A    between atoms: C_6  and  N_2 
REMARK    4  A    between atoms: C_21  and  N_4 
REMARK    5  A    between atoms: O_5  and  C_8 
REMARK    6  A    between atoms: C_7  and  O_5 
REMARK    7  A    between atoms: C_19  and  C_21 
REMARK    8  A    between atoms: C_22  and  C_19 
REMARK    9  A    between atoms: O_20  and  C_22 
ROOT
ATOM      1  C   UNL d   1       0.916   1.540  -2.142  0.00  0.00     0.034 C 
ATOM      2  C   UNL d   1       2.351   3.046  -3.993  0.00  0.00     0.076 C 
ATOM      3  C   UNL d   1       1.722   0.906  -3.089  0.00  0.00     0.032 C 
ATOM      4  C   UNL d   1       0.713   2.918  -2.214  0.00  0.00     0.032 C 
ATOM      5  C   UNL d   1       2.411   1.652  -4.038  0.00  0.00     0.039 C 
ATOM      6  C   UNL d   1       1.455   3.677  -3.127  0.00  0.00     0.039 C 
ENDROOT
BRANCH   1   7
ATOM      7  N   UNL d   1       0.291   0.781  -1.133  0.00  0.00    -0.333 N 
ATOM      8  H   UNL d   1      -0.553   1.162  -0.721  0.00  0.00     0.168 HD
BRANCH   7   9
ATOM      9  C   UNL d   1       0.935  -0.132  -0.325  0.00  0.00     0.172 C 
ATOM     10  S   UNL d   1       2.574  -0.224   0.005  0.00  0.00    -0.041 SA
BRANCH   9  11
ATOM     11  N   UNL d   1       0.122  -1.025   0.315  0.00  0.00    -0.367 N 
ATOM     12  H   UNL d   1       0.638  -1.670   0.903  0.00  0.00     0.161 HD
BRANCH  11  13
ATOM     13  C   UNL d   1      -1.165  -1.487  -0.176  0.00  0.00     0.124 C 
BRANCH  13  14
ATOM     14  C   UNL d   1      -2.270  -1.323   0.859  0.00  0.00     0.046 C 
BRANCH  14  15
ATOM     15  C   UNL d   1      -2.557   0.136   1.198  0.00  0.00     0.168 C 
BRANCH  15  16
ATOM     16  O   UNL d   1      -2.794   0.869  -0.004  0.00  0.00    -0.396 OA
ATOM     17  C   UNL d   1      -3.075   2.236   0.261  0.00  0.00     0.201 C 
ENDBRANCH  15  16
ENDBRANCH  14  15
ENDBRANCH  13  14
ENDBRANCH  11  13
ENDBRANCH   9  11
ENDBRANCH   7   9
ENDBRANCH   1   7
BRANCH   2  18
ATOM     18  O   UNL d   1       3.150   3.846  -4.780  0.00  0.00    -0.311 OA
BRANCH  18  19
ATOM     19  C   UNL d   1       4.472   3.478  -4.943  0.00  0.00     0.076 A 
ATOM     20  C   UNL d   1       5.064   3.813  -6.162  0.00  0.00     0.039 A 
ATOM     21  C   UNL d   1       6.384   3.436  -6.427  0.00  0.00     0.026 A 
ATOM     22  C   UNL d   1       7.109   2.726  -5.470  0.00  0.00     0.034 A 
ATOM     23  C   UNL d   1       6.540   2.424  -4.236  0.00  0.00     0.026 A 
ATOM     24 CL   UNL d   1       8.717   2.221  -5.815  0.00  0.00    -0.084 Cl
ATOM     25  C   UNL d   1       5.231   2.824  -3.961  0.00  0.00     0.039 A 
ENDBRANCH  18  19
ENDBRANCH   2  18
TORSDOF 9
