REMARK  10 active torsions:
REMARK  status: ('A' for Active; 'I' for Inactive)
REMARK    1  A    between atoms: C_10  and  C_1 
REMARK    2  A    between atoms: C_3  and  N_15 
REMARK    3  A    between atoms: N_11  and  C_3 
REMARK    4  A    between atoms: C_12  and  C_5 
REMARK    5  A    between atoms: C_6  and  C_14 
REMARK    6  A    between atoms: O_22  and  C_6 
REMARK    7  A    between atoms: N_15  and  N_7 
REMARK    8  A    between atoms: C_21  and  N_11 
REMARK    9  A    between atoms: C_29  and  O_22 
REMARK   10  A    between atoms: O_28  and  C_23 
ROOT
ATOM      1  N   UNL d   1      -1.945  -2.513   0.975  0.00  0.00    -0.307 N 
ATOM      2  HN  UNL d   1      -2.095  -1.764   1.652  1.00  0.00     0.186 HD
ATOM      3  C   UNL d   1      -1.142  -2.368  -0.027  0.00  0.00     0.144 C 
ENDROOT
BRANCH   3   4
ATOM      4  C   UNL d   1      -0.480  -1.114  -0.251  0.00  0.00     0.093 A 
ATOM      5  O   UNL d   1      -1.156   0.048  -0.002  0.00  0.00    -0.309 OA
ATOM      6  C   UNL d   1      -0.328   1.089  -0.313  0.00  0.00     0.086 A 
ATOM      7  C   UNL d   1       0.893   0.590  -0.727  0.00  0.00     0.041 A 
ATOM      8  C   UNL d   1       0.783  -0.822  -0.721  0.00  0.00     0.041 A 
BRANCH   6   9
ATOM      9  C   UNL d   1      -0.886   2.434  -0.188  0.00  0.00    -0.002 A 
ATOM     10  C   UNL d   1      -2.233   2.647   0.140  0.00  0.00     0.015 A 
ATOM     11  C   UNL d   1      -2.776   3.939   0.155  0.00  0.00     0.018 A 
ATOM     12  C   UNL d   1      -1.974   5.045  -0.152  0.00  0.00     0.039 A 
ATOM     13  C   UNL d   1      -0.619   4.847  -0.436  0.00  0.00     0.018 A 
ATOM     14  C   UNL d   1      -0.084   3.555  -0.455  0.00  0.00     0.015 A 
BRANCH  12  15
ATOM     15  C   UNL d   1      -2.616   6.382  -0.265  0.00  0.00     0.293 C 
ATOM     16  O   UNL d   1      -3.814   6.574  -0.113  0.00  0.00    -0.259 OA
BRANCH  15  17
ATOM     17  O   UNL d   1      -1.704   7.297  -0.674  0.00  0.00    -0.318 OA
BRANCH  17  18
ATOM     18  C   UNL d   1      -2.238   8.503  -1.238  0.00  0.00     0.174 C 
ATOM     19  C   UNL d   1      -2.433   8.280  -2.728  0.00  0.00     0.034 C 
ENDBRANCH  17  18
ENDBRANCH  15  17
ENDBRANCH  12  15
ENDBRANCH   6   9
ENDBRANCH   3   4
BRANCH   1  20
ATOM     20  N   UNL d   1      -2.580  -3.714   1.086  0.00  0.00    -0.276 N 
ATOM     21  H   UNL d   1      -2.782  -4.257   0.256  0.00  0.00     0.189 HD
BRANCH  20  22
ATOM     22  C   UNL d   1      -3.029  -4.156   2.303  0.00  0.00     0.191 C 
ATOM     23  S   UNL d   1      -2.292  -3.813   3.772  0.00  0.00    -0.039 SA
BRANCH  22  24
ATOM     24  N   UNL d   1      -4.110  -4.992   2.322  0.00  0.00    -0.332 N 
ATOM     25  H   UNL d   1      -4.221  -5.444   3.225  0.00  0.00     0.168 HD
BRANCH  24  26
ATOM     26  C   UNL d   1      -5.286  -4.960   1.538  0.00  0.00     0.034 A 
ATOM     27  C   UNL d   1      -5.514  -4.075   0.483  0.00  0.00     0.032 A 
ATOM     28  C   UNL d   1      -6.766  -4.018  -0.146  0.00  0.00     0.039 A 
ATOM     29  C   UNL d   1      -7.815  -4.822   0.293  0.00  0.00     0.068 A 
ATOM     30  C   UNL d   1      -7.583  -5.729   1.326  0.00  0.00     0.039 A 
ATOM     31  C   UNL d   1      -6.329  -5.803   1.940  0.00  0.00     0.032 A 
BRANCH  29  32
ATOM     32  O   UNL d   1      -9.096  -4.799  -0.181  0.00  0.00    -0.356 OA
ATOM     33  C   UNL d   1      -9.420  -3.766  -1.105  0.00  0.00     0.210 C 
ENDBRANCH  29  32
ENDBRANCH  24  26
ENDBRANCH  22  24
ENDBRANCH  20  22
ENDBRANCH   1  20
TORSDOF 10
