REMARK  5 active torsions:
REMARK  status: ('A' for Active; 'I' for Inactive)
REMARK    1  A    between atoms: C_2  and  C_1 
REMARK    2  A    between atoms: C_10  and  C_5 
REMARK    3  A    between atoms: S_9  and  C_10 
REMARK    4  A    between atoms: C_11  and  S_9 
REMARK    5  A    between atoms: N_17  and  C_12 
ROOT
ATOM      1  C   UNL d   1       0.449  -1.285  -0.217  0.00  0.00     0.064 A 
ATOM      2  N   UNL d   1       0.525  -3.647  -0.721  0.00  0.00    -0.366 N 
ATOM      3  HN  UNL d   1       0.985  -4.430  -1.187  1.00  0.00     0.165 HD
ATOM      4  C   UNL d   1      -0.608  -3.838   0.018  0.00  0.00     0.040 A 
ATOM      5  C   UNL d   1      -0.716  -1.490   0.531  0.00  0.00     0.043 A 
ATOM      6  C   UNL d   1      -1.252  -2.774   0.655  0.00  0.00     0.058 A 
ATOM      7  C   UNL d   1       1.023  -2.391  -0.818  0.00  0.00     0.104 A 
ATOM      8 CL   UNL d   1      -2.667  -2.970   1.619  0.00  0.00    -0.082 Cl
ENDROOT
BRANCH   4   9
ATOM      9  C   UNL d   1      -1.100  -5.265   0.119  0.00  0.00     0.138 C 
BRANCH   9  10
ATOM     10  S   UNL d   1      -2.553  -5.578  -0.948  0.00  0.00    -0.122 SA
BRANCH  10  11
ATOM     11  C   UNL d   1      -2.954  -7.242  -0.409  0.00  0.00     0.021 A 
ATOM     12  C   UNL d   1      -2.174  -8.356  -0.786  0.00  0.00     0.022 A 
ATOM     13  C   UNL d   1      -2.514  -9.620  -0.287  0.00  0.00     0.024 A 
ATOM     14  C   UNL d   1      -3.670  -9.801   0.475  0.00  0.00     0.002 A 
ATOM     15  C   UNL d   1      -4.476  -8.710   0.785  0.00  0.00     0.001 A 
ATOM     16  C   UNL d   1      -4.117  -7.434   0.351  0.00  0.00     0.020 A 
BRANCH  12  17
ATOM     17  N   UNL d   1      -0.953  -8.201  -1.472  0.00  0.00    -0.302 NA
ATOM     18  H   UNL d   1      -0.956  -7.359  -2.047  0.00  0.00     0.124 HD
ATOM     19  H   UNL d   1      -0.682  -9.023  -2.005  0.00  0.00     0.124 HD
ENDBRANCH  12  17
ENDBRANCH  10  11
ENDBRANCH   9  10
ENDBRANCH   4   9
BRANCH   1  20
ATOM     20  C   UNL d   1       1.095   0.058  -0.357  0.00  0.00     0.418 C 
ATOM     21  F   UNL d   1       0.355   1.073   0.169  0.00  0.00    -0.166 F 
ATOM     22  F   UNL d   1       1.323   0.398  -1.655  0.00  0.00    -0.166 F 
ATOM     23  F   UNL d   1       2.304   0.118   0.264  0.00  0.00    -0.166 F 
ENDBRANCH   1  20
TORSDOF 5
