REMARK  6 active torsions:
REMARK  status: ('A' for Active; 'I' for Inactive)
REMARK    1  A    between atoms: N_2  and  C_1 
REMARK    2  A    between atoms: N_3  and  C_8 
REMARK    3  A    between atoms: N_5  and  N_12 
REMARK    4  A    between atoms: C_10  and  C_7 
REMARK    5  A    between atoms: C_11  and  C_7 
REMARK    6  A    between atoms: N_12  and  C_9 
ROOT
ATOM      1  C   UNL d   1       0.033   1.182   1.086  0.00  0.00     0.133 A 
ATOM      2  C   UNL d   1      -0.520   0.111   1.812  0.00  0.00     0.074 A 
ATOM      3  C   UNL d   1       0.049  -1.156   1.669  0.00  0.00     0.105 A 
ATOM      4  C   UNL d   1       1.146   1.026   0.239  0.00  0.00     0.081 A 
ATOM      5  C   UNL d   1       1.698  -0.263   0.140  0.00  0.00     0.036 A 
ATOM      6  C   UNL d   1       1.147  -1.351   0.826  0.00  0.00     0.038 A 
ENDROOT
BRANCH   4   7
ATOM      7  N   UNL d   1       1.790   2.120  -0.365  0.00  0.00    -0.298 N 
ATOM      8  H   UNL d   1       1.204   2.852  -0.773  0.00  0.00     0.187 HD
BRANCH   7   9
ATOM      9  N   UNL d   1       3.117   2.039  -0.614  0.00  0.00    -0.308 N 
ATOM     10  C   UNL d   1       3.785   3.152  -0.684  0.00  0.00     0.012 C 
ATOM     11  HN  UNL d   1       3.576   1.138  -0.743  1.00  0.00     0.186 HD
BRANCH  10  12
ATOM     12  C   UNL d   1       3.159   4.491  -0.537  0.00  0.00     0.033 A 
ATOM     13  C   UNL d   1       2.644   5.183  -1.780  0.00  0.00     0.011 A 
ATOM     14  C   UNL d   1       3.804   5.765  -1.029  0.00  0.00     0.011 A 
ENDBRANCH  10  12
BRANCH  10  15
ATOM     15  C   UNL d   1       5.256   3.059  -0.859  0.00  0.00     0.033 A 
ATOM     16  C   UNL d   1       6.043   1.907  -0.275  0.00  0.00     0.011 A 
ATOM     17  C   UNL d   1       6.153   3.268   0.342  0.00  0.00     0.011 A 
ENDBRANCH  10  15
ENDBRANCH   7   9
ENDBRANCH   4   7
BRANCH   1  18
ATOM     18  N   UNL d   1      -0.545   2.502   1.282  0.00  0.00    -0.113 N 
ATOM     19  O   UNL d   1      -0.811   2.842   2.442  0.00  0.00    -0.532 OA
ATOM     20  O   UNL d   1      -0.748   3.190   0.267  0.00  0.00    -0.532 OA
ENDBRANCH   1  18
BRANCH   3  21
ATOM     21  N   UNL d   1      -0.496  -2.290   2.427  0.00  0.00    -0.116 N 
ATOM     22  O   UNL d   1      -1.415  -2.057   3.222  0.00  0.00    -0.532 OA
ATOM     23  O   UNL d   1      -0.004  -3.408   2.221  0.00  0.00    -0.532 OA
ENDBRANCH   3  21
TORSDOF 6
