REMARK  8 active torsions:
REMARK  status: ('A' for Active; 'I' for Inactive)
REMARK    1  A    between atoms: N_5  and  S_1 
REMARK    2  A    between atoms: C_10  and  S_1 
REMARK    3  A    between atoms: C_9  and  C_2 
REMARK    4  A    between atoms: C_3  and  N_5 
REMARK    5  A    between atoms: C_11  and  C_4 
REMARK    6  A    between atoms: C_7  and  C_12 
REMARK    7  A    between atoms: O_21  and  C_9 
REMARK    8  A    between atoms: O_22  and  C_11 
ROOT
ATOM      1  N   UNL d   1       0.569   0.138   1.679  0.00  0.00    -0.180 NA
ATOM      2  H   UNL d   1      -0.296   0.585   1.988  0.00  0.00     0.146 HD
ENDROOT
BRANCH   1   3
ATOM      3  C   UNL d   1       0.949  -0.956   2.492  0.00  0.00     0.047 A 
ATOM      4  C   UNL d   1       2.311  -1.393   2.709  0.00  0.00     0.085 A 
ATOM      5  C   UNL d   1       2.333  -2.595   3.420  0.00  0.00     0.098 A 
ATOM      6  S   UNL d   1       0.750  -3.057   3.929  0.00  0.00    -0.093 SA
ATOM      7  C   UNL d   1       0.031  -1.731   3.159  0.00  0.00     0.076 A 
BRANCH   4   8
ATOM      8  C   UNL d   1       3.478  -0.643   2.237  0.00  0.00     0.296 C 
ATOM      9  O   UNL d   1       3.467   0.580   2.131  0.00  0.00    -0.259 OA
BRANCH   8  10
ATOM     10  O   UNL d   1       4.544  -1.424   1.917  0.00  0.00    -0.322 OA
ATOM     11  C   UNL d   1       5.723  -0.731   1.492  0.00  0.00     0.213 C 
ENDBRANCH   8  10
ENDBRANCH   4   8
BRANCH   5  12
ATOM     12  C   UNL d   1       3.454  -3.420   3.850  0.00  0.00     0.301 C 
ATOM     13  O   UNL d   1       4.580  -3.024   4.116  0.00  0.00    -0.259 OA
BRANCH  12  14
ATOM     14  O   UNL d   1       3.066  -4.730   3.927  0.00  0.00    -0.322 OA
ATOM     15  C   UNL d   1       4.052  -5.661   4.372  0.00  0.00     0.213 C 
ENDBRANCH  12  14
ENDBRANCH   5  12
ENDBRANCH   1   3
BRANCH   1  16
ATOM     16  S   UNL d   1       0.353  -0.239   0.018  0.00  0.00     0.245 S 
ATOM     17  O   UNL d   1      -0.834  -1.064  -0.066  0.00  0.00    -0.206 OA
ATOM     18  O   UNL d   1       1.617  -0.649  -0.558  0.00  0.00    -0.206 OA
BRANCH  16  19
ATOM     19  C   UNL d   1      -0.057   1.358  -0.642  0.00  0.00     0.075 A 
ATOM     20  C   UNL d   1       0.894   2.383  -0.583  0.00  0.00     0.041 A 
ATOM     21  C   UNL d   1       0.572   3.658  -1.072  0.00  0.00     0.049 A 
ATOM     22  C   UNL d   1      -0.706   3.875  -1.619  0.00  0.00     0.016 A 
ATOM     23  C   UNL d   1      -1.644   2.843  -1.682  0.00  0.00     0.002 A 
ATOM     24  C   UNL d   1      -1.322   1.579  -1.193  0.00  0.00     0.025 A 
BRANCH  21  25
ATOM     25  C   UNL d   1       1.566   4.794  -1.016  0.00  0.00     0.417 C 
ATOM     26  F   UNL d   1       2.765   4.447  -0.474  0.00  0.00    -0.166 F 
ATOM     27  F   UNL d   1       1.843   5.303  -2.248  0.00  0.00    -0.166 F 
ATOM     28  F   UNL d   1       1.109   5.841  -0.274  0.00  0.00    -0.166 F 
ENDBRANCH  21  25
ENDBRANCH  16  19
ENDBRANCH   1  16
TORSDOF 8
