REMARK  7 active torsions:
REMARK  status: ('A' for Active; 'I' for Inactive)
REMARK    1  A    between atoms: S_3  and  C_1 
REMARK    2  A    between atoms: C_9  and  S_3 
REMARK    3  A    between atoms: C_4  and  C_9 
REMARK       I    between atoms: N_12  and  C_4 
REMARK    4  A    between atoms: C_5  and  C_10 
REMARK    5  A    between atoms: C_6  and  C_11 
REMARK    6  A    between atoms: C_23  and  C_9 
REMARK    7  A    between atoms: C_15  and  N_12 
ROOT
ATOM      1  C   UNL d   1      -0.484   1.482   1.329  0.00  0.00     0.092 A 
ATOM      2  C   UNL d   1      -0.101   0.648   2.384  0.00  0.00     0.084 A 
ATOM      3  N   UNL d   1      -1.744   1.518   0.822  0.00  0.00    -0.353 N 
ATOM      4  HN  UNL d   1      -1.974   2.120   0.031  1.00  0.00     0.166 HD
ATOM      5  C   UNL d   1      -1.086  -0.174   2.960  0.00  0.00    -0.037 A 
ATOM      6  C   UNL d   1       1.255   0.636   2.864  0.00  0.00     0.103 C 
ATOM      7  N   UNL d   1       2.340   0.582   3.270  0.00  0.00    -0.191 NA
ATOM      8  C   UNL d   1      -2.680   0.736   1.395  0.00  0.00     0.006 A 
ATOM      9  C   UNL d   1      -2.394  -0.110   2.458  0.00  0.00     0.033 A 
ATOM     10  C   UNL d   1      -0.824  -1.077   4.136  0.00  0.00     0.050 C 
ATOM     11  C   UNL d   1      -4.075   0.855   0.862  0.00  0.00     0.068 C 
ENDROOT
BRANCH   1  12
ATOM     12  S   UNL d   1       0.640   2.616   0.545  0.00  0.00    -0.091 SA
BRANCH  12  13
ATOM     13  C   UNL d   1      -0.497   4.069   0.283  0.00  0.00     0.179 C 
BRANCH  13  14
ATOM     14  C   UNL d   1      -1.257   4.426   1.589  0.00  0.00     0.240 C 
ATOM     15  N   UNL d   1      -2.443   5.136   1.379  0.00  0.00    -0.326 N 
ATOM     16  H   UNL d   1      -2.664   5.381   0.421  0.00  0.00     0.169 HD
ATOM     17  O   UNL d   1      -0.817   4.132   2.699  0.00  0.00    -0.272 OA
BRANCH  15  18
ATOM     18  C   UNL d   1      -3.360   5.567   2.372  0.00  0.00     0.036 A 
ATOM     19  C   UNL d   1      -3.204   5.303   3.734  0.00  0.00     0.045 A 
ATOM     20  C   UNL d   1      -4.157   5.715   4.683  0.00  0.00     0.050 A 
ATOM     21  C   UNL d   1      -5.284   6.424   4.250  0.00  0.00     0.032 A 
ATOM     22  C   UNL d   1      -5.468   6.710   2.889  0.00  0.00     0.050 A 
ATOM     23  C   UNL d   1      -4.496   6.280   1.960  0.00  0.00     0.045 A 
BRANCH  20  24
ATOM     24  C   UNL d   1      -3.951   5.367   6.138  0.00  0.00     0.417 C 
ATOM     25  F   UNL d   1      -4.989   5.751   6.934  0.00  0.00    -0.166 F 
ATOM     26  F   UNL d   1      -3.810   4.028   6.336  0.00  0.00    -0.166 F 
ATOM     27  F   UNL d   1      -2.841   5.950   6.666  0.00  0.00    -0.166 F 
ENDBRANCH  20  24
BRANCH  22  28
ATOM     28  C   UNL d   1      -6.698   7.455   2.423  0.00  0.00     0.417 C 
ATOM     29  F   UNL d   1      -7.577   7.734   3.426  0.00  0.00    -0.166 F 
ATOM     30  F   UNL d   1      -6.397   8.650   1.846  0.00  0.00    -0.166 F 
ATOM     31  F   UNL d   1      -7.405   6.755   1.494  0.00  0.00    -0.166 F 
ENDBRANCH  22  28
ENDBRANCH  15  18
ENDBRANCH  13  14
BRANCH  13  32
ATOM     32  C   UNL d   1       0.357   5.212  -0.252  0.00  0.00    -0.035 A 
ATOM     33  C   UNL d   1       0.818   6.248   0.576  0.00  0.00     0.009 A 
ATOM     34  C   UNL d   1       1.730   7.189   0.097  0.00  0.00     0.001 A 
ATOM     35  C   UNL d   1       2.203   7.103  -1.209  0.00  0.00     0.000 A 
ATOM     36  C   UNL d   1       1.744   6.093  -2.051  0.00  0.00     0.001 A 
ATOM     37  C   UNL d   1       0.818   5.161  -1.581  0.00  0.00     0.009 A 
ENDBRANCH  13  32
ENDBRANCH  12  13
ENDBRANCH   1  12
TORSDOF 7
