REMARK  4 active torsions:
REMARK  status: ('A' for Active; 'I' for Inactive)
REMARK    1  A    between atoms: C_7  and  N_1 
REMARK    2  A    between atoms: S_8  and  C_2 
REMARK    3  A    between atoms: C_10  and  S_8 
REMARK    4  A    between atoms: C_9  and  C_10 
ROOT
ATOM      1  N   UNL d   1      -0.051  -1.305  -0.012  0.00  0.00    -0.218 N 
ATOM      2  C   UNL d   1       1.146  -0.636  -0.280  0.00  0.00     0.177 A 
ATOM      3  N   UNL d   1       0.951   0.661  -0.169  0.00  0.00    -0.264 N 
ATOM      4  HN  UNL d   1       1.645   1.396  -0.300  1.00  0.00     0.186 HD
ATOM      5  N   UNL d   1      -0.979  -0.338   0.244  0.00  0.00     0.001 NA
ATOM      6  N   UNL d   1      -0.361   0.826   0.155  0.00  0.00    -0.006 NA
ENDROOT
BRANCH   2   7
ATOM      7  S   UNL d   1       2.646  -1.315  -0.848  0.00  0.00    -0.087 SA
BRANCH   7   8
ATOM      8  C   UNL d   1       3.791   0.051  -0.427  0.00  0.00     0.122 C 
BRANCH   8   9
ATOM      9  C   UNL d   1       5.248  -0.354  -0.471  0.00  0.00    -0.027 A 
ATOM     10  C   UNL d   1       6.013  -0.624   0.682  0.00  0.00     0.041 A 
ATOM     11 CL   UNL d   1       5.325  -0.580   2.266  0.00  0.00    -0.084 Cl
ATOM     12  C   UNL d   1       7.377  -0.931   0.585  0.00  0.00     0.024 A 
ATOM     13  C   UNL d   1       7.999  -0.990  -0.663  0.00  0.00     0.002 A 
ATOM     14  C   UNL d   1       7.255  -0.744  -1.816  0.00  0.00     0.001 A 
ATOM     15  C   UNL d   1       5.899  -0.432  -1.717  0.00  0.00     0.009 A 
ENDBRANCH   8   9
ENDBRANCH   7   8
ENDBRANCH   2   7
BRANCH   1  16
ATOM     16  C   UNL d   1      -0.425  -2.680   0.120  0.00  0.00     0.068 A 
ATOM     17  C   UNL d   1       0.400  -3.618   0.797  0.00  0.00    -0.033 A 
ATOM     18  C   UNL d   1      -0.048  -4.950   0.942  0.00  0.00     0.009 A 
ATOM     19  C   UNL d   1       1.707  -3.332   1.486  0.00  0.00     0.050 C 
ATOM     20  C   UNL d   1      -1.299  -5.354   0.505  0.00  0.00     0.001 A 
ATOM     21  C   UNL d   1      -2.127  -4.435  -0.117  0.00  0.00     0.009 A 
ATOM     22  C   UNL d   1      -1.712  -3.104  -0.337  0.00  0.00    -0.033 A 
ATOM     23  C   UNL d   1      -2.720  -2.267  -1.091  0.00  0.00     0.050 C 
ENDBRANCH   1  16
TORSDOF 4
