REMARK  4 active torsions:
REMARK  status: ('A' for Active; 'I' for Inactive)
REMARK    1  A    between atoms: S_13  and  C_4 
REMARK    2  A    between atoms: C_10  and  C_5 
REMARK    3  A    between atoms: N_14  and  C_6 
REMARK    4  A    between atoms: O_17  and  C_15 
ROOT
ATOM      1  N   UNL d   1      -0.804   1.157   0.056  0.00  0.00    -0.326 N 
ATOM      2  HN  UNL d   1      -1.302   2.047   0.032  1.00  0.00     0.169 HD
ATOM      3  C   UNL d   1      -0.812  -1.251   0.063  0.00  0.00     0.105 A 
ATOM      4  C   UNL d   1      -1.461  -0.022   0.047  0.00  0.00     0.095 A 
ATOM      5  C   UNL d   1       0.574  -1.209   0.025  0.00  0.00     0.068 A 
ATOM      6  C   UNL d   1       0.526   1.102   0.098  0.00  0.00     0.156 A 
ATOM      7  N   UNL d   1       1.237  -0.024   0.053  0.00  0.00    -0.331 N 
ATOM      8  HN  UNL d   1       2.256   0.003   0.039  1.00  0.00     0.168 HD
ATOM      9  C   UNL d   1      -1.548  -2.472   0.156  0.00  0.00     0.104 C 
ATOM     10  N   UNL d   1      -2.134  -3.468   0.218  0.00  0.00    -0.191 NA
ENDROOT
BRANCH   4  11
ATOM     11  S   UNL d   1      -3.263   0.034   0.003  0.00  0.00    -0.115 SA
ATOM     12  C   UNL d   1      -3.598   1.808  -0.010  0.00  0.00     0.097 C 
ENDBRANCH   4  11
BRANCH   5  13
ATOM     13  C   UNL d   1       1.473  -2.396  -0.049  0.00  0.00    -0.005 A 
ATOM     14  C   UNL d   1       2.742  -2.372   0.574  0.00  0.00     0.050 A 
ATOM     15  C   UNL d   1       3.622  -3.459   0.496  0.00  0.00     0.069 A 
ATOM     16  C   UNL d   1       3.233  -4.607  -0.191  0.00  0.00     0.037 A 
ATOM     17  C   UNL d   1       1.993  -4.664  -0.814  0.00  0.00     0.004 A 
ATOM     18  C   UNL d   1       1.137  -3.563  -0.763  0.00  0.00     0.014 A 
BRANCH  15  19
ATOM     19  O   UNL d   1       4.876  -3.525   1.038  0.00  0.00    -0.356 OA
ATOM     20  C   UNL d   1       5.342  -2.374   1.729  0.00  0.00     0.210 C 
ENDBRANCH  15  19
ENDBRANCH   5  13
BRANCH   6  21
ATOM     21  N   UNL d   1       1.227   2.281   0.198  0.00  0.00    -0.274 NA
ATOM     22  H   UNL d   1       0.701   3.074  -0.139  0.00  0.00     0.127 HD
ATOM     23  H   UNL d   1       2.181   2.176  -0.120  0.00  0.00     0.127 HD
ENDBRANCH   6  21
TORSDOF 4
