REMARK  4 active torsions:
REMARK  status: ('A' for Active; 'I' for Inactive)
REMARK    1  A    between atoms: C_5  and  C_1 
REMARK    2  A    between atoms: O_11  and  C_2 
REMARK    3  A    between atoms: O_12  and  C_5 
REMARK    4  A    between atoms: C_14  and  O_12 
ROOT
ATOM      1  C   UNL d   1      -0.672   1.243   0.055  0.00  0.00     0.105 A 
ATOM      2  C   UNL d   1      -1.335   0.033   0.061  0.00  0.00     0.159 A 
ATOM      3  N   UNL d   1      -0.705  -1.156   0.075  0.00  0.00    -0.326 N 
ATOM      4  HN  UNL d   1      -1.222  -2.035   0.083  1.00  0.00     0.169 HD
ATOM      5  C   UNL d   1       0.703   1.160   0.079  0.00  0.00     0.111 A 
ATOM      6  N   UNL d   1       1.381  -0.006   0.090  0.00  0.00    -0.355 N 
ATOM      7  HN  UNL d   1       2.401  -0.035   0.108  1.00  0.00     0.166 HD
ATOM      8  C   UNL d   1       0.640  -1.130   0.078  0.00  0.00     0.078 A 
ATOM      9  C   UNL d   1       1.361  -2.439   0.032  0.00  0.00     0.089 C 
ENDROOT
BRANCH   1  10
ATOM     10  C   UNL d   1      -1.392   2.512  -0.066  0.00  0.00     0.299 C 
ATOM     11  O   UNL d   1      -2.611   2.563  -0.166  0.00  0.00    -0.259 OA
BRANCH  10  12
ATOM     12  O   UNL d   1      -0.523   3.543  -0.150  0.00  0.00    -0.318 OA
BRANCH  12  13
ATOM     13  C   UNL d   1      -1.048   4.769  -0.679  0.00  0.00     0.174 C 
ATOM     14  C   UNL d   1      -0.901   4.727  -2.190  0.00  0.00     0.034 C 
ENDBRANCH  12  13
ENDBRANCH  10  12
ENDBRANCH   1  10
BRANCH   2  15
ATOM     15  O   UNL d   1      -2.698  -0.073   0.029  0.00  0.00    -0.345 OA
ATOM     16  H   UNL d   1      -3.083   0.824  -0.032  0.00  0.00     0.219 HD
ENDBRANCH   2  15
TORSDOF 4
