REMARK  8 active torsions:
REMARK  status: ('A' for Active; 'I' for Inactive)
REMARK    1  A    between atoms: N_2  and  S_1 
REMARK    2  A    between atoms: C_6  and  S_1 
REMARK    3  A    between atoms: C_3  and  N_2 
REMARK       I    between atoms: C_10  and  N_12 
REMARK    4  A    between atoms: C_20  and  C_10 
REMARK    5  A    between atoms: C_11  and  C_21 
REMARK    6  A    between atoms: O_22  and  C_11 
REMARK    7  A    between atoms: N_12  and  C_19 
REMARK    8  A    between atoms: C_21  and  C_20 
ROOT
ATOM      1  C   UNL d   1       0.456  -1.223  -1.038  0.00  0.00     0.075 A 
ATOM      2  C   UNL d   1       0.940  -2.519  -0.843  0.00  0.00     0.027 A 
ATOM      3  C   UNL d   1      -0.432  -0.952  -2.077  0.00  0.00     0.027 A 
ATOM      4  C   UNL d   1      -0.335  -3.280  -2.765  0.00  0.00     0.034 A 
ATOM      5  C   UNL d   1      -0.821  -1.982  -2.942  0.00  0.00     0.031 A 
ATOM      6  C   UNL d   1       0.544  -3.542  -1.706  0.00  0.00     0.031 A 
ENDROOT
BRANCH   1   7
ATOM      7  S   UNL d   1       0.879   0.043   0.133  0.00  0.00     0.247 S 
ATOM      8  O   UNL d   1      -0.135   1.076   0.036  0.00  0.00    -0.205 OA
ATOM      9  O   UNL d   1       1.161  -0.605   1.393  0.00  0.00    -0.205 OA
BRANCH   7  10
ATOM     10  N   UNL d   1       2.274   0.705  -0.556  0.00  0.00    -0.160 NA
ATOM     11  H   UNL d   1       2.102   1.705  -0.665  0.00  0.00     0.148 HD
BRANCH  10  12
ATOM     12  C   UNL d   1       3.414   0.521   0.257  0.00  0.00     0.136 A 
ATOM     13  N   UNL d   1       3.911   1.556   0.885  0.00  0.00    -0.350 N 
ATOM     14  C   UNL d   1       5.004   1.143   1.624  0.00  0.00     0.097 A 
ATOM     15  HN  UNL d   1       3.552   2.510   0.837  1.00  0.00     0.166 HD
ATOM     16  C   UNL d   1       5.378  -0.174   1.452  0.00  0.00     0.069 A 
ATOM     17  S   UNL d   1       4.297  -0.938   0.362  0.00  0.00    -0.070 SA
ENDBRANCH  10  12
ENDBRANCH   7  10
ENDBRANCH   1   7
BRANCH   4  18
ATOM     18  N   UNL d   1      -0.683  -4.369  -3.589  0.00  0.00    -0.327 N 
ATOM     19  C   UNL d   1      -1.323  -4.308  -4.807  0.00  0.00     0.222 C 
ATOM     20  O   UNL d   1      -1.693  -3.293  -5.395  0.00  0.00    -0.273 OA
ATOM     21  H   UNL d   1      -0.303  -5.268  -3.312  0.00  0.00     0.169 HD
BRANCH  19  22
ATOM     22  C   UNL d   1      -1.457  -5.659  -5.485  0.00  0.00     0.113 C 
BRANCH  22  23
ATOM     23  C   UNL d   1      -1.120  -5.511  -6.963  0.00  0.00     0.119 C 
BRANCH  23  24
ATOM     24  C   UNL d   1       0.305  -5.044  -7.122  0.00  0.00     0.139 C 
ATOM     25  O   UNL d   1       1.256  -5.807  -7.208  0.00  0.00    -0.650 OA
BRANCH  24  26
ATOM     26  O   UNL d   1       0.449  -3.702  -7.084  0.00  0.00    -0.776 OA
ATOM     27  H   UNL d   1      -0.379  -3.213  -6.862  0.00  0.00     0.167 HD
ENDBRANCH  24  26
ENDBRANCH  23  24
ENDBRANCH  22  23
ENDBRANCH  19  22
ENDBRANCH   4  18
TORSDOF 8
