REMARK  5 active torsions:
REMARK  status: ('A' for Active; 'I' for Inactive)
REMARK    1  A    between atoms: N_8  and  S_1 
REMARK    2  A    between atoms: C_10  and  S_1 
REMARK    3  A    between atoms: C_2  and  C_9 
REMARK    4  A    between atoms: C_14  and  C_5 
REMARK    5  A    between atoms: C_9  and  N_8 
ROOT
ATOM      1  C   UNL d   1       0.522   2.175  -3.248  0.00  0.00     0.017 A 
ATOM      2  N   UNL d   1      -0.334   1.978  -5.357  0.00  0.00    -0.260 N 
ATOM      3  HN  UNL d   1      -0.731   1.599  -6.217  1.00  0.00     0.195 HD
ATOM      4  C   UNL d   1      -0.006   1.284  -4.255  0.00  0.00     0.075 A 
ATOM      5  O   UNL d   1      -0.034   3.288  -5.109  0.00  0.00    -0.242 OA
ATOM      6  C   UNL d   1       0.478   3.416  -3.863  0.00  0.00     0.082 A 
ATOM      7  C   UNL d   1       0.842   4.796  -3.484  0.00  0.00     0.079 C 
ENDROOT
BRANCH   1   8
ATOM      8  C   UNL d   1       1.032   1.806  -1.894  0.00  0.00     0.148 C 
BRANCH   8   9
ATOM      9  N   UNL d   1       0.831   2.881  -0.922  0.00  0.00    -0.211 NA
ATOM     10  H   UNL d   1       1.042   3.825  -1.223  0.00  0.00     0.140 HD
BRANCH   9  11
ATOM     11  S   UNL d   1       1.425   2.622   0.635  0.00  0.00     0.241 S 
ATOM     12  O   UNL d   1       1.053   1.287   1.041  0.00  0.00    -0.206 OA
ATOM     13  O   UNL d   1       1.104   3.796   1.409  0.00  0.00    -0.206 OA
BRANCH  11  14
ATOM     14  C   UNL d   1       3.180   2.654   0.355  0.00  0.00     0.076 A 
ATOM     15  C   UNL d   1       3.768   3.842  -0.088  0.00  0.00     0.048 A 
ATOM     16  C   UNL d   1       5.130   3.856  -0.373  0.00  0.00     0.035 A 
ATOM     17 CL   UNL d   1       5.861   5.295  -0.965  0.00  0.00    -0.084 Cl
ATOM     18  C   UNL d   1       5.901   2.706  -0.198  0.00  0.00     0.024 A 
ATOM     19  C   UNL d   1       5.310   1.531   0.272  0.00  0.00     0.003 A 
ATOM     20  C   UNL d   1       3.943   1.500   0.551  0.00  0.00     0.025 A 
ENDBRANCH  11  14
ENDBRANCH   9  11
ENDBRANCH   8   9
ENDBRANCH   1   8
BRANCH   4  21
ATOM     21  C   UNL d   1      -0.220  -0.171  -4.234  0.00  0.00    -0.007 A 
ATOM     22  C   UNL d   1       0.604  -1.040  -3.506  0.00  0.00     0.014 A 
ATOM     23  C   UNL d   1       0.371  -2.420  -3.512  0.00  0.00     0.001 A 
ATOM     24  C   UNL d   1      -0.671  -2.954  -4.266  0.00  0.00     0.000 A 
ATOM     25  C   UNL d   1      -1.486  -2.109  -5.013  0.00  0.00     0.001 A 
ATOM     26  C   UNL d   1      -1.263  -0.729  -4.994  0.00  0.00     0.014 A 
ENDBRANCH   4  21
TORSDOF 5
