REMARK  2 active torsions:
REMARK  status: ('A' for Active; 'I' for Inactive)
REMARK    1  A    between atoms: C_3  and  C_1 
REMARK    2  A    between atoms: C_9  and  C_3 
ROOT
ATOM      1  C   UNL d   1       1.040  -0.057  -0.062  0.00  0.00     0.118 C 
ATOM      2  C   UNL d   1       2.179   0.352   0.546  0.00  0.00     0.061 C 
ATOM      3  C   UNL d   1       0.462   0.739  -1.103  0.00  0.00     0.105 C 
ATOM      4  N   UNL d   1      -0.013   1.368  -1.951  0.00  0.00    -0.191 NA
ATOM      5  S   UNL d   1       3.131  -0.600   1.664  0.00  0.00    -0.120 SA
ATOM      6  S   UNL d   1       2.843   1.963   0.269  0.00  0.00    -0.120 SA
ATOM      7  C   UNL d   1       4.525   1.580   0.810  0.00  0.00     0.090 C 
ATOM      8  C   UNL d   1       4.435   0.624   1.983  0.00  0.00     0.090 C 
ENDROOT
BRANCH   1   9
ATOM      9  C   UNL d   1       0.355  -1.368   0.234  0.00  0.00     0.204 C 
ATOM     10  O   UNL d   1       0.962  -2.374   0.587  0.00  0.00    -0.286 OA
BRANCH   9  11
ATOM     11  C   UNL d   1      -1.123  -1.484   0.021  0.00  0.00     0.016 A 
ATOM     12  C   UNL d   1      -1.638  -2.722  -0.390  0.00  0.00     0.015 A 
ATOM     13  C   UNL d   1      -2.994  -2.857  -0.697  0.00  0.00     0.001 A 
ATOM     14  C   UNL d   1      -3.845  -1.760  -0.587  0.00  0.00     0.000 A 
ATOM     15  C   UNL d   1      -3.354  -0.541  -0.123  0.00  0.00     0.001 A 
ATOM     16  C   UNL d   1      -2.002  -0.408   0.205  0.00  0.00     0.015 A 
ENDBRANCH   9  11
ENDBRANCH   1   9
TORSDOF 2
