REMARK  4 active torsions:
REMARK  status: ('A' for Active; 'I' for Inactive)
REMARK    1  A    between atoms: C_6  and  C_1 
REMARK    2  A    between atoms: C_3  and  C_2 
REMARK       I    between atoms: N_8  and  C_3 
REMARK       I    between atoms: C_10  and  N_8 
REMARK    3  A    between atoms: C_9  and  C_10 
REMARK    4  A    between atoms: C_16  and  C_11 
ROOT
ATOM      1  C   UNL d   1       0.567  -2.850  -0.161  0.00  0.00     0.263 C 
ATOM      2  N   UNL d   1      -0.500  -3.738  -0.263  0.00  0.00    -0.289 N 
ATOM      3  C   UNL d   1      -0.569  -5.134  -0.326  0.00  0.00     0.265 C 
ATOM      4  O   UNL d   1       1.715  -3.092  -0.517  0.00  0.00    -0.267 OA
ATOM      5  O   UNL d   1      -1.600  -5.613   0.163  0.00  0.00    -0.267 OA
ATOM      6  H   UNL d   1      -1.346  -3.428   0.201  0.00  0.00     0.172 HD
ENDROOT
BRANCH   1   7
ATOM      7  C   UNL d   1       0.221  -1.540   0.399  0.00  0.00     0.093 C 
ATOM      8  C   UNL d   1       1.004  -0.661   1.242  0.00  0.00     0.086 C 
ATOM      9  N   UNL d   1       0.259   0.399   1.597  0.00  0.00    -0.259 N 
ATOM     10  O   UNL d   1      -0.912   0.324   0.903  0.00  0.00    -0.241 OA
ATOM     11  HN  UNL d   1       0.521   1.126   2.262  1.00  0.00     0.195 HD
ATOM     12  C   UNL d   1      -0.945  -0.817   0.175  0.00  0.00     0.090 C 
ATOM     13  C   UNL d   1      -2.156  -0.939  -0.664  0.00  0.00     0.080 C 
BRANCH   8  14
ATOM     14  C   UNL d   1       2.378  -0.751   1.767  0.00  0.00     0.037 A 
ATOM     15  C   UNL d   1       3.249   0.370   1.725  0.00  0.00     0.048 A 
ATOM     16 CL   UNL d   1       2.831   1.889   0.987  0.00  0.00    -0.083 Cl
ATOM     17  C   UNL d   1       4.538   0.325   2.281  0.00  0.00     0.025 A 
ATOM     18  C   UNL d   1       5.012  -0.847   2.856  0.00  0.00     0.003 A 
ATOM     19  C   UNL d   1       4.178  -1.960   2.913  0.00  0.00     0.025 A 
ATOM     20  C   UNL d   1       2.868  -1.907   2.406  0.00  0.00     0.048 A 
ATOM     21 CL   UNL d   1       1.887  -3.300   2.727  0.00  0.00    -0.083 Cl
ENDBRANCH   8  14
ENDBRANCH   1   7
BRANCH   3  22
ATOM     22  C   UNL d   1       0.482  -5.954  -0.923  0.00  0.00     0.073 A 
ATOM     23  S   UNL d   1       0.583  -7.623  -0.473  0.00  0.00    -0.084 SA
ATOM     24  C   UNL d   1       1.863  -7.968  -1.569  0.00  0.00     0.016 A 
ATOM     25  C   UNL d   1       2.203  -6.813  -2.254  0.00  0.00     0.021 A 
ATOM     26  C   UNL d   1       1.417  -5.674  -1.893  0.00  0.00     0.026 A 
BRANCH  24  27
ATOM     27  C   UNL d   1       2.459  -9.321  -1.701  0.00  0.00    -0.019 A 
ATOM     28  C   UNL d   1       1.762 -10.505  -1.394  0.00  0.00     0.014 A 
ATOM     29  C   UNL d   1       2.348 -11.770  -1.588  0.00  0.00     0.024 A 
ATOM     30  C   UNL d   1       3.640 -11.870  -2.094  0.00  0.00     0.034 A 
ATOM     31  C   UNL d   1       4.356 -10.719  -2.396  0.00  0.00     0.024 A 
ATOM     32 CL   UNL d   1       4.349 -13.416  -2.351  0.00  0.00    -0.084 Cl
ATOM     33  C   UNL d   1       3.772  -9.461  -2.198  0.00  0.00     0.014 A 
ENDBRANCH  24  27
ENDBRANCH   3  22
TORSDOF 4
