REMARK  4 active torsions:
REMARK  status: ('A' for Active; 'I' for Inactive)
REMARK    1  A    between atoms: C_2  and  C_1 
REMARK    2  A    between atoms: C_14  and  N_5 
REMARK    3  A    between atoms: S_15  and  C_6 
REMARK    4  A    between atoms: C_13  and  C_10 
ROOT
ATOM      1  C   UNL d   1      -0.353   1.139  -0.006  0.00  0.00     0.050 A 
ATOM      2  N   UNL d   1       1.026  -0.677   0.049  0.00  0.00    -0.287 N 
ATOM      3  HN  UNL d   1       1.858  -1.266   0.096  1.00  0.00     0.188 HD
ATOM      4  N   UNL d   1      -0.270  -1.077  -0.011  0.00  0.00    -0.266 N 
ATOM      5  C   UNL d   1       0.973   0.659   0.034  0.00  0.00     0.099 A 
ATOM      6  C   UNL d   1      -1.125  -0.001  -0.044  0.00  0.00     0.134 A 
ENDROOT
BRANCH   1   7
ATOM      7  C   UNL d   1      -0.891   2.535   0.001  0.00  0.00     0.089 A 
ATOM      8  N   UNL d   1      -0.118   3.599   0.014  0.00  0.00    -0.349 N 
ATOM      9  C   UNL d   1      -0.877   4.756   0.061  0.00  0.00     0.050 A 
ATOM     10  HN  UNL d   1       0.901   3.574  -0.008  1.00  0.00     0.166 HD
ATOM     11  C   UNL d   1      -2.242   4.553   0.058  0.00  0.00     0.082 A 
ATOM     12  S   UNL d   1      -2.583   2.878   0.007  0.00  0.00    -0.081 SA
BRANCH   9  13
ATOM     13  C   UNL d   1      -0.251   6.072   0.069  0.00  0.00    -0.009 A 
ATOM     14  C   UNL d   1       0.985   6.252  -0.569  0.00  0.00     0.015 A 
ATOM     15  C   UNL d   1       1.589   7.512  -0.609  0.00  0.00     0.024 A 
ATOM     16  C   UNL d   1       0.964   8.597   0.000  0.00  0.00     0.034 A 
ATOM     17  C   UNL d   1      -0.252   8.431   0.660  0.00  0.00     0.024 A 
ATOM     18 CL   UNL d   1       1.696  10.153  -0.060  0.00  0.00    -0.084 Cl
ATOM     19  C   UNL d   1      -0.857   7.171   0.696  0.00  0.00     0.015 A 
ENDBRANCH   9  13
ENDBRANCH   1   7
BRANCH   5  20
ATOM     20  S   UNL d   1       2.429   1.631   0.053  0.00  0.00    -0.115 SA
ATOM     21  C   UNL d   1       3.708   0.416   0.418  0.00  0.00     0.097 C 
ENDBRANCH   5  20
BRANCH   4  22
ATOM     22  C   UNL d   1      -0.626  -2.458  -0.030  0.00  0.00     0.056 A 
ATOM     23  C   UNL d   1      -1.963  -2.857  -0.181  0.00  0.00     0.031 A 
ATOM     24  C   UNL d   1      -2.295  -4.215  -0.196  0.00  0.00     0.002 A 
ATOM     25  C   UNL d   1      -1.301  -5.181  -0.056  0.00  0.00     0.000 A 
ATOM     26  C   UNL d   1       0.029  -4.792   0.095  0.00  0.00     0.002 A 
ATOM     27  C   UNL d   1       0.370  -3.436   0.105  0.00  0.00     0.031 A 
ENDBRANCH   4  22
TORSDOF 4
