REMARK  5 active torsions:
REMARK  status: ('A' for Active; 'I' for Inactive)
REMARK    1  A    between atoms: C_2  and  C_1 
REMARK       I    between atoms: N_6  and  C_2 
REMARK    2  A    between atoms: C_16  and  C_5 
REMARK    3  A    between atoms: C_7  and  N_6 
REMARK    4  A    between atoms: C_12  and  C_7 
REMARK    5  A    between atoms: C_9  and  C_11 
ROOT
ATOM      1  C   UNL d   1       0.279  -2.699   0.545  0.00  0.00     0.262 C 
ATOM      2  N   UNL d   1      -0.664  -3.579   0.011  0.00  0.00    -0.308 N 
ATOM      3  O   UNL d   1       1.433  -2.990   0.821  0.00  0.00    -0.267 OA
ATOM      4  H   UNL d   1      -1.426  -3.089  -0.439  0.00  0.00     0.170 HD
ENDROOT
BRANCH   2   5
ATOM      5  C   UNL d   1      -0.852  -4.962  -0.011  0.00  0.00     0.112 C 
ATOM      6  N   UNL d   1      -1.833  -5.366  -0.749  0.00  0.00    -0.385 N 
ATOM      7  H   UNL d   1      -2.297  -4.615  -1.260  0.00  0.00     0.157 HD
ATOM      8  HN  UNL d   1      -2.117  -6.344  -0.815  1.00  0.00     0.157 HD
BRANCH   5   9
ATOM      9  C   UNL d   1      -0.092  -5.990   0.788  0.00  0.00     0.007 A 
ATOM     10  C   UNL d   1       1.149  -5.831   1.402  0.00  0.00     0.016 A 
ATOM     11  C   UNL d   1       1.727  -6.856   2.173  0.00  0.00     0.017 A 
ATOM     12  C   UNL d   1       1.087  -8.089   2.333  0.00  0.00     0.048 A 
ATOM     13  C   UNL d   1      -0.133  -8.284   1.681  0.00  0.00     0.017 A 
ATOM     14  C   UNL d   1      -0.707  -7.252   0.925  0.00  0.00     0.016 A 
BRANCH  12  15
ATOM     15  C   UNL d   1       1.679  -9.179   3.192  0.00  0.00     0.417 C 
ATOM     16  F   UNL d   1       2.910  -8.874   3.690  0.00  0.00    -0.166 F 
ATOM     17  F   UNL d   1       0.901  -9.462   4.274  0.00  0.00    -0.166 F 
ATOM     18  F   UNL d   1       1.829 -10.354   2.521  0.00  0.00    -0.166 F 
ENDBRANCH  12  15
ENDBRANCH   5   9
ENDBRANCH   2   5
BRANCH   1  19
ATOM     19  C   UNL d   1      -0.113  -1.303   0.521  0.00  0.00     0.093 A 
ATOM     20  C   UNL d   1      -1.244  -0.561   1.014  0.00  0.00     0.083 A 
ATOM     21  N   UNL d   1      -1.086   0.738   0.700  0.00  0.00    -0.259 N 
ATOM     22  O   UNL d   1       0.119   0.874   0.073  0.00  0.00    -0.241 OA
ATOM     23  HN  UNL d   1      -1.749   1.488   0.895  1.00  0.00     0.195 HD
ATOM     24  C   UNL d   1       0.711  -0.333  -0.026  0.00  0.00     0.090 A 
ATOM     25  C   UNL d   1       2.036  -0.352  -0.683  0.00  0.00     0.080 C 
BRANCH  20  26
ATOM     26  C   UNL d   1      -2.452  -0.946   1.775  0.00  0.00    -0.006 A 
ATOM     27  C   UNL d   1      -3.400   0.051   2.097  0.00  0.00     0.014 A 
ATOM     28  C   UNL d   1      -4.563  -0.238   2.815  0.00  0.00     0.001 A 
ATOM     29  C   UNL d   1      -4.814  -1.540   3.221  0.00  0.00     0.000 A 
ATOM     30  C   UNL d   1      -3.891  -2.542   2.926  0.00  0.00     0.001 A 
ATOM     31  C   UNL d   1      -2.713  -2.246   2.223  0.00  0.00     0.014 A 
ENDBRANCH  20  26
ENDBRANCH   1  19
TORSDOF 5
