REMARK  3 active torsions:
REMARK  status: ('A' for Active; 'I' for Inactive)
REMARK    1  A    between atoms: C_4  and  C_1 
REMARK       I    between atoms: N_5  and  C_1 
REMARK    2  A    between atoms: O_3  and  C_4 
REMARK    3  A    between atoms: C_6  and  O_3 
ROOT
ATOM      1  C   UNL d   1      -2.176   1.027   1.877  0.00  0.00     0.069 A 
ATOM      2  C   UNL d   1      -3.789   2.177   3.844  0.00  0.00     0.034 A 
ATOM      3 CL   UNL d   1      -4.812   2.898   5.023  0.00  0.00    -0.084 Cl
ATOM      4  C   UNL d   1      -3.226   0.295   2.437  0.00  0.00     0.038 A 
ATOM      5  C   UNL d   1      -1.906   2.316   2.343  0.00  0.00     0.038 A 
ATOM      6  C   UNL d   1      -2.717   2.896   3.321  0.00  0.00     0.026 A 
ATOM      7  C   UNL d   1      -4.040   0.875   3.414  0.00  0.00     0.026 A 
ENDROOT
BRANCH   1   8
ATOM      8  O   UNL d   1      -1.353   0.579   0.879  0.00  0.00    -0.342 OA
BRANCH   8   9
ATOM      9  C   UNL d   1      -1.929  -0.407   0.020  0.00  0.00     0.278 C 
BRANCH   9  10
ATOM     10  C   UNL d   1      -1.215  -0.466  -1.327  0.00  0.00     0.239 C 
ATOM     11  O   UNL d   1      -1.580  -1.200  -2.243  0.00  0.00    -0.271 OA
ATOM     12  N   UNL d   1      -0.132   0.348  -1.472  0.00  0.00    -0.368 N 
ATOM     13  H   UNL d   1       0.356   0.362  -2.356  0.00  0.00     0.159 HD
ATOM     14  H   UNL d   1       0.150   0.971  -0.725  0.00  0.00     0.159 HD
ENDBRANCH   9  10
ENDBRANCH   8   9
ENDBRANCH   1   8
TORSDOF 3
