REMARK  5 active torsions:
REMARK  status: ('A' for Active; 'I' for Inactive)
REMARK    1  A    between atoms: S_11  and  C_2 
REMARK    2  A    between atoms: C_8  and  C_3 
REMARK    3  A    between atoms: C_16  and  S_11 
REMARK    4  A    between atoms: C_13  and  C_16 
REMARK    5  A    between atoms: C_14  and  C_13 
ROOT
ATOM      1  C   UNL d   1       2.503   0.729   0.067  0.00  0.00     0.090 A 
ATOM      2  C   UNL d   1       2.464  -0.659  -0.105  0.00  0.00     0.092 A 
ATOM      3  C   UNL d   1       1.296   1.470   0.097  0.00  0.00     0.013 A 
ATOM      4  N   UNL d   1       1.306  -1.351  -0.139  0.00  0.00    -0.352 N 
ATOM      5  HN  UNL d   1       1.306  -2.368  -0.228  1.00  0.00     0.166 HD
ATOM      6  C   UNL d   1       0.079   0.746   0.007  0.00  0.00    -0.022 A 
ATOM      7  C   UNL d   1       0.140  -0.662  -0.050  0.00  0.00     0.017 A 
ATOM      8  C   UNL d   1       3.779   1.377   0.239  0.00  0.00     0.103 C 
ATOM      9  N   UNL d   1       4.803   1.902   0.382  0.00  0.00    -0.191 NA
ATOM     10  C   UNL d   1      -1.285   1.421   0.014  0.00  0.00     0.041 C 
ATOM     11  C   UNL d   1      -1.105  -1.520  -0.088  0.00  0.00     0.057 C 
ATOM     12  C   UNL d   1      -2.455   0.536  -0.405  0.00  0.00     0.005 C 
ATOM     13  C   UNL d   1      -2.376  -0.792   0.328  0.00  0.00     0.006 C 
ENDROOT
BRANCH   2  14
ATOM     14  S   UNL d   1       3.984  -1.603  -0.332  0.00  0.00    -0.103 SA
BRANCH  14  15
ATOM     15  C   UNL d   1       3.373  -3.286  -0.653  0.00  0.00     0.164 C 
BRANCH  15  16
ATOM     16  C   UNL d   1       4.538  -4.157  -1.106  0.00  0.00     0.169 C 
ATOM     17  O   UNL d   1       4.700  -4.424  -2.297  0.00  0.00    -0.291 OA
BRANCH  16  18
ATOM     18  C   UNL d   1       5.517  -4.703  -0.107  0.00  0.00     0.011 A 
ATOM     19  C   UNL d   1       5.401  -4.484   1.271  0.00  0.00     0.017 A 
ATOM     20  C   UNL d   1       6.359  -4.998   2.155  0.00  0.00     0.025 A 
ATOM     21  C   UNL d   1       7.438  -5.734   1.666  0.00  0.00     0.034 A 
ATOM     22  C   UNL d   1       7.561  -5.971   0.300  0.00  0.00     0.025 A 
ATOM     23 CL   UNL d   1       8.618  -6.347   2.756  0.00  0.00    -0.084 Cl
ATOM     24  C   UNL d   1       6.604  -5.458  -0.582  0.00  0.00     0.017 A 
ENDBRANCH  16  18
ENDBRANCH  15  16
ENDBRANCH  14  15
ENDBRANCH   2  14
BRANCH   3  25
ATOM     25  C   UNL d   1       1.339   2.966   0.153  0.00  0.00     0.017 C 
ATOM     26  S   UNL d   1       0.358   3.866   1.248  0.00  0.00    -0.101 SA
ATOM     27  C   UNL d   1       0.874   5.366   0.621  0.00  0.00     0.050 C 
ATOM     28  C   UNL d   1       1.905   5.212  -0.272  0.00  0.00     0.008 C 
ATOM     29  C   UNL d   1       2.158   3.838  -0.553  0.00  0.00     0.020 C 
ENDBRANCH   3  25
TORSDOF 5
