REMARK  3 active torsions:
REMARK  status: ('A' for Active; 'I' for Inactive)
REMARK    1  A    between atoms: C_2  and  S_1 
REMARK    2  A    between atoms: C_8  and  S_1 
REMARK    3  A    between atoms: N_12  and  C_9 
ROOT
ATOM      1  C   UNL d   1       0.303  -0.716  -1.396  0.00  0.00     0.086 A 
ATOM      2  C   UNL d   1      -0.097   0.063  -2.482  0.00  0.00     0.057 A 
ATOM      3  C   UNL d   1       0.061  -2.100  -1.419  0.00  0.00     0.027 A 
ATOM      4  C   UNL d   1      -0.761  -0.546  -3.562  0.00  0.00     0.048 A 
ATOM      5  C   UNL d   1      -0.980  -1.926  -3.603  0.00  0.00     0.007 A 
ATOM      6 CL   UNL d   1       0.189   1.757  -2.634  0.00  0.00    -0.083 Cl
ATOM      7  C   UNL d   1      -0.586  -2.692  -2.507  0.00  0.00     0.025 A 
ENDROOT
BRANCH   1   8
ATOM      8  S   UNL d   1       0.925  -0.029   0.123  0.00  0.00     0.208 S 
ATOM      9  O   UNL d   1       0.584  -0.984   1.171  0.00  0.00    -0.217 OA
ATOM     10  O   UNL d   1       0.458   1.337   0.263  0.00  0.00    -0.217 OA
BRANCH   8  11
ATOM     11  C   UNL d   1       2.702   0.016   0.050  0.00  0.00     0.064 A 
ATOM     12  C   UNL d   1       3.350   1.147  -0.454  0.00  0.00     0.024 A 
ATOM     13  C   UNL d   1       4.743   1.231  -0.382  0.00  0.00     0.002 A 
ATOM     14  C   UNL d   1       5.479   0.199   0.202  0.00  0.00     0.000 A 
ATOM     15  C   UNL d   1       4.829  -0.925   0.711  0.00  0.00     0.002 A 
ATOM     16  C   UNL d   1       3.439  -1.019   0.639  0.00  0.00     0.024 A 
ENDBRANCH   8  11
ENDBRANCH   1   8
BRANCH   5  17
ATOM     17  N   UNL d   1      -1.790  -2.485  -4.595  0.00  0.00    -0.303 NA
ATOM     18  H   UNL d   1      -1.673  -3.485  -4.729  0.00  0.00     0.124 HD
ATOM     19  H   UNL d   1      -1.812  -1.975  -5.472  0.00  0.00     0.124 HD
ENDBRANCH   5  17
TORSDOF 3
