REMARK  7 active torsions:
REMARK  status: ('A' for Active; 'I' for Inactive)
REMARK    1  A    between atoms: C_2  and  C_1 
REMARK       I    between atoms: C_3  and  N_4 
REMARK    2  A    between atoms: C_13  and  C_3 
REMARK    3  A    between atoms: N_4  and  C_10 
REMARK    4  A    between atoms: C_17  and  C_7 
REMARK    5  A    between atoms: S_12  and  C_17 
REMARK    6  A    between atoms: C_16  and  S_12 
REMARK    7  A    between atoms: C_14  and  C_15 
ROOT
ATOM      1  C   UNL d   1       1.120   8.826   2.426  0.00  0.00     0.051 C 
ATOM      2  C   UNL d   1       0.431   7.707   2.916  0.00  0.00     0.027 C 
ATOM      3  C   UNL d   1       0.919  10.072   3.058  0.00  0.00     0.031 C 
ATOM      4  C   UNL d   1      -0.608   7.927   3.853  0.00  0.00     0.021 C 
ATOM      5  C   UNL d   1      -0.057  10.249   4.040  0.00  0.00     0.002 C 
ATOM      6  C   UNL d   1      -0.861   9.184   4.400  0.00  0.00     0.002 C 
ENDROOT
BRANCH   1   7
ATOM      7  N   UNL d   1       1.976   8.878   1.292  0.00  0.00    -0.322 N 
ATOM      8  C   UNL d   1       1.625   8.348   0.054  0.00  0.00     0.256 C 
ATOM      9  O   UNL d   1       0.750   7.518  -0.161  0.00  0.00    -0.267 OA
ATOM     10  H   UNL d   1       2.508   9.735   1.218  0.00  0.00     0.169 HD
BRANCH   8  11
ATOM     11  C   UNL d   1       2.289   9.015  -1.115  0.00  0.00     0.032 A 
ATOM     12  C   UNL d   1       3.608   9.483  -1.079  0.00  0.00     0.017 A 
ATOM     13  C   UNL d   1       4.124  10.235  -2.157  0.00  0.00     0.009 A 
ATOM     14  C   UNL d   1       3.337  10.535  -3.285  0.00  0.00    -0.051 A 
ATOM     15  C   UNL d   1       2.043   9.992  -3.322  0.00  0.00     0.009 A 
ATOM     16  C   UNL d   1       1.521   9.246  -2.254  0.00  0.00     0.017 A 
BRANCH  14  17
ATOM     17  C   UNL d   1       3.858  11.392  -4.465  0.00  0.00    -0.024 C 
ATOM     18  C   UNL d   1       2.756  12.344  -4.996  0.00  0.00     0.019 C 
ATOM     19  C   UNL d   1       5.069  12.287  -4.112  0.00  0.00     0.019 C 
ATOM     20  C   UNL d   1       4.286  10.449  -5.607  0.00  0.00     0.019 C 
ENDBRANCH  14  17
ENDBRANCH   8  11
ENDBRANCH   1   7
BRANCH   2  21
ATOM     21  S   UNL d   1       0.740   5.962   2.680  0.00  0.00    -0.122 SA
BRANCH  21  22
ATOM     22  C   UNL d   1       2.434   5.751   2.102  0.00  0.00     0.138 C 
BRANCH  22  23
ATOM     23  C   UNL d   1       3.665   6.420   2.666  0.00  0.00     0.040 A 
ATOM     24  N   UNL d   1       4.643   6.572   1.712  0.00  0.00    -0.366 N 
ATOM     25  C   UNL d   1       5.864   7.024   2.067  0.00  0.00     0.104 A 
ATOM     26  HN  UNL d   1       4.446   6.342   0.738  1.00  0.00     0.165 HD
ATOM     27  C   UNL d   1       6.199   7.377   3.357  0.00  0.00     0.064 A 
ATOM     28  C   UNL d   1       5.216   7.202   4.337  0.00  0.00     0.043 A 
ATOM     29  C   UNL d   1       3.942   6.712   4.003  0.00  0.00     0.058 A 
ATOM     30 CL   UNL d   1       2.838   6.490   5.303  0.00  0.00    -0.082 Cl
BRANCH  27  31
ATOM     31  C   UNL d   1       7.549   7.957   3.630  0.00  0.00     0.418 C 
ATOM     32  F   UNL d   1       7.773   8.219   4.948  0.00  0.00    -0.166 F 
ATOM     33  F   UNL d   1       7.733   9.140   2.980  0.00  0.00    -0.166 F 
ATOM     34  F   UNL d   1       8.569   7.152   3.227  0.00  0.00    -0.166 F 
ENDBRANCH  27  31
ENDBRANCH  22  23
ENDBRANCH  21  22
ENDBRANCH   2  21
TORSDOF 7
