REMARK  3 active torsions:
REMARK  status: ('A' for Active; 'I' for Inactive)
REMARK    1  A    between atoms: C_2  and  N_1 
REMARK       I    between atoms: C_3  and  N_1 
REMARK    2  A    between atoms: C_4  and  C_2 
REMARK    3  A    between atoms: C_8  and  C_3 
ROOT
ATOM      1  N   UNL d   1       1.178  -0.426   0.059  0.00  0.00    -0.308 N 
ATOM      2  C   UNL d   1       2.528  -0.120  -0.009  0.00  0.00     0.257 C 
ATOM      3  O   UNL d   1       2.992   1.000   0.147  0.00  0.00    -0.267 OA
ATOM      4  H   UNL d   1       0.895  -1.367  -0.166  0.00  0.00     0.170 HD
ENDROOT
BRANCH   1   5
ATOM      5  C   UNL d   1       0.133   0.415   0.369  0.00  0.00     0.119 C 
ATOM      6  N   UNL d   1       0.300   1.675   0.579  0.00  0.00    -0.384 N 
ATOM      7  H   UNL d   1       1.306   1.887   0.466  0.00  0.00     0.157 HD
ATOM      8  HN  UNL d   1      -0.432   2.345   0.816  1.00  0.00     0.157 HD
BRANCH   5   9
ATOM      9  C   UNL d   1      -1.186  -0.187   0.468  0.00  0.00     0.048 A 
ATOM     10  S   UNL d   1      -1.412  -1.881   0.271  0.00  0.00    -0.098 SA
ATOM     11  C   UNL d   1      -3.082  -1.772   0.609  0.00  0.00     0.050 A 
ATOM     12  C   UNL d   1      -3.478  -0.474   0.835  0.00  0.00     0.009 A 
ATOM     13  C   UNL d   1      -2.388   0.440   0.741  0.00  0.00     0.023 A 
ENDBRANCH   5   9
ENDBRANCH   1   5
BRANCH   2  14
ATOM     14  C   UNL d   1       3.402  -1.272  -0.376  0.00  0.00     0.032 A 
ATOM     15  C   UNL d   1       4.524  -1.030  -1.172  0.00  0.00     0.017 A 
ATOM     16  C   UNL d   1       5.257  -2.104  -1.684  0.00  0.00     0.007 A 
ATOM     17  C   UNL d   1       4.885  -3.422  -1.390  0.00  0.00    -0.062 A 
ATOM     18  C   UNL d   1       3.807  -3.654  -0.528  0.00  0.00     0.007 A 
ATOM     19  C   UNL d   1       5.564  -4.575  -2.069  0.00  0.00     0.048 C 
ATOM     20  C   UNL d   1       3.076  -2.585  -0.011  0.00  0.00     0.017 A 
ENDBRANCH   2  14
TORSDOF 3
