REMARK  8 active torsions:
REMARK  status: ('A' for Active; 'I' for Inactive)
REMARK    1  A    between atoms: C_2  and  C_1 
REMARK    2  A    between atoms: O_6  and  C_1 
REMARK    3  A    between atoms: N_3  and  O_6 
REMARK    4  A    between atoms: C_7  and  C_5 
REMARK    5  A    between atoms: N_14  and  C_5 
REMARK    6  A    between atoms: O_15  and  C_16 
REMARK    7  A    between atoms: C_17  and  O_15 
REMARK    8  A    between atoms: C_20  and  C_17 
ROOT
ATOM      1  C   UNL d   1      -1.051  -2.398   2.741  0.00  0.00     0.004 A 
ATOM      2  C   UNL d   1       0.093  -1.897   3.372  0.00  0.00     0.017 A 
ATOM      3  C   UNL d   1      -1.574  -3.631   3.142  0.00  0.00     0.017 A 
ATOM      4  C   UNL d   1       0.160  -3.834   4.829  0.00  0.00     0.069 A 
ATOM      5  C   UNL d   1      -0.974  -4.337   4.187  0.00  0.00     0.037 A 
ATOM      6  C   UNL d   1       0.695  -2.612   4.419  0.00  0.00     0.037 A 
ENDROOT
BRANCH   1   7
ATOM      7  C   UNL d   1      -1.730  -1.607   1.663  0.00  0.00     0.109 C 
ATOM      8  N   UNL d   1      -1.017  -0.768   0.972  0.00  0.00    -0.246 N 
ATOM      9  HN  UNL d   1      -0.021  -0.603   1.118  1.00  0.00     0.196 HD
BRANCH   8  10
ATOM     10  O   UNL d   1      -1.797  -0.117  -0.004  0.00  0.00    -0.194 OA
BRANCH  10  11
ATOM     11  C   UNL d   1      -1.019   0.727  -0.763  0.00  0.00     0.336 C 
ATOM     12  O   UNL d   1       0.192   0.897  -0.609  0.00  0.00    -0.258 OA
BRANCH  11  13
ATOM     13  C   UNL d   1      -1.847   1.434  -1.836  0.00  0.00     0.278 C 
ATOM     14 CL   UNL d   1      -3.600   1.079  -1.739  0.00  0.00    -0.073 Cl
ATOM     15 CL   UNL d   1      -1.626   3.201  -1.651  0.00  0.00    -0.073 Cl
ATOM     16 CL   UNL d   1      -1.249   0.923  -3.442  0.00  0.00    -0.073 Cl
ENDBRANCH  11  13
ENDBRANCH  10  11
ENDBRANCH   8  10
BRANCH   7  17
ATOM     17  N   UNL d   1      -3.083  -1.793   1.473  0.00  0.00    -0.286 NA
ATOM     18  H   UNL d   1      -3.519  -1.051   0.937  0.00  0.00     0.125 HD
ATOM     19  H   UNL d   1      -3.614  -2.023   2.306  0.00  0.00     0.125 HD
ENDBRANCH   7  17
ENDBRANCH   1   7
BRANCH   4  20
ATOM     20  O   UNL d   1       0.612  -4.598   5.868  0.00  0.00    -0.347 OA
BRANCH  20  21
ATOM     21  C   UNL d   1       2.000  -4.499   6.184  0.00  0.00     0.214 C 
BRANCH  21  22
ATOM     22  C   UNL d   1       2.289  -5.420   7.347  0.00  0.00    -0.034 A 
ATOM     23  C   UNL d   1       3.180  -6.495   7.219  0.00  0.00     0.009 A 
ATOM     24  C   UNL d   1       3.458  -7.319   8.312  0.00  0.00     0.001 A 
ATOM     25  C   UNL d   1       2.848  -7.079   9.543  0.00  0.00     0.000 A 
ATOM     26  C   UNL d   1       1.955  -6.020   9.681  0.00  0.00     0.001 A 
ATOM     27  C   UNL d   1       1.676  -5.195   8.589  0.00  0.00     0.009 A 
ENDBRANCH  21  22
ENDBRANCH  20  21
ENDBRANCH   4  20
TORSDOF 8
