REMARK  3 active torsions:
REMARK  status: ('A' for Active; 'I' for Inactive)
REMARK    1  A    between atoms: N_7  and  S_1 
REMARK    2  A    between atoms: C_8  and  S_1 
REMARK    3  A    between atoms: C_16  and  N_7 
ROOT
ATOM      1  N   UNL d   1       0.575  -1.498  -0.446  0.00  0.00    -0.281 N 
ATOM      2  H   UNL d   1      -0.381  -1.644  -0.125  0.00  0.00     0.179 HD
ENDROOT
BRANCH   1   3
ATOM      3  S   UNL d   1       1.119   0.067  -0.071  0.00  0.00     0.263 S 
ATOM      4  O   UNL d   1       2.542   0.153  -0.309  0.00  0.00    -0.200 OA
ATOM      5  O   UNL d   1       0.549   0.393   1.221  0.00  0.00    -0.200 OA
BRANCH   3   6
ATOM      6  C   UNL d   1       0.293   1.084  -1.282  0.00  0.00     0.080 A 
ATOM      7  C   UNL d   1       0.937   1.405  -2.487  0.00  0.00     0.035 A 
ATOM      8  C   UNL d   1       0.245   2.190  -3.395  0.00  0.00    -0.021 A 
ATOM      9  C   UNL d   1       0.623   2.622  -4.761  0.00  0.00     0.068 C 
ATOM     10  C   UNL d   1      -1.036   2.644  -3.116  0.00  0.00     0.075 A 
ATOM     11  C   UNL d   1      -0.478   3.656  -5.006  0.00  0.00     0.180 C 
ATOM     12  O   UNL d   1      -1.593   3.384  -4.125  0.00  0.00    -0.350 OA
ATOM     13  C   UNL d   1      -1.680   2.349  -1.931  0.00  0.00     0.039 A 
ATOM     14  C   UNL d   1      -1.001   1.567  -0.995  0.00  0.00     0.028 A 
ENDBRANCH   3   6
ENDBRANCH   1   3
BRANCH   1  15
ATOM     15  C   UNL d   1       0.923  -2.028  -1.720  0.00  0.00     0.045 A 
ATOM     16  C   UNL d   1       0.056  -1.898  -2.795  0.00  0.00     0.068 A 
ATOM     17  C   UNL d   1       0.489  -2.295  -4.062  0.00  0.00     0.092 A 
ATOM     18  O   UNL d   1      -0.431  -2.085  -5.109  0.00  0.00    -0.275 OA
ATOM     19  C   UNL d   1       1.758  -2.838  -4.296  0.00  0.00     0.004 A 
ATOM     20  C   UNL d   1      -0.108  -2.396  -6.414  0.00  0.00     0.288 A 
ATOM     21  O   UNL d   1      -0.882  -2.211  -7.347  0.00  0.00    -0.260 OA
ATOM     22  C   UNL d   1       1.227  -2.961  -6.648  0.00  0.00     0.090 A 
ATOM     23  C   UNL d   1       2.128  -3.183  -5.678  0.00  0.00    -0.043 A 
ATOM     24  C   UNL d   1       3.469  -3.747  -6.049  0.00  0.00     0.049 C 
ATOM     25  C   UNL d   1       2.598  -2.994  -3.186  0.00  0.00     0.017 A 
ATOM     26  C   UNL d   1       2.188  -2.580  -1.911  0.00  0.00     0.031 A 
ENDBRANCH   1  15
TORSDOF 3
