REMARK  5 active torsions:
REMARK  status: ('A' for Active; 'I' for Inactive)
REMARK    1  A    between atoms: N_12  and  C_3 
REMARK    2  A    between atoms: C_13  and  C_10 
REMARK    3  A    between atoms: C_20  and  C_11 
REMARK    4  A    between atoms: C_14  and  C_16 
REMARK    5  A    between atoms: C_17  and  N_15 
ROOT
ATOM      1  N   UNL d   1       0.304   0.644  -0.004  0.00  0.00    -0.224 N 
ATOM      2  C   UNL d   1       0.143  -0.746  -0.001  0.00  0.00     0.131 A 
ATOM      3  C   UNL d   1      -0.836   1.508  -0.015  0.00  0.00     0.129 A 
ATOM      4  N   UNL d   1       1.629   0.971  -0.006  0.00  0.00    -0.294 N 
ATOM      5  HN  UNL d   1       2.030   1.909   0.005  1.00  0.00     0.187 HD
ATOM      6  C   UNL d   1      -2.053   0.931  -0.030  0.00  0.00     0.084 A 
ATOM      7  N   UNL d   1      -1.079  -1.350   0.024  0.00  0.00    -0.337 N 
ATOM      8  HN  UNL d   1      -1.172  -2.366   0.042  1.00  0.00     0.167 HD
ATOM      9  C   UNL d   1       1.407  -1.284  -0.010  0.00  0.00     0.077 A 
ATOM     10  C   UNL d   1      -2.127  -0.568   0.023  0.00  0.00     0.121 A 
ATOM     11  C   UNL d   1       2.295  -0.188  -0.024  0.00  0.00     0.037 A 
ENDROOT
BRANCH   3  12
ATOM     12  N   UNL d   1      -0.694   2.920   0.031  0.00  0.00    -0.363 N 
ATOM     13  C   UNL d   1       0.518   3.518   0.674  0.00  0.00     0.144 C 
ATOM     14  C   UNL d   1       0.265   4.977   1.081  0.00  0.00     0.144 C 
ATOM     15  N   UNL d   1      -0.129   5.726  -0.113  0.00  0.00    -0.364 N 
ATOM     16  C   UNL d   1      -1.363   5.249  -0.736  0.00  0.00     0.144 C 
ATOM     17  C   UNL d   1      -1.173   3.751  -1.123  0.00  0.00     0.144 C 
BRANCH  15  18
ATOM     18  C   UNL d   1       0.406   6.957  -0.388  0.00  0.00     0.103 A 
ATOM     19  N   UNL d   1      -0.396   7.958  -0.804  0.00  0.00    -0.352 N 
ATOM     20  C   UNL d   1       0.167   9.174  -1.042  0.00  0.00     0.106 A 
ATOM     21  HN  UNL d   1      -1.396   7.809  -0.938  1.00  0.00     0.166 HD
ATOM     22  C   UNL d   1       1.521   9.448  -0.923  0.00  0.00     0.063 A 
ATOM     23  C   UNL d   1       2.347   8.395  -0.548  0.00  0.00     0.021 A 
ATOM     24  C   UNL d   1       1.784   7.153  -0.275  0.00  0.00     0.049 A 
BRANCH  22  25
ATOM     25  C   UNL d   1       2.075  10.810  -1.188  0.00  0.00     0.418 C 
ATOM     26  F   UNL d   1       1.132  11.731  -1.526  0.00  0.00    -0.166 F 
ATOM     27  F   UNL d   1       2.724  11.323  -0.105  0.00  0.00    -0.166 F 
ATOM     28  F   UNL d   1       2.985  10.817  -2.201  0.00  0.00    -0.166 F 
ENDBRANCH  22  25
ENDBRANCH  15  18
ENDBRANCH   3  12
BRANCH  10  29
ATOM     29  C   UNL d   1      -3.522  -1.188   0.098  0.00  0.00     0.432 C 
ATOM     30  F   UNL d   1      -4.516  -0.255   0.127  0.00  0.00    -0.165 F 
ATOM     31  F   UNL d   1      -3.790  -1.991  -0.967  0.00  0.00    -0.165 F 
ATOM     32  F   UNL d   1      -3.687  -1.949   1.214  0.00  0.00    -0.165 F 
ENDBRANCH  10  29
BRANCH  11  33
ATOM     33  C   UNL d   1       3.817  -0.205  -0.013  0.00  0.00    -0.007 C 
ATOM     34  C   UNL d   1       4.324  -0.241   1.441  0.00  0.00     0.021 C 
ATOM     35  C   UNL d   1       4.360  -1.442  -0.758  0.00  0.00     0.021 C 
ATOM     36  C   UNL d   1       4.400   1.048  -0.705  0.00  0.00     0.021 C 
ENDBRANCH  11  33
TORSDOF 5
