REMARK  9 active torsions:
REMARK  status: ('A' for Active; 'I' for Inactive)
REMARK    1  A    between atoms: N_3  and  C_1 
REMARK    2  A    between atoms: N_7  and  C_1 
REMARK    3  A    between atoms: O_13  and  C_2 
REMARK    4  A    between atoms: C_9  and  N_3 
REMARK    5  A    between atoms: O_16  and  C_5 
REMARK    6  A    between atoms: C_19  and  N_7 
REMARK    7  A    between atoms: C_10  and  C_21 
REMARK    8  A    between atoms: O_20  and  C_11 
REMARK    9  A    between atoms: C_21  and  C_19 
ROOT
ATOM      1  N   UNL d   1       2.464   0.068  -0.003  0.00  0.00    -0.367 N 
ATOM      2  H   UNL d   1       2.792  -0.847   0.289  0.00  0.00     0.161 HD
ENDROOT
BRANCH   1   3
ATOM      3  C   UNL d   1       1.093   0.143   0.040  0.00  0.00     0.172 C 
ATOM      4  S   UNL d   1       0.266  -1.254   0.437  0.00  0.00    -0.041 SA
BRANCH   3   5
ATOM      5  N   UNL d   1       0.568   1.370  -0.300  0.00  0.00    -0.333 N 
ATOM      6  H   UNL d   1       0.999   1.775  -1.122  0.00  0.00     0.168 HD
BRANCH   5   7
ATOM      7  C   UNL d   1      -0.716   1.854   0.031  0.00  0.00     0.034 A 
ATOM      8  C   UNL d   1      -1.270   1.652   1.298  0.00  0.00     0.032 A 
ATOM      9  C   UNL d   1      -2.551   2.120   1.604  0.00  0.00     0.039 A 
ATOM     10  C   UNL d   1      -3.299   2.790   0.636  0.00  0.00     0.068 A 
ATOM     11  C   UNL d   1      -2.719   3.051  -0.608  0.00  0.00     0.039 A 
ATOM     12  C   UNL d   1      -1.425   2.608  -0.906  0.00  0.00     0.032 A 
BRANCH  10  13
ATOM     13  O   UNL d   1      -4.584   3.230   0.782  0.00  0.00    -0.356 OA
ATOM     14  C   UNL d   1      -5.269   2.833   1.966  0.00  0.00     0.210 C 
ENDBRANCH  10  13
ENDBRANCH   5   7
ENDBRANCH   3   5
ENDBRANCH   1   3
BRANCH   1  15
ATOM     15  C   UNL d   1       3.330   1.199   0.297  0.00  0.00     0.126 C 
BRANCH  15  16
ATOM     16  C   UNL d   1       4.806   0.804   0.392  0.00  0.00     0.058 C 
BRANCH  16  17
ATOM     17  C   UNL d   1       5.654   1.998   0.754  0.00  0.00    -0.054 A 
ATOM     18  C   UNL d   1       5.926   2.309   2.097  0.00  0.00     0.046 A 
ATOM     19  C   UNL d   1       6.637   3.470   2.446  0.00  0.00     0.102 A 
ATOM     20  C   UNL d   1       7.130   4.301   1.428  0.00  0.00     0.101 A 
ATOM     21  C   UNL d   1       6.846   3.994   0.092  0.00  0.00     0.040 A 
ATOM     22  C   UNL d   1       6.117   2.855  -0.246  0.00  0.00     0.010 A 
BRANCH  19  23
ATOM     23  O   UNL d   1       6.872   3.824   3.749  0.00  0.00    -0.353 OA
ATOM     24  C   UNL d   1       5.873   3.441   4.689  0.00  0.00     0.210 C 
ENDBRANCH  19  23
BRANCH  20  25
ATOM     25  O   UNL d   1       7.821   5.475   1.581  0.00  0.00    -0.353 OA
ATOM     26  C   UNL d   1       8.739   5.532   2.666  0.00  0.00     0.210 C 
ENDBRANCH  20  25
ENDBRANCH  16  17
ENDBRANCH  15  16
ENDBRANCH   1  15
TORSDOF 9
