REMARK  6 active torsions:
REMARK  status: ('A' for Active; 'I' for Inactive)
REMARK    1  A    between atoms: N_2  and  S_1 
REMARK    2  A    between atoms: C_3  and  S_1 
REMARK    3  A    between atoms: C_4  and  N_2 
REMARK    4  A    between atoms: C_18  and  N_2 
REMARK    5  A    between atoms: C_6  and  C_4 
REMARK    6  A    between atoms: C_16  and  C_18 
ROOT
ATOM      1  N   UNL d   1       3.044  -4.507   2.470  0.00  0.00    -0.197 NA
ATOM      2  C   UNL d   1       2.766  -3.420   2.178  0.00  0.00     0.060 C 
ATOM      3  C   UNL d   1       2.390  -2.054   1.787  0.00  0.00     0.139 C 
ENDROOT
BRANCH   3   4
ATOM      4  C   UNL d   1       0.869  -1.939   1.712  0.00  0.00     0.122 C 
BRANCH   4   5
ATOM      5  N   UNL d   1       0.338  -0.541   1.391  0.00  0.00    -0.201 NA
BRANCH   5   6
ATOM      6  S   UNL d   1       0.933   0.023  -0.129  0.00  0.00     0.244 S 
ATOM      7  O   UNL d   1       0.483  -0.933  -1.119  0.00  0.00    -0.206 OA
ATOM      8  O   UNL d   1       2.338   0.318   0.034  0.00  0.00    -0.206 OA
BRANCH   6   9
ATOM      9  C   UNL d   1       0.136   1.573  -0.467  0.00  0.00     0.074 A 
ATOM     10  C   UNL d   1       0.406   2.685   0.339  0.00  0.00     0.028 A 
ATOM     11  C   UNL d   1      -0.110   3.932  -0.025  0.00  0.00     0.044 A 
ATOM     12  C   UNL d   1      -0.874   4.054  -1.185  0.00  0.00     0.116 A 
ATOM     13  C   UNL d   1      -1.146   2.950  -1.986  0.00  0.00     0.044 A 
ATOM     14  F   UNL d   1      -1.336   5.258  -1.546  0.00  0.00    -0.206 F 
ATOM     15  C   UNL d   1      -0.641   1.701  -1.628  0.00  0.00     0.028 A 
ENDBRANCH   6   9
ENDBRANCH   5   6
BRANCH   5  16
ATOM     16  C   UNL d   1      -1.165  -0.527   1.471  0.00  0.00     0.153 C 
BRANCH  16  17
ATOM     17  C   UNL d   1      -1.625  -0.922   2.852  0.00  0.00    -0.004 A 
ATOM     18  S   UNL d   1      -2.578  -2.335   3.067  0.00  0.00    -0.105 SA
ATOM     19  C   UNL d   1      -2.551  -2.175   4.768  0.00  0.00     0.050 A 
ATOM     20  C   UNL d   1      -1.887  -1.038   5.169  0.00  0.00     0.008 A 
ATOM     21  C   UNL d   1      -1.367  -0.304   4.062  0.00  0.00     0.016 A 
ENDBRANCH  16  17
ENDBRANCH   5  16
ENDBRANCH   4   5
ENDBRANCH   3   4
TORSDOF 6
