REMARK  5 active torsions:
REMARK  status: ('A' for Active; 'I' for Inactive)
REMARK       I    between atoms: N_6  and  C_1 
REMARK    1  A    between atoms: O_10  and  C_1 
REMARK    2  A    between atoms: C_8  and  C_3 
REMARK    3  A    between atoms: C_4  and  C_16 
REMARK    4  A    between atoms: C_11  and  N_6 
REMARK    5  A    between atoms: C_16  and  O_10 
ROOT
ATOM      1  N   UNL d   1      12.612   0.512  -0.447  0.00  0.00    -0.191 NA
ATOM      2  C   UNL d   1      11.478   0.303  -0.337  0.00  0.00     0.099 C 
ATOM      3  C   UNL d   1       7.311  -0.438   0.001  0.00  0.00     0.017 A 
ATOM      4  C   UNL d   1      10.070   0.048  -0.204  0.00  0.00     0.044 A 
ATOM      5  C   UNL d   1       7.797   0.872  -0.013  0.00  0.00     0.022 A 
ATOM      6  C   UNL d   1       8.211  -1.507  -0.069  0.00  0.00     0.022 A 
ATOM      7  C   UNL d   1       9.170   1.116  -0.118  0.00  0.00     0.024 A 
ATOM      8  C   UNL d   1       9.588  -1.264  -0.173  0.00  0.00     0.024 A 
ENDROOT
BRANCH   3   9
ATOM      9  C   UNL d   1       5.895  -0.665   0.066  0.00  0.00    -0.065 C 
ATOM     10  C   UNL d   1       4.708  -0.861   0.100  0.00  0.00    -0.074 C 
BRANCH  10  11
ATOM     11  C   UNL d   1       3.277  -1.203   0.143  0.00  0.00     0.274 C 
BRANCH  11  12
ATOM     12  O   UNL d   1       2.442  -0.046  -0.032  0.00  0.00    -0.292 OA
BRANCH  12  13
ATOM     13  C   UNL d   1       1.602  -0.075  -1.096  0.00  0.00     0.366 C 
ATOM     14  N   UNL d   1       0.603   0.869  -1.121  0.00  0.00    -0.303 N 
ATOM     15  H   UNL d   1       0.014   0.737  -1.933  0.00  0.00     0.171 HD
ATOM     16  O   UNL d   1       1.652  -0.911  -1.995  0.00  0.00    -0.238 OA
BRANCH  14  17
ATOM     17  C   UNL d   1       0.099   1.720  -0.119  0.00  0.00     0.036 A 
ATOM     18  C   UNL d   1       0.747   2.006   1.081  0.00  0.00     0.029 A 
ATOM     19  C   UNL d   1       0.083   2.708   2.093  0.00  0.00     0.002 A 
ATOM     20  C   UNL d   1      -1.224   3.150   1.905  0.00  0.00     0.000 A 
ATOM     21  C   UNL d   1      -1.851   2.943   0.681  0.00  0.00     0.002 A 
ATOM     22  C   UNL d   1      -1.185   2.247  -0.332  0.00  0.00     0.029 A 
ENDBRANCH  14  17
ENDBRANCH  12  13
ENDBRANCH  11  12
ENDBRANCH  10  11
ENDBRANCH   3   9
TORSDOF 5
