REMARK  5 active torsions:
REMARK  status: ('A' for Active; 'I' for Inactive)
REMARK    1  A    between atoms: C_4  and  C_1 
REMARK    2  A    between atoms: C_8  and  C_2 
REMARK    3  A    between atoms: C_9  and  C_6 
REMARK    4  A    between atoms: O_17  and  C_8 
REMARK    5  A    between atoms: C_12  and  C_9 
ROOT
ATOM      1  C   UNL d   1       1.867  -2.755  -0.086  0.00  0.00     0.041 C 
ATOM      2  C   UNL d   1       1.112  -2.919   1.020  0.00  0.00     0.096 C 
ATOM      3  C   UNL d   1       1.662  -2.849   2.330  0.00  0.00     0.103 C 
ATOM      4  N   UNL d   1       2.086  -2.817   3.411  0.00  0.00    -0.191 NA
ENDROOT
BRANCH   2   5
ATOM      5  C   UNL d   1      -0.368  -3.066   0.844  0.00  0.00     0.202 C 
ATOM      6  O   UNL d   1      -0.944  -2.615  -0.146  0.00  0.00    -0.286 OA
BRANCH   5   7
ATOM      7  C   UNL d   1      -1.181  -3.717   1.909  0.00  0.00     0.016 A 
ATOM      8  C   UNL d   1      -2.465  -3.218   2.177  0.00  0.00     0.017 A 
ATOM      9  C   UNL d   1      -3.264  -3.810   3.160  0.00  0.00     0.025 A 
ATOM     10  C   UNL d   1      -2.786  -4.909   3.871  0.00  0.00     0.034 A 
ATOM     11  C   UNL d   1      -1.519  -5.426   3.597  0.00  0.00     0.025 A 
ATOM     12 CL   UNL d   1      -3.761  -5.637   5.085  0.00  0.00    -0.084 Cl
ATOM     13  C   UNL d   1      -0.721  -4.839   2.609  0.00  0.00     0.017 A 
ENDBRANCH   5   7
ENDBRANCH   2   5
BRANCH   1  14
ATOM     14  C   UNL d   1       3.264  -2.442  -0.065  0.00  0.00     0.006 C 
ATOM     15  C   UNL d   1       4.399  -3.294  -0.260  0.00  0.00     0.073 C 
ATOM     16  C   UNL d   1       5.514  -2.498  -0.002  0.00  0.00     0.022 C 
ATOM     17  C   UNL d   1       6.959  -2.849   0.081  0.00  0.00     0.069 C 
ATOM     18  N   UNL d   1       5.093  -1.212   0.200  0.00  0.00    -0.362 N 
ATOM     19  C   UNL d   1       3.726  -1.148   0.120  0.00  0.00     0.017 C 
ATOM     20  H   UNL d   1       5.703  -0.424   0.379  0.00  0.00     0.165 HD
ATOM     21  C   UNL d   1       3.016   0.155   0.232  0.00  0.00     0.069 C 
BRANCH  15  22
ATOM     22  C   UNL d   1       4.508  -4.709  -0.630  0.00  0.00     0.295 C 
ATOM     23  O   UNL d   1       5.477  -5.152  -1.234  0.00  0.00    -0.259 OA
BRANCH  22  24
ATOM     24  O   UNL d   1       3.459  -5.467  -0.202  0.00  0.00    -0.322 OA
ATOM     25  C   UNL d   1       3.614  -6.878  -0.407  0.00  0.00     0.213 C 
ENDBRANCH  22  24
ENDBRANCH  15  22
ENDBRANCH   1  14
TORSDOF 5
