REMARK  6 active torsions:
REMARK  status: ('A' for Active; 'I' for Inactive)
REMARK    1  A    between atoms: N_2  and  S_1 
REMARK    2  A    between atoms: C_3  and  S_1 
REMARK    3  A    between atoms: C_4  and  C_11 
REMARK    4  A    between atoms: O_19  and  C_4 
REMARK       I    between atoms: C_7  and  N_8 
REMARK    5  A    between atoms: N_8  and  C_18 
REMARK    6  A    between atoms: C_23  and  O_19 
ROOT
ATOM      1  S   UNL d   1       0.884   0.097  -0.079  0.00  0.00     0.243 S 
ATOM      2  O   UNL d   1      -0.137  -0.081  -1.093  0.00  0.00    -0.206 OA
ATOM      3  O   UNL d   1       2.280  -0.159  -0.377  0.00  0.00    -0.206 OA
ENDROOT
BRANCH   1   4
ATOM      4  N   UNL d   1       0.440  -0.906   1.263  0.00  0.00    -0.206 NA
ATOM      5  C   UNL d   1      -0.985  -0.751   1.681  0.00  0.00     0.108 C 
ATOM      6  C   UNL d   1      -1.315  -1.675   2.855  0.00  0.00     0.030 C 
ATOM      7  C   UNL d   1      -0.995  -3.142   2.551  0.00  0.00     0.088 C 
ATOM      8  C   UNL d   1       0.479  -3.240   2.149  0.00  0.00     0.030 C 
ATOM      9  C   UNL d   1       0.792  -2.334   0.963  0.00  0.00     0.108 C 
BRANCH   7  10
ATOM     10  C   UNL d   1      -1.880  -3.779   1.485  0.00  0.00     0.263 C 
ATOM     11  O   UNL d   1      -1.516  -4.699   0.763  0.00  0.00    -0.265 OA
BRANCH  10  12
ATOM     12  O   UNL d   1      -3.129  -3.238   1.477  0.00  0.00    -0.322 OA
BRANCH  12  13
ATOM     13  C   UNL d   1      -4.042  -3.793   0.517  0.00  0.00     0.174 C 
ATOM     14  C   UNL d   1      -3.825  -3.164  -0.848  0.00  0.00     0.034 C 
ENDBRANCH  12  13
ENDBRANCH  10  12
ENDBRANCH   7  10
ENDBRANCH   1   4
BRANCH   1  15
ATOM     15  C   UNL d   1       0.796   1.768   0.516  0.00  0.00     0.074 A 
ATOM     16  C   UNL d   1       1.730   2.219   1.449  0.00  0.00     0.027 A 
ATOM     17  C   UNL d   1       1.765   3.578   1.793  0.00  0.00     0.031 A 
ATOM     18  C   UNL d   1       0.872   4.492   1.212  0.00  0.00     0.034 A 
ATOM     19  C   UNL d   1      -0.053   4.021   0.276  0.00  0.00     0.031 A 
ATOM     20  C   UNL d   1      -0.093   2.667  -0.075  0.00  0.00     0.027 A 
BRANCH  18  21
ATOM     21  N   UNL d   1       0.973   5.846   1.603  0.00  0.00    -0.328 N 
ATOM     22  C   UNL d   1       0.160   6.895   1.205  0.00  0.00     0.218 C 
ATOM     23  O   UNL d   1      -0.790   6.832   0.430  0.00  0.00    -0.274 OA
ATOM     24  C   UNL d   1       0.523   8.214   1.841  0.00  0.00     0.117 C 
ATOM     25  H   UNL d   1       1.711   6.063   2.260  0.00  0.00     0.169 HD
ENDBRANCH  18  21
ENDBRANCH   1  15
TORSDOF 6
