REMARK  2 active torsions:
REMARK  status: ('A' for Active; 'I' for Inactive)
REMARK    1  A    between atoms: C_7  and  C_3 
REMARK    2  A    between atoms: C_8  and  C_4 
ROOT
ATOM      1  N   UNL d   1       1.424  -0.613  -0.018  0.00  0.00    -0.349 N 
ATOM      2  HN  UNL d   1       2.311  -1.117  -0.035  1.00  0.00     0.166 HD
ATOM      3  C   UNL d   1       0.234  -1.184  -0.029  0.00  0.00     0.085 A 
ATOM      4  C   UNL d   1       1.301   0.768   0.018  0.00  0.00     0.050 A 
ATOM      5  S   UNL d   1      -1.092  -0.082   0.030  0.00  0.00    -0.081 SA
ATOM      6  C   UNL d   1       0.001   1.232   0.034  0.00  0.00     0.082 A 
ENDROOT
BRANCH   3   7
ATOM      7  C   UNL d   1       0.004  -2.640  -0.053  0.00  0.00     0.001 A 
ATOM      8  C   UNL d   1       0.928  -3.496   0.568  0.00  0.00     0.054 A 
ATOM      9  C   UNL d   1       0.738  -4.880   0.551  0.00  0.00     0.103 A 
ATOM     10  O   UNL d   1       1.691  -5.644   1.177  0.00  0.00    -0.346 OA
ATOM     11  C   UNL d   1      -0.386  -5.426  -0.074  0.00  0.00     0.102 A 
ATOM     12  C   UNL d   1       1.589  -7.021   0.797  0.00  0.00     0.202 C 
ATOM     13  C   UNL d   1       0.144  -7.489   0.835  0.00  0.00     0.202 C 
ATOM     14  O   UNL d   1      -0.649  -6.770  -0.116  0.00  0.00    -0.346 OA
ATOM     15  C   UNL d   1      -1.298  -4.594  -0.712  0.00  0.00     0.040 A 
ATOM     16  C   UNL d   1      -1.106  -3.210  -0.701  0.00  0.00     0.017 A 
ENDBRANCH   3   7
BRANCH   4  17
ATOM     17  C   UNL d   1       2.470   1.640   0.010  0.00  0.00    -0.006 A 
ATOM     18  C   UNL d   1       2.447   2.893   0.644  0.00  0.00     0.053 A 
ATOM     19  C   UNL d   1       3.584   3.671   0.589  0.00  0.00     0.105 A 
ATOM     20  O   UNL d   1       3.729   4.900   1.154  0.00  0.00    -0.323 OA
ATOM     21  C   UNL d   1       4.720   3.255  -0.064  0.00  0.00     0.105 A 
ATOM     22  C   UNL d   1       5.102   5.190   0.820  0.00  0.00     0.352 A 
ATOM     23  O   UNL d   1       5.721   4.173   0.005  0.00  0.00    -0.323 OA
ATOM     24  C   UNL d   1       4.785   2.033  -0.695  0.00  0.00     0.040 A 
ATOM     25  C   UNL d   1       3.648   1.217  -0.649  0.00  0.00     0.017 A 
ENDBRANCH   4  17
TORSDOF 2
