REMARK  4 active torsions:
REMARK  status: ('A' for Active; 'I' for Inactive)
REMARK    1  A    between atoms: C_6  and  C_1 
REMARK    2  A    between atoms: C_2  and  C_3 
REMARK       I    between atoms: N_4  and  C_2 
REMARK       I    between atoms: C_3  and  N_5 
REMARK    3  A    between atoms: C_7  and  N_4 
REMARK    4  A    between atoms: N_5  and  C_9 
ROOT
ATOM      1  C   UNL d   1       1.937  -2.797  -2.285  0.00  0.00     0.313 C 
ATOM      2  N   UNL d   1       2.258  -2.081  -3.425  0.00  0.00    -0.319 N 
ATOM      3  O   UNL d   1       1.844  -2.403  -1.130  0.00  0.00    -0.262 OA
ATOM      4  H   UNL d   1       2.244  -2.626  -4.284  0.00  0.00     0.169 HD
ENDROOT
BRANCH   1   5
ATOM      5  C   UNL d   1       1.638  -4.283  -2.573  0.00  0.00     0.310 C 
ATOM      6  N   UNL d   1       1.234  -4.990  -1.457  0.00  0.00    -0.348 N 
ATOM      7  H   UNL d   1       1.175  -4.455  -0.594  0.00  0.00     0.163 HD
ATOM      8  O   UNL d   1       1.760  -4.720  -3.711  0.00  0.00    -0.262 OA
BRANCH   6   9
ATOM      9  C   UNL d   1       0.901  -6.402  -1.491  0.00  0.00     0.085 C 
ATOM     10  C   UNL d   1      -0.024  -6.816  -0.332  0.00  0.00     0.034 C 
ATOM     11  C   UNL d   1       0.663  -7.127   1.022  0.00  0.00    -0.045 C 
ATOM     12  C   UNL d   1       1.098  -5.842   1.752  0.00  0.00     0.015 C 
ATOM     13  C   UNL d   1      -0.355  -7.846   1.934  0.00  0.00     0.015 C 
ATOM     14  C   UNL d   1       1.872  -8.058   0.800  0.00  0.00     0.013 C 
ATOM     15  C   UNL d   1       2.857  -7.526  -0.251  0.00  0.00    -0.016 C 
ATOM     16  C   UNL d   1       2.147  -7.294  -1.591  0.00  0.00     0.029 C 
ATOM     17  C   UNL d   1       4.019  -8.505  -0.426  0.00  0.00     0.010 C 
ENDBRANCH   6   9
ENDBRANCH   1   5
BRANCH   2  18
ATOM     18  C   UNL d   1       2.525  -0.702  -3.517  0.00  0.00     0.035 A 
ATOM     19  C   UNL d   1       2.566   0.146  -2.408  0.00  0.00     0.045 A 
ATOM     20  C   UNL d   1       2.760   1.531  -2.555  0.00  0.00     0.050 A 
ATOM     21  C   UNL d   1       2.957   2.057  -3.840  0.00  0.00     0.016 A 
ATOM     22  C   UNL d   1       2.952   1.216  -4.950  0.00  0.00     0.003 A 
ATOM     23  C   UNL d   1       2.731  -0.156  -4.789  0.00  0.00     0.029 A 
BRANCH  20  24
ATOM     24  C   UNL d   1       2.710   2.446  -1.357  0.00  0.00     0.417 C 
ATOM     25  F   UNL d   1       2.553   1.795  -0.171  0.00  0.00    -0.166 F 
ATOM     26  F   UNL d   1       1.678   3.333  -1.432  0.00  0.00    -0.166 F 
ATOM     27  F   UNL d   1       3.837   3.198  -1.223  0.00  0.00    -0.166 F 
ENDBRANCH  20  24
ENDBRANCH   2  18
TORSDOF 4
