REMARK  4 active torsions:
REMARK  status: ('A' for Active; 'I' for Inactive)
REMARK    1  A    between atoms: N_2  and  C_1 
REMARK    2  A    between atoms: N_3  and  C_1 
REMARK    3  A    between atoms: C_9  and  N_3 
REMARK    4  A    between atoms: C_19  and  C_16 
ROOT
ATOM      1  C   UNL d   1       0.765   0.015   0.054  0.00  0.00     0.174 C 
ATOM      2  S   UNL d   1       0.627   1.243  -1.079  0.00  0.00    -0.041 SA
ENDROOT
BRANCH   1   3
ATOM      3  N   UNL d   1       0.409   0.137   1.417  0.00  0.00    -0.353 N 
ATOM      4  C   UNL d   1       0.627   1.430   2.087  0.00  0.00     0.130 C 
ATOM      5  C   UNL d   1       0.811   1.230   3.597  0.00  0.00     0.003 C 
ATOM      6  C   UNL d   1      -0.419   0.514   4.173  0.00  0.00     0.008 C 
ATOM      7  C   UNL d   1      -0.682  -0.794   3.433  0.00  0.00     0.025 C 
ATOM      8  C   UNL d   1      -0.790  -0.588   1.913  0.00  0.00     0.082 C 
ATOM      9  C   UNL d   1      -1.093  -1.941   1.260  0.00  0.00     0.032 C 
BRANCH   5  10
ATOM     10  C   UNL d   1       1.058   2.542   4.357  0.00  0.00     0.002 C 
ATOM     11  C   UNL d   1       2.309   3.283   3.908  0.00  0.00     0.005 C 
ENDBRANCH   5  10
ENDBRANCH   1   3
BRANCH   1  12
ATOM     12  N   UNL d   1       1.379  -1.213  -0.152  0.00  0.00    -0.333 N 
ATOM     13  H   UNL d   1       1.845  -1.554   0.679  0.00  0.00     0.168 HD
BRANCH  12  14
ATOM     14  C   UNL d   1       1.500  -2.002  -1.314  0.00  0.00     0.035 A 
ATOM     15  C   UNL d   1       0.625  -1.902  -2.397  0.00  0.00     0.055 A 
ATOM     16  C   UNL d   1       0.703  -2.814  -3.458  0.00  0.00     0.058 A 
ATOM     17 CL   UNL d   1      -0.455  -2.664  -4.732  0.00  0.00    -0.082 Cl
ATOM     18  C   UNL d   1       1.668  -3.825  -3.441  0.00  0.00     0.055 A 
ATOM     19  C   UNL d   1       2.558  -3.913  -2.368  0.00  0.00     0.028 A 
ATOM     20 CL   UNL d   1       1.789  -5.016  -4.685  0.00  0.00    -0.083 Cl
ATOM     21  C   UNL d   1       2.465  -3.011  -1.304  0.00  0.00     0.031 A 
ENDBRANCH  12  14
ENDBRANCH   1  12
TORSDOF 4
