REMARK  17 active torsions:
REMARK  status: ('A' for Active; 'I' for Inactive)
REMARK    1  A    between atoms: C_2  and  S_1 
REMARK    2  A    between atoms: O_7  and  S_1 
REMARK    3  A    between atoms: O_11  and  C_6 
REMARK    4  A    between atoms: C_13  and  O_7 
REMARK    5  A    between atoms: O_12  and  C_9 
REMARK    6  A    between atoms: C_16  and  C_13 
REMARK    7  A    between atoms: C_26  and  C_16 
REMARK    8  A    between atoms: C_17  and  C_18 
REMARK    9  A    between atoms: C_18  and  C_25 
REMARK   10  A    between atoms: C_19  and  C_27 
REMARK   11  A    between atoms: C_20  and  C_19 
REMARK   12  A    between atoms: C_21  and  C_20 
REMARK   13  A    between atoms: C_22  and  C_21 
REMARK   14  A    between atoms: C_23  and  C_22 
REMARK   15  A    between atoms: C_24  and  C_23 
REMARK   16  A    between atoms: C_25  and  C_24 
REMARK   17  A    between atoms: C_27  and  C_26 
ROOT
ATOM      1  O   UNL d   1       2.870  -2.135   3.594  0.00  0.00    -0.272 OA
ENDROOT
BRANCH   1   2
ATOM      2  S   UNL d   1       1.275  -2.403   3.493  0.00  0.00     0.300 S 
ATOM      3  O   UNL d   1       0.711  -1.935   4.752  0.00  0.00    -0.193 OA
ATOM      4  O   UNL d   1       0.838  -1.891   2.219  0.00  0.00    -0.193 OA
BRANCH   2   5
ATOM      5  C   UNL d   1       1.098  -4.169   3.451  0.00  0.00     0.122 A 
ATOM      6  C   UNL d   1       2.293  -4.914   3.349  0.00  0.00     0.065 A 
ATOM      7  C   UNL d   1       2.305  -6.291   3.551  0.00  0.00     0.069 A 
ATOM      8  C   UNL d   1       1.105  -6.940   3.819  0.00  0.00     0.039 A 
ATOM      9  C   UNL d   1      -0.090  -6.208   3.878  0.00  0.00     0.041 A 
ATOM     10  C   UNL d   1      -0.125  -4.819   3.672  0.00  0.00     0.092 A 
BRANCH   7  11
ATOM     11  O   UNL d   1       3.422  -7.082   3.533  0.00  0.00    -0.356 OA
ATOM     12  C   UNL d   1       4.665  -6.423   3.298  0.00  0.00     0.210 C 
ENDBRANCH   7  11
BRANCH  10  13
ATOM     13  O   UNL d   1      -1.382  -4.303   3.786  0.00  0.00    -0.354 OA
ATOM     14  C   UNL d   1      -1.741  -3.167   3.006  0.00  0.00     0.210 C 
ENDBRANCH  10  13
ENDBRANCH   2   5
ENDBRANCH   1   2
BRANCH   1  15
ATOM     15  C   UNL d   1       3.280  -0.772   3.642  0.00  0.00     0.190 C 
BRANCH  15  16
ATOM     16  C   UNL d   1       4.785  -0.759   3.672  0.00  0.00     0.028 C 
BRANCH  16  17
ATOM     17  C   UNL d   1       5.330  -1.449   2.421  0.00  0.00     0.002 C 
BRANCH  17  18
ATOM     18  C   UNL d   1       6.843  -1.466   2.423  0.00  0.00     0.000 C 
BRANCH  18  19
ATOM     19  C   UNL d   1       7.353  -2.225   3.638  0.00  0.00     0.000 C 
BRANCH  19  20
ATOM     20  C   UNL d   1       8.860  -2.230   3.646  0.00  0.00     0.000 C 
BRANCH  20  21
ATOM     21  C   UNL d   1       9.353  -2.975   4.870  0.00  0.00     0.000 C 
BRANCH  21  22
ATOM     22  C   UNL d   1      10.868  -2.980   4.877  0.00  0.00     0.000 C 
BRANCH  22  23
ATOM     23  C   UNL d   1      11.379  -3.731   6.092  0.00  0.00     0.000 C 
BRANCH  23  24
ATOM     24  C   UNL d   1      12.897  -3.737   6.097  0.00  0.00     0.000 C 
BRANCH  24  25
ATOM     25  C   UNL d   1      13.410  -4.490   7.314  0.00  0.00     0.000 C 
BRANCH  25  26
ATOM     26  C   UNL d   1      14.930  -4.499   7.322  0.00  0.00    -0.000 C 
BRANCH  26  27
ATOM     27  C   UNL d   1      15.456  -5.251   8.537  0.00  0.00    -0.005 C 
ATOM     28  C   UNL d   1      16.973  -5.258   8.543  0.00  0.00     0.005 C 
ENDBRANCH  26  27
ENDBRANCH  25  26
ENDBRANCH  24  25
ENDBRANCH  23  24
ENDBRANCH  22  23
ENDBRANCH  21  22
ENDBRANCH  20  21
ENDBRANCH  19  20
ENDBRANCH  18  19
ENDBRANCH  17  18
ENDBRANCH  16  17
ENDBRANCH  15  16
ENDBRANCH   1  15
TORSDOF 17
