REMARK  2 active torsions:
REMARK  status: ('A' for Active; 'I' for Inactive)
REMARK    1  A    between atoms: C_8  and  C_2 
REMARK    2  A    between atoms: S_9  and  C_5 
ROOT
ATOM      1  N   UNL d   1       0.824  -0.005   0.029  0.00  0.00    -0.315 N 
ATOM      2  C   UNL d   1      -0.025   1.083  -0.058  0.00  0.00     0.134 A 
ATOM      3  N   UNL d   1      -1.268   0.626  -0.023  0.00  0.00    -0.283 N 
ATOM      4  HN  UNL d   1      -2.110   1.202  -0.022  1.00  0.00     0.188 HD
ATOM      5  C   UNL d   1       0.014  -1.113   0.027  0.00  0.00     0.162 A 
ATOM      6  N   UNL d   1      -1.241  -0.746   0.012  0.00  0.00    -0.278 N 
ATOM      7  HN  UNL d   1      -2.052  -1.366   0.025  1.00  0.00     0.189 HD
ATOM      8  C   UNL d   1       2.256  -0.015   0.168  0.00  0.00     0.160 C 
ENDROOT
BRANCH   2   9
ATOM      9  C   UNL d   1       0.335   2.505  -0.128  0.00  0.00     0.009 A 
ATOM     10  C   UNL d   1       1.456   2.973  -0.829  0.00  0.00     0.015 A 
ATOM     11  C   UNL d   1       1.773   4.335  -0.849  0.00  0.00     0.001 A 
ATOM     12  C   UNL d   1       0.950   5.255  -0.204  0.00  0.00     0.000 A 
ATOM     13  C   UNL d   1      -0.193   4.814   0.457  0.00  0.00     0.001 A 
ATOM     14  C   UNL d   1      -0.497   3.450   0.494  0.00  0.00     0.015 A 
ENDBRANCH   2   9
BRANCH   5  15
ATOM     15  S   UNL d   1       0.618  -2.736   0.038  0.00  0.00    -0.097 SA
ATOM     16  C   UNL d   1      -0.923  -3.678   0.034  0.00  0.00     0.099 C 
ENDBRANCH   5  15
TORSDOF 2
