REMARK  2 active torsions:
REMARK  status: ('A' for Active; 'I' for Inactive)
REMARK    1  A    between atoms: N_4  and  C_1 
REMARK    2  A    between atoms: C_8  and  C_5 
ROOT
ATOM      1  C   UNL d   1      -1.828  -1.578  -0.027  0.00  0.00     0.172 A 
ATOM      2  C   UNL d   1      -2.298  -0.319  -0.072  0.00  0.00     0.114 A 
ATOM      3  O   UNL d   1      -0.469  -1.872   0.087  0.00  0.00    -0.291 OA
ATOM      4  C   UNL d   1      -1.368   0.821  -0.009  0.00  0.00     0.189 A 
ATOM      5  C   UNL d   1       0.063   0.493   0.018  0.00  0.00     0.048 A 
ATOM      6  C   UNL d   1       0.437  -0.845   0.052  0.00  0.00     0.092 A 
ATOM      7  O   UNL d   1      -1.777   1.973   0.003  0.00  0.00    -0.287 OA
ATOM      8  C   UNL d   1       1.033   1.499  -0.009  0.00  0.00     0.018 A 
ATOM      9  C   UNL d   1       1.788  -1.192   0.049  0.00  0.00     0.038 A 
ATOM     10  C   UNL d   1       2.385   1.152  -0.014  0.00  0.00     0.001 A 
ATOM     11  C   UNL d   1       2.761  -0.193   0.011  0.00  0.00     0.003 A 
ENDROOT
BRANCH   1  12
ATOM     12  N   UNL d   1      -2.701  -2.688  -0.109  0.00  0.00    -0.245 N 
ATOM     13  N   UNL d   1      -4.051  -2.634  -0.322  0.00  0.00    -0.288 N 
ATOM     14  C   UNL d   1      -4.473  -3.909  -0.410  0.00  0.00     0.134 A 
ATOM     15  HN  UNL d   1      -4.624  -1.794  -0.399  1.00  0.00     0.187 HD
ATOM     16  C   UNL d   1      -3.408  -4.809  -0.188  0.00  0.00     0.055 A 
ATOM     17  C   UNL d   1      -2.306  -4.017  -0.000  0.00  0.00     0.121 A 
BRANCH  14  18
ATOM     18  C   UNL d   1      -5.899  -4.287  -0.713  0.00  0.00     0.434 C 
ATOM     19  F   UNL d   1      -6.729  -3.222  -0.864  0.00  0.00    -0.165 F 
ATOM     20  F   UNL d   1      -5.983  -5.013  -1.862  0.00  0.00    -0.165 F 
ATOM     21  F   UNL d   1      -6.431  -5.064   0.269  0.00  0.00    -0.165 F 
ENDBRANCH  14  18
ENDBRANCH   1  12
TORSDOF 2
