REMARK  5 active torsions:
REMARK  status: ('A' for Active; 'I' for Inactive)
REMARK    1  A    between atoms: N_2  and  C_1 
REMARK    2  A    between atoms: N_4  and  C_1 
REMARK    3  A    between atoms: C_7  and  N_2 
REMARK    4  A    between atoms: C_9  and  N_4 
REMARK    5  A    between atoms: C_11  and  C_9 
ROOT
ATOM      1  C   UNL d   1       1.019   0.225  -0.044  0.00  0.00     0.172 C 
ATOM      2  S   UNL d   1       0.280  -1.031  -0.863  0.00  0.00    -0.041 SA
ENDROOT
BRANCH   1   3
ATOM      3  N   UNL d   1       0.420   1.267   0.635  0.00  0.00    -0.333 N 
ATOM      4  H   UNL d   1       0.843   2.167   0.448  0.00  0.00     0.168 HD
BRANCH   3   5
ATOM      5  C   UNL d   1      -0.906   1.291   1.110  0.00  0.00     0.034 A 
ATOM      6  C   UNL d   1      -1.455   0.182   1.761  0.00  0.00     0.036 A 
ATOM      7  C   UNL d   1      -2.786   0.186   2.192  0.00  0.00    -0.060 A 
ATOM      8  C   UNL d   1      -3.369  -1.025   2.858  0.00  0.00     0.048 C 
ATOM      9  C   UNL d   1      -3.557   1.337   1.999  0.00  0.00     0.007 A 
ATOM     10  C   UNL d   1      -2.997   2.467   1.400  0.00  0.00     0.003 A 
ATOM     11  C   UNL d   1      -1.665   2.454   0.975  0.00  0.00     0.029 A 
ENDBRANCH   3   5
ENDBRANCH   1   3
BRANCH   1  12
ATOM     12  N   UNL d   1       2.385   0.277  -0.095  0.00  0.00    -0.363 N 
ATOM     13  H   UNL d   1       2.777  -0.487  -0.635  0.00  0.00     0.162 HD
BRANCH  12  14
ATOM     14  C   UNL d   1       3.223   0.757   0.987  0.00  0.00     0.160 C 
BRANCH  14  15
ATOM     15  C   UNL d   1       3.885   2.084   0.739  0.00  0.00    -0.038 A 
ATOM     16  C   UNL d   1       3.608   2.897  -0.363  0.00  0.00     0.025 A 
ATOM     17  C   UNL d   1       4.264   4.114  -0.476  0.00  0.00     0.088 A 
ATOM     18  N   UNL d   1       5.167   4.570   0.418  0.00  0.00    -0.375 N 
ATOM     19  C   UNL d   1       5.430   3.771   1.471  0.00  0.00     0.088 A 
ATOM     20  HN  UNL d   1       5.626   5.473   0.303  1.00  0.00     0.164 HD
ATOM     21  C   UNL d   1       4.824   2.541   1.673  0.00  0.00     0.025 A 
ENDBRANCH  14  15
ENDBRANCH  12  14
ENDBRANCH   1  12
TORSDOF 5
