REMARK  3 active torsions:
REMARK  status: ('A' for Active; 'I' for Inactive)
REMARK    1  A    between atoms: C_2  and  C_1 
REMARK       I    between atoms: N_3  and  C_2 
REMARK    2  A    between atoms: C_10  and  N_3 
REMARK    3  A    between atoms: N_9  and  C_4 
ROOT
ATOM      1  C   UNL d   1       1.782   3.287   0.565  0.00  0.00     0.054 A 
ATOM      2  C   UNL d   1       1.901   4.672   0.290  0.00  0.00     0.023 A 
ATOM      3  C   UNL d   1       0.703   2.796   1.306  0.00  0.00     0.042 A 
ATOM      4  C   UNL d   1       0.929   5.541   0.805  0.00  0.00     0.026 A 
ATOM      5  C   UNL d   1      -0.243   3.684   1.811  0.00  0.00     0.035 A 
ATOM      6  C   UNL d   1      -0.128   5.054   1.577  0.00  0.00     0.026 A 
ATOM      7 CL   UNL d   1      -1.575   3.088   2.724  0.00  0.00    -0.084 Cl
ENDROOT
BRANCH   1   8
ATOM      8  C   UNL d   1       2.762   2.309   0.022  0.00  0.00     0.253 C 
ATOM      9  N   UNL d   1       4.080   2.659   0.200  0.00  0.00    -0.352 N 
ATOM     10  H   UNL d   1       4.266   3.377   0.896  0.00  0.00     0.163 HD
ATOM     11  O   UNL d   1       2.357   1.302  -0.539  0.00  0.00    -0.268 OA
BRANCH   9  12
ATOM     12  C   UNL d   1       5.252   2.024  -0.398  0.00  0.00     0.084 C 
ATOM     13  C   UNL d   1       5.316   2.185  -1.926  0.00  0.00     0.025 C 
ATOM     14  C   UNL d   1       4.715   1.031  -2.719  0.00  0.00     0.002 C 
ATOM     15  C   UNL d   1       5.258  -0.308  -2.245  0.00  0.00     0.000 C 
ATOM     16  C   UNL d   1       4.976  -0.524  -0.764  0.00  0.00     0.002 C 
ATOM     17  C   UNL d   1       5.530   0.602   0.105  0.00  0.00     0.025 C 
ENDBRANCH   9  12
ENDBRANCH   1   8
BRANCH   2  18
ATOM     18  N   UNL d   1       2.858   5.203  -0.617  0.00  0.00    -0.296 NA
ATOM     19  C   UNL d   1       2.380   5.066  -2.002  0.00  0.00     0.113 C 
ATOM     20  H   UNL d   1       3.715   4.652  -0.554  0.00  0.00     0.127 HD
ENDBRANCH   2  18
TORSDOF 3
