REMARK  3 active torsions:
REMARK  status: ('A' for Active; 'I' for Inactive)
REMARK    1  A    between atoms: C_11  and  C_5 
REMARK    2  A    between atoms: C_9  and  C_7 
REMARK    3  A    between atoms: O_19  and  C_16 
ROOT
ATOM      1  N   UNL d   1      -0.262   1.175   0.009  0.00  0.00    -0.294 N 
ATOM      2  HN  UNL d   1      -0.776   2.054   0.042  1.00  0.00     0.172 HD
ATOM      3  N   UNL d   1       1.789   0.033  -0.056  0.00  0.00    -0.327 N 
ATOM      4  HN  UNL d   1       2.807   0.077  -0.099  1.00  0.00     0.169 HD
ATOM      5  C   UNL d   1       1.028   1.173  -0.013  0.00  0.00     0.121 A 
ATOM      6  N   UNL d   1      -0.188  -1.150  -0.024  0.00  0.00    -0.294 N 
ATOM      7  C   UNL d   1       1.169  -1.095  -0.038  0.00  0.00     0.121 A 
ATOM      8  C   UNL d   1      -0.925  -0.011  -0.011  0.00  0.00     0.327 A 
ATOM      9  O   UNL d   1      -2.149  -0.094  -0.015  0.00  0.00    -0.247 OA
ATOM     10  H   UNL d   1      -0.715  -2.005  -0.073  0.00  0.00     0.172 HD
ENDROOT
BRANCH   7  11
ATOM     11  C   UNL d   1       1.902  -2.385  -0.035  0.00  0.00     0.008 A 
ATOM     12  C   UNL d   1       3.162  -2.459  -0.643  0.00  0.00     0.018 A 
ATOM     13  C   UNL d   1       3.886  -3.658  -0.624  0.00  0.00     0.037 A 
ATOM     14  C   UNL d   1       3.358  -4.783   0.010  0.00  0.00     0.068 A 
ATOM     15  C   UNL d   1       2.114  -4.699   0.639  0.00  0.00     0.037 A 
ATOM     16  C   UNL d   1       1.382  -3.509   0.614  0.00  0.00     0.018 A 
BRANCH  14  17
ATOM     17  O   UNL d   1       3.981  -5.994   0.126  0.00  0.00    -0.356 OA
ATOM     18  C   UNL d   1       4.893  -6.323  -0.915  0.00  0.00     0.210 C 
ENDBRANCH  14  17
ENDBRANCH   7  11
BRANCH   5  19
ATOM     19  C   UNL d   1       1.778   2.462   0.023  0.00  0.00     0.011 A 
ATOM     20  C   UNL d   1       3.172   2.481  -0.010  0.00  0.00     0.032 A 
ATOM     21  C   UNL d   1       3.807   3.708   0.034  0.00  0.00     0.088 A 
ATOM     22  N   UNL d   1       3.155   4.888   0.107  0.00  0.00    -0.375 N 
ATOM     23  C   UNL d   1       1.806   4.842   0.140  0.00  0.00     0.088 A 
ATOM     24  HN  UNL d   1       3.659   5.775   0.137  1.00  0.00     0.164 HD
ATOM     25  C   UNL d   1       1.077   3.667   0.101  0.00  0.00     0.032 A 
ENDBRANCH   5  19
TORSDOF 3
