REMARK  3 active torsions:
REMARK  status: ('A' for Active; 'I' for Inactive)
REMARK    1  A    between atoms: N_2  and  C_1 
REMARK    2  A    between atoms: C_4  and  N_2 
REMARK    3  A    between atoms: O_8  and  C_7 
ROOT
ATOM      1  C   UNL d   1       1.111  -1.525  -1.853  0.00  0.00     0.036 A 
ATOM      2  C   UNL d   1       2.146  -2.381  -1.459  0.00  0.00     0.066 A 
ATOM      3  C   UNL d   1       2.739  -3.250  -2.377  0.00  0.00     0.070 A 
ATOM      4  C   UNL d   1       1.196  -2.476  -4.077  0.00  0.00     0.005 A 
ATOM      5  C   UNL d   1       0.608  -1.611  -3.155  0.00  0.00     0.029 A 
ATOM      6  C   UNL d   1       2.269  -3.280  -3.691  0.00  0.00     0.037 A 
ENDROOT
BRANCH   1   7
ATOM      7  N   UNL d   1       0.522  -0.579  -0.991  0.00  0.00    -0.333 N 
ATOM      8  H   UNL d   1      -0.403  -0.250  -1.247  0.00  0.00     0.168 HD
BRANCH   7   9
ATOM      9  C   UNL d   1       1.017   0.026   0.118  0.00  0.00     0.169 C 
ATOM     10  S   UNL d   1       0.039   0.951   1.093  0.00  0.00    -0.041 SA
ATOM     11  N   UNL d   1       2.334  -0.075   0.390  0.00  0.00    -0.376 N 
ATOM     12  H   UNL d   1       2.969  -0.188  -0.391  0.00  0.00     0.158 HD
ATOM     13  H   UNL d   1       2.679   0.508   1.145  0.00  0.00     0.158 HD
ENDBRANCH   7   9
ENDBRANCH   1   7
BRANCH   3  14
ATOM     14  O   UNL d   1       3.773  -4.108  -2.116  0.00  0.00    -0.356 OA
ATOM     15  C   UNL d   1       4.285  -4.112  -0.788  0.00  0.00     0.210 C 
ENDBRANCH   3  14
TORSDOF 3
