REMARK  4 active torsions:
REMARK  status: ('A' for Active; 'I' for Inactive)
REMARK    1  A    between atoms: C_9  and  C_1 
REMARK    2  A    between atoms: C_10  and  C_1 
REMARK    3  A    between atoms: C_7  and  C_6 
REMARK    4  A    between atoms: C_11  and  C_8 
ROOT
ATOM      1  C   UNL d   1      -1.202   1.536   0.123  0.00  0.00     0.119 C 
ATOM      2  C   UNL d   1       0.078   0.679   0.148  0.00  0.00     0.002 A 
ATOM      3  N   UNL d   1      -1.266  -1.321  -0.218  0.00  0.00    -0.262 NA
ATOM      4  O   UNL d   1      -2.365   0.741  -0.224  0.00  0.00    -0.347 OA
ATOM      5  C   UNL d   1      -0.019  -0.714  -0.012  0.00  0.00     0.020 A 
ATOM      6  C   UNL d   1      -2.343  -0.550   0.348  0.00  0.00     0.224 C 
ATOM      7  C   UNL d   1       1.357   1.256   0.280  0.00  0.00     0.012 A 
ATOM      8  C   UNL d   1       1.148  -1.482  -0.115  0.00  0.00     0.024 A 
ATOM      9  C   UNL d   1       2.510   0.473   0.243  0.00  0.00     0.001 A 
ATOM     10  C   UNL d   1       2.406  -0.897   0.033  0.00  0.00     0.002 A 
ATOM     11  H   UNL d   1      -1.278  -2.292   0.076  0.00  0.00     0.130 HD
ENDROOT
BRANCH   1  12
ATOM     12  C   UNL d   1      -1.178   2.608  -0.998  0.00  0.00    -0.019 A 
ATOM     13  C   UNL d   1      -0.485   2.374  -2.206  0.00  0.00     0.010 A 
ATOM     14  C   UNL d   1      -0.452   3.324  -3.232  0.00  0.00     0.001 A 
ATOM     15  C   UNL d   1      -1.143   4.521  -3.095  0.00  0.00     0.000 A 
ATOM     16  C   UNL d   1      -1.874   4.762  -1.936  0.00  0.00     0.001 A 
ATOM     17  C   UNL d   1      -1.897   3.815  -0.905  0.00  0.00     0.010 A 
ENDBRANCH   1  12
BRANCH   1  18
ATOM     18  C   UNL d   1      -1.495   2.119   1.550  0.00  0.00     0.044 C 
ATOM     19  C   UNL d   1      -0.473   3.080   2.146  0.00  0.00     0.009 C 
ENDBRANCH   1  18
BRANCH   6  20
ATOM     20  C   UNL d   1      -3.619  -1.256   0.002  0.00  0.00     0.021 C 
ATOM     21  C   UNL d   1      -4.463  -1.783   0.906  0.00  0.00     0.011 C 
BRANCH  21  22
ATOM     22  C   UNL d   1      -5.700  -2.511   0.580  0.00  0.00    -0.036 A 
ATOM     23  C   UNL d   1      -5.811  -3.321  -0.558  0.00  0.00     0.011 A 
ATOM     24  C   UNL d   1      -6.991  -4.024  -0.820  0.00  0.00     0.001 A 
ATOM     25  C   UNL d   1      -8.068  -3.936   0.059  0.00  0.00     0.000 A 
ATOM     26  C   UNL d   1      -7.962  -3.154   1.206  0.00  0.00     0.001 A 
ATOM     27  C   UNL d   1      -6.782  -2.451   1.469  0.00  0.00     0.011 A 
ENDBRANCH  21  22
ENDBRANCH   6  20
TORSDOF 4
