REMARK  4 active torsions:
REMARK  status: ('A' for Active; 'I' for Inactive)
REMARK    1  A    between atoms: C_6  and  C_1 
REMARK    2  A    between atoms: N_21  and  C_4 
REMARK       I    between atoms: N_9  and  C_6 
REMARK    3  A    between atoms: C_11  and  N_9 
REMARK    4  A    between atoms: C_13  and  C_10 
ROOT
ATOM      1  C   UNL d   1      -2.082  -0.085  -0.255  0.00  0.00     0.102 A 
ATOM      2  C   UNL d   1       0.351  -0.528  -0.236  0.00  0.00     0.088 A 
ATOM      3  S   UNL d   1      -1.070  -1.461  -0.396  0.00  0.00    -0.064 SA
ATOM      4  C   UNL d   1      -1.324   1.068  -0.116  0.00  0.00     0.061 A 
ATOM      5  C   UNL d   1       0.084   0.829  -0.096  0.00  0.00     0.026 A 
ATOM      6  N   UNL d   1       1.568  -1.116  -0.246  0.00  0.00    -0.347 N 
ATOM      7  HN  UNL d   1       1.698  -2.122  -0.354  1.00  0.00     0.167 HD
ATOM      8  C   UNL d   1       2.599  -0.250  -0.098  0.00  0.00     0.079 A 
ATOM      9  C   UNL d   1       1.196   1.686   0.043  0.00  0.00     0.019 A 
ATOM     10  C   UNL d   1       2.470   1.127   0.043  0.00  0.00     0.034 A 
ENDROOT
BRANCH   1  11
ATOM     11  C   UNL d   1      -3.544  -0.166  -0.262  0.00  0.00     0.265 C 
ATOM     12  N   UNL d   1      -4.090  -1.440  -0.349  0.00  0.00    -0.322 N 
ATOM     13  H   UNL d   1      -3.426  -2.205  -0.384  0.00  0.00     0.169 HD
ATOM     14  O   UNL d   1      -4.227   0.853  -0.160  0.00  0.00    -0.267 OA
BRANCH  12  15
ATOM     15  C   UNL d   1      -5.464  -1.781  -0.281  0.00  0.00     0.038 A 
ATOM     16  C   UNL d   1      -6.502  -0.843  -0.274  0.00  0.00     0.053 A 
ATOM     17  C   UNL d   1      -7.831  -1.252  -0.142  0.00  0.00     0.037 A 
ATOM     18 CL   UNL d   1      -9.086  -0.073  -0.115  0.00  0.00    -0.084 Cl
ATOM     19  C   UNL d   1      -8.151  -2.598  -0.025  0.00  0.00     0.048 A 
ATOM     20  C   UNL d   1      -7.126  -3.537  -0.058  0.00  0.00     0.037 A 
ATOM     21  C   UNL d   1      -5.792  -3.139  -0.193  0.00  0.00     0.053 A 
ATOM     22 CL   UNL d   1      -7.506  -5.210   0.086  0.00  0.00    -0.084 Cl
ENDBRANCH  12  15
ENDBRANCH   1  11
BRANCH   4  23
ATOM     23  N   UNL d   1      -1.867   2.299   0.008  0.00  0.00    -0.397 N 
ATOM     24  H   UNL d   1      -2.883   2.420   0.050  0.00  0.00     0.156 HD
ATOM     25  H   UNL d   1      -1.339   3.145   0.197  0.00  0.00     0.156 HD
ENDBRANCH   4  23
BRANCH   8  26
ATOM     26  C   UNL d   1       3.977  -0.831  -0.075  0.00  0.00     0.172 C 
ATOM     27  O   UNL d   1       4.958  -0.092   0.026  0.00  0.00    -0.291 OA
ATOM     28  C   UNL d   1       4.151  -2.325  -0.161  0.00  0.00     0.098 C 
ENDBRANCH   8  26
TORSDOF 4
