REMARK  6 active torsions:
REMARK  status: ('A' for Active; 'I' for Inactive)
REMARK    1  A    between atoms: C_3  and  C_1 
REMARK    2  A    between atoms: N_5  and  C_2 
REMARK       I    between atoms: C_4  and  N_5 
REMARK       I    between atoms: N_9  and  C_4 
REMARK    3  A    between atoms: C_13  and  N_9 
REMARK    4  A    between atoms: C_19  and  N_9 
REMARK    5  A    between atoms: C_18  and  C_13 
REMARK    6  A    between atoms: C_17  and  C_19 
ROOT
ATOM      1  N   UNL d   1       2.531   2.705  -0.571  0.00  0.00    -0.197 NA
ATOM      2  C   UNL d   1       2.564   1.632  -0.129  0.00  0.00     0.060 C 
ATOM      3  C   UNL d   1       2.598   0.267   0.409  0.00  0.00     0.144 C 
ENDROOT
BRANCH   3   4
ATOM      4  C   UNL d   1       2.502  -0.755  -0.728  0.00  0.00     0.142 C 
BRANCH   4   5
ATOM      5  N   UNL d   1       2.474  -2.146  -0.241  0.00  0.00    -0.329 N 
ATOM      6  C   UNL d   1       1.336  -2.890   0.083  0.00  0.00     0.323 C 
ATOM      7  N   UNL d   1       0.134  -2.277  -0.166  0.00  0.00    -0.306 N 
ATOM      8  O   UNL d   1       1.417  -4.019   0.558  0.00  0.00    -0.247 OA
ATOM      9  H   UNL d   1       0.118  -1.570  -0.882  0.00  0.00     0.171 HD
BRANCH   7  10
ATOM     10  C   UNL d   1      -1.127  -2.753   0.184  0.00  0.00     0.077 A 
ATOM     11  C   UNL d   1      -1.550  -3.737   1.070  0.00  0.00     0.186 A 
ATOM     12  O   UNL d   1      -2.926  -3.803   1.039  0.00  0.00    -0.308 OA
ATOM     13  C   UNL d   1      -3.378  -2.857   0.182  0.00  0.00     0.052 A 
ATOM     14  C   UNL d   1      -4.843  -2.741   0.042  0.00  0.00     0.077 C 
ATOM     15  C   UNL d   1      -2.314  -2.189  -0.372  0.00  0.00     0.064 A 
BRANCH  11  16
ATOM     16  C   UNL d   1      -0.921  -4.680   2.037  0.00  0.00     0.441 C 
ATOM     17  F   UNL d   1       0.115  -4.135   2.729  0.00  0.00    -0.164 F 
ATOM     18  F   UNL d   1      -1.814  -5.072   2.995  0.00  0.00    -0.164 F 
ATOM     19  F   UNL d   1      -0.488  -5.827   1.452  0.00  0.00    -0.164 F 
ENDBRANCH  11  16
ENDBRANCH   7  10
BRANCH   5  20
ATOM     20  C   UNL d   1       3.776  -2.755   0.053  0.00  0.00     0.166 C 
BRANCH  20  21
ATOM     21  C   UNL d   1       4.404  -3.441  -1.139  0.00  0.00    -0.040 A 
ATOM     22  C   UNL d   1       5.582  -2.945  -1.718  0.00  0.00     0.009 A 
ATOM     23  C   UNL d   1       6.204  -3.633  -2.764  0.00  0.00     0.001 A 
ATOM     24  C   UNL d   1       5.652  -4.817  -3.248  0.00  0.00     0.000 A 
ATOM     25  C   UNL d   1       4.475  -5.312  -2.693  0.00  0.00     0.001 A 
ATOM     26  C   UNL d   1       3.855  -4.628  -1.646  0.00  0.00     0.009 A 
ENDBRANCH  20  21
ENDBRANCH   5  20
ENDBRANCH   4   5
ENDBRANCH   3   4
TORSDOF 6
