REMARK  8 active torsions:
REMARK  status: ('A' for Active; 'I' for Inactive)
REMARK    1  A    between atoms: N_5  and  S_1 
REMARK    2  A    between atoms: C_13  and  S_1 
REMARK    3  A    between atoms: N_3  and  C_2 
REMARK    4  A    between atoms: C_4  and  S_10 
REMARK    5  A    between atoms: C_11  and  N_5 
REMARK    6  A    between atoms: C_12  and  C_6 
REMARK    7  A    between atoms: S_10  and  C_14 
REMARK    8  A    between atoms: O_23  and  C_12 
ROOT
ATOM      1  C   UNL d   1       0.844  -1.712  -1.856  0.00  0.00     0.040 A 
ATOM      2  C   UNL d   1       2.199  -1.641  -2.234  0.00  0.00     0.029 A 
ATOM      3  C   UNL d   1      -0.123  -2.152  -2.771  0.00  0.00     0.026 A 
ATOM      4  C   UNL d   1       2.552  -2.017  -3.539  0.00  0.00     0.021 A 
ATOM      5  C   UNL d   1       0.249  -2.542  -4.057  0.00  0.00     0.002 A 
ATOM      6  C   UNL d   1       1.586  -2.472  -4.441  0.00  0.00     0.001 A 
ENDROOT
BRANCH   2   7
ATOM      7  S   UNL d   1       3.490  -1.047  -1.144  0.00  0.00    -0.068 SA
BRANCH   7   8
ATOM      8  C   UNL d   1       4.165  -2.527  -0.400  0.00  0.00     0.108 A 
ATOM      9  C   UNL d   1       5.288  -2.529   0.426  0.00  0.00     0.137 A 
ATOM     10  C   UNL d   1       5.790  -3.724   0.962  0.00  0.00     0.058 A 
ATOM     11  C   UNL d   1       5.167  -4.926   0.635  0.00  0.00     0.057 A 
ATOM     12  C   UNL d   1       4.053  -4.861  -0.191  0.00  0.00     0.106 A 
ATOM     13  N   UNL d   1       3.545  -3.702  -0.698  0.00  0.00    -0.357 N 
ATOM     14  HN  UNL d   1       2.715  -3.715  -1.290  1.00  0.00     0.166 HD
BRANCH   9  15
ATOM     15  N   UNL d   1       6.026  -1.322   0.717  0.00  0.00    -0.113 N 
ATOM     16  O   UNL d   1       5.429  -0.403   1.287  0.00  0.00    -0.532 OA
ATOM     17  O   UNL d   1       7.235  -1.338   0.444  0.00  0.00    -0.532 OA
ENDBRANCH   9  15
BRANCH  11  18
ATOM     18  C   UNL d   1       5.664  -6.248   1.079  0.00  0.00     0.294 C 
ATOM     19  O   UNL d   1       5.119  -7.302   0.816  0.00  0.00    -0.259 OA
BRANCH  18  20
ATOM     20  O   UNL d   1       6.819  -6.076   1.773  0.00  0.00    -0.322 OA
ATOM     21  C   UNL d   1       7.504  -7.258   2.202  0.00  0.00     0.213 C 
ENDBRANCH  18  20
ENDBRANCH  11  18
ENDBRANCH   7   8
ENDBRANCH   2   7
BRANCH   1  22
ATOM     22  N   UNL d   1       0.395  -1.279  -0.556  0.00  0.00    -0.180 NA
ATOM     23  H   UNL d   1      -0.404  -1.841  -0.261  0.00  0.00     0.146 HD
BRANCH  22  24
ATOM     24  S   UNL d   1      -0.120   0.347  -0.487  0.00  0.00     0.245 S 
ATOM     25  O   UNL d   1      -1.554   0.326  -0.699  0.00  0.00    -0.206 OA
ATOM     26  O   UNL d   1       0.761   1.199  -1.264  0.00  0.00    -0.206 OA
BRANCH  24  27
ATOM     27  C   UNL d   1       0.170   0.670   1.238  0.00  0.00     0.074 A 
ATOM     28  C   UNL d   1       1.416   1.155   1.650  0.00  0.00     0.026 A 
ATOM     29  C   UNL d   1       1.675   1.306   3.014  0.00  0.00     0.025 A 
ATOM     30  C   UNL d   1       0.689   0.984   3.949  0.00  0.00     0.034 A 
ATOM     31  C   UNL d   1      -0.572   0.551   3.532  0.00  0.00     0.025 A 
ATOM     32 CL   UNL d   1       1.034   1.099   5.630  0.00  0.00    -0.084 Cl
ATOM     33  C   UNL d   1      -0.837   0.399   2.170  0.00  0.00     0.026 A 
ENDBRANCH  24  27
ENDBRANCH  22  24
ENDBRANCH   1  22
TORSDOF 8
