REMARK  1 active torsions:
REMARK  status: ('A' for Active; 'I' for Inactive)
REMARK    1  A    between atoms: C_11  and  N_1 
ROOT
ATOM      1  N   UNL d   1      -2.400  -0.082  -0.305  0.00  0.00    -0.252 N 
ATOM      2  C   UNL d   1      -1.603  -1.206  -0.615  0.00  0.00     0.236 C 
ATOM      3  C   UNL d   1      -1.653   0.909   0.362  0.00  0.00     0.236 C 
ATOM      4  C   UNL d   1      -0.418  -1.013   0.261  0.00  0.00     0.100 C 
ATOM      5  C   UNL d   1      -0.237   0.501   0.133  0.00  0.00     0.100 C 
ATOM      6  C   UNL d   1       1.080   0.707   0.893  0.00  0.00     0.022 C 
ATOM      7  C   UNL d   1       1.017  -1.506   0.375  0.00  0.00     0.022 C 
ATOM      8  C   UNL d   1       2.116   0.461  -0.196  0.00  0.00    -0.025 C 
ATOM      9  C   UNL d   1       2.012  -0.836  -0.554  0.00  0.00    -0.025 C 
ATOM     10  C   UNL d   1       1.345  -0.630   1.623  0.00  0.00     0.018 C 
ATOM     11  O   UNL d   1      -1.839  -2.181  -1.303  0.00  0.00    -0.272 OA
ATOM     12  O   UNL d   1      -2.016   1.916   0.944  0.00  0.00    -0.272 OA
ENDROOT
BRANCH   1  13
ATOM     13  C   UNL d   1      -3.799  -0.011  -0.521  0.00  0.00     0.048 A 
ATOM     14  C   UNL d   1      -4.577  -1.171  -0.554  0.00  0.00     0.047 A 
ATOM     15  C   UNL d   1      -5.949  -1.050  -0.710  0.00  0.00     0.090 A 
ATOM     16  N   UNL d   1      -6.584   0.127  -0.870  0.00  0.00    -0.375 N 
ATOM     17  C   UNL d   1      -5.816   1.236  -0.856  0.00  0.00     0.090 A 
ATOM     18  HN  UNL d   1      -7.595   0.178  -0.995  1.00  0.00     0.164 HD
ATOM     19  C   UNL d   1      -4.443   1.220  -0.670  0.00  0.00     0.047 A 
ENDBRANCH   1  13
TORSDOF 1
