REMARK  4 active torsions:
REMARK  status: ('A' for Active; 'I' for Inactive)
REMARK    1  A    between atoms: C_3  and  N_1 
REMARK       I    between atoms: C_4  and  N_1 
REMARK    2  A    between atoms: C_2  and  C_5 
REMARK    3  A    between atoms: C_8  and  C_3 
REMARK    4  A    between atoms: C_9  and  C_4 
ROOT
ATOM      1  C   UNL d   1       0.235  -0.013   1.177  0.00  0.00     0.129 C 
ATOM      2  N   UNL d   1      -1.052  -0.071   1.095  0.00  0.00    -0.384 N 
ATOM      3  HN  UNL d   1      -1.700  -0.090   1.882  1.00  0.00     0.157 HD
ATOM      4  H   UNL d   1      -1.314  -0.095   0.091  0.00  0.00     0.157 HD
ENDROOT
BRANCH   1   5
ATOM      5  N   UNL d   1       1.052   0.016   0.059  0.00  0.00    -0.307 N 
ATOM      6  C   UNL d   1       0.604  -0.029  -1.254  0.00  0.00     0.257 C 
ATOM      7  O   UNL d   1      -0.583  -0.099  -1.560  0.00  0.00    -0.267 OA
ATOM      8  H   UNL d   1       2.043   0.026   0.262  0.00  0.00     0.170 HD
BRANCH   6   9
ATOM      9  C   UNL d   1       1.622  -0.025  -2.340  0.00  0.00     0.032 A 
ATOM     10  C   UNL d   1       1.265  -0.618  -3.563  0.00  0.00     0.018 A 
ATOM     11  C   UNL d   1       2.163  -0.643  -4.633  0.00  0.00     0.025 A 
ATOM     12  C   UNL d   1       3.420  -0.063  -4.487  0.00  0.00     0.034 A 
ATOM     13  C   UNL d   1       3.779   0.548  -3.284  0.00  0.00     0.025 A 
ATOM     14 CL   UNL d   1       4.530  -0.090  -5.800  0.00  0.00    -0.084 Cl
ATOM     15  C   UNL d   1       2.881   0.571  -2.208  0.00  0.00     0.018 A 
ENDBRANCH   6   9
ENDBRANCH   1   5
BRANCH   1  16
ATOM     16  C   UNL d   1       0.927   0.042   2.500  0.00  0.00     0.076 A 
ATOM     17  N   UNL d   1       2.287   0.086   2.481  0.00  0.00    -0.362 N 
ATOM     18  C   UNL d   1       2.893   0.203   3.693  0.00  0.00     0.104 A 
ATOM     19  HN  UNL d   1       2.819   0.034   1.613  1.00  0.00     0.165 HD
ATOM     20  C   UNL d   1       2.218   0.294   4.908  0.00  0.00     0.063 A 
ATOM     21  C   UNL d   1       0.822   0.222   4.881  0.00  0.00     0.020 A 
ATOM     22  C   UNL d   1       0.166   0.090   3.663  0.00  0.00     0.034 A 
BRANCH  20  23
ATOM     23  C   UNL d   1       2.954   0.493   6.200  0.00  0.00     0.418 C 
ATOM     24  F   UNL d   1       4.307   0.536   6.055  0.00  0.00    -0.166 F 
ATOM     25  F   UNL d   1       2.610   1.658   6.816  0.00  0.00    -0.166 F 
ATOM     26  F   UNL d   1       2.705  -0.494   7.103  0.00  0.00    -0.166 F 
ENDBRANCH  20  23
ENDBRANCH   1  16
TORSDOF 4
