REMARK  4 active torsions:
REMARK  status: ('A' for Active; 'I' for Inactive)
REMARK       I    between atoms: C_2  and  N_1 
REMARK       I    between atoms: C_3  and  N_1 
REMARK       I    between atoms: N_4  and  C_2 
REMARK    1  A    between atoms: C_5  and  C_3 
REMARK    2  A    between atoms: C_15  and  N_4 
REMARK    3  A    between atoms: C_6  and  O_9 
REMARK    4  A    between atoms: O_9  and  C_12 
ROOT
ATOM      1  N   UNL d   1       1.089   0.031   0.061  0.00  0.00    -0.275 N 
ATOM      2  C   UNL d   1       0.124   0.215   1.029  0.00  0.00     0.327 C 
ATOM      3  C   UNL d   1       2.246  -0.722   0.122  0.00  0.00     0.259 C 
ATOM      4  N   UNL d   1       0.392  -0.356   2.244  0.00  0.00    -0.309 N 
ATOM      5  O   UNL d   1      -0.869   0.869   0.720  0.00  0.00    -0.247 OA
ATOM      6  O   UNL d   1       2.635  -1.310   1.130  0.00  0.00    -0.267 OA
ATOM      7  H   UNL d   1       0.803   0.431  -0.821  0.00  0.00     0.173 HD
ATOM      8  H   UNL d   1       1.304  -0.803   2.319  0.00  0.00     0.170 HD
ENDROOT
BRANCH   3   9
ATOM      9  C   UNL d   1       3.018  -0.824  -1.144  0.00  0.00     0.032 A 
ATOM     10  C   UNL d   1       3.138   0.250  -2.034  0.00  0.00     0.020 A 
ATOM     11  C   UNL d   1       3.851   0.095  -3.231  0.00  0.00     0.038 A 
ATOM     12  C   UNL d   1       4.448  -1.130  -3.539  0.00  0.00     0.074 A 
ATOM     13  C   UNL d   1       4.330  -2.196  -2.643  0.00  0.00     0.038 A 
ATOM     14  C   UNL d   1       3.633  -2.043  -1.443  0.00  0.00     0.020 A 
BRANCH  12  15
ATOM     15  O   UNL d   1       5.116  -1.424  -4.693  0.00  0.00    -0.290 OA
BRANCH  15  16
ATOM     16  C   UNL d   1       5.758  -0.339  -5.344  0.00  0.00     0.505 C 
ATOM     17  F   UNL d   1       6.518  -0.861  -6.340  0.00  0.00    -0.184 F 
ATOM     18  F   UNL d   1       4.827   0.445  -5.941  0.00  0.00    -0.184 F 
ENDBRANCH  15  16
ENDBRANCH  12  15
ENDBRANCH   3   9
BRANCH   4  19
ATOM     19  C   UNL d   1      -0.402  -0.325   3.406  0.00  0.00     0.036 A 
ATOM     20  C   UNL d   1      -1.713   0.155   3.438  0.00  0.00     0.029 A 
ATOM     21  C   UNL d   1      -2.428   0.189   4.639  0.00  0.00     0.002 A 
ATOM     22  C   UNL d   1      -1.837  -0.255   5.819  0.00  0.00     0.000 A 
ATOM     23  C   UNL d   1      -0.537  -0.755   5.795  0.00  0.00     0.002 A 
ATOM     24  C   UNL d   1       0.173  -0.800   4.592  0.00  0.00     0.029 A 
ENDBRANCH   4  19
TORSDOF 4
