REMARK  5 active torsions:
REMARK  status: ('A' for Active; 'I' for Inactive)
REMARK    1  A    between atoms: N_5  and  C_1 
REMARK    2  A    between atoms: C_2  and  C_8 
REMARK    3  A    between atoms: C_3  and  C_12 
REMARK       I    between atoms: C_4  and  N_5 
REMARK    4  A    between atoms: C_10  and  C_4 
REMARK    5  A    between atoms: N_6  and  C_7 
ROOT
ATOM      1  C   UNL d   1       1.696  -0.106  -0.223  0.00  0.00     0.062 A 
ATOM      2  C   UNL d   1       0.782  -1.198  -0.229  0.00  0.00     0.057 A 
ATOM      3  C   UNL d   1      -0.135   1.496  -0.040  0.00  0.00     0.050 A 
ATOM      4  C   UNL d   1       1.238   1.209  -0.081  0.00  0.00     0.048 A 
ATOM      5  C   UNL d   1      -0.590  -0.890  -0.235  0.00  0.00     0.032 A 
ATOM      6  C   UNL d   1      -1.042   0.436  -0.159  0.00  0.00     0.018 A 
ENDROOT
BRANCH   2   7
ATOM      7  N   UNL d   1       1.229  -2.531  -0.003  0.00  0.00    -0.379 N 
ATOM      8  C   UNL d   1       1.585  -2.724   1.400  0.00  0.00     0.123 C 
ATOM      9  C   UNL d   1       1.940  -4.147   1.813  0.00  0.00     0.033 C 
ATOM     10  C   UNL d   1       1.378  -5.291   0.972  0.00  0.00     0.096 C 
ATOM     11  C   UNL d   1       0.284  -4.835   0.012  0.00  0.00     0.033 C 
ATOM     12  C   UNL d   1       0.626  -3.594  -0.802  0.00  0.00     0.123 C 
BRANCH  10  13
ATOM     13  C   UNL d   1       2.496  -6.061   0.284  0.00  0.00     0.391 C 
ATOM     14  F   UNL d   1       2.006  -7.117  -0.402  0.00  0.00    -0.171 F 
ATOM     15  F   UNL d   1       3.203  -5.307  -0.573  0.00  0.00    -0.171 F 
ATOM     16  F   UNL d   1       3.359  -6.556   1.205  0.00  0.00    -0.171 F 
ENDBRANCH  10  13
ENDBRANCH   2   7
BRANCH   1  17
ATOM     17  N   UNL d   1       3.096  -0.295  -0.295  0.00  0.00    -0.325 N 
ATOM     18  C   UNL d   1       3.685  -1.188  -1.171  0.00  0.00     0.229 C 
ATOM     19  O   UNL d   1       3.123  -1.637  -2.177  0.00  0.00    -0.272 OA
ATOM     20  H   UNL d   1       3.674   0.484  -0.014  0.00  0.00     0.169 HD
BRANCH  18  21
ATOM     21  C   UNL d   1       5.137  -1.589  -0.840  0.00  0.00     0.030 C 
ATOM     22  C   UNL d   1       5.726  -0.913   0.406  0.00  0.00     0.025 C 
ATOM     23  C   UNL d   1       5.115  -3.107  -0.605  0.00  0.00     0.025 C 
ATOM     24  C   UNL d   1       6.031  -1.284  -2.049  0.00  0.00     0.025 C 
ENDBRANCH  18  21
ENDBRANCH   1  17
BRANCH   3  25
ATOM     25  C   UNL d   1      -0.632   2.906   0.143  0.00  0.00     0.417 C 
ATOM     26  F   UNL d   1       0.365   3.822   0.296  0.00  0.00    -0.166 F 
ATOM     27  F   UNL d   1      -1.384   3.342  -0.902  0.00  0.00    -0.166 F 
ATOM     28  F   UNL d   1      -1.420   3.036   1.250  0.00  0.00    -0.166 F 
ENDBRANCH   3  25
TORSDOF 5
