REMARK  5 active torsions:
REMARK  status: ('A' for Active; 'I' for Inactive)
REMARK    1  A    between atoms: N_4  and  C_1 
REMARK    2  A    between atoms: C_5  and  N_8 
REMARK    3  A    between atoms: N_9  and  C_5 
REMARK    4  A    between atoms: N_8  and  N_7 
REMARK    5  A    between atoms: C_21  and  N_9 
ROOT
ATOM      1  N   UNL d   1      -1.066   2.372  -0.385  0.00  0.00    -0.363 N 
ATOM      2  N   UNL d   1      -2.762   4.700  -0.705  0.00  0.00    -0.226 NA
ATOM      3  C   UNL d   1      -1.780   2.880   0.795  0.00  0.00     0.141 C 
ATOM      4  C   UNL d   1      -0.579   3.465  -1.234  0.00  0.00     0.141 C 
ATOM      5  C   UNL d   1      -1.804   4.264  -1.744  0.00  0.00     0.133 C 
ATOM      6  C   UNL d   1      -3.016   3.669   0.320  0.00  0.00     0.133 C 
ENDROOT
BRANCH   2   7
ATOM      7  N   UNL d   1      -2.474   5.968  -0.180  0.00  0.00    -0.295 N 
ATOM      8  H   UNL d   1      -1.678   6.065   0.444  0.00  0.00     0.183 HD
BRANCH   7   9
ATOM      9  C   UNL d   1      -3.425   6.968  -0.163  0.00  0.00     0.187 C 
ATOM     10  S   UNL d   1      -5.070   6.775  -0.438  0.00  0.00    -0.040 SA
BRANCH   9  11
ATOM     11  N   UNL d   1      -3.001   8.235   0.139  0.00  0.00    -0.331 N 
ATOM     12  H   UNL d   1      -3.773   8.868   0.319  0.00  0.00     0.168 HD
BRANCH  11  13
ATOM     13  C   UNL d   1      -1.710   8.794   0.181  0.00  0.00     0.049 A 
ATOM     14  C   UNL d   1      -0.560   8.217  -0.351  0.00  0.00     0.117 A 
ATOM     15  N   UNL d   1       0.687   8.724  -0.211  0.00  0.00    -0.373 N 
ATOM     16  C   UNL d   1       0.792   9.896   0.449  0.00  0.00     0.088 A 
ATOM     17  HN  UNL d   1       1.506   8.245  -0.586  1.00  0.00     0.164 HD
ATOM     18  C   UNL d   1      -0.298  10.596   0.938  0.00  0.00     0.019 A 
ATOM     19  C   UNL d   1      -1.566  10.041   0.789  0.00  0.00     0.032 A 
ENDBRANCH  11  13
ENDBRANCH   9  11
ENDBRANCH   7   9
ENDBRANCH   2   7
BRANCH   1  20
ATOM     20  C   UNL d   1      -0.251   1.264  -0.171  0.00  0.00     0.125 A 
ATOM     21  N   UNL d   1       0.137   1.011   1.106  0.00  0.00    -0.351 N 
ATOM     22  C   UNL d   1       0.740  -0.167   1.383  0.00  0.00     0.096 A 
ATOM     23  HN  UNL d   1      -0.025   1.698   1.843  1.00  0.00     0.166 HD
ATOM     24  C   UNL d   1       0.997  -1.154   0.445  0.00  0.00    -0.045 A 
ATOM     25  C   UNL d   1       0.660  -0.873  -0.875  0.00  0.00     0.035 A 
ATOM     26  C   UNL d   1       1.577  -2.470   0.854  0.00  0.00     0.049 C 
ATOM     27  C   UNL d   1       0.033   0.338  -1.193  0.00  0.00     0.078 A 
ATOM     28 CL   UNL d   1      -0.489   0.536  -2.833  0.00  0.00    -0.080 Cl
ENDBRANCH   1  20
TORSDOF 5
