REMARK  11 active torsions:
REMARK  status: ('A' for Active; 'I' for Inactive)
REMARK    1  A    between atoms: C_2  and  S_1 
REMARK    2  A    between atoms: N_4  and  S_1 
REMARK    3  A    between atoms: C_12  and  N_4 
REMARK    4  A    between atoms: C_22  and  N_4 
REMARK    5  A    between atoms: C_11  and  O_20 
REMARK    6  A    between atoms: C_24  and  C_11 
REMARK    7  A    between atoms: C_19  and  C_12 
REMARK    8  A    between atoms: O_20  and  N_16 
REMARK    9  A    between atoms: C_18  and  C_21 
REMARK   10  A    between atoms: N_33  and  C_18 
REMARK   11  A    between atoms: C_21  and  C_22 
ROOT
ATOM      1  N   UNL d   1       0.933   0.509   8.925  0.00  0.00    -0.300 N 
ENDROOT
BRANCH   1   2
ATOM      2  S   UNL d   1       1.653  -0.460  10.120  0.00  0.00     0.263 S 
ATOM      3  O   UNL d   1       1.075  -1.788  10.033  0.00  0.00    -0.200 OA
ATOM      4  O   UNL d   1       3.089  -0.304  10.012  0.00  0.00    -0.200 OA
BRANCH   2   5
ATOM      5  C   UNL d   1       1.148   0.179  11.673  0.00  0.00     0.109 A 
ATOM      6  C   UNL d   1      -0.205   0.207  12.079  0.00  0.00     0.090 A 
ATOM      7  N   UNL d   1      -1.293  -0.133  11.366  0.00  0.00    -0.309 N 
ATOM      8  C   UNL d   1      -0.557   0.661  13.480  0.00  0.00     0.068 A 
ATOM      9  S   UNL d   1      -2.609   0.088  12.352  0.00  0.00     0.068 SA
ATOM     10  HN  UNL d   1      -1.306  -0.464  10.401  1.00  0.00     0.176 HD
ATOM     11  N   UNL d   1      -1.874   0.635  13.733  0.00  0.00    -0.310 N 
ATOM     12  HN  UNL d   1      -2.333   0.900  14.604  1.00  0.00     0.176 HD
ATOM     13  C   UNL d   1       0.447   1.055  14.398  0.00  0.00     0.032 A 
ATOM     14  C   UNL d   1       1.771   1.000  13.934  0.00  0.00     0.004 A 
ATOM     15  C   UNL d   1       2.111   0.580  12.627  0.00  0.00     0.028 A 
ENDBRANCH   2   5
ENDBRANCH   1   2
BRANCH   1  16
ATOM     16  C   UNL d   1       1.017   1.991   9.074  0.00  0.00     0.200 C 
BRANCH  16  17
ATOM     17  C   UNL d   1       2.401   2.536   9.139  0.00  0.00     0.071 A 
ATOM     18  O   UNL d   1       2.722   3.214  10.283  0.00  0.00    -0.325 OA
ATOM     19  C   UNL d   1       3.999   3.651  10.145  0.00  0.00     0.142 A 
ATOM     20  C   UNL d   1       4.513   3.264   8.931  0.00  0.00     0.027 A 
ATOM     21  C   UNL d   1       3.475   2.561   8.271  0.00  0.00     0.036 A 
ENDBRANCH  16  17
ENDBRANCH   1  16
BRANCH   1  22
ATOM     22  C   UNL d   1       1.153   0.072   7.506  0.00  0.00     0.143 C 
BRANCH  22  23
ATOM     23  C   UNL d   1       0.556  -1.286   7.149  0.00  0.00     0.092 C 
BRANCH  23  24
ATOM     24  C   UNL d   1      -0.947  -1.343   7.370  0.00  0.00     0.077 C 
ATOM     25  N   UNL d   1      -1.670  -0.572   6.623  0.00  0.00    -0.251 N 
ATOM     26  HN  UNL d   1      -1.280   0.068   5.931  1.00  0.00     0.196 HD
BRANCH  25  27
ATOM     27  O   UNL d   1      -3.054  -0.710   6.864  0.00  0.00    -0.194 OA
BRANCH  27  28
ATOM     28  C   UNL d   1      -3.721   0.168   6.051  0.00  0.00     0.315 C 
ATOM     29  O   UNL d   1      -3.223   0.991   5.287  0.00  0.00    -0.257 OA
BRANCH  28  30
ATOM     30  C   UNL d   1      -5.201   0.042   6.186  0.00  0.00     0.041 A 
ATOM     31  C   UNL d   1      -5.992   0.883   5.383  0.00  0.00     0.019 A 
ATOM     32  C   UNL d   1      -7.386   0.837   5.451  0.00  0.00     0.025 A 
ATOM     33  C   UNL d   1      -8.002  -0.052   6.326  0.00  0.00     0.034 A 
ATOM     34  C   UNL d   1      -7.232  -0.898   7.127  0.00  0.00     0.025 A 
ATOM     35 CL   UNL d   1      -9.719  -0.104   6.420  0.00  0.00    -0.084 Cl
ATOM     36  C   UNL d   1      -5.832  -0.855   7.058  0.00  0.00     0.019 A 
ENDBRANCH  28  30
ENDBRANCH  27  28
ENDBRANCH  25  27
BRANCH  24  37
ATOM     37  N   UNL d   1      -1.408  -2.208   8.331  0.00  0.00    -0.291 NA
ATOM     38  H   UNL d   1      -2.326  -1.970   8.682  0.00  0.00     0.125 HD
ATOM     39  H   UNL d   1      -0.741  -2.388   9.086  0.00  0.00     0.125 HD
ENDBRANCH  24  37
ENDBRANCH  23  24
ENDBRANCH  22  23
ENDBRANCH   1  22
TORSDOF 11
