REMARK  8 active torsions:
REMARK  status: ('A' for Active; 'I' for Inactive)
REMARK    1  A    between atoms: S_17  and  C_2 
REMARK    2  A    between atoms: C_21  and  C_3 
REMARK    3  A    between atoms: C_10  and  C_11 
REMARK    4  A    between atoms: C_12  and  S_18 
REMARK       I    between atoms: N_16  and  C_19 
REMARK    5  A    between atoms: C_20  and  N_16 
REMARK    6  A    between atoms: C_27  and  S_17 
REMARK    7  A    between atoms: S_18  and  C_21 
REMARK    8  A    between atoms: C_19  and  C_27 
ROOT
ATOM      1  N   UNL d   1       1.166  -0.104  -0.321  0.00  0.00    -0.319 N 
ATOM      2  C   UNL d   1       0.485   0.981  -0.823  0.00  0.00     0.162 C 
ATOM      3  C   UNL d   1       0.200  -1.044   0.010  0.00  0.00     0.109 C 
ATOM      4  N   UNL d   1      -0.787   0.827  -0.533  0.00  0.00    -0.278 N 
ATOM      5  HN  UNL d   1      -1.520   1.521  -0.681  1.00  0.00     0.189 HD
ATOM      6  N   UNL d   1      -0.966  -0.430   0.008  0.00  0.00    -0.286 N 
ATOM      7  HN  UNL d   1      -1.847  -0.817   0.346  1.00  0.00     0.188 HD
ATOM      8  C   UNL d   1       2.584  -0.225  -0.110  0.00  0.00     0.159 C 
ENDROOT
BRANCH   3   9
ATOM      9  C   UNL d   1       0.464  -2.515   0.167  0.00  0.00     0.157 C 
BRANCH   9  10
ATOM     10  S   UNL d   1      -0.811  -3.754  -0.413  0.00  0.00    -0.121 SA
BRANCH  10  11
ATOM     11  C   UNL d   1      -1.505  -3.238  -2.001  0.00  0.00     0.015 C 
ATOM     12  C   UNL d   1      -1.137  -2.025  -2.541  0.00  0.00     0.053 C 
ATOM     13  C   UNL d   1      -1.938  -1.404  -3.486  0.00  0.00     0.118 C 
ATOM     14  N   UNL d   1      -2.902  -2.065  -4.148  0.00  0.00    -0.352 N 
ATOM     15  C   UNL d   1      -3.131  -3.327  -3.803  0.00  0.00     0.044 A 
ATOM     16  HN  UNL d   1      -3.439  -1.614  -4.889  1.00  0.00     0.166 HD
ATOM     17  C   UNL d   1      -2.511  -3.969  -2.699  0.00  0.00     0.007 A 
ATOM     18  C   UNL d   1      -4.043  -3.993  -4.594  0.00  0.00     0.030 A 
ATOM     19  C   UNL d   1      -2.935  -5.290  -2.406  0.00  0.00     0.015 A 
ATOM     20  C   UNL d   1      -3.867  -5.947  -3.217  0.00  0.00     0.001 A 
ATOM     21  C   UNL d   1      -4.412  -5.304  -4.320  0.00  0.00     0.002 A 
BRANCH  13  22
ATOM     22  C   UNL d   1      -1.760   0.088  -3.667  0.00  0.00     0.432 C 
ATOM     23  F   UNL d   1      -2.036   0.535  -4.916  0.00  0.00    -0.165 F 
ATOM     24  F   UNL d   1      -2.516   0.832  -2.819  0.00  0.00    -0.165 F 
ATOM     25  F   UNL d   1      -0.467   0.416  -3.411  0.00  0.00    -0.165 F 
ENDBRANCH  13  22
ENDBRANCH  10  11
ENDBRANCH   9  10
ENDBRANCH   3   9
BRANCH   2  26
ATOM     26  S   UNL d   1       1.169   2.381  -1.598  0.00  0.00    -0.083 SA
BRANCH  26  27
ATOM     27  C   UNL d   1       2.105   1.793  -3.050  0.00  0.00     0.185 C 
BRANCH  27  28
ATOM     28  C   UNL d   1       1.322   1.734  -4.381  0.00  0.00     0.231 C 
ATOM     29  N   UNL d   1       1.722   0.614  -5.140  0.00  0.00    -0.325 N 
ATOM     30  H   UNL d   1       2.451   0.061  -4.722  0.00  0.00     0.169 HD
ATOM     31  O   UNL d   1       0.462   2.548  -4.672  0.00  0.00    -0.272 OA
BRANCH  29  32
ATOM     32  C   UNL d   1       0.875  -0.146  -6.011  0.00  0.00     0.056 A 
ATOM     33  C   UNL d   1      -0.064   0.328  -6.938  0.00  0.00     0.060 A 
ATOM     34 CL   UNL d   1      -0.118   1.962  -7.491  0.00  0.00    -0.082 Cl
ATOM     35  C   UNL d   1      -0.948  -0.570  -7.561  0.00  0.00     0.026 A 
ATOM     36  C   UNL d   1      -0.889  -1.941  -7.300  0.00  0.00     0.002 A 
ATOM     37  C   UNL d   1       0.101  -2.429  -6.458  0.00  0.00     0.002 A 
ATOM     38  C   UNL d   1       0.982  -1.543  -5.836  0.00  0.00     0.031 A 
ENDBRANCH  29  32
ENDBRANCH  27  28
ENDBRANCH  26  27
ENDBRANCH   2  26
TORSDOF 8
