REMARK  3 active torsions:
REMARK  status: ('A' for Active; 'I' for Inactive)
REMARK    1  A    between atoms: C_2  and  S_1 
REMARK    2  A    between atoms: N_4  and  S_1 
REMARK    3  A    between atoms: C_11  and  N_4 
ROOT
ATOM      1  S   UNL d   1       0.728  -0.022  -0.201  0.00  0.00     0.261 S 
ATOM      2  O   UNL d   1      -0.249  -0.048  -1.265  0.00  0.00    -0.200 OA
ATOM      3  O   UNL d   1       2.059   0.515  -0.421  0.00  0.00    -0.200 OA
ENDROOT
BRANCH   1   4
ATOM      4  C   UNL d   1       0.904  -1.660   0.392  0.00  0.00     0.110 A 
ATOM      5  C   UNL d   1      -0.165  -2.408   0.918  0.00  0.00     0.108 A 
ATOM      6  C   UNL d   1       0.073  -3.661   1.631  0.00  0.00     0.086 A 
ATOM      7  N   UNL d   1      -1.483  -2.166   0.951  0.00  0.00    -0.238 N 
ATOM      8  N   UNL d   1      -1.097  -4.116   2.091  0.00  0.00    -0.239 N 
ATOM      9  C   UNL d   1       1.360  -4.212   1.794  0.00  0.00     0.034 A 
ATOM     10  O   UNL d   1      -2.048  -3.206   1.667  0.00  0.00    -0.156 OA
ATOM     11  HN  UNL d   1      -1.255  -4.960   2.641  1.00  0.00     0.197 HD
ATOM     12  C   UNL d   1       2.398  -3.478   1.193  0.00  0.00     0.004 A 
ATOM     13  C   UNL d   1       2.182  -2.253   0.515  0.00  0.00     0.028 A 
ATOM     14  HN  UNL d   1      -1.971  -1.375   0.531  1.00  0.00     0.197 HD
ENDBRANCH   1   4
BRANCH   1  15
ATOM     15  N   UNL d   1       0.063   0.822   1.075  0.00  0.00    -0.306 N 
ATOM     16  H   UNL d   1      -0.808   1.304   0.848  0.00  0.00     0.173 HD
BRANCH  15  17
ATOM     17  C   UNL d   1       0.865   1.349   2.194  0.00  0.00     0.126 C 
ATOM     18  C   UNL d   1       0.018   2.319   3.007  0.00  0.00    -0.029 A 
ATOM     19  C   UNL d   1      -0.780   1.866   4.079  0.00  0.00    -0.050 A 
ATOM     20  C   UNL d   1      -0.013   3.679   2.659  0.00  0.00     0.010 A 
ATOM     21  C   UNL d   1      -1.627   2.764   4.740  0.00  0.00     0.007 A 
ATOM     22  C   UNL d   1      -0.690   0.458   4.614  0.00  0.00     0.039 C 
ATOM     23  C   UNL d   1      -1.659   4.108   4.375  0.00  0.00     0.001 A 
ATOM     24  C   UNL d   1      -0.837   4.569   3.350  0.00  0.00     0.001 A 
ATOM     25  C   UNL d   1       0.151  -0.483   3.759  0.00  0.00     0.007 C 
ATOM     26  C   UNL d   1       1.343   0.229   3.125  0.00  0.00     0.031 C 
ENDBRANCH  15  17
ENDBRANCH   1  15
TORSDOF 3
