REMARK  4 active torsions:
REMARK  status: ('A' for Active; 'I' for Inactive)
REMARK    1  A    between atoms: C_10  and  C_1 
REMARK       I    between atoms: C_5  and  N_9 
REMARK    2  A    between atoms: C_6  and  C_5 
REMARK    3  A    between atoms: N_9  and  C_17 
REMARK    4  A    between atoms: O_22  and  C_11 
ROOT
ATOM      1  C   UNL d   1      -3.880  -0.704   0.225  0.00  0.00    -0.002 A 
ATOM      2  C   UNL d   1      -4.640   0.059  -0.674  0.00  0.00     0.016 A 
ATOM      3  C   UNL d   1      -4.559  -1.625   1.034  0.00  0.00     0.016 A 
ATOM      4  C   UNL d   1      -6.686  -1.091  -0.013  0.00  0.00     0.035 A 
ATOM      5  C   UNL d   1      -6.028  -0.136  -0.796  0.00  0.00     0.030 A 
ATOM      6  C   UNL d   1      -5.939  -1.818   0.911  0.00  0.00     0.030 A 
ENDROOT
BRANCH   4   7
ATOM      7  N   UNL d   1      -8.066  -1.309  -0.237  0.00  0.00    -0.323 N 
ATOM      8  C   UNL d   1      -8.876  -2.180   0.472  0.00  0.00     0.259 C 
ATOM      9  O   UNL d   1      -8.592  -2.727   1.537  0.00  0.00    -0.267 OA
ATOM     10  H   UNL d   1      -8.490  -0.760  -0.972  0.00  0.00     0.169 HD
BRANCH   8  11
ATOM     11  C   UNL d   1     -10.229  -2.465  -0.083  0.00  0.00     0.065 A 
ATOM     12  C   UNL d   1     -11.239  -2.936   0.776  0.00  0.00     0.081 A 
ATOM     13  C   UNL d   1     -12.493  -3.284   0.284  0.00  0.00     0.037 A 
ATOM     14  C   UNL d   1     -12.752  -3.188  -1.082  0.00  0.00     0.003 A 
ATOM     15  C   UNL d   1     -11.760  -2.732  -1.950  0.00  0.00     0.001 A 
ATOM     16  C   UNL d   1     -10.501  -2.372  -1.457  0.00  0.00     0.020 A 
BRANCH  12  17
ATOM     17  O   UNL d   1     -11.059  -3.100   2.125  0.00  0.00    -0.360 OA
ATOM     18  H   UNL d   1     -10.094  -3.031   2.306  0.00  0.00     0.217 HD
ENDBRANCH  12  17
ENDBRANCH   8  11
ENDBRANCH   4   7
BRANCH   1  19
ATOM     19  C   UNL d   1      -2.417  -0.531   0.302  0.00  0.00     0.085 A 
ATOM     20  N   UNL d   1      -1.772   0.576  -0.006  0.00  0.00    -0.349 N 
ATOM     21  C   UNL d   1      -0.409   0.412   0.207  0.00  0.00     0.050 A 
ATOM     22  HN  UNL d   1      -2.210   1.431  -0.350  1.00  0.00     0.166 HD
ATOM     23  C   UNL d   1       0.586   1.394   0.032  0.00  0.00     0.031 A 
ATOM     24  C   UNL d   1      -0.021  -0.854   0.638  0.00  0.00     0.034 A 
ATOM     25  C   UNL d   1       1.927   1.085   0.301  0.00  0.00     0.009 A 
ATOM     26  C   UNL d   1       2.297  -0.189   0.739  0.00  0.00    -0.061 A 
ATOM     27  C   UNL d   1       1.320  -1.181   0.905  0.00  0.00     0.028 A 
ATOM     28  C   UNL d   1       3.740  -0.495   1.024  0.00  0.00     0.048 C 
ATOM     29  S   UNL d   1      -1.409  -1.851   0.767  0.00  0.00    -0.070 SA
ENDBRANCH   1  19
TORSDOF 4
