REMARK  6 active torsions:
REMARK  status: ('A' for Active; 'I' for Inactive)
REMARK    1  A    between atoms: N_2  and  C_1 
REMARK    2  A    between atoms: N_3  and  C_1 
REMARK    3  A    between atoms: C_11  and  N_2 
REMARK    4  A    between atoms: C_15  and  N_2 
REMARK    5  A    between atoms: C_8  and  N_3 
REMARK    6  A    between atoms: C_13  and  C_15 
ROOT
ATOM      1  N   UNL d   1       2.108   5.611  -0.558  0.00  0.00    -0.197 NA
ATOM      2  C   UNL d   1       1.414   4.732  -0.246  0.00  0.00     0.060 C 
ATOM      3  C   UNL d   1       0.516   3.621   0.130  0.00  0.00     0.143 C 
ENDROOT
BRANCH   3   4
ATOM      4  C   UNL d   1       0.728   2.431  -0.813  0.00  0.00     0.139 C 
BRANCH   4   5
ATOM      5  N   UNL d   1      -0.117   1.241  -0.541  0.00  0.00    -0.352 N 
BRANCH   5   6
ATOM      6  C   UNL d   1       0.435   0.145   0.152  0.00  0.00     0.174 C 
ATOM      7  S   UNL d   1       1.438   0.369   1.489  0.00  0.00    -0.041 SA
BRANCH   6   8
ATOM      8  N   UNL d   1       0.152  -1.064  -0.471  0.00  0.00    -0.333 N 
ATOM      9  H   UNL d   1       0.139  -0.982  -1.481  0.00  0.00     0.168 HD
BRANCH   8  10
ATOM     10  C   UNL d   1       0.443  -2.362   0.030  0.00  0.00     0.034 A 
ATOM     11  C   UNL d   1       0.270  -2.682   1.375  0.00  0.00     0.036 A 
ATOM     12  C   UNL d   1       0.706  -3.908   1.902  0.00  0.00    -0.054 A 
ATOM     13  C   UNL d   1       0.654  -4.100   3.393  0.00  0.00     0.049 C 
ATOM     14  C   UNL d   1       1.275  -4.860   1.040  0.00  0.00    -0.056 A 
ATOM     15  C   UNL d   1       1.348  -4.577  -0.334  0.00  0.00     0.009 A 
ATOM     16  C   UNL d   1       1.882  -6.131   1.570  0.00  0.00     0.049 C 
ATOM     17  C   UNL d   1       0.926  -3.340  -0.841  0.00  0.00     0.030 A 
ENDBRANCH   8  10
ENDBRANCH   6   8
ENDBRANCH   5   6
BRANCH   5  18
ATOM     18  C   UNL d   1      -1.574   1.370  -0.824  0.00  0.00     0.086 C 
ATOM     19  C   UNL d   1      -2.493   0.988   0.349  0.00  0.00     0.025 C 
ATOM     20  C   UNL d   1      -3.019  -0.441   0.314  0.00  0.00     0.002 C 
ATOM     21  C   UNL d   1      -3.643  -0.784  -1.029  0.00  0.00     0.000 C 
ATOM     22  C   UNL d   1      -2.696  -0.541  -2.196  0.00  0.00     0.002 C 
ATOM     23  C   UNL d   1      -2.026   0.830  -2.187  0.00  0.00     0.025 C 
ENDBRANCH   5  18
ENDBRANCH   4   5
ENDBRANCH   3   4
TORSDOF 6
