REMARK  7 active torsions:
REMARK  status: ('A' for Active; 'I' for Inactive)
REMARK    1  A    between atoms: N_2  and  C_1 
REMARK    2  A    between atoms: S_9  and  C_3 
REMARK    3  A    between atoms: C_11  and  C_4 
REMARK       I    between atoms: C_6  and  N_10 
REMARK    4  A    between atoms: C_16  and  C_6 
REMARK    5  A    between atoms: C_13  and  S_9 
REMARK    6  A    between atoms: N_10  and  C_12 
REMARK    7  A    between atoms: O_22  and  C_11 
ROOT
ATOM      1  C   UNL d   1       0.206   3.986  -0.690  0.00  0.00     0.052 A 
ATOM      2  C   UNL d   1      -0.374   3.911   0.595  0.00  0.00     0.034 A 
ATOM      3  C   UNL d   1       0.866   5.178  -1.062  0.00  0.00     0.031 A 
ATOM      4  C   UNL d   1      -0.397   5.077   1.390  0.00  0.00     0.021 A 
ATOM      5  C   UNL d   1       0.869   6.304  -0.239  0.00  0.00     0.002 A 
ATOM      6  C   UNL d   1       0.197   6.267   0.971  0.00  0.00     0.002 A 
ENDROOT
BRANCH   2   7
ATOM      7  S   UNL d   1      -0.719   2.367   1.448  0.00  0.00    -0.068 SA
BRANCH   7   8
ATOM      8  C   UNL d   1      -2.443   2.475   1.896  0.00  0.00     0.108 A 
ATOM      9  C   UNL d   1      -3.366   1.461   1.668  0.00  0.00     0.137 A 
ATOM     10  C   UNL d   1      -4.698   1.594   2.092  0.00  0.00     0.058 A 
ATOM     11  C   UNL d   1      -5.079   2.745   2.782  0.00  0.00     0.057 A 
ATOM     12  C   UNL d   1      -4.108   3.710   2.998  0.00  0.00     0.106 A 
ATOM     13  N   UNL d   1      -2.820   3.597   2.575  0.00  0.00    -0.357 N 
ATOM     14  HN  UNL d   1      -2.146   4.340   2.762  1.00  0.00     0.166 HD
BRANCH   9  15
ATOM     15  N   UNL d   1      -2.983   0.193   1.094  0.00  0.00    -0.113 N 
ATOM     16  O   UNL d   1      -2.139  -0.475   1.707  0.00  0.00    -0.532 OA
ATOM     17  O   UNL d   1      -3.645  -0.206   0.123  0.00  0.00    -0.532 OA
ENDBRANCH   9  15
BRANCH  11  18
ATOM     18  C   UNL d   1      -6.433   2.950   3.331  0.00  0.00     0.294 C 
ATOM     19  O   UNL d   1      -6.798   3.975   3.893  0.00  0.00    -0.259 OA
BRANCH  18  20
ATOM     20  O   UNL d   1      -7.168   1.826   3.154  0.00  0.00    -0.322 OA
ATOM     21  C   UNL d   1      -8.473   1.854   3.728  0.00  0.00     0.213 C 
ENDBRANCH  18  20
ENDBRANCH  11  18
ENDBRANCH   7   8
ENDBRANCH   2   7
BRANCH   1  22
ATOM     22  N   UNL d   1       0.222   2.984  -1.701  0.00  0.00    -0.322 N 
ATOM     23  C   UNL d   1      -0.717   1.994  -1.929  0.00  0.00     0.256 C 
ATOM     24  O   UNL d   1      -1.708   1.752  -1.247  0.00  0.00    -0.267 OA
ATOM     25  H   UNL d   1       0.783   3.225  -2.507  0.00  0.00     0.169 HD
BRANCH  23  26
ATOM     26  C   UNL d   1      -0.576   1.302  -3.253  0.00  0.00     0.032 A 
ATOM     27  C   UNL d   1       0.661   1.149  -3.899  0.00  0.00     0.018 A 
ATOM     28  C   UNL d   1       0.708   0.714  -5.229  0.00  0.00     0.025 A 
ATOM     29  C   UNL d   1      -0.475   0.411  -5.904  0.00  0.00     0.034 A 
ATOM     30  C   UNL d   1      -1.699   0.470  -5.242  0.00  0.00     0.025 A 
ATOM     31 CL   UNL d   1      -0.425  -0.001  -7.574  0.00  0.00    -0.084 Cl
ATOM     32  C   UNL d   1      -1.748   0.904  -3.914  0.00  0.00     0.018 A 
ENDBRANCH  23  26
ENDBRANCH   1  22
TORSDOF 7
