REMARK  7 active torsions:
REMARK  status: ('A' for Active; 'I' for Inactive)
REMARK    1  A    between atoms: C_3  and  C_1 
REMARK    2  A    between atoms: C_7  and  C_2 
REMARK       I    between atoms: N_12  and  C_7 
REMARK    3  A    between atoms: C_27  and  N_12 
REMARK    4  A    between atoms: O_21  and  C_15 
REMARK    5  A    between atoms: C_16  and  O_22 
REMARK    6  A    between atoms: O_22  and  C_28 
REMARK    7  A    between atoms: C_28  and  C_27 
ROOT
ATOM      1  C   UNL d   1      -0.997  -0.901  -0.770  0.00  0.00     0.131 A 
ATOM      2  C   UNL d   1       0.096  -1.368  -0.052  0.00  0.00     0.092 A 
ATOM      3  O   UNL d   1      -0.987   0.462  -0.741  0.00  0.00    -0.236 OA
ATOM      4  N   UNL d   1       0.066   0.915   0.015  0.00  0.00    -0.264 N 
ATOM      5  HN  UNL d   1       0.306   1.886   0.215  1.00  0.00     0.194 HD
ATOM      6  C   UNL d   1       0.715  -0.177   0.434  0.00  0.00     0.047 A 
ATOM      7  C   UNL d   1       1.892   0.020   1.313  0.00  0.00     0.071 C 
ENDROOT
BRANCH   2   8
ATOM      8  C   UNL d   1       0.448  -2.763   0.138  0.00  0.00     0.256 C 
ATOM      9  O   UNL d   1      -0.403  -3.646   0.243  0.00  0.00    -0.267 OA
ATOM     10  N   UNL d   1       1.801  -3.031   0.137  0.00  0.00    -0.355 N 
ATOM     11  H   UNL d   1       2.416  -2.300  -0.194  0.00  0.00     0.162 HD
BRANCH  10  12
ATOM     12  C   UNL d   1       2.283  -4.404   0.083  0.00  0.00     0.149 C 
BRANCH  12  13
ATOM     13  C   UNL d   1       3.810  -4.487   0.118  0.00  0.00     0.195 C 
BRANCH  13  14
ATOM     14  O   UNL d   1       4.217  -5.857   0.129  0.00  0.00    -0.350 OA
BRANCH  14  15
ATOM     15  C   UNL d   1       5.563  -6.067   0.274  0.00  0.00     0.069 A 
ATOM     16  C   UNL d   1       5.927  -7.283   0.850  0.00  0.00     0.039 A 
ATOM     17  C   UNL d   1       7.276  -7.597   1.045  0.00  0.00     0.039 A 
ATOM     18  C   UNL d   1       8.278  -6.708   0.650  0.00  0.00     0.068 A 
ATOM     19  C   UNL d   1       7.914  -5.503   0.051  0.00  0.00     0.039 A 
ATOM     20  C   UNL d   1       6.562  -5.186  -0.140  0.00  0.00     0.039 A 
BRANCH  18  21
ATOM     21  O   UNL d   1       9.555  -7.129   0.894  0.00  0.00    -0.356 OA
ATOM     22  C   UNL d   1      10.605  -6.244   0.521  0.00  0.00     0.210 C 
ENDBRANCH  18  21
ENDBRANCH  14  15
ENDBRANCH  13  14
ENDBRANCH  12  13
ENDBRANCH  10  12
ENDBRANCH   2   8
BRANCH   1  23
ATOM     23  C   UNL d   1      -2.057  -1.485  -1.592  0.00  0.00     0.061 A 
ATOM     24  C   UNL d   1      -3.384  -1.011  -1.603  0.00  0.00     0.050 A 
ATOM     25 CL   UNL d   1      -3.942   0.269  -0.575  0.00  0.00    -0.083 Cl
ATOM     26  C   UNL d   1      -4.348  -1.580  -2.452  0.00  0.00     0.025 A 
ATOM     27  C   UNL d   1      -4.018  -2.646  -3.285  0.00  0.00     0.005 A 
ATOM     28  C   UNL d   1      -2.717  -3.135  -3.282  0.00  0.00     0.043 A 
ATOM     29  C   UNL d   1      -1.755  -2.547  -2.458  0.00  0.00     0.131 A 
ATOM     30  F   UNL d   1      -0.498  -3.009  -2.554  0.00  0.00    -0.205 F 
ENDBRANCH   1  23
TORSDOF 7
