REMARK  1 active torsions:
REMARK  status: ('A' for Active; 'I' for Inactive)
REMARK    1  A    between atoms: N_7  and  C_1 
REMARK       I    between atoms: C_8  and  N_7 
ROOT
ATOM      1  C   UNL d   1       0.222  -1.827   0.056  0.00  0.00     0.082 A 
ATOM      2  C   UNL d   1       1.349  -0.980   0.067  0.00  0.00     0.086 A 
ATOM      3  C   UNL d   1      -1.069  -1.256  -0.009  0.00  0.00     0.086 A 
ATOM      4  C   UNL d   1       1.200   0.417   0.059  0.00  0.00     0.081 A 
ATOM      5  C   UNL d   1      -1.222   0.145  -0.008  0.00  0.00     0.081 A 
ATOM      6  C   UNL d   1      -0.087   0.981   0.026  0.00  0.00     0.081 A 
ATOM      7 CL   UNL d   1       2.934  -1.709   0.124  0.00  0.00    -0.080 Cl
ATOM      8 CL   UNL d   1      -2.464  -2.266  -0.291  0.00  0.00    -0.080 Cl
ATOM      9 CL   UNL d   1       2.609   1.440   0.080  0.00  0.00    -0.081 Cl
ATOM     10 CL   UNL d   1      -2.815   0.852  -0.088  0.00  0.00    -0.081 Cl
ATOM     11 CL   UNL d   1      -0.276   2.713  -0.018  0.00  0.00    -0.081 Cl
ENDROOT
BRANCH   1  12
ATOM     12  N   UNL d   1       0.451  -3.233   0.033  0.00  0.00    -0.325 N 
ATOM     13  C   UNL d   1      -0.180  -4.106   0.902  0.00  0.00     0.218 C 
ATOM     14  O   UNL d   1      -0.896  -3.772   1.837  0.00  0.00    -0.274 OA
ATOM     15  C   UNL d   1       0.120  -5.555   0.606  0.00  0.00     0.117 C 
ATOM     16  H   UNL d   1       1.388  -3.520  -0.232  0.00  0.00     0.169 HD
ENDBRANCH   1  12
TORSDOF 1
