REMARK  12 active torsions:
REMARK  status: ('A' for Active; 'I' for Inactive)
REMARK    1  A    between atoms: C_7  and  N_1 
REMARK    2  A    between atoms: N_3  and  C_8 
REMARK    3  A    between atoms: C_9  and  C_5 
REMARK    4  A    between atoms: C_10  and  C_6 
REMARK    5  A    between atoms: O_34  and  C_11 
REMARK    6  A    between atoms: O_35  and  C_12 
REMARK    7  A    between atoms: C_13  and  O_33 
REMARK    8  A    between atoms: O_32  and  C_14 
REMARK    9  A    between atoms: C_31  and  C_36 
REMARK   10  A    between atoms: C_37  and  C_31 
REMARK   11  A    between atoms: C_36  and  O_32 
REMARK   12  A    between atoms: O_33  and  C_37 
ROOT
ATOM      1  C   UNL d   1       8.834   0.903   0.045  0.00  0.00     0.053 C 
ENDROOT
BRANCH   1   2
ATOM      2  C   UNL d   1       7.335   1.191   0.116  0.00  0.00     0.178 C 
BRANCH   2   3
ATOM      3  O   UNL d   1       6.624  -0.050   0.103  0.00  0.00    -0.351 OA
BRANCH   3   4
ATOM      4  C   UNL d   1       5.259   0.058   0.146  0.00  0.00     0.068 A 
ATOM      5  C   UNL d   1       4.549  -0.998  -0.424  0.00  0.00     0.039 A 
ATOM      6  C   UNL d   1       3.148  -1.003  -0.406  0.00  0.00     0.032 A 
ATOM      7  C   UNL d   1       2.433   0.035   0.196  0.00  0.00     0.032 A 
ATOM      8  C   UNL d   1       3.156   1.075   0.792  0.00  0.00     0.032 A 
ATOM      9  C   UNL d   1       4.556   1.094   0.758  0.00  0.00     0.039 A 
BRANCH   7  10
ATOM     10  N   UNL d   1       1.031  -0.070   0.260  0.00  0.00    -0.365 N 
ATOM     11  C   UNL d   1       0.306   0.999   0.192  0.00  0.00     0.099 C 
ATOM     12  HN  UNL d   1       0.590  -0.985   0.359  1.00  0.00     0.165 HD
BRANCH  11  13
ATOM     13  C   UNL d   1      -1.166   0.955   0.320  0.00  0.00    -0.021 A 
ATOM     14  C   UNL d   1      -1.851  -0.262   0.365  0.00  0.00     0.015 A 
ATOM     15  C   UNL d   1      -3.244  -0.276   0.503  0.00  0.00     0.037 A 
ATOM     16  C   UNL d   1      -3.950   0.924   0.600  0.00  0.00     0.068 A 
ATOM     17  C   UNL d   1      -3.255   2.137   0.576  0.00  0.00     0.037 A 
ATOM     18  C   UNL d   1      -1.867   2.158   0.424  0.00  0.00     0.015 A 
BRANCH  16  19
ATOM     19  O   UNL d   1      -5.304   1.038   0.763  0.00  0.00    -0.356 OA
ATOM     20  C   UNL d   1      -6.081  -0.040   0.257  0.00  0.00     0.210 C 
ENDBRANCH  16  19
ENDBRANCH  11  13
ENDBRANCH   7  10
ENDBRANCH   3   4
ENDBRANCH   2   3
ENDBRANCH   1   2
BRANCH   1  21
ATOM     21  C   UNL d   1       9.636   2.201   0.064  0.00  0.00     0.178 C 
BRANCH  21  22
ATOM     22  O   UNL d   1       9.360   2.920  -1.139  0.00  0.00    -0.351 OA
BRANCH  22  23
ATOM     23  C   UNL d   1       9.954   4.141  -1.278  0.00  0.00     0.068 A 
ATOM     24  C   UNL d   1      10.076   4.596  -2.592  0.00  0.00     0.039 A 
ATOM     25  C   UNL d   1      10.636   5.850  -2.859  0.00  0.00     0.032 A 
ATOM     26  C   UNL d   1      11.070   6.678  -1.821  0.00  0.00     0.032 A 
ATOM     27  C   UNL d   1      10.915   6.226  -0.505  0.00  0.00     0.032 A 
ATOM     28  C   UNL d   1      10.375   4.962  -0.233  0.00  0.00     0.039 A 
BRANCH  26  29
ATOM     29  N   UNL d   1      11.550   7.956  -2.149  0.00  0.00    -0.365 N 
ATOM     30  C   UNL d   1      12.498   8.486  -1.448  0.00  0.00     0.099 C 
ATOM     31  HN  UNL d   1      11.151   8.465  -2.938  1.00  0.00     0.165 HD
BRANCH  30  32
ATOM     32  C   UNL d   1      12.997   9.847  -1.725  0.00  0.00    -0.021 A 
ATOM     33  C   UNL d   1      12.555  10.557  -2.844  0.00  0.00     0.015 A 
ATOM     34  C   UNL d   1      13.026  11.851  -3.084  0.00  0.00     0.037 A 
ATOM     35  C   UNL d   1      13.935  12.441  -2.204  0.00  0.00     0.068 A 
ATOM     36  C   UNL d   1      14.369  11.725  -1.084  0.00  0.00     0.037 A 
ATOM     37  C   UNL d   1      13.906  10.429  -0.841  0.00  0.00     0.015 A 
BRANCH  35  38
ATOM     38  O   UNL d   1      14.473  13.693  -2.323  0.00  0.00    -0.356 OA
ATOM     39  C   UNL d   1      14.050  14.471  -3.436  0.00  0.00     0.210 C 
ENDBRANCH  35  38
ENDBRANCH  30  32
ENDBRANCH  26  29
ENDBRANCH  22  23
ENDBRANCH  21  22
ENDBRANCH   1  21
TORSDOF 12
