REMARK  2 active torsions:
REMARK  status: ('A' for Active; 'I' for Inactive)
REMARK       I    between atoms: N_2  and  C_1 
REMARK       I    between atoms: N_11  and  C_1 
REMARK    1  A    between atoms: C_3  and  N_2 
REMARK    2  A    between atoms: C_7  and  C_4 
ROOT
ATOM      1  C   UNL d   1       0.968  -2.159  -1.294  0.00  0.00     0.053 A 
ATOM      2  C   UNL d   1       2.386  -3.853  -3.092  0.00  0.00    -0.049 A 
ATOM      3  C   UNL d   1       2.074  -2.898  -0.861  0.00  0.00     0.038 A 
ATOM      4  C   UNL d   1       2.751  -3.752  -1.737  0.00  0.00     0.029 A 
ATOM      5  C   UNL d   1       0.568  -2.276  -2.626  0.00  0.00     0.031 A 
ATOM      6  C   UNL d   1       1.274  -3.105  -3.515  0.00  0.00     0.010 A 
ATOM      7 BR   UNL d   1       2.665  -2.833   0.947  0.00  0.00    -0.049 Br
ENDROOT
BRANCH   1   8
ATOM      8  N   UNL d   1       0.354  -1.265  -0.399  0.00  0.00    -0.308 N 
ATOM      9  C   UNL d   1      -0.941  -0.874  -0.254  0.00  0.00     0.320 C 
ATOM     10  O   UNL d   1      -1.216   0.035   0.529  0.00  0.00    -0.247 OA
ATOM     11  N   UNL d   1      -1.885  -1.623  -0.894  0.00  0.00    -0.347 N 
ATOM     12  C   UNL d   1      -3.263  -1.535  -0.480  0.00  0.00     0.151 C 
ATOM     13  H   UNL d   1      -1.570  -2.538  -1.184  0.00  0.00     0.163 HD
ATOM     14  H   UNL d   1       0.929  -0.931   0.367  0.00  0.00     0.170 HD
ENDBRANCH   1   8
BRANCH   2  15
ATOM     15  C   UNL d   1       3.227  -4.728  -4.042  0.00  0.00    -0.024 C 
ATOM     16  C   UNL d   1       2.775  -4.668  -5.517  0.00  0.00     0.019 C 
ATOM     17  C   UNL d   1       4.700  -4.258  -4.002  0.00  0.00     0.019 C 
ATOM     18  C   UNL d   1       3.155  -6.204  -3.597  0.00  0.00     0.019 C 
ENDBRANCH   2  15
TORSDOF 2
