REMARK  7 active torsions:
REMARK  status: ('A' for Active; 'I' for Inactive)
REMARK    1  A    between atoms: N_2  and  C_1 
REMARK    2  A    between atoms: C_5  and  C_3 
REMARK       I    between atoms: N_10  and  C_5 
REMARK    3  A    between atoms: O_18  and  C_6 
REMARK    4  A    between atoms: C_7  and  N_11 
REMARK    5  A    between atoms: N_14  and  C_7 
REMARK    6  A    between atoms: N_11  and  N_10 
REMARK    7  A    between atoms: C_19  and  N_14 
ROOT
ATOM      1  C   UNL d   1       1.230  -2.347  -0.153  0.00  0.00     0.271 C 
ATOM      2  N   UNL d   1       0.647  -3.509  -0.614  0.00  0.00    -0.264 N 
ATOM      3  O   UNL d   1       0.666  -1.574   0.617  0.00  0.00    -0.266 OA
ATOM      4  H   UNL d   1       1.039  -4.122  -1.325  0.00  0.00     0.190 HD
ENDROOT
BRANCH   1   5
ATOM      5  C   UNL d   1       2.602  -2.062  -0.617  0.00  0.00     0.051 A 
ATOM      6  C   UNL d   1       3.043  -0.747  -0.716  0.00  0.00     0.059 A 
ATOM      7  C   UNL d   1       4.367  -0.501  -1.119  0.00  0.00     0.154 A 
ATOM      8  C   UNL d   1       5.232  -1.548  -1.399  0.00  0.00     0.175 A 
ATOM      9  N   UNL d   1       4.792  -2.830  -1.288  0.00  0.00    -0.344 N 
ATOM     10  C   UNL d   1       3.511  -3.064  -0.900  0.00  0.00     0.107 A 
ATOM     11  HN  UNL d   1       5.417  -3.608  -1.495  1.00  0.00     0.167 HD
BRANCH   7  12
ATOM     12  N   UNL d   1       4.742   0.876  -1.258  0.00  0.00    -0.111 N 
ATOM     13  O   UNL d   1       4.853   1.536  -0.220  0.00  0.00    -0.532 OA
ATOM     14  O   UNL d   1       4.887   1.307  -2.409  0.00  0.00    -0.532 OA
ENDBRANCH   7  12
BRANCH   8  15
ATOM     15  O   UNL d   1       6.523  -1.545  -1.807  0.00  0.00    -0.339 OA
ATOM     16  C   UNL d   1       7.353  -0.406  -1.660  0.00  0.00     0.211 C 
ENDBRANCH   8  15
ENDBRANCH   1   5
BRANCH   2  17
ATOM     17  N   UNL d   1      -0.555  -3.929  -0.027  0.00  0.00    -0.273 N 
ATOM     18  H   UNL d   1      -0.928  -3.284   0.671  0.00  0.00     0.189 HD
BRANCH  17  19
ATOM     19  C   UNL d   1      -1.474  -4.654  -0.732  0.00  0.00     0.191 C 
ATOM     20  S   UNL d   1      -1.448  -4.843  -2.398  0.00  0.00    -0.039 SA
BRANCH  19  21
ATOM     21  N   UNL d   1      -2.445  -5.322  -0.040  0.00  0.00    -0.332 N 
ATOM     22  H   UNL d   1      -3.098  -5.779  -0.668  0.00  0.00     0.168 HD
BRANCH  21  23
ATOM     23  C   UNL d   1      -2.534  -5.731   1.312  0.00  0.00     0.034 A 
ATOM     24  C   UNL d   1      -1.679  -5.335   2.343  0.00  0.00     0.029 A 
ATOM     25  C   UNL d   1      -1.815  -5.870   3.630  0.00  0.00     0.002 A 
ATOM     26  C   UNL d   1      -2.795  -6.820   3.898  0.00  0.00     0.000 A 
ATOM     27  C   UNL d   1      -3.656  -7.222   2.884  0.00  0.00     0.002 A 
ATOM     28  C   UNL d   1      -3.533  -6.672   1.605  0.00  0.00     0.029 A 
ENDBRANCH  21  23
ENDBRANCH  19  21
ENDBRANCH  17  19
ENDBRANCH   2  17
TORSDOF 7
