REMARK  3 active torsions:
REMARK  status: ('A' for Active; 'I' for Inactive)
REMARK    1  A    between atoms: C_4  and  C_17 
REMARK    2  A    between atoms: C_17  and  N_5 
REMARK    3  A    between atoms: C_15  and  C_16 
ROOT
ATOM      1  C   UNL d   1      -0.150  -0.711   0.007  0.00  0.00     0.105 A 
ATOM      2  C   UNL d   1      -0.177   0.666   0.021  0.00  0.00     0.105 A 
ATOM      3  O   UNL d   1      -1.400  -1.249   0.026  0.00  0.00    -0.323 OA
ATOM      4  O   UNL d   1      -1.442   1.163   0.050  0.00  0.00    -0.323 OA
ATOM      5  C   UNL d   1      -2.212  -0.056   0.080  0.00  0.00     0.352 A 
ATOM      6  C   UNL d   1       1.034  -1.420  -0.018  0.00  0.00     0.052 A 
ATOM      7  C   UNL d   1       0.977   1.418   0.010  0.00  0.00     0.040 A 
ATOM      8  C   UNL d   1       2.221  -0.678  -0.028  0.00  0.00    -0.018 A 
ATOM      9  C   UNL d   1       2.192   0.732  -0.015  0.00  0.00     0.015 A 
ENDROOT
BRANCH   8  10
ATOM     10  C   UNL d   1       3.519  -1.382  -0.035  0.00  0.00     0.094 C 
ATOM     11  N   UNL d   1       4.624  -0.719  -0.083  0.00  0.00    -0.392 N 
ATOM     12  HN  UNL d   1       4.649   0.298  -0.147  1.00  0.00     0.159 HD
BRANCH  11  13
ATOM     13  C   UNL d   1       5.842  -1.535  -0.037  0.00  0.00     0.183 C 
BRANCH  13  14
ATOM     14  C   UNL d   1       6.256  -1.756   1.373  0.00  0.00     0.070 A 
ATOM     15  O   UNL d   1       6.410  -3.052   1.774  0.00  0.00    -0.325 OA
ATOM     16  C   UNL d   1       6.779  -3.018   3.080  0.00  0.00     0.142 A 
ATOM     17  C   UNL d   1       6.863  -1.721   3.527  0.00  0.00     0.027 A 
ATOM     18  C   UNL d   1       6.526  -0.903   2.423  0.00  0.00     0.036 A 
ENDBRANCH  13  14
ENDBRANCH  11  13
ENDBRANCH   8  10
TORSDOF 3
