REMARK  3 active torsions:
REMARK  status: ('A' for Active; 'I' for Inactive)
REMARK    1  A    between atoms: C_3  and  C_1 
REMARK       I    between atoms: N_4  and  C_1 
REMARK    2  A    between atoms: N_2  and  C_7 
REMARK    3  A    between atoms: C_16  and  N_4 
ROOT
ATOM      1  C   UNL d   1      -4.030  -0.580  -1.230  0.00  0.00     0.030 A 
ATOM      2  C   UNL d   1      -3.314  -1.766  -1.426  0.00  0.00     0.031 A 
ATOM      3  C   UNL d   1      -3.278   0.563  -0.935  0.00  0.00     0.031 A 
ATOM      4  C   UNL d   1      -1.184  -0.687  -1.018  0.00  0.00     0.035 A 
ATOM      5  C   UNL d   1      -1.922  -1.826  -1.322  0.00  0.00     0.032 A 
ATOM      6  C   UNL d   1      -1.875   0.511  -0.818  0.00  0.00     0.032 A 
ENDROOT
BRANCH   4   7
ATOM      7  N   UNL d   1       0.221  -0.691  -0.885  0.00  0.00    -0.323 N 
ATOM      8  C   UNL d   1       1.081  -1.742  -1.178  0.00  0.00     0.263 C 
ATOM      9  O   UNL d   1       0.733  -2.791  -1.714  0.00  0.00    -0.267 OA
ATOM     10  H   UNL d   1       0.654   0.160  -0.555  0.00  0.00     0.169 HD
BRANCH   8  11
ATOM     11  C   UNL d   1       2.482  -1.534  -0.823  0.00  0.00     0.072 A 
ATOM     12  S   UNL d   1       3.058  -0.128  -0.035  0.00  0.00    -0.097 SA
ATOM     13  C   UNL d   1       4.662  -0.726   0.009  0.00  0.00     0.050 A 
ATOM     14  C   UNL d   1       4.766  -1.970  -0.569  0.00  0.00     0.009 A 
ATOM     15  C   UNL d   1       3.511  -2.434  -1.049  0.00  0.00     0.025 A 
ENDBRANCH   8  11
ENDBRANCH   4   7
BRANCH   1  16
ATOM     16  N   UNL d   1      -5.405  -0.586  -1.389  0.00  0.00    -0.378 N 
ATOM     17  C   UNL d   1      -6.175   0.639  -1.650  0.00  0.00     0.153 C 
ATOM     18  C   UNL d   1      -7.468   0.270  -2.428  0.00  0.00     0.291 C 
ATOM     19  N   UNL d   1      -8.293  -0.763  -1.754  0.00  0.00     0.087 N 
ATOM     20  C   UNL d   1      -7.457  -1.951  -1.466  0.00  0.00     0.291 C 
ATOM     21  C   UNL d   1      -9.428  -1.141  -2.595  0.00  0.00     0.310 C 
ATOM     22  C   UNL d   1      -6.187  -1.604  -0.658  0.00  0.00     0.153 C 
ENDBRANCH   1  16
TORSDOF 3
