REMARK  6 active torsions:
REMARK  status: ('A' for Active; 'I' for Inactive)
REMARK    1  A    between atoms: C_11  and  S_1 
REMARK    2  A    between atoms: C_13  and  S_1 
REMARK    3  A    between atoms: C_2  and  N_9 
REMARK    4  A    between atoms: C_7  and  C_4 
REMARK    5  A    between atoms: C_19  and  C_11 
REMARK    6  A    between atoms: N_12  and  C_19 
ROOT
ATOM      1  N   UNL d   1      -0.984   4.118   0.862  0.00  0.00    -0.377 N 
ATOM      2  N   UNL d   1       0.348   2.387   2.869  0.00  0.00     0.092 N 
ATOM      3  C   UNL d   1       0.443   4.281   1.174  0.00  0.00     0.153 C 
ATOM      4  C   UNL d   1      -1.535   2.779   1.145  0.00  0.00     0.153 C 
ATOM      5  C   UNL d   1       0.764   3.780   2.594  0.00  0.00     0.292 C 
ATOM      6  C   UNL d   1      -1.098   2.279   2.550  0.00  0.00     0.292 C 
ENDROOT
BRANCH   1   7
ATOM      7  C   UNL d   1      -1.693   5.074   0.132  0.00  0.00     0.045 A 
ATOM      8  C   UNL d   1      -1.117   5.936  -0.854  0.00  0.00     0.018 A 
ATOM      9  C   UNL d   1      -1.889   7.021  -1.329  0.00  0.00     0.045 A 
ATOM     10  C   UNL d   1       0.181   5.786  -1.404  0.00  0.00     0.022 C 
ATOM     11  C   UNL d   1      -1.309   7.946  -2.189  0.00  0.00     0.031 C 
ATOM     12  N   UNL d   1      -3.166   7.220  -0.978  0.00  0.00    -0.352 N 
ATOM     13  C   UNL d   1       0.021   7.845  -2.608  0.00  0.00     0.009 C 
ATOM     14  C   UNL d   1       0.783   6.755  -2.212  0.00  0.00    -0.061 C 
ATOM     15  C   UNL d   1       2.218   6.616  -2.619  0.00  0.00     0.048 C 
ATOM     16  C   UNL d   1      -3.746   6.356  -0.107  0.00  0.00     0.119 A 
ATOM     17  HN  UNL d   1      -3.693   8.006  -1.358  1.00  0.00     0.166 HD
ATOM     18  C   UNL d   1      -3.037   5.300   0.462  0.00  0.00     0.064 A 
BRANCH  16  19
ATOM     19  C   UNL d   1      -5.200   6.558   0.296  0.00  0.00     0.432 C 
ATOM     20  F   UNL d   1      -5.807   7.631  -0.284  0.00  0.00    -0.165 F 
ATOM     21  F   UNL d   1      -5.979   5.479  -0.014  0.00  0.00    -0.165 F 
ATOM     22  F   UNL d   1      -5.348   6.733   1.643  0.00  0.00    -0.165 F 
ENDBRANCH  16  19
ENDBRANCH   1   7
BRANCH   2  23
ATOM     23  C   UNL d   1       1.153   1.367   2.163  0.00  0.00     0.287 C 
BRANCH  23  24
ATOM     24  C   UNL d   1       2.601   1.394   2.638  0.00  0.00     0.176 C 
BRANCH  24  25
ATOM     25  S   UNL d   1       3.579   0.085   1.936  0.00  0.00     0.177 S 
ATOM     26  O   UNL d   1       3.677   0.305   0.509  0.00  0.00    -0.223 OA
ATOM     27  O   UNL d   1       3.133  -1.182   2.480  0.00  0.00    -0.223 OA
BRANCH  25  28
ATOM     28  C   UNL d   1       5.179   0.447   2.645  0.00  0.00     0.059 A 
ATOM     29  C   UNL d   1       5.512  -0.080   3.895  0.00  0.00     0.025 A 
ATOM     30  C   UNL d   1       6.721   0.285   4.493  0.00  0.00     0.025 A 
ATOM     31  C   UNL d   1       7.586   1.160   3.834  0.00  0.00     0.034 A 
ATOM     32  C   UNL d   1       7.263   1.662   2.572  0.00  0.00     0.025 A 
ATOM     33 CL   UNL d   1       9.058   1.634   4.588  0.00  0.00    -0.084 Cl
ATOM     34  C   UNL d   1       6.056   1.300   1.968  0.00  0.00     0.025 A 
ENDBRANCH  25  28
ENDBRANCH  24  25
ENDBRANCH  23  24
ENDBRANCH   2  23
TORSDOF 6
