REMARK  3 active torsions:
REMARK  status: ('A' for Active; 'I' for Inactive)
REMARK    1  A    between atoms: C_13  and  C_2 
REMARK    2  A    between atoms: N_10  and  N_6 
REMARK    3  A    between atoms: C_9  and  N_10 
ROOT
ATOM      1  C   UNL d   1      -0.485   1.260   0.056  0.00  0.00     0.150 A 
ATOM      2  C   UNL d   1      -1.348   0.088  -0.196  0.00  0.00     0.099 A 
ATOM      3  N   UNL d   1      -0.607  -0.897  -0.611  0.00  0.00    -0.254 N 
ATOM      4  HN  UNL d   1      -0.946  -1.831  -0.842  1.00  0.00     0.195 HD
ATOM      5  C   UNL d   1       0.908   0.827  -0.291  0.00  0.00     0.335 A 
ATOM      6  N   UNL d   1      -0.693   2.455   0.518  0.00  0.00    -0.309 N 
ATOM      7  HN  UNL d   1       0.076   3.121   0.592  1.00  0.00     0.181 HD
ATOM      8  O   UNL d   1       0.761  -0.471  -0.693  0.00  0.00    -0.193 OA
ATOM      9  O   UNL d   1       1.928   1.468  -0.191  0.00  0.00    -0.255 OA
ENDROOT
BRANCH   2  10
ATOM     10  C   UNL d   1      -2.795  -0.088   0.020  0.00  0.00    -0.005 A 
ATOM     11  C   UNL d   1      -3.729   0.918  -0.222  0.00  0.00     0.014 A 
ATOM     12  C   UNL d   1      -5.068   0.740   0.135  0.00  0.00     0.001 A 
ATOM     13  C   UNL d   1      -5.499  -0.483   0.644  0.00  0.00     0.000 A 
ATOM     14  C   UNL d   1      -4.596  -1.534   0.776  0.00  0.00     0.001 A 
ATOM     15  C   UNL d   1      -3.247  -1.338   0.471  0.00  0.00     0.014 A 
ENDBRANCH   2  10
BRANCH   6  16
ATOM     16  N   UNL d   1      -1.939   2.808   0.898  0.00  0.00    -0.201 NA
ATOM     17  H   UNL d   1      -2.199   2.550   1.857  0.00  0.00     0.153 HD
BRANCH  16  18
ATOM     18  C   UNL d   1      -2.345   4.157   0.656  0.00  0.00     0.088 A 
ATOM     19  C   UNL d   1      -1.831   4.941  -0.392  0.00  0.00     0.140 A 
ATOM     20  F   UNL d   1      -0.880   4.464  -1.210  0.00  0.00    -0.204 F 
ATOM     21  C   UNL d   1      -2.310   6.228  -0.651  0.00  0.00     0.044 A 
ATOM     22  C   UNL d   1      -3.348   6.755   0.113  0.00  0.00     0.005 A 
ATOM     23  C   UNL d   1      -3.918   5.982   1.121  0.00  0.00     0.026 A 
ATOM     24  C   UNL d   1      -3.430   4.695   1.378  0.00  0.00     0.059 A 
ATOM     25 CL   UNL d   1      -4.210   3.767   2.615  0.00  0.00    -0.082 Cl
ENDBRANCH  16  18
ENDBRANCH   6  16
TORSDOF 3
