REMARK  4 active torsions:
REMARK  status: ('A' for Active; 'I' for Inactive)
REMARK    1  A    between atoms: N_2  and  S_1 
REMARK    2  A    between atoms: C_11  and  S_1 
REMARK       I    between atoms: C_3  and  N_2 
REMARK       I    between atoms: N_5  and  C_3 
REMARK    3  A    between atoms: C_4  and  C_6 
REMARK    4  A    between atoms: C_8  and  N_7 
ROOT
ATOM      1  N   UNL d   1       1.200   2.180   0.129  0.00  0.00    -0.232 N 
ATOM      2  C   UNL d   1       0.788   2.245   1.453  0.00  0.00     0.332 C 
ATOM      3  N   UNL d   1       1.730   1.952   2.425  0.00  0.00    -0.332 N 
ATOM      4  N   UNL d   1       3.637   2.334   4.658  0.00  0.00    -0.366 N 
ATOM      5  O   UNL d   1      -0.351   2.588   1.734  0.00  0.00    -0.246 OA
ATOM      6  C   UNL d   1       1.320   2.118   3.826  0.00  0.00     0.147 C 
ATOM      7  C   UNL d   1       2.305   2.945   4.656  0.00  0.00     0.144 C 
ATOM      8  C   UNL d   1       4.250   1.986   2.276  0.00  0.00     0.040 C 
ATOM      9  C   UNL d   1       2.956   1.175   2.203  0.00  0.00     0.129 C 
ATOM     10  C   UNL d   1       4.535   2.740   3.583  0.00  0.00     0.126 C 
ATOM     11  H   UNL d   1       2.172   2.078  -0.127  0.00  0.00     0.183 HD
ENDROOT
BRANCH   1  12
ATOM     12  S   UNL d   1       0.181   2.255  -1.177  0.00  0.00     0.266 S 
ATOM     13  O   UNL d   1      -0.817   1.216  -1.055  0.00  0.00    -0.200 OA
ATOM     14  O   UNL d   1       1.056   2.293  -2.334  0.00  0.00    -0.200 OA
BRANCH  12  15
ATOM     15  C   UNL d   1      -0.620   3.842  -1.078  0.00  0.00     0.080 A 
ATOM     16  C   UNL d   1      -0.008   4.965  -1.641  0.00  0.00     0.026 A 
ATOM     17  C   UNL d   1      -0.715   6.170  -1.721  0.00  0.00     0.008 A 
ATOM     18  C   UNL d   1      -2.035   6.256  -1.254  0.00  0.00    -0.062 A 
ATOM     19  C   UNL d   1      -2.626   5.131  -0.667  0.00  0.00     0.008 A 
ATOM     20  C   UNL d   1      -2.814   7.528  -1.427  0.00  0.00     0.048 C 
ATOM     21  C   UNL d   1      -1.925   3.925  -0.585  0.00  0.00     0.026 A 
ENDBRANCH  12  15
ENDBRANCH   1  12
BRANCH   4  22
ATOM     22  C   UNL d   1       4.118   1.663   5.764  0.00  0.00     0.102 A 
ATOM     23  N   UNL d   1       5.449   1.643   5.991  0.00  0.00    -0.352 N 
ATOM     24  C   UNL d   1       5.922   1.031   7.106  0.00  0.00     0.106 A 
ATOM     25  HN  UNL d   1       6.091   2.083   5.332  1.00  0.00     0.166 HD
ATOM     26  C   UNL d   1       5.128   0.385   8.035  0.00  0.00     0.063 A 
ATOM     27  C   UNL d   1       3.761   0.358   7.778  0.00  0.00     0.021 A 
ATOM     28  C   UNL d   1       3.261   1.000   6.645  0.00  0.00     0.049 A 
BRANCH  26  29
ATOM     29  C   UNL d   1       5.710  -0.248   9.258  0.00  0.00     0.418 C 
ATOM     30  F   UNL d   1       7.059  -0.106   9.361  0.00  0.00    -0.166 F 
ATOM     31  F   UNL d   1       5.192   0.271  10.406  0.00  0.00    -0.166 F 
ATOM     32  F   UNL d   1       5.470  -1.587   9.316  0.00  0.00    -0.166 F 
ENDBRANCH  26  29
ENDBRANCH   4  22
TORSDOF 4
