REMARK  2 active torsions:
REMARK  status: ('A' for Active; 'I' for Inactive)
REMARK    1  A    between atoms: N_2  and  C_1 
REMARK    2  A    between atoms: C_5  and  N_4 
ROOT
ATOM      1  N   UNL d   1      -3.884  -0.144   0.001  0.00  0.00    -0.381 N 
ATOM      2  N   UNL d   1      -6.521  -1.171  -0.532  0.00  0.00    -0.378 N 
ATOM      3  C   UNL d   1      -4.681  -0.769   1.083  0.00  0.00     0.142 C 
ATOM      4  C   UNL d   1      -4.743   0.483  -1.032  0.00  0.00     0.142 C 
ATOM      5  C   UNL d   1      -5.749  -0.539  -1.619  0.00  0.00     0.143 C 
ATOM      6  C   UNL d   1      -5.681  -1.796   0.507  0.00  0.00     0.143 C 
ENDROOT
BRANCH   1   7
ATOM      7  C   UNL d   1      -2.495  -0.109  -0.023  0.00  0.00     0.012 A 
ATOM      8  C   UNL d   1      -1.692   0.499  -0.919  0.00  0.00     0.037 A 
ATOM      9  C   UNL d   1      -0.306   0.247  -0.570  0.00  0.00    -0.028 A 
ATOM     10  C   UNL d   1       0.854   0.660  -1.202  0.00  0.00     0.012 A 
ATOM     11  C   UNL d   1      -0.260  -0.542   0.580  0.00  0.00    -0.042 A 
ATOM     12  C   UNL d   1       2.078   0.263  -0.657  0.00  0.00     0.001 A 
ATOM     13  C   UNL d   1       2.122  -0.534   0.500  0.00  0.00     0.001 A 
ATOM     14  C   UNL d   1       0.945  -0.944   1.130  0.00  0.00     0.008 A 
ATOM     15  C   UNL d   1      -1.655  -0.831   1.037  0.00  0.00     0.096 A 
ENDBRANCH   1   7
BRANCH   2  16
ATOM     16  C   UNL d   1      -7.891  -1.297  -0.563  0.00  0.00     0.032 A 
ATOM     17  C   UNL d   1      -8.605  -1.382  -1.767  0.00  0.00     0.054 A 
ATOM     18  C   UNL d   1     -10.005  -1.468  -1.796  0.00  0.00     0.058 A 
ATOM     19 CL   UNL d   1     -10.773  -1.565  -3.342  0.00  0.00    -0.082 Cl
ATOM     20  C   UNL d   1     -10.727  -1.470  -0.603  0.00  0.00     0.055 A 
ATOM     21  C   UNL d   1     -10.044  -1.392   0.607  0.00  0.00     0.028 A 
ATOM     22 CL   UNL d   1     -12.451  -1.555  -0.554  0.00  0.00    -0.083 Cl
ATOM     23  C   UNL d   1      -8.647  -1.310   0.620  0.00  0.00     0.031 A 
ENDBRANCH   2  16
TORSDOF 2
