REMARK  3 active torsions:
REMARK  status: ('A' for Active; 'I' for Inactive)
REMARK    1  A    between atoms: C_6  and  C_12 
REMARK    2  A    between atoms: C_11  and  C_7 
REMARK    3  A    between atoms: C_13  and  C_8 
ROOT
ATOM      1  C   UNL d   1       2.015   2.951   0.083  0.00  0.00    -0.033 A 
ATOM      2  C   UNL d   1       2.602   5.064  -0.949  0.00  0.00     0.018 A 
ATOM      3  C   UNL d   1       2.644   3.667  -0.940  0.00  0.00     0.032 A 
ATOM      4  C   UNL d   1       1.303   5.041   1.089  0.00  0.00     0.002 A 
ATOM      5  C   UNL d   1       1.357   3.645   1.106  0.00  0.00     0.011 A 
ATOM      6  C   UNL d   1       1.926   5.751   0.062  0.00  0.00     0.020 A 
ENDROOT
BRANCH   1   7
ATOM      7  C   UNL d   1       2.030   1.486   0.058  0.00  0.00     0.036 C 
ATOM      8  C   UNL d   1       1.104   0.724  -0.540  0.00  0.00     0.079 A 
ATOM      9  C   UNL d   1       1.158  -0.762  -0.512  0.00  0.00     0.266 A 
ATOM     10  S   UNL d   1      -0.292   1.238  -1.414  0.00  0.00    -0.024 SA
ATOM     11  N   UNL d   1       0.051  -1.274  -1.120  0.00  0.00    -0.283 N 
ATOM     12  O   UNL d   1       2.055  -1.429  -0.021  0.00  0.00    -0.267 OA
ATOM     13  C   UNL d   1      -0.838  -0.407  -1.668  0.00  0.00     0.291 A 
ATOM     14  H   UNL d   1      -0.096  -2.267  -1.186  0.00  0.00     0.172 HD
ATOM     15  O   UNL d   1      -1.865  -0.709  -2.250  0.00  0.00    -0.260 OA
ENDBRANCH   1   7
BRANCH   2  16
ATOM     16  C   UNL d   1       3.254   5.778  -2.003  0.00  0.00    -0.061 C 
ATOM     17  C   UNL d   1       3.829   6.343  -2.890  0.00  0.00    -0.061 C 
BRANCH  17  18
ATOM     18  C   UNL d   1       4.555   7.000  -3.934  0.00  0.00     0.018 A 
ATOM     19  C   UNL d   1       4.645   8.393  -3.952  0.00  0.00     0.020 A 
ATOM     20  C   UNL d   1       5.387   9.032  -4.947  0.00  0.00     0.001 A 
ATOM     21  C   UNL d   1       6.038   8.279  -5.924  0.00  0.00     0.000 A 
ATOM     22  C   UNL d   1       5.941   6.888  -5.914  0.00  0.00     0.001 A 
ATOM     23  C   UNL d   1       5.198   6.247  -4.921  0.00  0.00     0.020 A 
ENDBRANCH  17  18
ENDBRANCH   2  16
TORSDOF 3
