REMARK  8 active torsions:
REMARK  status: ('A' for Active; 'I' for Inactive)
REMARK    1  A    between atoms: C_3  and  CA_1 
REMARK    2  A    between atoms: C_4  and  C_2 
REMARK    3  A    between atoms: OXT_13  and  C_3 
REMARK    4  A    between atoms: O_14  and  C_4 
REMARK    5  A    between atoms: C_20  and  O_14 
REMARK    6  A    between atoms: C_15  and  C_21 
REMARK    7  A    between atoms: C_24  and  C_20 
REMARK    8  A    between atoms: C_21  and  C_24 
ROOT
ATOM      1  C   UNL d   1      -2.958  -1.685   1.400  0.00  0.00     0.312 C 
ATOM      2  O   UNL d   1      -3.356  -2.264   2.402  0.00  0.00    -0.258 OA
ENDROOT
BRANCH   1   3
ATOM      3  C   UNL d   1      -2.228  -0.396   1.452  0.00  0.00     0.142 A 
ATOM      4  CA  UNL d   1      -2.453   0.545   2.457  0.00  0.00     0.139 A 
ATOM      5  N   UNL d   1      -1.647   1.647   2.622  0.00  0.00    -0.357 N 
ATOM      6  C   UNL d   1      -0.652   1.777   1.710  0.00  0.00     0.105 A 
ATOM      7  HN  UNL d   1      -1.787   2.319   3.377  1.00  0.00     0.165 HD
ATOM      8  C   UNL d   1      -0.431   0.847   0.707  0.00  0.00     0.105 A 
ATOM      9  N   UNL d   1      -1.200  -0.253   0.559  0.00  0.00    -0.358 N 
ATOM     10  HN  UNL d   1      -1.025  -0.939  -0.175  1.00  0.00     0.165 HD
BRANCH   4  11
ATOM     11  C   UNL d   1      -3.619   0.500   3.378  0.00  0.00     0.196 C 
ATOM     12  O   UNL d   1      -4.697   0.006   3.088  0.00  0.00    -0.645 OA
BRANCH  11  13
ATOM     13  OXT UNL d   1      -3.391   1.153   4.543  0.00  0.00    -0.772 OA
ATOM     14  HXT UNL d   1      -2.528   1.619   4.542  0.00  0.00     0.167 HD
ENDBRANCH  11  13
ENDBRANCH   4  11
ENDBRANCH   1   3
BRANCH   1  15
ATOM     15  O   UNL d   1      -3.058  -2.154   0.122  0.00  0.00    -0.316 OA
BRANCH  15  16
ATOM     16  C   UNL d   1      -3.784  -3.400   0.004  0.00  0.00     0.179 C 
BRANCH  16  17
ATOM     17  C   UNL d   1      -5.277  -3.093  -0.034  0.00  0.00     0.031 C 
BRANCH  17  18
ATOM     18  C   UNL d   1      -6.135  -4.358  -0.070  0.00  0.00     0.041 C 
BRANCH  18  19
ATOM     19  C   UNL d   1      -7.612  -4.042  -0.063  0.00  0.00    -0.056 A 
ATOM     20  C   UNL d   1      -8.440  -4.451  -1.111  0.00  0.00     0.024 A 
ATOM     21  C   UNL d   1      -9.791  -4.141  -1.051  0.00  0.00     0.088 A 
ATOM     22  N   UNL d   1     -10.366  -3.460  -0.037  0.00  0.00    -0.375 N 
ATOM     23  C   UNL d   1      -9.550  -3.077   0.968  0.00  0.00     0.088 A 
ATOM     24  HN  UNL d   1     -11.363  -3.247  -0.030  1.00  0.00     0.164 HD
ATOM     25  C   UNL d   1      -8.191  -3.345   1.003  0.00  0.00     0.024 A 
ENDBRANCH  18  19
ENDBRANCH  17  18
ENDBRANCH  16  17
ENDBRANCH  15  16
ENDBRANCH   1  15
TORSDOF 8
