REMARK  3 active torsions:
REMARK  status: ('A' for Active; 'I' for Inactive)
REMARK    1  A    between atoms: C_5  and  C_1 
REMARK    2  A    between atoms: C_6  and  C_2 
REMARK       I    between atoms: N_9  and  C_5 
REMARK    3  A    between atoms: C_14  and  N_9 
ROOT
ATOM      1  C   UNL d   1      -0.249  -1.074   0.301  0.00  0.00     0.093 A 
ATOM      2  C   UNL d   1      -1.531  -0.479   0.523  0.00  0.00     0.085 A 
ATOM      3  N   UNL d   1      -1.417   0.860   0.573  0.00  0.00    -0.259 N 
ATOM      4  HN  UNL d   1      -2.170   1.529   0.735  1.00  0.00     0.195 HD
ATOM      5  O   UNL d   1      -0.093   1.155   0.364  0.00  0.00    -0.241 OA
ATOM      6  C   UNL d   1       0.605   0.009   0.184  0.00  0.00     0.090 A 
ATOM      7  C   UNL d   1       2.039   0.177  -0.129  0.00  0.00     0.080 C 
ENDROOT
BRANCH   1   8
ATOM      8  C   UNL d   1       0.119  -2.471   0.140  0.00  0.00     0.261 C 
ATOM      9  N   UNL d   1       1.313  -2.784   0.765  0.00  0.00    -0.322 N 
ATOM     10  H   UNL d   1       1.705  -2.077   1.372  0.00  0.00     0.169 HD
ATOM     11  O   UNL d   1      -0.586  -3.248  -0.490  0.00  0.00    -0.267 OA
BRANCH   9  12
ATOM     12  C   UNL d   1       2.038  -3.990   0.686  0.00  0.00     0.050 A 
ATOM     13  C   UNL d   1       1.672  -5.103  -0.065  0.00  0.00     0.117 A 
ATOM     14  N   UNL d   1       2.418  -6.234  -0.153  0.00  0.00    -0.373 N 
ATOM     15  C   UNL d   1       3.576  -6.265   0.537  0.00  0.00     0.088 A 
ATOM     16  HN  UNL d   1       2.114  -7.028  -0.717  1.00  0.00     0.164 HD
ATOM     17  C   UNL d   1       4.027  -5.215   1.317  0.00  0.00     0.019 A 
ATOM     18  C   UNL d   1       3.243  -4.066   1.392  0.00  0.00     0.032 A 
ENDBRANCH   9  12
ENDBRANCH   1   8
BRANCH   2  19
ATOM     19  C   UNL d   1      -2.856  -1.083   0.677  0.00  0.00     0.015 A 
ATOM     20  C   UNL d   1      -3.146  -2.119   1.579  0.00  0.00     0.046 A 
ATOM     21 CL   UNL d   1      -1.972  -2.782   2.664  0.00  0.00    -0.083 Cl
ATOM     22  C   UNL d   1      -4.455  -2.613   1.688  0.00  0.00     0.025 A 
ATOM     23  C   UNL d   1      -5.488  -2.065   0.928  0.00  0.00     0.002 A 
ATOM     24  C   UNL d   1      -5.220  -1.021   0.050  0.00  0.00     0.001 A 
ATOM     25  C   UNL d   1      -3.916  -0.539  -0.078  0.00  0.00     0.015 A 
ENDBRANCH   2  19
TORSDOF 3
