REMARK  7 active torsions:
REMARK  status: ('A' for Active; 'I' for Inactive)
REMARK    1  A    between atoms: N_5  and  C_1 
REMARK    2  A    between atoms: N_8  and  N_5 
REMARK       I    between atoms: C_6  and  N_8 
REMARK    3  A    between atoms: C_12  and  C_6 
REMARK    4  A    between atoms: C_7  and  C_12 
REMARK    5  A    between atoms: C_14  and  C_7 
REMARK    6  A    between atoms: C_9  and  C_14 
REMARK    7  A    between atoms: O_16  and  C_9 
ROOT
ATOM      1  C   UNL d   1       5.612  -7.313   1.473  0.00  0.00     0.119 A 
ATOM      2  C   UNL d   1       6.355  -8.403   1.954  0.00  0.00     0.084 A 
ATOM      3  C   UNL d   1       5.734  -9.649   2.290  0.00  0.00     0.103 C 
ATOM      4  N   UNL d   1       5.252 -10.661   2.582  0.00  0.00    -0.191 NA
ATOM      5  N   UNL d   1       6.224  -6.156   1.100  0.00  0.00    -0.354 N 
ATOM      6  HN  UNL d   1       5.686  -5.379   0.716  1.00  0.00     0.166 HD
ATOM      7  C   UNL d   1       7.742  -8.278   2.093  0.00  0.00     0.027 A 
ATOM      8  C   UNL d   1       7.567  -6.064   1.252  0.00  0.00     0.089 A 
ATOM      9  C   UNL d   1       8.363  -7.086   1.741  0.00  0.00     0.019 A 
ENDROOT
BRANCH   1  10
ATOM     10  N   UNL d   1       4.208  -7.437   1.287  0.00  0.00    -0.186 NA
ATOM     11  H   UNL d   1       3.742  -7.786   2.130  0.00  0.00     0.154 HD
BRANCH  10  12
ATOM     12  N   UNL d   1       3.588  -6.256   0.828  0.00  0.00    -0.286 N 
ATOM     13  C   UNL d   1       2.204  -6.192   0.887  0.00  0.00     0.232 C 
ATOM     14  O   UNL d   1       1.524  -7.032   1.472  0.00  0.00    -0.272 OA
ATOM     15  H   UNL d   1       4.178  -5.628   0.283  0.00  0.00     0.184 HD
BRANCH  13  16
ATOM     16  C   UNL d   1       1.624  -4.957   0.209  0.00  0.00     0.114 C 
BRANCH  16  17
ATOM     17  C   UNL d   1       0.074  -4.882   0.101  0.00  0.00    -0.023 C 
ATOM     18  C   UNL d   1      -0.491  -6.008  -0.796  0.00  0.00     0.010 C 
ATOM     19  C   UNL d   1      -1.792  -5.465  -1.392  0.00  0.00     0.001 C 
ATOM     20  C   UNL d   1      -1.704  -3.946  -1.310  0.00  0.00     0.001 C 
ATOM     21  C   UNL d   1      -0.331  -3.637  -0.726  0.00  0.00     0.010 C 
BRANCH  17  22
ATOM     22  C   UNL d   1      -0.643  -4.921   1.480  0.00  0.00     0.119 C 
BRANCH  22  23
ATOM     23  C   UNL d   1      -0.145  -3.919   2.500  0.00  0.00     0.140 C 
ATOM     24  O   UNL d   1       0.220  -2.782   2.245  0.00  0.00    -0.650 OA
BRANCH  23  25
ATOM     25  O   UNL d   1      -0.182  -4.388   3.768  0.00  0.00    -0.776 OA
ATOM     26  H   UNL d   1      -0.476  -5.316   3.841  0.00  0.00     0.167 HD
ENDBRANCH  23  25
ENDBRANCH  22  23
ENDBRANCH  17  22
ENDBRANCH  16  17
ENDBRANCH  13  16
ENDBRANCH  10  12
ENDBRANCH   1  10
TORSDOF 7
