REMARK  7 active torsions:
REMARK  status: ('A' for Active; 'I' for Inactive)
REMARK    1  A    between atoms: N_6  and  C_1 
REMARK    2  A    between atoms: C_9  and  N_4 
REMARK       I    between atoms: C_8  and  N_6 
REMARK    3  A    between atoms: C_17  and  C_8 
REMARK    4  A    between atoms: C_10  and  C_18 
REMARK    5  A    between atoms: O_16  and  C_10 
REMARK    6  A    between atoms: S_14  and  C_17 
REMARK    7  A    between atoms: C_18  and  S_14 
ROOT
ATOM      1  C   UNL d   1      -0.258  -1.238   0.011  0.00  0.00     0.129 C 
ATOM      2  C   UNL d   1       1.110  -0.686  -0.195  0.00  0.00     0.295 C 
ATOM      3  N   UNL d   1      -0.329   1.021   0.345  0.00  0.00    -0.289 N 
ATOM      4  N   UNL d   1       1.026   0.691   0.035  0.00  0.00    -0.217 N 
ATOM      5  C   UNL d   1      -1.062  -0.175   0.206  0.00  0.00     0.057 C 
ATOM      6  O   UNL d   1       2.066  -1.397  -0.481  0.00  0.00    -0.264 OA
ATOM      7  C   UNL d   1      -0.824   2.335  -0.061  0.00  0.00     0.178 C 
ATOM      8  C   UNL d   1      -2.560  -0.215   0.155  0.00  0.00     0.072 C 
ENDROOT
BRANCH   1   9
ATOM      9  N   UNL d   1      -0.484  -2.593  -0.072  0.00  0.00    -0.320 N 
ATOM     10  C   UNL d   1      -1.500  -3.285   0.552  0.00  0.00     0.231 C 
ATOM     11  O   UNL d   1      -2.338  -2.791   1.312  0.00  0.00    -0.272 OA
ATOM     12  H   UNL d   1       0.338  -3.129  -0.350  0.00  0.00     0.169 HD
BRANCH  10  13
ATOM     13  C   UNL d   1      -1.491  -4.786   0.334  0.00  0.00     0.177 C 
BRANCH  13  14
ATOM     14  S   UNL d   1      -0.585  -5.634   1.668  0.00  0.00    -0.149 SA
BRANCH  14  15
ATOM     15  C   UNL d   1      -1.433  -5.016   3.164  0.00  0.00     0.184 C 
BRANCH  15  16
ATOM     16  C   UNL d   1      -2.904  -5.365   3.210  0.00  0.00     0.149 C 
ATOM     17  O   UNL d   1      -3.339  -6.434   3.616  0.00  0.00    -0.649 OA
BRANCH  16  18
ATOM     18  O   UNL d   1      -3.726  -4.392   2.755  0.00  0.00    -0.776 OA
ATOM     19  H   UNL d   1      -3.266  -3.590   2.401  0.00  0.00     0.167 HD
ENDBRANCH  16  18
ENDBRANCH  15  16
ENDBRANCH  14  15
ENDBRANCH  13  14
ENDBRANCH  10  13
ENDBRANCH   1   9
BRANCH   4  20
ATOM     20  C   UNL d   1       2.102   1.612   0.020  0.00  0.00     0.060 A 
ATOM     21  C   UNL d   1       3.193   1.396  -0.833  0.00  0.00     0.031 A 
ATOM     22  C   UNL d   1       4.248   2.312  -0.901  0.00  0.00     0.002 A 
ATOM     23  C   UNL d   1       4.239   3.448  -0.099  0.00  0.00     0.000 A 
ATOM     24  C   UNL d   1       3.179   3.660   0.778  0.00  0.00     0.002 A 
ATOM     25  C   UNL d   1       2.121   2.747   0.839  0.00  0.00     0.031 A 
ENDBRANCH   4  20
TORSDOF 7
