REMARK  4 active torsions:
REMARK  status: ('A' for Active; 'I' for Inactive)
REMARK    1  A    between atoms: N_2  and  C_1 
REMARK    2  A    between atoms: C_5  and  C_4 
REMARK       I    between atoms: N_8  and  C_5 
REMARK    3  A    between atoms: C_12  and  N_8 
REMARK    4  A    between atoms: C_13  and  C_12 
ROOT
ATOM      1  C   UNL d   1      -1.304  -2.764  -1.019  0.00  0.00     0.275 C 
ATOM      2  N   UNL d   1      -2.234  -2.648  -0.011  0.00  0.00    -0.351 N 
ATOM      3  O   UNL d   1      -1.304  -2.024  -2.000  0.00  0.00    -0.265 OA
ATOM      4  H   UNL d   1      -2.190  -3.289   0.772  0.00  0.00     0.163 HD
ENDROOT
BRANCH   1   5
ATOM      5  C   UNL d   1      -0.320  -3.816  -0.846  0.00  0.00     0.145 A 
ATOM      6  O   UNL d   1      -0.330  -4.616   0.272  0.00  0.00    -0.283 OA
ATOM      7  C   UNL d   1       0.713  -5.483   0.124  0.00  0.00     0.215 A 
ATOM      8  C   UNL d   1       1.395  -5.268  -1.049  0.00  0.00     0.066 A 
ATOM      9  C   UNL d   1       0.728  -4.189  -1.675  0.00  0.00     0.047 A 
BRANCH   7  10
ATOM     10  N   UNL d   1       0.920  -6.433   1.171  0.00  0.00    -0.090 N 
ATOM     11  O   UNL d   1       1.864  -7.221   1.018  0.00  0.00    -0.530 OA
ATOM     12  O   UNL d   1       0.155  -6.397   2.143  0.00  0.00    -0.530 OA
ENDBRANCH   7  10
ENDBRANCH   1   5
BRANCH   2  13
ATOM     13  C   UNL d   1      -3.245  -1.613  -0.019  0.00  0.00     0.161 C 
BRANCH  13  14
ATOM     14  C   UNL d   1      -4.644  -2.175  -0.029  0.00  0.00    -0.041 A 
ATOM     15  C   UNL d   1      -5.554  -1.853   0.988  0.00  0.00     0.009 A 
ATOM     16  C   UNL d   1      -6.868  -2.326   0.943  0.00  0.00     0.001 A 
ATOM     17  C   UNL d   1      -7.287  -3.125  -0.118  0.00  0.00     0.000 A 
ATOM     18  C   UNL d   1      -6.394  -3.451  -1.137  0.00  0.00     0.001 A 
ATOM     19  C   UNL d   1      -5.081  -2.977  -1.095  0.00  0.00     0.009 A 
ENDBRANCH  13  14
ENDBRANCH   2  13
TORSDOF 4
