REMARK  3 active torsions:
REMARK  status: ('A' for Active; 'I' for Inactive)
REMARK    1  A    between atoms: C_2  and  C_1 
REMARK       I    between atoms: N_6  and  C_2 
REMARK    2  A    between atoms: C_16  and  C_5 
REMARK    3  A    between atoms: C_10  and  N_9 
ROOT
ATOM      1  C   UNL d   1       0.212  -2.667   0.296  0.00  0.00     0.258 C 
ATOM      2  N   UNL d   1      -0.653  -3.739   0.056  0.00  0.00    -0.345 N 
ATOM      3  N   UNL d   1      -2.829  -5.589  -0.246  0.00  0.00    -0.378 N 
ATOM      4  O   UNL d   1       0.386  -1.797  -0.552  0.00  0.00    -0.267 OA
ATOM      5  C   UNL d   1      -1.393  -3.792  -1.218  0.00  0.00     0.146 C 
ATOM      6  C   UNL d   1      -0.676  -5.017   0.782  0.00  0.00     0.146 C 
ATOM      7  C   UNL d   1      -2.131  -5.454   1.046  0.00  0.00     0.143 C 
ATOM      8  C   UNL d   1      -2.833  -4.335  -1.042  0.00  0.00     0.143 C 
ENDROOT
BRANCH   1   9
ATOM      9  C   UNL d   1       0.894  -2.585   1.580  0.00  0.00     0.092 C 
ATOM     10  C   UNL d   1       2.247  -2.190   1.878  0.00  0.00     0.083 C 
ATOM     11  N   UNL d   1       2.452  -2.245   3.207  0.00  0.00    -0.259 N 
ATOM     12  O   UNL d   1       1.257  -2.557   3.786  0.00  0.00    -0.241 OA
ATOM     13  HN  UNL d   1       3.335  -2.084   3.691  1.00  0.00     0.195 HD
ATOM     14  C   UNL d   1       0.314  -2.712   2.832  0.00  0.00     0.090 C 
ATOM     15  C   UNL d   1      -1.050  -2.931   3.354  0.00  0.00     0.080 C 
BRANCH  10  16
ATOM     16  C   UNL d   1       3.364  -1.760   1.022  0.00  0.00    -0.006 A 
ATOM     17  C   UNL d   1       3.529  -2.203  -0.294  0.00  0.00     0.014 A 
ATOM     18  C   UNL d   1       4.636  -1.789  -1.050  0.00  0.00     0.001 A 
ATOM     19  C   UNL d   1       5.589  -0.933  -0.501  0.00  0.00     0.000 A 
ATOM     20  C   UNL d   1       5.439  -0.479   0.803  0.00  0.00     0.001 A 
ATOM     21  C   UNL d   1       4.335  -0.889   1.555  0.00  0.00     0.014 A 
ENDBRANCH  10  16
ENDBRANCH   1   9
BRANCH   3  22
ATOM     22  C   UNL d   1      -4.049  -6.275  -0.251  0.00  0.00     0.030 A 
ATOM     23  C   UNL d   1      -4.926  -6.322   0.844  0.00  0.00     0.032 A 
ATOM     24  C   UNL d   1      -6.104  -7.074   0.793  0.00  0.00     0.044 A 
ATOM     25  C   UNL d   1      -6.413  -7.789  -0.357  0.00  0.00     0.116 A 
ATOM     26  C   UNL d   1      -5.571  -7.757  -1.459  0.00  0.00     0.044 A 
ATOM     27  F   UNL d   1      -7.531  -8.525  -0.401  0.00  0.00    -0.206 F 
ATOM     28  C   UNL d   1      -4.401  -6.997  -1.405  0.00  0.00     0.032 A 
ENDBRANCH   3  22
TORSDOF 3
