REMARK  4 active torsions:
REMARK  status: ('A' for Active; 'I' for Inactive)
REMARK    1  A    between atoms: C_2  and  C_1 
REMARK       I    between atoms: C_3  and  N_5 
REMARK       I    between atoms: N_7  and  C_3 
REMARK    2  A    between atoms: N_5  and  C_4 
REMARK    3  A    between atoms: C_6  and  C_9 
REMARK    4  A    between atoms: C_9  and  N_7 
ROOT
ATOM      1  C   UNL d   1       1.593  -2.257  -0.539  0.00  0.00     0.321 C 
ATOM      2  N   UNL d   1       0.624  -2.497   0.396  0.00  0.00    -0.308 N 
ATOM      3  N   UNL d   1       1.513  -1.062  -1.192  0.00  0.00    -0.339 N 
ATOM      4  O   UNL d   1       2.511  -3.009  -0.851  0.00  0.00    -0.247 OA
ATOM      5  H   UNL d   1      -0.037  -1.746   0.524  0.00  0.00     0.170 HD
ATOM      6  H   UNL d   1       2.283  -0.936  -1.836  0.00  0.00     0.164 HD
ENDROOT
BRANCH   2   7
ATOM      7  C   UNL d   1       0.510  -3.578   1.302  0.00  0.00     0.051 A 
ATOM      8  C   UNL d   1      -0.613  -3.652   2.156  0.00  0.00     0.074 A 
ATOM      9  C   UNL d   1      -0.713  -4.719   3.075  0.00  0.00     0.018 A 
ATOM     10  C   UNL d   1       0.282  -5.688   3.163  0.00  0.00     0.001 A 
ATOM     11  C   UNL d   1       1.389  -5.606   2.330  0.00  0.00     0.002 A 
ATOM     12  C   UNL d   1       1.499  -4.563   1.406  0.00  0.00     0.030 A 
BRANCH   8  13
ATOM     13  C   UNL d   1      -1.749  -2.663   2.133  0.00  0.00     0.419 C 
ATOM     14  F   UNL d   1      -1.553  -1.586   1.315  0.00  0.00    -0.166 F 
ATOM     15  F   UNL d   1      -2.014  -2.136   3.364  0.00  0.00    -0.166 F 
ATOM     16  F   UNL d   1      -2.919  -3.225   1.717  0.00  0.00    -0.166 F 
ENDBRANCH   8  13
ENDBRANCH   2   7
BRANCH   3  17
ATOM     17  C   UNL d   1       0.525  -0.003  -1.125  0.00  0.00     0.166 C 
BRANCH  17  18
ATOM     18  C   UNL d   1       0.929   1.162  -0.261  0.00  0.00    -0.002 A 
ATOM     19  C   UNL d   1       1.280   1.006   1.085  0.00  0.00     0.124 A 
ATOM     20  F   UNL d   1       1.286  -0.207   1.650  0.00  0.00    -0.205 F 
ATOM     21  C   UNL d   1       1.599   2.097   1.890  0.00  0.00     0.043 A 
ATOM     22  C   UNL d   1       1.548   3.384   1.364  0.00  0.00     0.003 A 
ATOM     23  C   UNL d   1       1.183   3.570   0.033  0.00  0.00     0.001 A 
ATOM     24  C   UNL d   1       0.879   2.468  -0.775  0.00  0.00     0.012 A 
ENDBRANCH  17  18
ENDBRANCH   3  17
TORSDOF 4
