REMARK  4 active torsions:
REMARK  status: ('A' for Active; 'I' for Inactive)
REMARK    1  A    between atoms: C_8  and  C_1 
REMARK    2  A    between atoms: S_9  and  C_5 
REMARK    3  A    between atoms: C_16  and  S_9 
REMARK    4  A    between atoms: C_15  and  C_16 
ROOT
ATOM      1  C   UNL d   1      -0.048   1.048  -0.113  0.00  0.00     0.209 A 
ATOM      2  N   UNL d   1       0.847   0.003  -0.021  0.00  0.00    -0.312 N 
ATOM      3  N   UNL d   1      -1.269   0.539  -0.216  0.00  0.00    -0.279 N 
ATOM      4  HN  UNL d   1      -2.132   1.078  -0.295  1.00  0.00     0.188 HD
ATOM      5  C   UNL d   1       0.084  -1.135  -0.071  0.00  0.00     0.163 A 
ATOM      6  N   UNL d   1      -1.181  -0.827  -0.198  0.00  0.00    -0.278 N 
ATOM      7  HN  UNL d   1      -1.959  -1.484  -0.270  1.00  0.00     0.189 HD
ATOM      8  C   UNL d   1       2.285   0.028   0.071  0.00  0.00     0.160 C 
ENDROOT
BRANCH   5   9
ATOM      9  S   UNL d   1       0.726  -2.738   0.017  0.00  0.00    -0.085 SA
BRANCH   9  10
ATOM     10  C   UNL d   1      -0.071  -3.470  -1.439  0.00  0.00     0.160 C 
BRANCH  10  11
ATOM     11  C   UNL d   1       0.505  -2.948  -2.746  0.00  0.00     0.132 C 
ATOM     12  O   UNL d   1       1.348  -2.051  -2.822  0.00  0.00    -0.298 OA
ATOM     13  C   UNL d   1      -0.006  -3.622  -3.995  0.00  0.00     0.091 C 
ENDBRANCH  10  11
ENDBRANCH   9  10
ENDBRANCH   5   9
BRANCH   1  14
ATOM     14  C   UNL d   1       0.267   2.503  -0.092  0.00  0.00     0.450 C 
ATOM     15  F   UNL d   1       1.595   2.784  -0.099  0.00  0.00    -0.163 F 
ATOM     16  F   UNL d   1      -0.256   3.152  -1.165  0.00  0.00    -0.163 F 
ATOM     17  F   UNL d   1      -0.236   3.111   1.016  0.00  0.00    -0.163 F 
ENDBRANCH   1  14
TORSDOF 4
