REMARK  1 active torsions:
REMARK  status: ('A' for Active; 'I' for Inactive)
REMARK    1  A    between atoms: C_13  and  C_5 
ROOT
ATOM      1  C   UNL d   1       1.101  -0.971   0.011  0.00  0.00     0.137 A 
ATOM      2  N   UNL d   1       0.725   0.379   0.009  0.00  0.00    -0.261 N 
ATOM      3  C   UNL d   1       2.402  -1.309   0.035  0.00  0.00     0.100 A 
ATOM      4  C   UNL d   1       1.602   1.439   0.018  0.00  0.00     0.254 A 
ATOM      5  C   UNL d   1       3.418  -0.255   0.033  0.00  0.00     0.004 A 
ATOM      6  N   UNL d   1      -0.031  -1.764  -0.006  0.00  0.00    -0.339 N 
ATOM      7  C   UNL d   1       3.043   1.041   0.023  0.00  0.00     0.089 A 
ATOM      8  C   UNL d   1      -0.691   0.429   0.008  0.00  0.00     0.071 A 
ATOM      9  C   UNL d   1      -1.139  -0.914   0.013  0.00  0.00     0.061 A 
ATOM     10  C   UNL d   1       2.782  -2.683   0.054  0.00  0.00     0.104 C 
ATOM     11  N   UNL d   1       3.048  -3.811   0.075  0.00  0.00    -0.191 NA
ATOM     12  O   UNL d   1       1.314   2.631   0.019  0.00  0.00    -0.268 OA
ATOM     13  C   UNL d   1      -1.572   1.488   0.004  0.00  0.00     0.032 A 
ATOM     14  C   UNL d   1      -2.478  -1.224  -0.000  0.00  0.00     0.032 A 
ATOM     15  C   UNL d   1      -2.938   1.179   0.001  0.00  0.00     0.002 A 
ATOM     16  C   UNL d   1      -3.385  -0.160  -0.002  0.00  0.00     0.002 A 
ATOM     17  H   UNL d   1      -0.044  -2.768   0.061  0.00  0.00     0.167 HD
ENDROOT
BRANCH   5  18
ATOM     18  C   UNL d   1       4.872  -0.522   0.013  0.00  0.00    -0.024 A 
ATOM     19  C   UNL d   1       5.597  -0.626   1.208  0.00  0.00     0.012 A 
ATOM     20  C   UNL d   1       6.973  -0.866   1.178  0.00  0.00     0.001 A 
ATOM     21  C   UNL d   1       7.631  -1.017  -0.041  0.00  0.00     0.000 A 
ATOM     22  C   UNL d   1       6.914  -0.936  -1.234  0.00  0.00     0.001 A 
ATOM     23  C   UNL d   1       5.540  -0.686  -1.208  0.00  0.00     0.012 A 
ENDBRANCH   5  18
TORSDOF 1
