REMARK  5 active torsions:
REMARK  status: ('A' for Active; 'I' for Inactive)
REMARK    1  A    between atoms: N_9  and  C_3 
REMARK    2  A    between atoms: C_7  and  C_4 
REMARK    3  A    between atoms: C_21  and  N_10 
REMARK    4  A    between atoms: C_25  and  C_21 
REMARK    5  A    between atoms: O_22  and  C_25 
ROOT
ATOM      1  N   UNL d   1       0.320   1.286  -0.159  0.00  0.00    -0.350 N 
ATOM      2  HN  UNL d   1      -0.494   1.901  -0.181  1.00  0.00     0.166 HD
ATOM      3  C   UNL d   1       2.548  -0.434  -0.079  0.00  0.00     0.045 A 
ATOM      4  C   UNL d   1       0.803   0.851   1.027  0.00  0.00     0.119 A 
ATOM      5  C   UNL d   1       0.910   0.910  -1.309  0.00  0.00     0.067 A 
ATOM      6  C   UNL d   1       2.055   0.069  -1.328  0.00  0.00     0.019 A 
ATOM      7  C   UNL d   1       1.893  -0.007   1.089  0.00  0.00     0.064 A 
ATOM      8  C   UNL d   1       0.383   1.359  -2.532  0.00  0.00     0.061 A 
ATOM      9 CL   UNL d   1      -1.025   2.378  -2.573  0.00  0.00    -0.082 Cl
ATOM     10  C   UNL d   1       2.646  -0.188  -2.595  0.00  0.00     0.016 A 
ATOM     11  C   UNL d   1       2.093   0.255  -3.795  0.00  0.00     0.003 A 
ATOM     12  C   UNL d   1       0.946   1.024  -3.764  0.00  0.00     0.026 A 
ENDROOT
BRANCH   3  13
ATOM     13  N   UNL d   1       3.582  -1.358   0.066  0.00  0.00    -0.377 N 
ATOM     14  C   UNL d   1       3.818  -2.456  -0.884  0.00  0.00     0.153 C 
ATOM     15  C   UNL d   1       4.184  -3.764  -0.145  0.00  0.00     0.292 C 
ATOM     16  N   UNL d   1       5.304  -3.654   0.816  0.00  0.00     0.093 N 
ATOM     17  C   UNL d   1       4.976  -2.554   1.760  0.00  0.00     0.292 C 
ATOM     18  C   UNL d   1       4.624  -1.192   1.100  0.00  0.00     0.153 C 
BRANCH  16  19
ATOM     19  C   UNL d   1       6.613  -3.414   0.180  0.00  0.00     0.298 C 
BRANCH  19  20
ATOM     20  C   UNL d   1       7.076  -4.497  -0.805  0.00  0.00     0.194 C 
BRANCH  20  21
ATOM     21  O   UNL d   1       8.377  -4.168  -1.288  0.00  0.00    -0.399 OA
ATOM     22  H   UNL d   1       8.638  -4.876  -1.902  0.00  0.00     0.209 HD
ENDBRANCH  20  21
ENDBRANCH  19  20
ENDBRANCH  16  19
ENDBRANCH   3  13
BRANCH   4  23
ATOM     23  C   UNL d   1       0.132   1.281   2.322  0.00  0.00     0.432 C 
ATOM     24  F   UNL d   1      -0.923   2.130   2.158  0.00  0.00    -0.165 F 
ATOM     25  F   UNL d   1      -0.352   0.222   3.033  0.00  0.00    -0.165 F 
ATOM     26  F   UNL d   1       0.994   1.920   3.166  0.00  0.00    -0.165 F 
ENDBRANCH   4  23
TORSDOF 5
