REMARK  0 active torsions:
REMARK  status: ('A' for Active; 'I' for Inactive)
ROOT
ATOM      1  C   UNL d   1       0.685   0.421   0.007  0.00  0.00     0.002 A 
ATOM      2  C   UNL d   1      -0.754   0.395   0.005  0.00  0.00    -0.013 A 
ATOM      3  C   UNL d   1       1.415  -0.790  -0.001  0.00  0.00     0.043 A 
ATOM      4  N   UNL d   1       2.760  -0.848  -0.015  0.00  0.00    -0.365 N 
ATOM      5  HN  UNL d   1       3.245  -1.745  -0.021  1.00  0.00     0.165 HD
ATOM      6  C   UNL d   1      -1.418  -0.857   0.002  0.00  0.00    -0.025 A 
ATOM      7  C   UNL d   1       0.725  -1.988   0.001  0.00  0.00     0.031 A 
ATOM      8  C   UNL d   1      -0.668  -2.034   0.004  0.00  0.00     0.014 A 
ATOM      9  C   UNL d   1       1.463   1.602   0.012  0.00  0.00     0.016 A 
ATOM     10  C   UNL d   1      -1.572   1.553  -0.002  0.00  0.00     0.013 A 
ATOM     11  C   UNL d   1       3.449   0.311  -0.021  0.00  0.00     0.088 A 
ATOM     12  C   UNL d   1      -2.822  -0.920  -0.009  0.00  0.00     0.012 A 
ATOM     13  C   UNL d   1       2.852   1.551  -0.005  0.00  0.00     0.018 A 
ATOM     14  C   UNL d   1      -2.968   1.477  -0.019  0.00  0.00     0.001 A 
ATOM     15  C   UNL d   1      -3.593   0.239  -0.023  0.00  0.00     0.001 A 
ENDROOT
TORSDOF 0
