REMARK  4 active torsions:
REMARK  status: ('A' for Active; 'I' for Inactive)
REMARK    1  A    between atoms: C_3  and  S_1 
REMARK    2  A    between atoms: N_8  and  S_1 
REMARK       I    between atoms: C_2  and  N_7 
REMARK       I    between atoms: N_4  and  C_2 
REMARK    3  A    between atoms: C_10  and  N_4 
REMARK    4  A    between atoms: N_7  and  C_13 
ROOT
ATOM      1  C   UNL d   1      -1.413   5.367   3.433  0.00  0.00     0.325 C 
ATOM      2  N   UNL d   1      -1.736   4.191   4.096  0.00  0.00    -0.309 N 
ATOM      3  N   UNL d   1      -0.734   5.108   2.249  0.00  0.00    -0.309 N 
ATOM      4  O   UNL d   1      -1.669   6.487   3.858  0.00  0.00    -0.247 OA
ATOM      5  H   UNL d   1      -1.773   3.348   3.545  0.00  0.00     0.170 HD
ATOM      6  H   UNL d   1      -0.561   4.139   2.034  0.00  0.00     0.170 HD
ENDROOT
BRANCH   3   7
ATOM      7  C   UNL d   1      -0.061   6.057   1.442  0.00  0.00     0.036 A 
ATOM      8  C   UNL d   1      -0.086   7.436   1.677  0.00  0.00     0.031 A 
ATOM      9  C   UNL d   1       0.734   8.305   0.949  0.00  0.00     0.027 A 
ATOM     10  C   UNL d   1       1.570   7.796  -0.043  0.00  0.00     0.074 A 
ATOM     11  C   UNL d   1       1.557   6.432  -0.340  0.00  0.00     0.027 A 
ATOM     12  C   UNL d   1       0.736   5.568   0.397  0.00  0.00     0.031 A 
BRANCH  10  13
ATOM     13  S   UNL d   1       2.775   8.853  -0.793  0.00  0.00     0.239 S 
ATOM     14  O   UNL d   1       3.858   8.041  -1.301  0.00  0.00    -0.206 OA
ATOM     15  O   UNL d   1       3.003   9.997   0.057  0.00  0.00    -0.206 OA
BRANCH  13  16
ATOM     16  N   UNL d   1       1.973   9.437  -2.145  0.00  0.00    -0.225 NA
ATOM     17  H   UNL d   1       2.457   9.123  -2.986  0.00  0.00     0.136 HD
ATOM     18  H   UNL d   1       1.902  10.454  -2.077  0.00  0.00     0.136 HD
ENDBRANCH  13  16
ENDBRANCH  10  13
ENDBRANCH   3   7
BRANCH   2  19
ATOM     19  C   UNL d   1      -2.180   4.085   5.436  0.00  0.00     0.036 A 
ATOM     20  C   UNL d   1      -2.110   5.138   6.355  0.00  0.00     0.036 A 
ATOM     21  C   UNL d   1      -2.536   4.976   7.683  0.00  0.00    -0.060 A 
ATOM     22  C   UNL d   1      -2.426   6.108   8.662  0.00  0.00     0.048 C 
ATOM     23  C   UNL d   1      -3.035   3.737   8.091  0.00  0.00     0.007 A 
ATOM     24  C   UNL d   1      -3.101   2.677   7.187  0.00  0.00     0.003 A 
ATOM     25  C   UNL d   1      -2.668   2.848   5.869  0.00  0.00     0.029 A 
ENDBRANCH   2  19
TORSDOF 4
