REMARK  2 active torsions:
REMARK  status: ('A' for Active; 'I' for Inactive)
REMARK    1  A    between atoms: C_7  and  C_1 
REMARK    2  A    between atoms: C_11  and  N_4 
ROOT
ATOM      1  C   UNL d   1       0.853   7.222  -0.897  0.00  0.00     0.042 A 
ATOM      2  C   UNL d   1       1.111   5.848  -0.872  0.00  0.00     0.053 A 
ATOM      3  C   UNL d   1      -0.103   7.788  -0.041  0.00  0.00    -0.040 A 
ATOM      4  C   UNL d   1       0.424   5.005   0.006  0.00  0.00     0.033 A 
ATOM      5  C   UNL d   1      -0.786   6.944   0.843  0.00  0.00     0.011 A 
ATOM      6 CL   UNL d   1       1.761   8.195  -2.001  0.00  0.00    -0.084 Cl
ATOM      7  C   UNL d   1      -0.516   5.571   0.873  0.00  0.00     0.030 A 
ATOM      8  C   UNL d   1      -0.393   9.263  -0.031  0.00  0.00     0.050 C 
ENDROOT
BRANCH   4   9
ATOM      9  N   UNL d   1       0.780   3.647   0.022  0.00  0.00    -0.365 N 
ATOM     10  C   UNL d   1      -0.135   2.747   0.194  0.00  0.00     0.107 C 
ATOM     11  HN  UNL d   1       1.754   3.370  -0.101  1.00  0.00     0.165 HD
BRANCH  10  12
ATOM     12  C   UNL d   1       0.217   1.348   0.223  0.00  0.00     0.020 A 
ATOM     13  S   UNL d   1      -0.991   0.186   0.564  0.00  0.00    -0.101 SA
ATOM     14  C   UNL d   1       0.124  -1.105   0.425  0.00  0.00     0.050 A 
ATOM     15  C   UNL d   1       1.392  -0.662   0.123  0.00  0.00     0.008 A 
ATOM     16  C   UNL d   1       1.447   0.758   0.012  0.00  0.00     0.021 A 
ENDBRANCH  10  12
ENDBRANCH   4   9
TORSDOF 2
