REMARK  3 active torsions:
REMARK  status: ('A' for Active; 'I' for Inactive)
REMARK    1  A    between atoms: C_2  and  C_7 
REMARK    2  A    between atoms: C_17  and  C_5 
REMARK       I    between atoms: C_7  and  N_15 
REMARK    3  A    between atoms: N_15  and  C_21 
ROOT
ATOM      1  C   UNL d   1       3.689  -0.668  -0.385  0.00  0.00    -0.008 A 
ATOM      2  C   UNL d   1       4.590   0.006   0.448  0.00  0.00     0.016 A 
ATOM      3  C   UNL d   1       4.179  -1.712  -1.176  0.00  0.00     0.016 A 
ATOM      4  C   UNL d   1       6.413  -1.448  -0.261  0.00  0.00     0.035 A 
ATOM      5  C   UNL d   1       5.523  -2.095  -1.116  0.00  0.00     0.030 A 
ATOM      6  C   UNL d   1       5.940  -0.377   0.507  0.00  0.00     0.030 A 
ENDROOT
BRANCH   4   7
ATOM      7  N   UNL d   1       7.764  -1.831  -0.097  0.00  0.00    -0.322 N 
ATOM      8  C   UNL d   1       8.415  -2.903  -0.696  0.00  0.00     0.266 C 
ATOM      9  O   UNL d   1       7.899  -3.615  -1.554  0.00  0.00    -0.267 OA
ATOM     10  H   UNL d   1       8.294  -1.294   0.577  0.00  0.00     0.169 HD
BRANCH   8  11
ATOM     11  C   UNL d   1       9.768  -3.160  -0.236  0.00  0.00     0.114 A 
ATOM     12  C   UNL d   1      10.662  -4.161  -0.606  0.00  0.00     0.046 A 
ATOM     13  N   UNL d   1      11.884  -4.119   0.061  0.00  0.00    -0.298 N 
ATOM     14  C   UNL d   1      10.484  -5.258  -1.596  0.00  0.00     0.071 C 
ATOM     15  N   UNL d   1      11.946  -3.121   0.923  0.00  0.00    -0.269 N 
ATOM     16  HN  UNL d   1      12.643  -4.782  -0.097  1.00  0.00     0.187 HD
ATOM     17  S   UNL d   1      10.553  -2.212   0.957  0.00  0.00     0.009 SA
ATOM     18  HN  UNL d   1      12.761  -2.928   1.505  1.00  0.00     0.195 HD
ENDBRANCH   8  11
ENDBRANCH   4   7
BRANCH   1  19
ATOM     19  C   UNL d   1       2.281  -0.298  -0.403  0.00  0.00     0.060 A 
ATOM     20  N   UNL d   1       1.739   0.698   0.403  0.00  0.00    -0.335 N 
ATOM     21  C   UNL d   1       0.472   0.692   0.097  0.00  0.00     0.147 A 
ATOM     22  HN  UNL d   1       2.221   1.294   1.076  1.00  0.00     0.168 HD
ATOM     23  N   UNL d   1       0.168  -0.230  -0.844  0.00  0.00    -0.335 N 
ATOM     24  S   UNL d   1      -0.900   1.566   0.643  0.00  0.00    -0.092 SA
ATOM     25  C   UNL d   1       1.297  -0.886  -1.190  0.00  0.00     0.123 A 
ATOM     26  C   UNL d   1      -1.198  -0.304  -1.300  0.00  0.00     0.141 C 
ATOM     27  C   UNL d   1      -2.042   0.435  -0.257  0.00  0.00     0.102 C 
ENDBRANCH   1  19
TORSDOF 3
