REMARK  4 active torsions:
REMARK  status: ('A' for Active; 'I' for Inactive)
REMARK       I    between atoms: N_4  and  C_1 
REMARK       I    between atoms: N_7  and  C_1 
REMARK       I    between atoms: C_2  and  N_6 
REMARK       I    between atoms: N_8  and  C_2 
REMARK    1  A    between atoms: C_3  and  N_4 
REMARK    2  A    between atoms: N_6  and  C_9 
REMARK    3  A    between atoms: N_13  and  N_7 
REMARK    4  A    between atoms: N_14  and  N_8 
ROOT
ATOM      1  C   UNL d   1       1.009  -0.108   2.536  0.00  0.00     0.025 C 
ATOM      2  C   UNL d   1       0.356  -1.058   3.333  0.00  0.00     0.054 C 
ATOM      3  C   UNL d   1       1.011  -1.663   4.406  0.00  0.00     0.038 C 
ATOM      4  C   UNL d   1       2.266   0.388   2.909  0.00  0.00    -0.040 C 
ATOM      5  C   UNL d   1       2.895  -0.173   4.030  0.00  0.00     0.011 C 
ATOM      6  C   UNL d   1       2.285  -1.204   4.754  0.00  0.00     0.030 C 
ATOM      7  C   UNL d   1       2.965   1.500   2.175  0.00  0.00     0.050 C 
ENDROOT
BRANCH   1   8
ATOM      8  N   UNL d   1       0.378   0.222   1.310  0.00  0.00    -0.209 NA
ATOM      9  C   UNL d   1       1.035  -0.090   0.119  0.00  0.00     0.313 C 
ATOM     10  N   UNL d   1       0.200   0.155  -0.973  0.00  0.00    -0.276 N 
ATOM     11  O   UNL d   1       2.162  -0.566   0.041  0.00  0.00    -0.252 OA
ATOM     12  H   UNL d   1      -0.532   0.844  -0.844  0.00  0.00     0.185 HD
ATOM     13  H   UNL d   1      -0.597  -0.042   1.256  0.00  0.00     0.138 HD
BRANCH  10  14
ATOM     14  N   UNL d   1       0.573  -0.131  -2.312  0.00  0.00    -0.236 NA
ATOM     15  C   UNL d   1       1.758   0.619  -2.737  0.00  0.00     0.135 C 
ATOM     16  C   UNL d   1       0.751  -1.568  -2.537  0.00  0.00     0.135 C 
ENDBRANCH  10  14
ENDBRANCH   1   8
BRANCH   3  17
ATOM     17  N   UNL d   1       0.480  -2.763   5.118  0.00  0.00    -0.308 N 
ATOM     18  C   UNL d   1      -0.728  -3.404   4.885  0.00  0.00     0.335 C 
ATOM     19  N   UNL d   1      -0.902  -4.495   5.732  0.00  0.00    -0.271 N 
ATOM     20  O   UNL d   1      -1.568  -3.057   4.058  0.00  0.00    -0.246 OA
ATOM     21  H   UNL d   1      -0.108  -4.850   6.249  0.00  0.00     0.185 HD
ATOM     22  H   UNL d   1       1.063  -3.150   5.843  0.00  0.00     0.170 HD
BRANCH  19  23
ATOM     23  N   UNL d   1      -2.075  -5.295   5.752  0.00  0.00    -0.236 NA
ATOM     24  C   UNL d   1      -3.284  -4.514   6.031  0.00  0.00     0.135 C 
ATOM     25  C   UNL d   1      -2.239  -6.091   4.534  0.00  0.00     0.135 C 
ENDBRANCH  19  23
ENDBRANCH   3  17
TORSDOF 4
