REMARK  3 active torsions:
REMARK  status: ('A' for Active; 'I' for Inactive)
REMARK    1  A    between atoms: C_2  and  S_1 
REMARK    2  A    between atoms: C_3  and  S_1 
REMARK    3  A    between atoms: C_8  and  C_4 
ROOT
ATOM      1  C   UNL d   1       0.348   1.250   1.024  0.00  0.00     0.146 C 
ATOM      2  C   UNL d   1      -0.332   2.262   0.452  0.00  0.00     0.066 C 
ATOM      3  C   UNL d   1       0.782   0.084   0.352  0.00  0.00     0.112 C 
ATOM      4  N   UNL d   1       1.208  -0.868  -0.160  0.00  0.00    -0.191 NA
ENDROOT
BRANCH   1   5
ATOM      5  S   UNL d   1       0.693   1.379   2.710  0.00  0.00     0.223 S 
ATOM      6  O   UNL d   1      -0.345   0.702   3.466  0.00  0.00    -0.216 OA
ATOM      7  O   UNL d   1       1.066   2.743   3.048  0.00  0.00    -0.216 OA
BRANCH   5   8
ATOM      8  C   UNL d   1       2.162   0.420   3.046  0.00  0.00     0.105 A 
ATOM      9  S   UNL d   1       3.601   0.903   2.251  0.00  0.00    -0.090 SA
ATOM     10  C   UNL d   1       4.495  -0.372   2.963  0.00  0.00     0.051 A 
ATOM     11  C   UNL d   1       3.728  -1.125   3.823  0.00  0.00     0.009 A 
ATOM     12  C   UNL d   1       2.380  -0.666   3.873  0.00  0.00     0.032 A 
ENDBRANCH   5   8
ENDBRANCH   1   5
BRANCH   2  13
ATOM     13  C   UNL d   1      -0.757   2.312  -0.899  0.00  0.00     0.050 A 
ATOM     14  N   UNL d   1      -1.086   1.174  -1.576  0.00  0.00    -0.351 N 
ATOM     15  C   UNL d   1      -1.423   1.575  -2.780  0.00  0.00     0.180 A 
ATOM     16  HN  UNL d   1      -1.073   0.217  -1.223  1.00  0.00     0.166 HD
ATOM     17  N   UNL d   1      -1.328   2.933  -2.898  0.00  0.00    -0.360 N 
ATOM     18  C   UNL d   1      -0.920   3.425  -1.685  0.00  0.00     0.118 A 
ATOM     19  H   UNL d   1      -1.522   3.469  -3.733  0.00  0.00     0.166 HD
ENDBRANCH   2  13
TORSDOF 3
