REMARK  3 active torsions:
REMARK  status: ('A' for Active; 'I' for Inactive)
REMARK    1  A    between atoms: N_2  and  S_1 
REMARK    2  A    between atoms: C_3  and  S_1 
REMARK    3  A    between atoms: C_7  and  C_6 
ROOT
ATOM      1  N   UNL d   1       0.484  -0.445   1.505  0.00  0.00    -0.188 N 
ATOM      2  N   UNL d   1      -0.065   0.386   2.432  0.00  0.00    -0.284 N 
ATOM      3  HN  UNL d   1      -0.309   1.371   2.323  1.00  0.00     0.188 HD
ATOM      4  C   UNL d   1      -0.213  -0.383   3.518  0.00  0.00     0.067 A 
ATOM      5  C   UNL d   1       0.567  -1.744   1.950  0.00  0.00     0.132 A 
ATOM      6  C   UNL d   1       0.159  -1.724   3.262  0.00  0.00     0.052 A 
ENDROOT
BRANCH   1   7
ATOM      7  S   UNL d   1       1.000  -0.019  -0.096  0.00  0.00     0.283 S 
ATOM      8  O   UNL d   1       2.095  -0.931  -0.381  0.00  0.00    -0.198 OA
ATOM      9  O   UNL d   1       1.199   1.417  -0.124  0.00  0.00    -0.198 OA
BRANCH   7  10
ATOM     10  C   UNL d   1      -0.346  -0.435  -1.168  0.00  0.00     0.104 A 
ATOM     11  C   UNL d   1      -0.121  -1.422  -2.145  0.00  0.00     0.050 A 
ATOM     12  C   UNL d   1      -1.121  -1.738  -3.063  0.00  0.00     0.035 A 
ATOM     13 CL   UNL d   1      -0.839  -2.940  -4.259  0.00  0.00    -0.084 Cl
ATOM     14  C   UNL d   1      -2.345  -1.079  -3.022  0.00  0.00     0.025 A 
ATOM     15  C   UNL d   1      -2.567  -0.096  -2.055  0.00  0.00     0.027 A 
ATOM     16  C   UNL d   1      -1.571   0.235  -1.125  0.00  0.00     0.057 A 
ATOM     17 CL   UNL d   1      -1.960   1.481  -0.004  0.00  0.00    -0.083 Cl
ENDBRANCH   7  10
ENDBRANCH   1   7
BRANCH   4  18
ATOM     18  C   UNL d   1      -0.712   0.160   4.826  0.00  0.00     0.034 A 
ATOM     19  S   UNL d   1      -0.808  -0.758   6.269  0.00  0.00    -0.081 SA
ATOM     20  C   UNL d   1      -1.392   0.570   7.140  0.00  0.00     0.052 A 
ATOM     21 BR   UNL d   1      -1.790   0.496   8.969  0.00  0.00    -0.043 Br
ATOM     22  C   UNL d   1      -1.543   1.698   6.374  0.00  0.00     0.028 A 
ATOM     23  C   UNL d   1      -1.140   1.460   5.023  0.00  0.00     0.023 A 
ENDBRANCH   4  18
TORSDOF 3
