REMARK  5 active torsions:
REMARK  status: ('A' for Active; 'I' for Inactive)
REMARK    1  A    between atoms: N_5  and  C_1 
REMARK    2  A    between atoms: C_8  and  C_2 
REMARK    3  A    between atoms: C_11  and  C_3 
REMARK    4  A    between atoms: N_9  and  C_13 
REMARK    5  A    between atoms: O_23  and  C_10 
ROOT
ATOM      1  C   UNL d   1      -0.761   1.208  -0.059  0.00  0.00     0.147 A 
ATOM      2  C   UNL d   1      -1.482  -0.006  -0.106  0.00  0.00     0.108 A 
ATOM      3  C   UNL d   1       0.634   1.226   0.051  0.00  0.00     0.078 A 
ATOM      4  C   UNL d   1      -0.743  -1.201  -0.048  0.00  0.00     0.113 A 
ATOM      5  N   UNL d   1       1.323   0.052   0.074  0.00  0.00    -0.333 N 
ATOM      6  HN  UNL d   1       2.342   0.047   0.128  1.00  0.00     0.168 HD
ATOM      7  C   UNL d   1       0.634  -1.101   0.023  0.00  0.00     0.162 A 
ATOM      8  C   UNL d   1      -1.362  -2.494  -0.055  0.00  0.00     0.104 C 
ATOM      9  N   UNL d   1      -1.907  -3.517  -0.053  0.00  0.00    -0.191 NA
ENDROOT
BRANCH   2  10
ATOM     10  C   UNL d   1      -2.982  -0.082  -0.198  0.00  0.00     0.421 C 
ATOM     11  F   UNL d   1      -3.609   1.105  -0.382  0.00  0.00    -0.166 F 
ATOM     12  F   UNL d   1      -3.386  -0.861  -1.235  0.00  0.00    -0.166 F 
ATOM     13  F   UNL d   1      -3.524  -0.621   0.925  0.00  0.00    -0.166 F 
ENDBRANCH   2  10
BRANCH   7  14
ATOM     14  O   UNL d   1       1.434  -2.194   0.049  0.00  0.00    -0.345 OA
ATOM     15  H   UNL d   1       2.324  -1.796   0.083  0.00  0.00     0.219 HD
ENDBRANCH   7  14
BRANCH   1  16
ATOM     16  N   UNL d   1      -1.466   2.459  -0.160  0.00  0.00    -0.112 N 
ATOM     17  O   UNL d   1      -2.029   2.853   0.868  0.00  0.00    -0.532 OA
ATOM     18  O   UNL d   1      -1.449   3.020  -1.260  0.00  0.00    -0.532 OA
ENDBRANCH   1  16
BRANCH   3  19
ATOM     19  C   UNL d   1       1.525   2.410   0.183  0.00  0.00    -0.004 A 
ATOM     20  C   UNL d   1       2.803   2.395  -0.417  0.00  0.00     0.050 A 
ATOM     21  C   UNL d   1       3.709   3.453  -0.232  0.00  0.00     0.103 A 
ATOM     22  C   UNL d   1       3.353   4.568   0.529  0.00  0.00     0.036 A 
ATOM     23  C   UNL d   1       2.095   4.606   1.123  0.00  0.00     0.003 A 
ATOM     24  C   UNL d   1       1.206   3.534   0.969  0.00  0.00     0.014 A 
BRANCH  21  25
ATOM     25  N   UNL d   1       5.056   3.369  -0.810  0.00  0.00    -0.116 N 
ATOM     26  O   UNL d   1       5.333   2.366  -1.484  0.00  0.00    -0.532 OA
ATOM     27  O   UNL d   1       5.841   4.301  -0.582  0.00  0.00    -0.532 OA
ENDBRANCH  21  25
ENDBRANCH   3  19
TORSDOF 5
