REMARK  7 active torsions:
REMARK  status: ('A' for Active; 'I' for Inactive)
REMARK    1  A    between atoms: N_2  and  C_1 
REMARK    2  A    between atoms: C_3  and  C_1 
REMARK    3  A    between atoms: C_4  and  C_1 
REMARK    4  A    between atoms: N_5  and  C_1 
REMARK       I    between atoms: C_6  and  N_2 
REMARK    5  A    between atoms: C_7  and  N_5 
REMARK    6  A    between atoms: O_18  and  C_6 
REMARK    7  A    between atoms: C_22  and  O_18 
ROOT
ATOM      1  C   UNL d   1       0.934  -0.008  -0.217  0.00  0.00     0.293 C 
ENDROOT
BRANCH   1   2
ATOM      2  N   UNL d   1       0.451  -1.048  -1.135  0.00  0.00    -0.299 N 
ATOM      3  C   UNL d   1      -0.879  -1.251  -1.298  0.00  0.00     0.362 C 
ATOM      4  O   UNL d   1      -1.737  -0.722  -0.622  0.00  0.00    -0.238 OA
ATOM      5  H   UNL d   1       1.002  -1.199  -1.970  0.00  0.00     0.167 HD
BRANCH   3   6
ATOM      6  O   UNL d   1      -1.066  -2.157  -2.282  0.00  0.00    -0.304 OA
BRANCH   6   7
ATOM      7  C   UNL d   1      -2.378  -2.734  -2.328  0.00  0.00     0.176 C 
ATOM      8  C   UNL d   1      -2.455  -3.856  -1.306  0.00  0.00     0.034 C 
ENDBRANCH   6   7
ENDBRANCH   3   6
ENDBRANCH   1   2
BRANCH   1   9
ATOM      9  C   UNL d   1       0.512  -0.271   1.289  0.00  0.00     0.436 C 
ATOM     10  F   UNL d   1      -0.191  -1.427   1.427  0.00  0.00    -0.167 F 
ATOM     11  F   UNL d   1       1.628  -0.471   2.058  0.00  0.00    -0.167 F 
ATOM     12  F   UNL d   1      -0.184   0.699   1.907  0.00  0.00    -0.167 F 
ENDBRANCH   1   9
BRANCH   1  13
ATOM     13  C   UNL d   1       0.455   1.447  -0.575  0.00  0.00     0.436 C 
ATOM     14  F   UNL d   1       0.141   1.569  -1.894  0.00  0.00    -0.167 F 
ATOM     15  F   UNL d   1      -0.652   1.857   0.085  0.00  0.00    -0.167 F 
ATOM     16  F   UNL d   1       1.416   2.371  -0.316  0.00  0.00    -0.167 F 
ENDBRANCH   1  13
BRANCH   1  17
ATOM     17  N   UNL d   1       2.444  -0.179  -0.307  0.00  0.00    -0.237 NA
ATOM     18  H   UNL d   1       2.741  -1.048   0.138  0.00  0.00     0.132 HD
BRANCH  17  19
ATOM     19  C   UNL d   1       3.098   0.042  -1.505  0.00  0.00     0.082 A 
ATOM     20  N   UNL d   1       2.377   0.355  -2.594  0.00  0.00    -0.356 N 
ATOM     21  C   UNL d   1       3.033   0.596  -3.747  0.00  0.00     0.096 A 
ATOM     22  HN  UNL d   1       1.360   0.410  -2.549  1.00  0.00     0.166 HD
ATOM     23  C   UNL d   1       4.410   0.511  -3.892  0.00  0.00    -0.046 A 
ATOM     24  C   UNL d   1       5.144   0.177  -2.756  0.00  0.00     0.011 A 
ATOM     25  C   UNL d   1       5.057   0.777  -5.209  0.00  0.00     0.049 C 
ATOM     26  C   UNL d   1       4.482  -0.052  -1.550  0.00  0.00     0.043 A 
ENDBRANCH  17  19
ENDBRANCH   1  17
TORSDOF 7
