REMARK  6 active torsions:
REMARK  status: ('A' for Active; 'I' for Inactive)
REMARK    1  A    between atoms: S_2  and  N_1 
REMARK    2  A    between atoms: C_15  and  S_2 
REMARK    3  A    between atoms: S_11  and  C_3 
REMARK    4  A    between atoms: N_8  and  C_6 
REMARK    5  A    between atoms: N_10  and  C_14 
REMARK    6  A    between atoms: C_13  and  S_11 
ROOT
ATOM      1  N   UNL d   1       1.403   1.673  -0.417  0.00  0.00    -0.212 N 
ATOM      2  C   UNL d   1       2.166   0.594  -0.799  0.00  0.00     0.167 C 
ATOM      3  N   UNL d   1       1.486  -0.529  -0.718  0.00  0.00    -0.334 N 
ATOM      4  HN  UNL d   1       1.836  -1.476  -0.866  1.00  0.00     0.168 HD
ATOM      5  C   UNL d   1       0.104   1.222  -0.235  0.00  0.00     0.079 A 
ATOM      6  C   UNL d   1       0.215  -0.160  -0.395  0.00  0.00     0.062 A 
ATOM      7  C   UNL d   1      -1.128   1.825   0.052  0.00  0.00     0.034 A 
ATOM      8  C   UNL d   1      -0.909  -0.986  -0.257  0.00  0.00     0.038 A 
ATOM      9  C   UNL d   1      -2.251   0.983   0.153  0.00  0.00     0.009 A 
ATOM     10  C   UNL d   1      -2.156  -0.406   0.001  0.00  0.00    -0.060 A 
ATOM     11  C   UNL d   1      -3.359  -1.296   0.122  0.00  0.00     0.048 C 
ENDROOT
BRANCH   2  12
ATOM     12  S   UNL d   1       3.655   0.657  -1.721  0.00  0.00    -0.051 SA
BRANCH  12  13
ATOM     13  C   UNL d   1       3.020  -0.321  -3.098  0.00  0.00     0.041 A 
ATOM     14  C   UNL d   1       2.112   0.194  -4.036  0.00  0.00     0.122 A 
ATOM     15  C   UNL d   1       1.362  -0.623  -4.888  0.00  0.00     0.073 A 
ATOM     16  C   UNL d   1       1.561  -2.005  -4.816  0.00  0.00     0.105 A 
ATOM     17  C   UNL d   1       2.530  -2.547  -3.957  0.00  0.00     0.037 A 
ATOM     18  C   UNL d   1       3.255  -1.705  -3.102  0.00  0.00     0.024 A 
BRANCH  14  19
ATOM     19  N   UNL d   1       1.883   1.618  -4.103  0.00  0.00    -0.114 N 
ATOM     20  O   UNL d   1       0.862   2.050  -3.554  0.00  0.00    -0.532 OA
ATOM     21  O   UNL d   1       2.732   2.296  -4.692  0.00  0.00    -0.532 OA
ENDBRANCH  14  19
BRANCH  16  22
ATOM     22  N   UNL d   1       0.710  -2.898  -5.612  0.00  0.00    -0.116 N 
ATOM     23  O   UNL d   1      -0.250  -2.390  -6.207  0.00  0.00    -0.532 OA
ATOM     24  O   UNL d   1       0.997  -4.103  -5.632  0.00  0.00    -0.532 OA
ENDBRANCH  16  22
ENDBRANCH  12  13
ENDBRANCH   2  12
BRANCH   1  25
ATOM     25  S   UNL d   1       2.031   3.063   0.316  0.00  0.00     0.271 S 
ATOM     26  O   UNL d   1       1.679   2.931   1.715  0.00  0.00    -0.200 OA
ATOM     27  O   UNL d   1       3.417   3.178  -0.101  0.00  0.00    -0.200 OA
BRANCH  25  28
ATOM     28  C   UNL d   1       1.195   4.484  -0.345  0.00  0.00     0.080 A 
ATOM     29  C   UNL d   1       0.438   5.290   0.509  0.00  0.00     0.026 A 
ATOM     30  C   UNL d   1      -0.051   6.516   0.059  0.00  0.00     0.008 A 
ATOM     31  C   UNL d   1       0.223   6.960  -1.241  0.00  0.00    -0.062 A 
ATOM     32  C   UNL d   1       0.972   6.138  -2.097  0.00  0.00     0.008 A 
ATOM     33  C   UNL d   1      -0.254   8.313  -1.684  0.00  0.00     0.048 C 
ATOM     34  C   UNL d   1       1.464   4.906  -1.652  0.00  0.00     0.026 A 
ENDBRANCH  25  28
ENDBRANCH   1  25
TORSDOF 6
