REMARK  4 active torsions:
REMARK  status: ('A' for Active; 'I' for Inactive)
REMARK    1  A    between atoms: C_8  and  C_1 
REMARK    2  A    between atoms: C_6  and  O_7 
REMARK    3  A    between atoms: C_10  and  C_6 
REMARK    4  A    between atoms: O_7  and  C_8 
ROOT
ATOM      1  C   UNL d   1       2.147   0.159   0.028  0.00  0.00     0.014 A 
ATOM      2  S   UNL d   1       1.350   0.229  -1.484  0.00  0.00    -0.091 SA
ATOM      3  C   UNL d   1       1.248   0.076   1.082  0.00  0.00    -0.035 A 
ATOM      4  C   UNL d   1      -0.126   0.080   0.619  0.00  0.00    -0.012 A 
ATOM      5  C   UNL d   1      -0.209   0.142  -0.772  0.00  0.00     0.016 A 
ATOM      6  C   UNL d   1       1.610  -0.021   2.530  0.00  0.00     0.050 C 
ATOM      7  C   UNL d   1      -1.341   0.020   1.352  0.00  0.00     0.013 A 
ATOM      8  C   UNL d   1      -1.451   0.130  -1.440  0.00  0.00     0.019 A 
ATOM      9  C   UNL d   1      -2.574   0.013   0.696  0.00  0.00     0.001 A 
ATOM     10  C   UNL d   1      -2.627   0.063  -0.689  0.00  0.00     0.001 A 
ENDROOT
BRANCH   1  11
ATOM     11  C   UNL d   1       3.647   0.177   0.066  0.00  0.00     0.225 C 
BRANCH  11  12
ATOM     12  O   UNL d   1       4.048   1.553   0.110  0.00  0.00    -0.312 OA
BRANCH  12  13
ATOM     13  C   UNL d   1       4.829   1.931   1.148  0.00  0.00     0.293 C 
ATOM     14  O   UNL d   1       5.179   1.232   2.084  0.00  0.00    -0.259 OA
BRANCH  13  15
ATOM     15  C   UNL d   1       5.247   3.353   0.980  0.00  0.00     0.039 A 
ATOM     16  C   UNL d   1       6.061   3.934   1.962  0.00  0.00     0.017 A 
ATOM     17  C   UNL d   1       6.503   5.252   1.823  0.00  0.00     0.001 A 
ATOM     18  C   UNL d   1       6.137   5.997   0.702  0.00  0.00     0.000 A 
ATOM     19  C   UNL d   1       5.322   5.430  -0.276  0.00  0.00     0.001 A 
ATOM     20  C   UNL d   1       4.875   4.114  -0.139  0.00  0.00     0.017 A 
ENDBRANCH  13  15
ENDBRANCH  12  13
ENDBRANCH  11  12
ENDBRANCH   1  11
TORSDOF 4
