REMARK  4 active torsions:
REMARK  status: ('A' for Active; 'I' for Inactive)
REMARK    1  A    between atoms: C_2  and  C_1 
REMARK    2  A    between atoms: O_8  and  C_2 
REMARK    3  A    between atoms: C_7  and  C_3 
REMARK    4  A    between atoms: C_9  and  O_8 
ROOT
ATOM      1  C   UNL d   1       0.950   0.067   0.031  0.00  0.00     0.120 C 
ATOM      2  C   UNL d   1       0.296  -0.462   1.083  0.00  0.00     0.040 C 
ATOM      3  C   UNL d   1       0.291   0.566  -1.127  0.00  0.00     0.105 C 
ATOM      4  N   UNL d   1      -0.252   0.981  -2.068  0.00  0.00    -0.191 NA
ENDROOT
BRANCH   1   5
ATOM      5  C   UNL d   1       2.423   0.188   0.156  0.00  0.00     0.303 C 
ATOM      6  O   UNL d   1       3.060  -0.166   1.139  0.00  0.00    -0.258 OA
BRANCH   5   7
ATOM      7  O   UNL d   1       2.939   0.821  -0.926  0.00  0.00    -0.317 OA
BRANCH   7   8
ATOM      8  C   UNL d   1       4.276   1.319  -0.778  0.00  0.00     0.174 C 
ATOM      9  C   UNL d   1       4.199   2.716  -0.187  0.00  0.00     0.034 C 
ENDBRANCH   7   8
ENDBRANCH   5   7
ENDBRANCH   1   5
BRANCH   2  10
ATOM     10  C   UNL d   1      -1.160  -0.572   1.165  0.00  0.00    -0.035 A 
ATOM     11  C   UNL d   1      -1.810  -1.706   0.672  0.00  0.00     0.011 A 
ATOM     12  C   UNL d   1      -3.203  -1.785   0.716  0.00  0.00     0.001 A 
ATOM     13  C   UNL d   1      -3.946  -0.734   1.253  0.00  0.00     0.000 A 
ATOM     14  C   UNL d   1      -3.299   0.396   1.753  0.00  0.00     0.001 A 
ATOM     15  C   UNL d   1      -1.908   0.478   1.710  0.00  0.00     0.011 A 
ENDBRANCH   2  10
TORSDOF 4
