REMARK  4 active torsions:
REMARK  status: ('A' for Active; 'I' for Inactive)
REMARK    1  A    between atoms: C_6  and  C_1 
REMARK    2  A    between atoms: C_11  and  C_3 
REMARK    3  A    between atoms: C_9  and  C_5 
REMARK    4  A    between atoms: C_10  and  C_6 
ROOT
ATOM      1  C   UNL d   1      -1.446  -1.335   0.182  0.00  0.00     0.040 A 
ATOM      2  C   UNL d   1      -0.386  -0.445  -0.156  0.00  0.00     0.032 A 
ATOM      3  C   UNL d   1      -2.750  -0.821   0.338  0.00  0.00    -0.010 A 
ATOM      4  C   UNL d   1      -0.556   0.962  -0.243  0.00  0.00    -0.032 A 
ATOM      5  C   UNL d   1      -1.870   1.481  -0.101  0.00  0.00    -0.018 A 
ATOM      6  C   UNL d   1      -2.919   0.567   0.154  0.00  0.00     0.026 A 
ATOM      7  C   UNL d   1       0.902  -1.058  -0.566  0.00  0.00     0.161 C 
ATOM      8  O   UNL d   1       0.911  -1.723  -1.602  0.00  0.00    -0.292 OA
ATOM      9  C   UNL d   1       0.604   1.923  -0.476  0.00  0.00     0.040 C 
ATOM     10  C   UNL d   1       2.118  -0.886   0.309  0.00  0.00     0.084 C 
ATOM     11  C   UNL d   1       2.063   1.553  -0.181  0.00  0.00     0.005 C 
ATOM     12  C   UNL d   1       2.252   0.506   0.904  0.00  0.00     0.008 C 
ENDROOT
BRANCH   1  13
ATOM     13  C   UNL d   1      -1.060  -2.727   0.567  0.00  0.00     0.194 C 
ATOM     14  O   UNL d   1      -0.078  -2.844   1.301  0.00  0.00    -0.287 OA
BRANCH  13  15
ATOM     15  C   UNL d   1      -1.845  -3.953   0.272  0.00  0.00     0.015 A 
ATOM     16  C   UNL d   1      -1.781  -4.990   1.220  0.00  0.00     0.017 A 
ATOM     17  C   UNL d   1      -2.630  -6.092   1.126  0.00  0.00     0.025 A 
ATOM     18  C   UNL d   1      -3.534  -6.168   0.072  0.00  0.00     0.034 A 
ATOM     19  C   UNL d   1      -3.554  -5.181  -0.916  0.00  0.00     0.025 A 
ATOM     20 CL   UNL d   1      -4.650  -7.476   0.005  0.00  0.00    -0.084 Cl
ATOM     21  C   UNL d   1      -2.696  -4.078  -0.828  0.00  0.00     0.017 A 
ENDBRANCH  13  15
ENDBRANCH   1  13
BRANCH   3  22
ATOM     22  C   UNL d   1      -3.963  -1.591   0.690  0.00  0.00    -0.025 A 
ATOM     23  C   UNL d   1      -4.052  -2.369   1.853  0.00  0.00     0.012 A 
ATOM     24  C   UNL d   1      -5.204  -3.112   2.134  0.00  0.00     0.001 A 
ATOM     25  C   UNL d   1      -6.307  -3.046   1.285  0.00  0.00     0.000 A 
ATOM     26  C   UNL d   1      -6.262  -2.240   0.154  0.00  0.00     0.001 A 
ATOM     27  C   UNL d   1      -5.098  -1.529  -0.145  0.00  0.00     0.012 A 
ENDBRANCH   3  22
BRANCH   5  28
ATOM     28  C   UNL d   1      -2.234   2.928  -0.159  0.00  0.00    -0.025 A 
ATOM     29  C   UNL d   1      -3.081   3.487   0.824  0.00  0.00     0.014 A 
ATOM     30  C   UNL d   1      -3.453   4.836   0.796  0.00  0.00     0.024 A 
ATOM     31  C   UNL d   1      -2.960   5.665  -0.203  0.00  0.00     0.034 A 
ATOM     32  C   UNL d   1      -2.131   5.147  -1.191  0.00  0.00     0.024 A 
ATOM     33 CL   UNL d   1      -3.379   7.332  -0.218  0.00  0.00    -0.084 Cl
ATOM     34  C   UNL d   1      -1.798   3.785  -1.183  0.00  0.00     0.014 A 
ENDBRANCH   5  28
TORSDOF 4
