REMARK  3 active torsions:
REMARK  status: ('A' for Active; 'I' for Inactive)
REMARK    1  A    between atoms: C_3  and  C_1 
REMARK    2  A    between atoms: C_2  and  C_3 
REMARK    3  A    between atoms: N_15  and  C_7 
ROOT
ATOM      1  C   UNL d   1      -1.460   0.295   0.096  0.00  0.00     0.025 C 
ATOM      2  C   UNL d   1      -0.724   1.063   1.220  0.00  0.00     0.022 C 
ATOM      3  C   UNL d   1      -0.940   0.784  -1.277  0.00  0.00     0.022 C 
ATOM      4  C   UNL d   1      -1.101  -1.211   0.232  0.00  0.00     0.022 C 
ATOM      5  C   UNL d   1       0.798   0.854   1.111  0.00  0.00    -0.013 C 
ATOM      6  C   UNL d   1       0.582   0.575  -1.386  0.00  0.00    -0.013 C 
ATOM      7  C   UNL d   1       0.417  -1.429   0.125  0.00  0.00    -0.013 C 
ATOM      8  C   UNL d   1       1.283   1.355  -0.260  0.00  0.00     0.009 C 
ATOM      9  C   UNL d   1       1.119  -0.643   1.243  0.00  0.00     0.009 C 
ATOM     10  C   UNL d   1       0.904  -0.920  -1.240  0.00  0.00     0.009 C 
ENDROOT
BRANCH   1  11
ATOM     11  C   UNL d   1      -2.989   0.476   0.213  0.00  0.00     0.159 C 
ATOM     12  O   UNL d   1      -3.738  -0.481   0.411  0.00  0.00    -0.292 OA
BRANCH  11  13
ATOM     13  C   UNL d   1      -3.555   1.857   0.083  0.00  0.00     0.068 C 
ATOM     14  C   UNL d   1      -4.875   2.064   0.191  0.00  0.00     0.088 C 
BRANCH  14  15
ATOM     15  N   UNL d   1      -5.610   3.240   0.104  0.00  0.00    -0.398 N 
ATOM     16  C   UNL d   1      -5.046   4.561  -0.160  0.00  0.00     0.148 C 
ATOM     17  C   UNL d   1      -7.066   3.241   0.270  0.00  0.00     0.148 C 
ENDBRANCH  14  15
ENDBRANCH  11  13
ENDBRANCH   1  11
TORSDOF 3
