REMARK  4 active torsions:
REMARK  status: ('A' for Active; 'I' for Inactive)
REMARK    1  A    between atoms: C_8  and  C_1 
REMARK    2  A    between atoms: C_2  and  O_10 
REMARK       I    between atoms: N_5  and  C_2 
REMARK    3  A    between atoms: O_10  and  N_3 
REMARK    4  A    between atoms: C_11  and  N_5 
ROOT
ATOM      1  O   UNL d   1      -1.027   4.043   0.165  0.00  0.00    -0.181 OA
ENDROOT
BRANCH   1   2
ATOM      2  C   UNL d   1      -2.172   4.767  -0.029  0.00  0.00     0.387 C 
ATOM      3  N   UNL d   1      -3.341   4.044  -0.138  0.00  0.00    -0.301 N 
ATOM      4  H   UNL d   1      -4.096   4.642  -0.453  0.00  0.00     0.171 HD
ATOM      5  O   UNL d   1      -2.202   5.987  -0.166  0.00  0.00    -0.236 OA
BRANCH   3   6
ATOM      6  C   UNL d   1      -3.601   2.669  -0.034  0.00  0.00     0.037 A 
ATOM      7  C   UNL d   1      -2.736   1.745   0.555  0.00  0.00     0.031 A 
ATOM      8  C   UNL d   1      -3.094   0.394   0.640  0.00  0.00     0.026 A 
ATOM      9  C   UNL d   1      -4.315  -0.039   0.132  0.00  0.00     0.034 A 
ATOM     10  C   UNL d   1      -5.186   0.869  -0.460  0.00  0.00     0.026 A 
ATOM     11 CL   UNL d   1      -4.754  -1.698   0.251  0.00  0.00    -0.084 Cl
ATOM     12  C   UNL d   1      -4.832   2.220  -0.533  0.00  0.00     0.031 A 
ENDBRANCH   3   6
ENDBRANCH   1   2
BRANCH   1  13
ATOM     13  N   UNL d   1      -0.190   4.264  -0.944  0.00  0.00    -0.267 N 
ATOM     14  C   UNL d   1       0.944   3.665  -0.780  0.00  0.00     0.129 C 
ATOM     15  HN  UNL d   1      -0.442   4.819  -1.762  1.00  0.00     0.194 HD
BRANCH  14  16
ATOM     16  C   UNL d   1       1.897   3.560  -1.905  0.00  0.00     0.025 A 
ATOM     17  C   UNL d   1       2.017   4.569  -2.873  0.00  0.00     0.047 A 
ATOM     18 CL   UNL d   1       1.448   6.185  -2.635  0.00  0.00    -0.083 Cl
ATOM     19  C   UNL d   1       2.680   4.311  -4.079  0.00  0.00     0.025 A 
ATOM     20  C   UNL d   1       3.259   3.066  -4.311  0.00  0.00     0.003 A 
ATOM     21  C   UNL d   1       3.230   2.094  -3.313  0.00  0.00     0.025 A 
ATOM     22  C   UNL d   1       2.558   2.339  -2.110  0.00  0.00     0.047 A 
ATOM     23 CL   UNL d   1       2.554   1.061  -0.943  0.00  0.00    -0.083 Cl
ENDBRANCH  14  16
ENDBRANCH   1  13
TORSDOF 4
