REMARK  2 active torsions:
REMARK  status: ('A' for Active; 'I' for Inactive)
REMARK    1  A    between atoms: C_8  and  C_1 
REMARK    2  A    between atoms: C_11  and  C_7 
ROOT
ATOM      1  C   UNL d   1      -0.209  -1.030  -0.033  0.00  0.00     0.175 A 
ATOM      2  O   UNL d   1      -0.047  -0.414   1.187  0.00  0.00    -0.273 OA
ATOM      3  N   UNL d   1       0.164  -0.260  -1.036  0.00  0.00    -0.277 N 
ATOM      4  HN  UNL d   1       0.149  -0.501  -2.027  1.00  0.00     0.189 HD
ATOM      5  N   UNL d   1       0.578   0.933  -0.488  0.00  0.00    -0.277 N 
ATOM      6  HN  UNL d   1       0.922   1.750  -0.993  1.00  0.00     0.189 HD
ATOM      7  C   UNL d   1       0.444   0.813   0.817  0.00  0.00     0.174 A 
ENDROOT
BRANCH   1   8
ATOM      8  C   UNL d   1      -0.732  -2.394  -0.031  0.00  0.00     0.023 A 
ATOM      9  C   UNL d   1      -1.540  -2.901  -1.071  0.00  0.00    -0.047 A 
ATOM     10  C   UNL d   1      -1.950  -4.250  -1.032  0.00  0.00     0.014 A 
ATOM     11  C   UNL d   1      -2.020  -2.093  -2.250  0.00  0.00     0.049 C 
ATOM     12  C   UNL d   1      -1.583  -5.100   0.018  0.00  0.00    -0.061 A 
ATOM     13  C   UNL d   1      -0.804  -4.589   1.054  0.00  0.00     0.007 A 
ATOM     14  C   UNL d   1      -2.020  -6.535   0.004  0.00  0.00     0.048 C 
ATOM     15  C   UNL d   1      -0.387  -3.254   1.029  0.00  0.00     0.017 A 
ENDBRANCH   1   8
BRANCH   7  16
ATOM     16  C   UNL d   1       0.745   1.778   1.865  0.00  0.00     0.019 A 
ATOM     17  C   UNL d   1       0.528   1.507   3.218  0.00  0.00     0.033 A 
ATOM     18  C   UNL d   1       0.854   2.481   4.149  0.00  0.00     0.088 A 
ATOM     19  N   UNL d   1       1.369   3.686   3.826  0.00  0.00    -0.375 N 
ATOM     20  C   UNL d   1       1.568   3.933   2.515  0.00  0.00     0.088 A 
ATOM     21  HN  UNL d   1       1.599   4.377   4.540  1.00  0.00     0.164 HD
ATOM     22  C   UNL d   1       1.274   3.024   1.514  0.00  0.00     0.033 A 
ENDBRANCH   7  16
TORSDOF 2
