REMARK  1 active torsions:
REMARK  status: ('A' for Active; 'I' for Inactive)
REMARK    1  A    between atoms: C_8  and  C_2 
ROOT
ATOM      1  O   UNL d   1      -1.645  -1.008   0.002  0.00  0.00    -0.304 OA
ATOM      2  C   UNL d   1      -2.438   0.105   0.003  0.00  0.00     0.122 A 
ATOM      3  C   UNL d   1      -0.345  -0.589   0.002  0.00  0.00     0.108 A 
ATOM      4  C   UNL d   1      -0.295   0.801   0.002  0.00  0.00     0.004 A 
ATOM      5  C   UNL d   1      -1.643   1.238   0.003  0.00  0.00     0.055 A 
ATOM      6  C   UNL d   1       0.794  -1.396   0.001  0.00  0.00     0.070 A 
ATOM      7  C   UNL d   1       2.037  -0.758   0.001  0.00  0.00     0.050 A 
ATOM      8  C   UNL d   1       0.962   1.434   0.002  0.00  0.00     0.038 A 
ATOM      9  C   UNL d   1       2.113   0.635   0.002  0.00  0.00     0.036 A 
ATOM     10 CL   UNL d   1       0.689  -3.109   0.001  0.00  0.00    -0.081 Cl
ATOM     11 CL   UNL d   1       3.659   1.396   0.002  0.00  0.00    -0.084 Cl
ENDROOT
BRANCH   2  12
ATOM     12  C   UNL d   1      -3.881  -0.020   0.004  0.00  0.00     0.179 C 
ATOM     13  O   UNL d   1      -4.624   0.963   0.003  0.00  0.00    -0.291 OA
ATOM     14  C   UNL d   1      -4.485  -1.403   0.006  0.00  0.00     0.099 C 
ENDBRANCH   2  12
TORSDOF 1
