REMARK  1 active torsions:
REMARK  status: ('A' for Active; 'I' for Inactive)
REMARK    1  A    between atoms: C_5  and  C_3 
ROOT
ATOM      1  C   UNL d   1       0.297   0.795  -0.003  0.00  0.00     0.088 A 
ATOM      2  C   UNL d   1       0.311  -0.715  -0.005  0.00  0.00     0.069 A 
ATOM      3  C   UNL d   1      -2.107  -0.729  -0.004  0.00  0.00     0.051 A 
ATOM      4  C   UNL d   1      -0.951   1.466  -0.005  0.00  0.00     0.064 A 
ATOM      5  C   UNL d   1      -0.895  -1.460  -0.006  0.00  0.00     0.048 A 
ATOM      6  S   UNL d   1       2.599   0.049   0.001  0.00  0.00     0.068 SA
ATOM      7  C   UNL d   1      -2.124   0.695  -0.005  0.00  0.00     0.042 A 
ATOM      8  N   UNL d   1       1.535   1.322  -0.001  0.00  0.00    -0.309 N 
ATOM      9  HN  UNL d   1       1.773   2.314   0.000  1.00  0.00     0.176 HD
ATOM     10  N   UNL d   1       1.547  -1.236  -0.004  0.00  0.00    -0.310 N 
ATOM     11  HN  UNL d   1       1.792  -2.226  -0.006  1.00  0.00     0.176 HD
ATOM     12 CL   UNL d   1      -0.961   3.169  -0.002  0.00  0.00    -0.082 Cl
ENDROOT
BRANCH   3  13
ATOM     13  C   UNL d   1      -3.428  -1.474   0.005  0.00  0.00     0.417 C 
ATOM     14  F   UNL d   1      -3.288  -2.827   0.005  0.00  0.00    -0.166 F 
ATOM     15  F   UNL d   1      -4.180  -1.173   1.097  0.00  0.00    -0.166 F 
ATOM     16  F   UNL d   1      -4.195  -1.175  -1.078  0.00  0.00    -0.166 F 
ENDBRANCH   3  13
TORSDOF 1
