REMARK  5 active torsions:
REMARK  status: ('A' for Active; 'I' for Inactive)
REMARK    1  A    between atoms: C_7  and  C_1 
REMARK    2  A    between atoms: C_9  and  C_3 
REMARK    3  A    between atoms: N_5  and  C_8 
REMARK    4  A    between atoms: O_17  and  C_7 
REMARK    5  A    between atoms: C_19  and  O_17 
ROOT
ATOM      1  C   UNL d   1      -0.190  -1.300   0.019  0.00  0.00     0.071 A 
ATOM      2  C   UNL d   1      -1.513  -0.765   0.056  0.00  0.00     0.058 A 
ATOM      3  C   UNL d   1      -1.402   0.609   0.068  0.00  0.00     0.087 A 
ATOM      4  C   UNL d   1       0.650  -0.201   0.025  0.00  0.00     0.066 A 
ATOM      5  O   UNL d   1      -0.081   0.950   0.051  0.00  0.00    -0.314 OA
ATOM      6  C   UNL d   1       2.117  -0.013  -0.013  0.00  0.00     0.078 C 
ENDROOT
BRANCH   3   7
ATOM      7  C   UNL d   1      -2.362   1.708   0.105  0.00  0.00    -0.002 A 
ATOM      8  C   UNL d   1      -3.740   1.445   0.184  0.00  0.00     0.017 A 
ATOM      9  C   UNL d   1      -4.670   2.487   0.265  0.00  0.00     0.037 A 
ATOM     10  C   UNL d   1      -4.222   3.813   0.261  0.00  0.00     0.102 A 
ATOM     11  C   UNL d   1      -2.856   4.098   0.159  0.00  0.00     0.037 A 
ATOM     12  C   UNL d   1      -1.937   3.046   0.080  0.00  0.00     0.017 A 
BRANCH  10  13
ATOM     13  N   UNL d   1      -5.192   4.908   0.376  0.00  0.00    -0.116 N 
ATOM     14  O   UNL d   1      -6.390   4.610   0.468  0.00  0.00    -0.532 OA
ATOM     15  O   UNL d   1      -4.753   6.069   0.379  0.00  0.00    -0.532 OA
ENDBRANCH  10  13
ENDBRANCH   3   7
BRANCH   1  16
ATOM     16  C   UNL d   1       0.200  -2.694  -0.066  0.00  0.00     0.295 C 
ATOM     17  O   UNL d   1       1.357  -3.078  -0.182  0.00  0.00    -0.259 OA
BRANCH  16  18
ATOM     18  O   UNL d   1      -0.894  -3.509  -0.097  0.00  0.00    -0.318 OA
BRANCH  18  19
ATOM     19  C   UNL d   1      -0.672  -4.821  -0.626  0.00  0.00     0.174 C 
ATOM     20  C   UNL d   1      -0.831  -4.749  -2.134  0.00  0.00     0.034 C 
ENDBRANCH  18  19
ENDBRANCH  16  18
ENDBRANCH   1  16
TORSDOF 5
