REMARK  5 active torsions:
REMARK  status: ('A' for Active; 'I' for Inactive)
REMARK    1  A    between atoms: N_2  and  C_1 
REMARK    2  A    between atoms: N_4  and  C_1 
REMARK    3  A    between atoms: C_3  and  N_2 
REMARK    4  A    between atoms: C_12  and  N_4 
REMARK    5  A    between atoms: C_14  and  C_7 
ROOT
ATOM      1  C   UNL d   1       1.022   0.190   0.090  0.00  0.00     0.176 C 
ATOM      2  S   UNL d   1       0.432   1.091  -1.203  0.00  0.00    -0.041 SA
ENDROOT
BRANCH   1   3
ATOM      3  N   UNL d   1       2.357  -0.176   0.277  0.00  0.00    -0.333 N 
ATOM      4  H   UNL d   1       2.468  -1.139   0.567  0.00  0.00     0.168 HD
BRANCH   3   5
ATOM      5  C   UNL d   1       3.501   0.473  -0.243  0.00  0.00     0.040 A 
ATOM      6  C   UNL d   1       4.640  -0.245  -0.645  0.00  0.00    -0.035 A 
ATOM      7  C   UNL d   1       5.782   0.471  -1.065  0.00  0.00     0.015 A 
ATOM      8  C   UNL d   1       4.724  -1.747  -0.693  0.00  0.00     0.050 C 
ATOM      9  C   UNL d   1       5.797   1.871  -1.104  0.00  0.00    -0.061 A 
ATOM     10  C   UNL d   1       4.660   2.567  -0.706  0.00  0.00     0.009 A 
ATOM     11  C   UNL d   1       7.021   2.607  -1.560  0.00  0.00     0.048 C 
ATOM     12  C   UNL d   1       3.533   1.877  -0.268  0.00  0.00     0.030 A 
ENDBRANCH   3   5
ENDBRANCH   1   3
BRANCH   1  13
ATOM     13  N   UNL d   1       0.249  -0.311   1.141  0.00  0.00    -0.333 N 
ATOM     14  H   UNL d   1       0.668  -0.171   2.053  0.00  0.00     0.168 HD
BRANCH  13  15
ATOM     15  C   UNL d   1      -1.127  -0.617   1.119  0.00  0.00     0.034 A 
ATOM     16  C   UNL d   1      -1.726  -1.154  -0.019  0.00  0.00     0.030 A 
ATOM     17  C   UNL d   1      -3.072  -1.510  -0.014  0.00  0.00     0.010 A 
ATOM     18  C   UNL d   1      -3.851  -1.354   1.139  0.00  0.00    -0.055 A 
ATOM     19  C   UNL d   1      -3.245  -0.822   2.286  0.00  0.00     0.010 A 
ATOM     20  C   UNL d   1      -1.887  -0.470   2.281  0.00  0.00     0.030 A 
BRANCH  18  21
ATOM     21  C   UNL d   1      -5.302  -1.800   1.152  0.00  0.00     0.010 C 
ATOM     22  C   UNL d   1      -6.140  -1.052   0.110  0.00  0.00     0.015 C 
ATOM     23  C   UNL d   1      -5.398  -3.314   0.934  0.00  0.00     0.015 C 
ENDBRANCH  18  21
ENDBRANCH  13  15
ENDBRANCH   1  13
TORSDOF 5
