REMARK  5 active torsions:
REMARK  status: ('A' for Active; 'I' for Inactive)
REMARK    1  A    between atoms: C_4  and  N_1 
REMARK    2  A    between atoms: C_2  and  N_7 
REMARK    3  A    between atoms: N_11  and  C_2 
REMARK    4  A    between atoms: N_7  and  C_14 
REMARK    5  A    between atoms: N_15  and  N_11 
ROOT
ATOM      1  C   UNL d   1       1.264   2.200  -0.990  0.00  0.00     0.030 A 
ATOM      2  C   UNL d   1       1.931   1.713  -2.118  0.00  0.00     0.031 A 
ATOM      3  C   UNL d   1       1.140   3.593  -0.878  0.00  0.00     0.031 A 
ATOM      4  C   UNL d   1       2.447   3.951  -2.894  0.00  0.00     0.034 A 
ATOM      5  C   UNL d   1       2.506   2.570  -3.060  0.00  0.00     0.032 A 
ATOM      6  C   UNL d   1       1.717   4.462  -1.820  0.00  0.00     0.032 A 
ENDROOT
BRANCH   4   7
ATOM      7  N   UNL d   1       3.045   4.851  -3.804  0.00  0.00    -0.332 N 
ATOM      8  H   UNL d   1       2.760   5.818  -3.717  0.00  0.00     0.168 HD
BRANCH   7   9
ATOM      9  C   UNL d   1       4.207   4.671  -4.554  0.00  0.00     0.186 C 
ATOM     10  S   UNL d   1       5.474   3.621  -4.215  0.00  0.00    -0.040 SA
BRANCH   9  11
ATOM     11  N   UNL d   1       4.233   5.580  -5.623  0.00  0.00    -0.300 N 
ATOM     12  H   UNL d   1       3.329   5.928  -5.938  0.00  0.00     0.183 HD
BRANCH  11  13
ATOM     13  N   UNL d   1       5.266   5.557  -6.593  0.00  0.00    -0.248 NA
ATOM     14  H   UNL d   1       5.785   4.676  -6.472  0.00  0.00     0.143 HD
ATOM     15  H   UNL d   1       5.946   6.279  -6.342  0.00  0.00     0.143 HD
ENDBRANCH  11  13
ENDBRANCH   9  11
ENDBRANCH   7   9
ENDBRANCH   4   7
BRANCH   1  16
ATOM     16  N   UNL d   1       0.794   1.371   0.016  0.00  0.00    -0.376 N 
ATOM     17  C   UNL d   1       1.480   0.102   0.327  0.00  0.00     0.154 C 
ATOM     18  C   UNL d   1       0.707  -1.112  -0.225  0.00  0.00     0.136 C 
ATOM     19  C   UNL d   1       1.333  -2.414   0.259  0.00  0.00     0.041 C 
ATOM     20  O   UNL d   1      -0.662  -1.095   0.222  0.00  0.00    -0.378 OA
ATOM     21  C   UNL d   1      -1.327   0.100  -0.235  0.00  0.00     0.136 C 
ATOM     22  C   UNL d   1      -0.647   1.371   0.328  0.00  0.00     0.154 C 
ATOM     23  C   UNL d   1      -2.777   0.004   0.221  0.00  0.00     0.041 C 
ENDBRANCH   1  16
TORSDOF 5
