REMARK  7 active torsions:
REMARK  status: ('A' for Active; 'I' for Inactive)
REMARK    1  A    between atoms: C_3  and  S_1 
REMARK    2  A    between atoms: C_4  and  S_1 
REMARK    3  A    between atoms: C_5  and  C_2 
REMARK    4  A    between atoms: O_9  and  C_5 
REMARK    5  A    between atoms: C_14  and  C_8 
REMARK    6  A    between atoms: O_13  and  C_16 
REMARK    7  A    between atoms: C_16  and  C_14 
ROOT
ATOM      1  S   UNL d   1       1.044  -0.198   0.141  0.00  0.00     0.086 S 
ATOM      2  O   UNL d   1       1.776   1.053   0.546  0.00  0.00    -0.247 OA
ENDROOT
BRANCH   1   3
ATOM      3  C   UNL d   1      -0.439  -0.139   1.197  0.00  0.00     0.053 A 
ATOM      4  C   UNL d   1      -0.316  -0.281   2.599  0.00  0.00     0.057 A 
ATOM      5  C   UNL d   1      -1.476  -0.321   3.400  0.00  0.00     0.020 A 
ATOM      6  C   UNL d   1      -2.746  -0.225   2.839  0.00  0.00     0.001 A 
ATOM      7  C   UNL d   1      -2.875  -0.072   1.468  0.00  0.00     0.002 A 
ATOM      8  C   UNL d   1      -1.736  -0.012   0.660  0.00  0.00     0.022 A 
BRANCH   4   9
ATOM      9  C   UNL d   1       0.952  -0.514   3.352  0.00  0.00     0.177 C 
ATOM     10  O   UNL d   1       0.988  -1.296   4.286  0.00  0.00    -0.646 OA
BRANCH   9  11
ATOM     11  O   UNL d   1       2.014   0.239   3.012  0.00  0.00    -0.773 OA
ATOM     12  H   UNL d   1       1.920   0.851   2.245  0.00  0.00     0.167 HD
ENDBRANCH   9  11
ENDBRANCH   4   9
ENDBRANCH   1   3
BRANCH   1  13
ATOM     13  C   UNL d   1       0.317   0.122  -1.487  0.00  0.00     0.043 A 
ATOM     14  C   UNL d   1      -0.123  -0.935  -2.317  0.00  0.00    -0.037 A 
ATOM     15  C   UNL d   1      -0.659  -0.621  -3.582  0.00  0.00     0.009 A 
ATOM     16  C   UNL d   1      -0.729   0.697  -4.034  0.00  0.00     0.001 A 
ATOM     17  C   UNL d   1      -0.275   1.731  -3.225  0.00  0.00     0.001 A 
ATOM     18  C   UNL d   1       0.243   1.446  -1.960  0.00  0.00     0.022 A 
BRANCH  14  19
ATOM     19  C   UNL d   1      -0.024  -2.405  -1.948  0.00  0.00     0.066 C 
BRANCH  19  20
ATOM     20  C   UNL d   1      -1.255  -2.998  -1.259  0.00  0.00     0.168 C 
BRANCH  20  21
ATOM     21  O   UNL d   1      -2.396  -2.939  -2.104  0.00  0.00    -0.401 OA
ATOM     22  H   UNL d   1      -3.130  -3.360  -1.623  0.00  0.00     0.209 HD
ENDBRANCH  20  21
ENDBRANCH  19  20
ENDBRANCH  14  19
ENDBRANCH   1  13
TORSDOF 7
