REMARK  5 active torsions:
REMARK  status: ('A' for Active; 'I' for Inactive)
REMARK    1  A    between atoms: C_2  and  S_1 
REMARK    2  A    between atoms: N_5  and  S_1 
REMARK    3  A    between atoms: N_9  and  N_5 
REMARK    4  A    between atoms: N_14  and  C_13 
REMARK    5  A    between atoms: C_21  and  C_17 
ROOT
ATOM      1  N   UNL d   1      -1.013   2.201  -1.692  0.00  0.00    -0.223 N 
ATOM      2  H   UNL d   1      -0.216   1.595  -1.897  0.00  0.00     0.200 HD
ENDROOT
BRANCH   1   3
ATOM      3  S   UNL d   1      -2.510   1.582  -2.184  0.00  0.00     0.277 S 
ATOM      4  O   UNL d   1      -2.271   0.301  -2.815  0.00  0.00    -0.199 OA
ATOM      5  O   UNL d   1      -3.432   1.692  -1.071  0.00  0.00    -0.199 OA
BRANCH   3   6
ATOM      6  C   UNL d   1      -3.046   2.708  -3.443  0.00  0.00     0.104 A 
ATOM      7  C   UNL d   1      -4.256   3.386  -3.253  0.00  0.00     0.052 A 
ATOM      8  C   UNL d   1      -4.752   4.243  -4.241  0.00  0.00     0.057 A 
ATOM      9 CL   UNL d   1      -6.257   5.035  -3.943  0.00  0.00    -0.083 Cl
ATOM     10  C   UNL d   1      -4.032   4.423  -5.424  0.00  0.00     0.057 A 
ATOM     11  C   UNL d   1      -2.821   3.750  -5.613  0.00  0.00     0.051 A 
ATOM     12 CL   UNL d   1      -4.582   5.458  -6.695  0.00  0.00    -0.082 Cl
ATOM     13  C   UNL d   1      -2.322   2.889  -4.626  0.00  0.00     0.059 A 
ATOM     14 CL   UNL d   1      -0.814   2.119  -4.963  0.00  0.00    -0.083 Cl
ENDBRANCH   3   6
ENDBRANCH   1   3
BRANCH   1  15
ATOM     15  N   UNL d   1      -0.888   3.559  -1.255  0.00  0.00    -0.302 N 
ATOM     16  C   UNL d   1       0.301   3.897  -0.870  0.00  0.00     0.119 C 
ATOM     17  HN  UNL d   1      -1.675   4.209  -1.246  1.00  0.00     0.186 HD
BRANCH  16  18
ATOM     18  C   UNL d   1       0.591   5.260  -0.382  0.00  0.00    -0.019 A 
ATOM     19  C   UNL d   1      -0.416   6.217  -0.310  0.00  0.00     0.015 A 
ATOM     20  C   UNL d   1      -0.130   7.503   0.171  0.00  0.00     0.030 A 
ATOM     21  C   UNL d   1       1.153   7.873   0.606  0.00  0.00     0.029 A 
ATOM     22  C   UNL d   1       2.145   6.877   0.518  0.00  0.00     0.030 A 
ATOM     23  C   UNL d   1       1.880   5.588   0.028  0.00  0.00     0.015 A 
BRANCH  21  24
ATOM     24  N   UNL d   1       1.425   9.118   1.158  0.00  0.00    -0.390 N 
ATOM     25  C   UNL d   1       2.718   9.768   0.946  0.00  0.00     0.149 C 
ATOM     26  C   UNL d   1       0.355  10.025   1.570  0.00  0.00     0.149 C 
ENDBRANCH  21  24
ENDBRANCH  16  18
ENDBRANCH   1  15
TORSDOF 5
