REMARK  10 active torsions:
REMARK  status: ('A' for Active; 'I' for Inactive)
REMARK    1  A    between atoms: C_6  and  C_1 
REMARK    2  A    between atoms: C_2  and  C_5 
REMARK    3  A    between atoms: C_3  and  N_10 
REMARK    4  A    between atoms: N_8  and  C_3 
REMARK    5  A    between atoms: C_4  and  N_7 
REMARK    6  A    between atoms: N_9  and  C_4 
REMARK    7  A    between atoms: N_7  and  C_16 
REMARK    8  A    between atoms: C_15  and  N_8 
REMARK    9  A    between atoms: C_24  and  N_9 
REMARK   10  A    between atoms: N_10  and  C_23 
ROOT
ATOM      1  C   UNL d   1       1.639   0.287  -0.376  0.00  0.00     0.034 A 
ATOM      2  C   UNL d   1       2.692  -2.113  -1.448  0.00  0.00     0.034 A 
ATOM      3  C   UNL d   1       2.688  -0.946  -2.207  0.00  0.00     0.032 A 
ATOM      4  C   UNL d   1       2.143  -2.084  -0.164  0.00  0.00     0.032 A 
ATOM      5  C   UNL d   1       2.174   0.250  -1.668  0.00  0.00     0.032 A 
ATOM      6  C   UNL d   1       1.617  -0.900   0.363  0.00  0.00     0.032 A 
ENDROOT
BRANCH   1   7
ATOM      7  N   UNL d   1       1.037   1.419   0.227  0.00  0.00    -0.333 N 
ATOM      8  H   UNL d   1       0.621   1.244   1.132  0.00  0.00     0.168 HD
BRANCH   7   9
ATOM      9  C   UNL d   1       1.138   2.750  -0.054  0.00  0.00     0.176 C 
ATOM     10  S   UNL d   1       2.398   3.521  -0.849  0.00  0.00    -0.041 SA
BRANCH   9  11
ATOM     11  N   UNL d   1       0.171   3.585   0.435  0.00  0.00    -0.333 N 
ATOM     12  H   UNL d   1       0.434   4.553   0.276  0.00  0.00     0.168 HD
BRANCH  11  13
ATOM     13  C   UNL d   1      -1.079   3.414   1.068  0.00  0.00     0.035 A 
ATOM     14  C   UNL d   1      -1.696   4.590   1.533  0.00  0.00     0.045 A 
ATOM     15  C   UNL d   1      -2.928   4.566   2.211  0.00  0.00     0.050 A 
ATOM     16  C   UNL d   1      -3.554   3.332   2.415  0.00  0.00     0.016 A 
ATOM     17  C   UNL d   1      -2.974   2.163   1.926  0.00  0.00     0.003 A 
ATOM     18  C   UNL d   1      -1.751   2.204   1.243  0.00  0.00     0.029 A 
BRANCH  15  19
ATOM     19  C   UNL d   1      -3.559   5.835   2.728  0.00  0.00     0.417 C 
ATOM     20  F   UNL d   1      -2.872   6.962   2.389  0.00  0.00    -0.166 F 
ATOM     21  F   UNL d   1      -4.826   6.018   2.263  0.00  0.00    -0.166 F 
ATOM     22  F   UNL d   1      -3.654   5.851   4.086  0.00  0.00    -0.166 F 
ENDBRANCH  15  19
ENDBRANCH  11  13
ENDBRANCH   9  11
ENDBRANCH   7   9
ENDBRANCH   1   7
BRANCH   2  23
ATOM     23  N   UNL d   1       3.181  -3.333  -1.988  0.00  0.00    -0.333 N 
ATOM     24  H   UNL d   1       3.379  -3.333  -2.983  0.00  0.00     0.168 HD
BRANCH  23  25
ATOM     25  C   UNL d   1       3.930  -4.229  -1.283  0.00  0.00     0.176 C 
ATOM     26  S   UNL d   1       5.117  -3.814  -0.161  0.00  0.00    -0.041 SA
BRANCH  25  27
ATOM     27  N   UNL d   1       3.791  -5.561  -1.513  0.00  0.00    -0.333 N 
ATOM     28  H   UNL d   1       4.460  -6.075  -0.946  0.00  0.00     0.168 HD
BRANCH  27  29
ATOM     29  C   UNL d   1       2.849  -6.368  -2.173  0.00  0.00     0.035 A 
ATOM     30  C   UNL d   1       1.788  -5.924  -2.961  0.00  0.00     0.045 A 
ATOM     31  C   UNL d   1       0.885  -6.847  -3.528  0.00  0.00     0.050 A 
ATOM     32  C   UNL d   1       1.058  -8.225  -3.298  0.00  0.00     0.016 A 
ATOM     33  C   UNL d   1       2.109  -8.673  -2.511  0.00  0.00     0.003 A 
ATOM     34  C   UNL d   1       2.995  -7.751  -1.959  0.00  0.00     0.029 A 
BRANCH  31  35
ATOM     35  C   UNL d   1      -0.266  -6.399  -4.396  0.00  0.00     0.417 C 
ATOM     36  F   UNL d   1      -0.550  -5.074  -4.284  0.00  0.00    -0.166 F 
ATOM     37  F   UNL d   1      -1.428  -7.055  -4.109  0.00  0.00    -0.166 F 
ATOM     38  F   UNL d   1      -0.033  -6.625  -5.719  0.00  0.00    -0.166 F 
ENDBRANCH  31  35
ENDBRANCH  27  29
ENDBRANCH  25  27
ENDBRANCH  23  25
ENDBRANCH   2  23
TORSDOF 10
