REMARK  5 active torsions:
REMARK  status: ('A' for Active; 'I' for Inactive)
REMARK    1  A    between atoms: C_2  and  C_1 
REMARK    2  A    between atoms: C_8  and  C_2 
REMARK    3  A    between atoms: C_3  and  C_10 
REMARK    4  A    between atoms: C_14  and  C_4 
REMARK    5  A    between atoms: C_11  and  C_5 
ROOT
ATOM      1  C   UNL d   1       0.831   0.580   0.756  0.00  0.00     0.096 C 
ATOM      2  C   UNL d   1       0.196  -0.600   0.914  0.00  0.00     0.038 C 
ATOM      3  C   UNL d   1       0.136   1.820   0.688  0.00  0.00     0.103 C 
ATOM      4  N   UNL d   1      -0.413   2.838   0.604  0.00  0.00    -0.191 NA
ENDROOT
BRANCH   1   5
ATOM      5  C   UNL d   1       2.324   0.543   0.694  0.00  0.00     0.202 C 
ATOM      6  O   UNL d   1       2.962  -0.367   1.221  0.00  0.00    -0.286 OA
BRANCH   5   7
ATOM      7  C   UNL d   1       3.071   1.629  -0.004  0.00  0.00     0.016 A 
ATOM      8  C   UNL d   1       4.338   1.980   0.485  0.00  0.00     0.017 A 
ATOM      9  C   UNL d   1       5.090   2.974  -0.148  0.00  0.00     0.025 A 
ATOM     10  C   UNL d   1       4.582   3.615  -1.276  0.00  0.00     0.034 A 
ATOM     11  C   UNL d   1       3.333   3.260  -1.783  0.00  0.00     0.025 A 
ATOM     12 CL   UNL d   1       5.505   4.836  -2.059  0.00  0.00    -0.084 Cl
ATOM     13  C   UNL d   1       2.583   2.258  -1.158  0.00  0.00     0.017 A 
ENDBRANCH   5   7
ENDBRANCH   1   5
BRANCH   2  14
ATOM     14  C   UNL d   1      -1.263  -0.730   0.970  0.00  0.00    -0.035 A 
ATOM     15  C   UNL d   1      -1.987  -0.956  -0.205  0.00  0.00     0.013 A 
ATOM     16  C   UNL d   1      -3.384  -1.006  -0.172  0.00  0.00     0.021 A 
ATOM     17  C   UNL d   1      -4.062  -0.832   1.036  0.00  0.00     0.018 A 
ATOM     18  C   UNL d   1      -3.340  -0.618   2.213  0.00  0.00     0.021 A 
ATOM     19  C   UNL d   1      -1.943  -0.568   2.181  0.00  0.00     0.013 A 
BRANCH  17  20
ATOM     20  C   UNL d   1      -5.492  -0.873   1.073  0.00  0.00    -0.061 C 
ATOM     21  C   UNL d   1      -6.692  -0.916   1.123  0.00  0.00    -0.061 C 
BRANCH  21  22
ATOM     22  C   UNL d   1      -8.118  -0.988   1.211  0.00  0.00     0.018 A 
ATOM     23  C   UNL d   1      -8.883  -1.242   0.070  0.00  0.00     0.020 A 
ATOM     24  C   UNL d   1     -10.273  -1.335   0.167  0.00  0.00     0.001 A 
ATOM     25  C   UNL d   1     -10.900  -1.174   1.402  0.00  0.00     0.000 A 
ATOM     26  C   UNL d   1     -10.139  -0.914   2.542  0.00  0.00     0.001 A 
ATOM     27  C   UNL d   1      -8.749  -0.820   2.446  0.00  0.00     0.020 A 
ENDBRANCH  21  22
ENDBRANCH  17  20
ENDBRANCH   2  14
TORSDOF 5
