REMARK  1 active torsions:
REMARK  status: ('A' for Active; 'I' for Inactive)
REMARK    1  A    between atoms: C_2  and  C_1 
REMARK       I    between atoms: N_8  and  C_2 
ROOT
ATOM      1  C   UNL d   1      -0.043  -0.775  -0.068  0.00  0.00     0.077 A 
ATOM      2  N   UNL d   1       0.013   2.034   0.067  0.00  0.00    -0.372 N 
ATOM      3  HN  UNL d   1       0.033   3.052   0.120  1.00  0.00     0.164 HD
ATOM      4  C   UNL d   1      -1.235  -0.038  -0.072  0.00  0.00     0.066 A 
ATOM      5  C   UNL d   1       1.178  -0.089  -0.002  0.00  0.00     0.066 A 
ATOM      6 CL   UNL d   1      -2.810  -0.736  -0.190  0.00  0.00    -0.082 Cl
ATOM      7 CL   UNL d   1       2.720  -0.858   0.078  0.00  0.00    -0.082 Cl
ATOM      8  C   UNL d   1       1.147   1.299   0.061  0.00  0.00     0.112 A 
ATOM      9  C   UNL d   1      -1.150   1.347  -0.000  0.00  0.00     0.112 A 
ENDROOT
BRANCH   1  10
ATOM     10  C   UNL d   1      -0.047  -2.249  -0.188  0.00  0.00     0.252 C 
ATOM     11  O   UNL d   1       0.658  -2.825  -1.006  0.00  0.00    -0.268 OA
ATOM     12  N   UNL d   1      -0.872  -2.952   0.644  0.00  0.00    -0.366 N 
ATOM     13  H   UNL d   1      -1.608  -2.520   1.186  0.00  0.00     0.159 HD
ATOM     14  H   UNL d   1      -0.927  -3.952   0.487  0.00  0.00     0.159 HD
ENDBRANCH   1  10
TORSDOF 1
