REMARK  5 active torsions:
REMARK  status: ('A' for Active; 'I' for Inactive)
REMARK    1  A    between atoms: C_3  and  C_1 
REMARK       I    between atoms: C_2  and  N_5 
REMARK       I    between atoms: N_6  and  C_2 
REMARK       I    between atoms: N_9  and  C_3 
REMARK    2  A    between atoms: N_5  and  C_4 
REMARK    3  A    between atoms: C_7  and  N_6 
REMARK    4  A    between atoms: C_17  and  N_9 
REMARK    5  A    between atoms: C_11  and  C_17 
ROOT
ATOM      1  C   UNL d   1       1.541  -0.587   0.496  0.00  0.00     0.058 A 
ATOM      2  C   UNL d   1       0.813  -1.684  -0.027  0.00  0.00     0.052 A 
ATOM      3  C   UNL d   1       0.861   0.598   0.850  0.00  0.00     0.019 A 
ATOM      4  C   UNL d   1      -0.589  -1.594  -0.034  0.00  0.00     0.030 A 
ATOM      5  C   UNL d   1      -0.528   0.675   0.780  0.00  0.00     0.001 A 
ATOM      6  C   UNL d   1      -1.253  -0.432   0.368  0.00  0.00     0.002 A 
ENDROOT
BRANCH   2   7
ATOM      7  N   UNL d   1       1.492  -2.804  -0.599  0.00  0.00    -0.308 N 
ATOM      8  C   UNL d   1       0.930  -3.814  -1.327  0.00  0.00     0.325 C 
ATOM      9  N   UNL d   1       1.717  -4.513  -2.192  0.00  0.00    -0.306 N 
ATOM     10  O   UNL d   1      -0.274  -4.066  -1.401  0.00  0.00    -0.247 OA
ATOM     11  H   UNL d   1       1.127  -4.970  -2.878  0.00  0.00     0.171 HD
ATOM     12  H   UNL d   1       2.510  -2.749  -0.577  0.00  0.00     0.170 HD
BRANCH   9  13
ATOM     13  C   UNL d   1       3.097  -4.715  -2.334  0.00  0.00     0.075 A 
ATOM     14  C   UNL d   1       4.038  -4.581  -1.310  0.00  0.00     0.146 A 
ATOM     15  C   UNL d   1       5.381  -4.880  -1.524  0.00  0.00     0.086 A 
ATOM     16  F   UNL d   1       3.657  -4.249  -0.068  0.00  0.00    -0.204 F 
ATOM     17  C   UNL d   1       5.791  -5.316  -2.777  0.00  0.00     0.119 A 
ATOM     18  C   UNL d   1       4.878  -5.469  -3.813  0.00  0.00     0.044 A 
ATOM     19  F   UNL d   1       7.078  -5.618  -2.986  0.00  0.00    -0.206 F 
ATOM     20  C   UNL d   1       3.531  -5.180  -3.586  0.00  0.00     0.036 A 
ENDBRANCH   9  13
ENDBRANCH   2   7
BRANCH   1  21
ATOM     21  C   UNL d   1       3.029  -0.634   0.663  0.00  0.00     0.253 C 
ATOM     22  N   UNL d   1       3.570   0.188   1.637  0.00  0.00    -0.356 N 
ATOM     23  H   UNL d   1       2.953   0.624   2.306  0.00  0.00     0.162 HD
ATOM     24  O   UNL d   1       3.703  -1.406  -0.016  0.00  0.00    -0.268 OA
BRANCH  22  25
ATOM     25  C   UNL d   1       4.956   0.072   2.032  0.00  0.00     0.127 C 
BRANCH  25  26
ATOM     26  C   UNL d   1       5.554   1.357   2.525  0.00  0.00     0.003 A 
ATOM     27  C   UNL d   1       4.966   2.122   3.686  0.00  0.00     0.007 A 
ATOM     28  C   UNL d   1       4.940   2.721   2.306  0.00  0.00     0.007 A 
ENDBRANCH  25  26
ENDBRANCH  22  25
ENDBRANCH   1  21
TORSDOF 5
