REMARK  5 active torsions:
REMARK  status: ('A' for Active; 'I' for Inactive)
REMARK    1  A    between atoms: C_5  and  C_1 
REMARK    2  A    between atoms: N_8  and  C_2 
REMARK       I    between atoms: C_9  and  N_8 
REMARK    3  A    between atoms: O_15  and  C_9 
REMARK    4  A    between atoms: N_10  and  O_15 
REMARK    5  A    between atoms: C_19  and  C_16 
ROOT
ATOM      1  C   UNL d   1      -1.310  -0.881   0.154  0.00  0.00     0.098 A 
ATOM      2  C   UNL d   1       0.032  -1.313  -0.120  0.00  0.00     0.098 A 
ATOM      3  N   UNL d   1      -1.330   0.438   0.391  0.00  0.00    -0.258 N 
ATOM      4  HN  UNL d   1      -2.145   1.002   0.632  1.00  0.00     0.195 HD
ATOM      5  C   UNL d   1       0.790  -0.161  -0.024  0.00  0.00     0.101 A 
ATOM      6  O   UNL d   1      -0.041   0.882   0.246  0.00  0.00    -0.240 OA
ATOM      7  C   UNL d   1       2.217   0.218  -0.039  0.00  0.00     0.081 C 
ENDROOT
BRANCH   2   8
ATOM      8  N   UNL d   1       0.402  -2.626  -0.356  0.00  0.00    -0.297 N 
ATOM      9  C   UNL d   1       1.497  -3.149  -0.972  0.00  0.00     0.387 C 
ATOM     10  O   UNL d   1       1.717  -4.353  -0.901  0.00  0.00    -0.236 OA
ATOM     11  H   UNL d   1      -0.193  -3.350   0.027  0.00  0.00     0.171 HD
BRANCH   9  12
ATOM     12  O   UNL d   1       2.234  -2.241  -1.683  0.00  0.00    -0.181 OA
BRANCH  12  13
ATOM     13  N   UNL d   1       3.555  -2.690  -1.710  0.00  0.00    -0.267 N 
ATOM     14  C   UNL d   1       4.302  -1.841  -2.328  0.00  0.00     0.126 C 
ATOM     15  HN  UNL d   1       3.883  -3.564  -1.299  1.00  0.00     0.194 HD
BRANCH  14  16
ATOM     16  C   UNL d   1       5.763  -2.002  -2.281  0.00  0.00    -0.019 A 
ATOM     17  C   UNL d   1       6.319  -2.997  -1.470  0.00  0.00     0.013 A 
ATOM     18  C   UNL d   1       7.704  -3.085  -1.341  0.00  0.00     0.001 A 
ATOM     19  C   UNL d   1       8.517  -2.186  -2.022  0.00  0.00     0.000 A 
ATOM     20  C   UNL d   1       7.957  -1.198  -2.843  0.00  0.00     0.001 A 
ATOM     21  C   UNL d   1       6.570  -1.100  -2.968  0.00  0.00     0.013 A 
ENDBRANCH  14  16
ENDBRANCH  12  13
ENDBRANCH   9  12
ENDBRANCH   2   8
BRANCH   1  22
ATOM     22  C   UNL d   1      -2.560  -1.661   0.116  0.00  0.00     0.038 A 
ATOM     23  C   UNL d   1      -2.701  -2.891   0.793  0.00  0.00     0.048 A 
ATOM     24 CL   UNL d   1      -1.497  -3.547   1.854  0.00  0.00    -0.083 Cl
ATOM     25  C   UNL d   1      -3.870  -3.660   0.673  0.00  0.00     0.025 A 
ATOM     26  C   UNL d   1      -4.946  -3.191  -0.069  0.00  0.00     0.003 A 
ATOM     27  C   UNL d   1      -4.846  -1.963  -0.711  0.00  0.00     0.025 A 
ATOM     28  C   UNL d   1      -3.662  -1.213  -0.644  0.00  0.00     0.048 A 
ATOM     29 CL   UNL d   1      -3.648   0.232  -1.605  0.00  0.00    -0.083 Cl
ENDBRANCH   1  22
TORSDOF 5
