REMARK  7 active torsions:
REMARK  status: ('A' for Active; 'I' for Inactive)
REMARK    1  A    between atoms: C_2  and  C_1 
REMARK    2  A    between atoms: C_3  and  C_1 
REMARK    3  A    between atoms: C_4  and  C_1 
REMARK    4  A    between atoms: O_9  and  C_1 
REMARK    5  A    between atoms: O_13  and  C_3 
REMARK    6  A    between atoms: N_14  and  C_12 
REMARK    7  A    between atoms: C_18  and  O_13 
ROOT
ATOM      1  C   UNL d   1       0.967  -0.050  -0.029  0.00  0.00     0.271 C 
ENDROOT
BRANCH   1   2
ATOM      2  C   UNL d   1       0.269   0.134   1.331  0.00  0.00     0.432 C 
ATOM      3  F   UNL d   1      -0.890   0.826   1.261  0.00  0.00    -0.167 F 
ATOM      4  F   UNL d   1      -0.007  -1.042   1.943  0.00  0.00    -0.167 F 
ATOM      5  F   UNL d   1       1.082   0.824   2.179  0.00  0.00    -0.167 F 
ENDBRANCH   1   2
BRANCH   1   6
ATOM      6  C   UNL d   1       0.629   1.225  -0.831  0.00  0.00     0.308 C 
ATOM      7  O   UNL d   1      -0.378   1.416  -1.497  0.00  0.00    -0.261 OA
BRANCH   6   8
ATOM      8  O   UNL d   1       1.636   2.151  -0.698  0.00  0.00    -0.319 OA
BRANCH   8   9
ATOM      9  C   UNL d   1       1.526   3.297  -1.560  0.00  0.00     0.174 C 
ATOM     10  C   UNL d   1       2.111   2.965  -2.921  0.00  0.00     0.034 C 
ENDBRANCH   8   9
ENDBRANCH   6   8
ENDBRANCH   1   6
BRANCH   1  11
ATOM     11  C   UNL d   1       0.541  -1.329  -0.764  0.00  0.00    -0.005 A 
ATOM     12  C   UNL d   1      -0.759  -1.501  -1.264  0.00  0.00     0.013 A 
ATOM     13  C   UNL d   1      -1.114  -2.650  -1.988  0.00  0.00     0.024 A 
ATOM     14  C   UNL d   1      -0.209  -3.696  -2.189  0.00  0.00     0.007 A 
ATOM     15  C   UNL d   1       1.085  -3.525  -1.687  0.00  0.00     0.024 A 
ATOM     16  C   UNL d   1       1.450  -2.379  -0.973  0.00  0.00     0.013 A 
BRANCH  14  17
ATOM     17  N   UNL d   1      -0.469  -4.806  -2.995  0.00  0.00    -0.297 NA
ATOM     18  C   UNL d   1      -1.836  -5.259  -3.170  0.00  0.00     0.113 C 
ATOM     19  H   UNL d   1       0.170  -5.573  -2.798  0.00  0.00     0.127 HD
ENDBRANCH  14  17
ENDBRANCH   1  11
BRANCH   1  20
ATOM     20  O   UNL d   1       2.415  -0.105   0.148  0.00  0.00    -0.368 OA
ATOM     21  H   UNL d   1       2.674   0.755   0.531  0.00  0.00     0.212 HD
ENDBRANCH   1  20
TORSDOF 7
