REMARK  3 active torsions:
REMARK  status: ('A' for Active; 'I' for Inactive)
REMARK    1  A    between atoms: N_3  and  C_1 
REMARK       I    between atoms: C_2  and  N_3 
REMARK       I    between atoms: N_7  and  C_2 
REMARK    2  A    between atoms: C_8  and  N_3 
REMARK    3  A    between atoms: C_13  and  N_7 
ROOT
ATOM      1  C   UNL d   1       3.479   1.032  -0.393  0.00  0.00     0.333 C 
ATOM      2  N   UNL d   1       2.103   1.437  -0.309  0.00  0.00    -0.244 N 
ATOM      3  N   UNL d   1       3.674  -0.312  -0.694  0.00  0.00    -0.308 N 
ATOM      4  O   UNL d   1       4.417   1.804  -0.202  0.00  0.00    -0.246 OA
ATOM      5  H   UNL d   1       2.837  -0.872  -0.797  0.00  0.00     0.170 HD
ENDROOT
BRANCH   2   6
ATOM      6  C   UNL d   1       1.000   0.588  -0.070  0.00  0.00     0.151 C 
ATOM      7  N   UNL d   1      -0.222   0.884  -0.372  0.00  0.00    -0.369 N 
ATOM      8  C   UNL d   1      -1.146  -0.212  -0.032  0.00  0.00     0.137 C 
ATOM      9  HN  UNL d   1      -0.511   1.767  -0.794  1.00  0.00     0.161 HD
ATOM     10  C   UNL d   1      -0.544  -1.093   1.054  0.00  0.00     0.069 C 
ATOM     11  S   UNL d   1       1.221  -0.975   0.697  0.00  0.00    -0.087 SA
ATOM     12  C   UNL d   1      -0.826  -0.592   2.465  0.00  0.00     0.023 C 
ENDBRANCH   2   6
BRANCH   2  13
ATOM     13  C   UNL d   1       1.837   2.884  -0.326  0.00  0.00     0.046 A 
ATOM     14  C   UNL d   1       2.666   3.788  -1.010  0.00  0.00     0.031 A 
ATOM     15  C   UNL d   1       2.415   5.173  -0.999  0.00  0.00     0.009 A 
ATOM     16  C   UNL d   1       1.314   5.694  -0.319  0.00  0.00    -0.062 A 
ATOM     17  C   UNL d   1       0.475   4.814   0.358  0.00  0.00     0.009 A 
ATOM     18  C   UNL d   1       1.044   7.169  -0.326  0.00  0.00     0.048 C 
ATOM     19  C   UNL d   1       0.742   3.436   0.370  0.00  0.00     0.031 A 
ENDBRANCH   2  13
BRANCH   3  20
ATOM     20  C   UNL d   1       4.873  -1.057  -0.606  0.00  0.00     0.036 A 
ATOM     21  C   UNL d   1       6.113  -0.509  -0.283  0.00  0.00     0.030 A 
ATOM     22  C   UNL d   1       7.223  -1.333  -0.072  0.00  0.00     0.009 A 
ATOM     23  C   UNL d   1       7.116  -2.722  -0.186  0.00  0.00    -0.062 A 
ATOM     24  C   UNL d   1       5.895  -3.270  -0.586  0.00  0.00     0.009 A 
ATOM     25  C   UNL d   1       8.290  -3.589   0.154  0.00  0.00     0.048 C 
ATOM     26  C   UNL d   1       4.784  -2.445  -0.792  0.00  0.00     0.030 A 
ENDBRANCH   3  20
TORSDOF 3
