REMARK  3 active torsions:
REMARK  status: ('A' for Active; 'I' for Inactive)
REMARK    1  A    between atoms: C_6  and  N_1 
REMARK    2  A    between atoms: C_12  and  N_4 
REMARK    3  A    between atoms: C_11  and  C_12 
ROOT
ATOM      1  N   UNL d   1      -1.468   0.225   0.254  0.00  0.00    -0.378 N 
ATOM      2  N   UNL d   1       1.431  -0.051  -0.239  0.00  0.00     0.095 N 
ATOM      3  C   UNL d   1      -0.893  -1.088  -0.071  0.00  0.00     0.153 C 
ATOM      4  C   UNL d   1      -0.704   1.397  -0.202  0.00  0.00     0.153 C 
ATOM      5  C   UNL d   1       0.596  -1.139   0.329  0.00  0.00     0.292 C 
ATOM      6  C   UNL d   1       0.803   1.242   0.148  0.00  0.00     0.292 C 
ENDROOT
BRANCH   2   7
ATOM      7  C   UNL d   1       1.560  -0.124  -1.705  0.00  0.00     0.311 C 
BRANCH   7   8
ATOM      8  C   UNL d   1       2.154  -1.414  -2.230  0.00  0.00    -0.029 A 
ATOM      9  C   UNL d   1       3.469  -1.789  -1.915  0.00  0.00     0.019 A 
ATOM     10  C   UNL d   1       4.030  -2.961  -2.448  0.00  0.00    -0.024 A 
ATOM     11  C   UNL d   1       5.451  -3.323  -2.135  0.00  0.00     0.044 C 
ATOM     12  C   UNL d   1       3.247  -3.785  -3.259  0.00  0.00     0.076 A 
ATOM     13  C   UNL d   1       5.967  -4.340  -3.145  0.00  0.00     0.042 C 
ATOM     14  C   UNL d   1       4.947  -5.468  -3.362  0.00  0.00     0.061 C 
ATOM     15  O   UNL d   1       3.679  -4.960  -3.811  0.00  0.00    -0.340 OA
ATOM     16  C   UNL d   1       5.446  -6.385  -4.489  0.00  0.00     0.046 C 
ATOM     17  C   UNL d   1       4.728  -6.320  -2.103  0.00  0.00     0.046 C 
ATOM     18  C   UNL d   1       1.941  -3.420  -3.579  0.00  0.00     0.038 A 
ATOM     19  C   UNL d   1       1.398  -2.240  -3.074  0.00  0.00     0.012 A 
ENDBRANCH   7   8
ENDBRANCH   2   7
BRANCH   1  20
ATOM     20  C   UNL d   1      -2.590   0.368   1.044  0.00  0.00     0.030 A 
ATOM     21  C   UNL d   1      -2.864  -0.511   2.103  0.00  0.00     0.032 A 
ATOM     22  C   UNL d   1      -3.998  -0.359   2.910  0.00  0.00     0.044 A 
ATOM     23  C   UNL d   1      -4.880   0.679   2.659  0.00  0.00     0.116 A 
ATOM     24  C   UNL d   1      -4.647   1.568   1.621  0.00  0.00     0.044 A 
ATOM     25  F   UNL d   1      -5.966   0.828   3.428  0.00  0.00    -0.206 F 
ATOM     26  C   UNL d   1      -3.509   1.410   0.824  0.00  0.00     0.032 A 
ENDBRANCH   1  20
TORSDOF 3
