REMARK  3 active torsions:
REMARK  status: ('A' for Active; 'I' for Inactive)
REMARK    1  A    between atoms: N_2  and  C_1 
REMARK    2  A    between atoms: N_3  and  C_6 
REMARK    3  A    between atoms: N_7  and  C_4 
ROOT
ATOM      1  C   UNL d   1      -0.100  -0.509   0.775  0.00  0.00     0.131 A 
ATOM      2  C   UNL d   1       0.663  -1.345  -0.076  0.00  0.00     0.063 A 
ATOM      3  C   UNL d   1      -0.604   0.746   0.372  0.00  0.00     0.074 A 
ATOM      4  C   UNL d   1      -0.325   1.205  -0.913  0.00  0.00     0.105 A 
ATOM      5  C   UNL d   1       0.988  -0.780  -1.328  0.00  0.00     0.034 A 
ATOM      6  C   UNL d   1       0.499   0.462  -1.756  0.00  0.00     0.038 A 
ENDROOT
BRANCH   2   7
ATOM      7  N   UNL d   1       0.970  -2.686   0.185  0.00  0.00    -0.379 N 
ATOM      8  C   UNL d   1       1.179  -3.585  -0.971  0.00  0.00     0.123 C 
ATOM      9  C   UNL d   1       0.878  -5.028  -0.574  0.00  0.00     0.020 C 
ATOM     10  C   UNL d   1       1.659  -5.451   0.667  0.00  0.00     0.003 C 
ATOM     11  C   UNL d   1       1.491  -4.434   1.795  0.00  0.00     0.020 C 
ATOM     12  C   UNL d   1       1.853  -3.025   1.317  0.00  0.00     0.123 C 
ENDBRANCH   2   7
BRANCH   1  13
ATOM     13  N   UNL d   1      -0.503  -0.921   2.106  0.00  0.00    -0.113 N 
ATOM     14  O   UNL d   1       0.316  -0.759   3.019  0.00  0.00    -0.532 OA
ATOM     15  O   UNL d   1      -1.685  -1.269   2.252  0.00  0.00    -0.532 OA
ENDBRANCH   1  13
BRANCH   4  16
ATOM     16  N   UNL d   1      -0.927   2.451  -1.403  0.00  0.00    -0.116 N 
ATOM     17  O   UNL d   1      -1.673   3.068  -0.628  0.00  0.00    -0.532 OA
ATOM     18  O   UNL d   1      -0.667   2.801  -2.560  0.00  0.00    -0.532 OA
ENDBRANCH   4  16
TORSDOF 3
