REMARK  5 active torsions:
REMARK  status: ('A' for Active; 'I' for Inactive)
REMARK    1  A    between atoms: C_7  and  C_1 
REMARK    2  A    between atoms: C_9  and  N_4 
REMARK    3  A    between atoms: S_11  and  C_5 
REMARK    4  A    between atoms: O_8  and  C_7 
REMARK    5  A    between atoms: C_12  and  O_8 
ROOT
ATOM      1  C   UNL d   1      -0.258   1.058   0.286  0.00  0.00     0.092 A 
ATOM      2  N   UNL d   1       0.920  -0.873   0.620  0.00  0.00    -0.287 N 
ATOM      3  HN  UNL d   1       1.670  -1.524   0.850  1.00  0.00     0.188 HD
ATOM      4  N   UNL d   1      -0.322  -1.172   0.163  0.00  0.00    -0.266 N 
ATOM      5  C   UNL d   1       0.947   0.458   0.701  0.00  0.00     0.102 A 
ATOM      6  C   UNL d   1      -1.042  -0.027  -0.077  0.00  0.00     0.137 A 
ENDROOT
BRANCH   1   7
ATOM      7  C   UNL d   1      -0.690   2.442   0.175  0.00  0.00     0.302 C 
ATOM      8  O   UNL d   1      -1.734   2.739  -0.401  0.00  0.00    -0.259 OA
BRANCH   7   9
ATOM      9  O   UNL d   1       0.179   3.359   0.769  0.00  0.00    -0.275 OA
BRANCH   9  10
ATOM     10  C   UNL d   1      -0.070   4.747   0.690  0.00  0.00     0.079 A 
ATOM     11  C   UNL d   1      -1.343   5.304   0.811  0.00  0.00     0.039 A 
ATOM     12  C   UNL d   1      -1.505   6.687   0.698  0.00  0.00     0.026 A 
ATOM     13  C   UNL d   1      -0.392   7.503   0.496  0.00  0.00     0.034 A 
ATOM     14  C   UNL d   1       0.886   6.950   0.425  0.00  0.00     0.026 A 
ATOM     15 CL   UNL d   1      -0.599   9.204   0.333  0.00  0.00    -0.084 Cl
ATOM     16  C   UNL d   1       1.050   5.566   0.529  0.00  0.00     0.039 A 
ENDBRANCH   9  10
ENDBRANCH   7   9
ENDBRANCH   1   7
BRANCH   5  17
ATOM     17  S   UNL d   1       2.397   1.264   1.253  0.00  0.00    -0.114 SA
ATOM     18  C   UNL d   1       3.656   0.330   0.356  0.00  0.00     0.097 C 
ENDBRANCH   5  17
BRANCH   4  19
ATOM     19  C   UNL d   1      -0.733  -2.525  -0.006  0.00  0.00     0.056 A 
ATOM     20  C   UNL d   1      -2.027  -2.848  -0.443  0.00  0.00     0.031 A 
ATOM     21  C   UNL d   1      -2.405  -4.189  -0.578  0.00  0.00     0.002 A 
ATOM     22  C   UNL d   1      -1.502  -5.209  -0.285  0.00  0.00     0.000 A 
ATOM     23  C   UNL d   1      -0.214  -4.894   0.144  0.00  0.00     0.002 A 
ATOM     24  C   UNL d   1       0.171  -3.560   0.283  0.00  0.00     0.031 A 
ENDBRANCH   4  19
TORSDOF 5
