REMARK  10 active torsions:
REMARK  status: ('A' for Active; 'I' for Inactive)
REMARK       I    between atoms: C_6  and  N_1 
REMARK    1  A    between atoms: C_7  and  C_3 
REMARK    2  A    between atoms: C_9  and  C_6 
REMARK    3  A    between atoms: C_10  and  C_7 
REMARK    4  A    between atoms: O_16  and  C_10 
REMARK    5  A    between atoms: C_12  and  C_21 
REMARK    6  A    between atoms: O_17  and  C_12 
REMARK    7  A    between atoms: C_21  and  O_16 
REMARK    8  A    between atoms: C_25  and  O_17 
REMARK    9  A    between atoms: O_30  and  C_22 
REMARK   10  A    between atoms: C_29  and  C_25 
ROOT
ATOM      1  N   UNL d   1       1.629   1.208   0.015  0.00  0.00    -0.281 N 
ATOM      2  C   UNL d   1       2.459   0.098   0.205  0.00  0.00     0.024 C 
ATOM      3  C   UNL d   1       1.688  -1.051   0.085  0.00  0.00    -0.013 C 
ATOM      4  C   UNL d   1       0.302   0.750   0.082  0.00  0.00     0.053 A 
ATOM      5  C   UNL d   1       0.326  -0.644   0.040  0.00  0.00     0.003 A 
ATOM      6  C   UNL d   1       2.046   2.550  -0.233  0.00  0.00     0.263 C 
ATOM      7  C   UNL d   1      -0.926   1.437   0.167  0.00  0.00     0.034 A 
ATOM      8  C   UNL d   1      -0.898  -1.351  -0.015  0.00  0.00     0.051 A 
ATOM      9  O   UNL d   1       3.191   2.879   0.071  0.00  0.00    -0.267 OA
ATOM     10  C   UNL d   1       3.941   0.183   0.390  0.00  0.00     0.069 C 
ATOM     11  C   UNL d   1      -2.119  -0.668  -0.001  0.00  0.00     0.069 A 
ATOM     12  C   UNL d   1      -2.124   0.717   0.091  0.00  0.00     0.039 A 
ENDROOT
BRANCH   3  13
ATOM     13  C   UNL d   1       2.179  -2.463   0.003  0.00  0.00     0.152 C 
BRANCH  13  14
ATOM     14  C   UNL d   1       2.326  -3.145   1.341  0.00  0.00     0.263 C 
ATOM     15  O   UNL d   1       2.964  -2.716   2.299  0.00  0.00    -0.265 OA
BRANCH  14  16
ATOM     16  O   UNL d   1       1.766  -4.391   1.291  0.00  0.00    -0.311 OA
BRANCH  16  17
ATOM     17  C   UNL d   1       2.337  -5.316   2.222  0.00  0.00     0.289 C 
BRANCH  17  18
ATOM     18  C   UNL d   1       3.703  -5.757   1.716  0.00  0.00     0.283 C 
ATOM     19  O   UNL d   1       4.164  -5.460   0.620  0.00  0.00    -0.263 OA
BRANCH  18  20
ATOM     20  O   UNL d   1       4.319  -6.545   2.641  0.00  0.00    -0.315 OA
BRANCH  20  21
ATOM     21  C   UNL d   1       5.653  -6.945   2.289  0.00  0.00     0.217 C 
BRANCH  21  22
ATOM     22  C   UNL d   1       6.657  -5.859   2.591  0.00  0.00    -0.034 A 
ATOM     23  C   UNL d   1       6.519  -5.035   3.717  0.00  0.00     0.009 A 
ATOM     24  C   UNL d   1       7.445  -4.023   3.975  0.00  0.00     0.001 A 
ATOM     25  C   UNL d   1       8.531  -3.838   3.122  0.00  0.00     0.000 A 
ATOM     26  C   UNL d   1       8.695  -4.667   2.014  0.00  0.00     0.001 A 
ATOM     27  C   UNL d   1       7.765  -5.675   1.751  0.00  0.00     0.009 A 
ENDBRANCH  21  22
ENDBRANCH  20  21
ENDBRANCH  18  20
ENDBRANCH  17  18
ENDBRANCH  16  17
ENDBRANCH  14  16
ENDBRANCH  13  14
ENDBRANCH   3  13
BRANCH   6  28
ATOM     28  C   UNL d   1       1.199   3.597  -0.862  0.00  0.00     0.033 A 
ATOM     29  C   UNL d   1       1.230   4.900  -0.350  0.00  0.00     0.018 A 
ATOM     30  C   UNL d   1       0.346   5.863  -0.842  0.00  0.00     0.025 A 
ATOM     31  C   UNL d   1      -0.561   5.522  -1.846  0.00  0.00     0.034 A 
ATOM     32  C   UNL d   1      -0.544   4.249  -2.413  0.00  0.00     0.025 A 
ATOM     33 CL   UNL d   1      -1.726   6.672  -2.373  0.00  0.00    -0.084 Cl
ATOM     34  C   UNL d   1       0.359   3.292  -1.942  0.00  0.00     0.018 A 
ENDBRANCH   6  28
BRANCH  11  35
ATOM     35  O   UNL d   1      -3.229  -1.467  -0.061  0.00  0.00    -0.356 OA
ATOM     36  C   UNL d   1      -4.492  -0.813  -0.002  0.00  0.00     0.210 C 
ENDBRANCH  11  35
TORSDOF 10
