REMARK  12 active torsions:
REMARK  status: ('A' for Active; 'I' for Inactive)
REMARK       I    between atoms: N_2  and  C_1 
REMARK    1  A    between atoms: O_8  and  C_1 
REMARK    2  A    between atoms: CA_3  and  N_2 
REMARK    3  A    between atoms: C_4  and  CA_3 
REMARK    4  A    between atoms: C_5  and  CA_3 
REMARK    5  A    between atoms: OXT_13  and  C_4 
REMARK    6  A    between atoms: C_11  and  C_5 
REMARK    7  A    between atoms: C_14  and  O_8 
REMARK    8  A    between atoms: O_9  and  C_12 
REMARK    9  A    between atoms: C_10  and  O_9 
REMARK   10  A    between atoms: C_19  and  C_14 
REMARK   11  A    between atoms: C_31  and  N_30 
REMARK   12  A    between atoms: C_32  and  N_30 
ROOT
ATOM      1  N   UNL d   2       1.361   0.693  -0.325  0.00  0.00     0.092 N 
ATOM      2  H   UNL d   2       1.573   1.001  -1.272  0.00  0.00     0.316 HD
ENDROOT
BRANCH   1   3
ATOM      3  C   UNL d   2       0.871   1.860   0.452  0.00  0.00     0.221 C 
ATOM      4  C   UNL d   2       1.481   3.159  -0.113  0.00  0.00     0.035 C 
ATOM      5  C   UNL d   2       2.999   3.208   0.058  0.00  0.00     0.002 C 
ATOM      6  C   UNL d   2       3.419   2.994   1.512  0.00  0.00     0.000 C 
ATOM      7  C   UNL d   2       2.757   1.773   2.150  0.00  0.00     0.002 C 
ATOM      8  C   UNL d   2       1.242   1.786   1.943  0.00  0.00     0.035 C 
ENDBRANCH   1   3
BRANCH   1   9
ATOM      9  C   UNL d   2       0.401  -0.428  -0.372  0.00  0.00     0.221 C 
ATOM     10  C   UNL d   2       0.711  -1.448   0.734  0.00  0.00     0.035 C 
ATOM     11  C   UNL d   2       1.797  -2.443   0.351  0.00  0.00     0.002 C 
ATOM     12  C   UNL d   2       1.319  -3.243  -0.846  0.00  0.00     0.000 C 
ATOM     13  C   UNL d   2       1.187  -2.325  -2.050  0.00  0.00     0.002 C 
ATOM     14  C   UNL d   2       0.347  -1.068  -1.788  0.00  0.00     0.035 C 
ENDBRANCH   1   9
TORSDOF 12
