REMARK  4 active torsions:
REMARK  status: ('A' for Active; 'I' for Inactive)
REMARK    1  A    between atoms: C_3  and  C_1 
REMARK       I    between atoms: N_12  and  C_1 
REMARK    2  A    between atoms: C_2  and  C_5 
REMARK    3  A    between atoms: C_4  and  C_2 
REMARK    4  A    between atoms: C_5  and  C_8 
ROOT
ATOM      1  C   UNL d   1       0.451   1.376  -0.504  0.00  0.00     0.032 A 
ATOM      2  C   UNL d   1       0.845   1.576  -1.834  0.00  0.00     0.024 A 
ATOM      3  C   UNL d   1      -0.095   1.971  -2.800  0.00  0.00    -0.050 A 
ATOM      4  C   UNL d   1      -0.863   1.666  -0.121  0.00  0.00     0.017 A 
ATOM      5  C   UNL d   1      -1.777   2.151  -1.055  0.00  0.00     0.002 A 
ATOM      6  C   UNL d   1      -1.397   2.295  -2.388  0.00  0.00     0.007 A 
ENDROOT
BRANCH   3   7
ATOM      7  C   UNL d   1       0.228   2.024  -4.278  0.00  0.00     0.122 C 
BRANCH   7   8
ATOM      8  C   UNL d   1       1.365   1.144  -4.765  0.00  0.00     0.163 C 
ATOM      9  O   UNL d   1       2.328   1.649  -5.351  0.00  0.00    -0.292 OA
BRANCH   8  10
ATOM     10  C   UNL d   1       1.350  -0.343  -4.564  0.00  0.00     0.010 A 
ATOM     11  C   UNL d   1       0.306  -1.025  -3.924  0.00  0.00     0.017 A 
ATOM     12  C   UNL d   1       0.415  -2.396  -3.662  0.00  0.00     0.025 A 
ATOM     13  C   UNL d   1       1.549  -3.098  -4.065  0.00  0.00     0.034 A 
ATOM     14  C   UNL d   1       2.571  -2.444  -4.747  0.00  0.00     0.025 A 
ATOM     15 CL   UNL d   1       1.692  -4.773  -3.709  0.00  0.00    -0.084 Cl
ATOM     16  C   UNL d   1       2.472  -1.072  -4.993  0.00  0.00     0.017 A 
ENDBRANCH   8  10
ENDBRANCH   7   8
ENDBRANCH   3   7
BRANCH   1  17
ATOM     17  C   UNL d   1       1.349   0.740   0.498  0.00  0.00     0.249 C 
ATOM     18  O   UNL d   1       0.898   0.192   1.499  0.00  0.00    -0.268 OA
ATOM     19  N   UNL d   1       2.695   0.765   0.271  0.00  0.00    -0.366 N 
ATOM     20  H   UNL d   1       3.139   1.359  -0.415  0.00  0.00     0.159 HD
ATOM     21  H   UNL d   1       3.280   0.344   0.981  0.00  0.00     0.159 HD
ENDBRANCH   1  17
TORSDOF 4
