REMARK  6 active torsions:
REMARK  status: ('A' for Active; 'I' for Inactive)
REMARK    1  A    between atoms: C_14  and  C_1 
REMARK    2  A    between atoms: N_7  and  C_2 
REMARK    3  A    between atoms: C_6  and  C_11 
REMARK       I    between atoms: C_11  and  N_7 
REMARK    4  A    between atoms: N_8  and  C_15 
REMARK    5  A    between atoms: O_25  and  C_14 
REMARK    6  A    between atoms: C_27  and  O_25 
ROOT
ATOM      1  C   UNL d   1       2.084  -0.797  -0.533  0.00  0.00     0.138 C 
ATOM      2  C   UNL d   1       1.029  -1.681  -0.318  0.00  0.00     0.081 C 
ATOM      3  N   UNL d   1       1.601   0.459  -0.208  0.00  0.00    -0.344 N 
ATOM      4  C   UNL d   1      -0.164  -0.900  -0.181  0.00  0.00     0.022 A 
ATOM      5  C   UNL d   1       0.221   0.438  -0.121  0.00  0.00     0.047 A 
ATOM      6  C   UNL d   1      -1.538  -1.217  -0.088  0.00  0.00     0.052 A 
ATOM      7  C   UNL d   1      -2.472  -0.171   0.019  0.00  0.00     0.103 A 
ATOM      8  C   UNL d   1      -0.705   1.487   0.011  0.00  0.00     0.033 A 
ATOM      9  C   UNL d   1      -2.063   1.164   0.070  0.00  0.00     0.038 A 
ATOM     10  C   UNL d   1       2.384   1.676  -0.099  0.00  0.00     0.157 C 
ENDROOT
BRANCH   2  11
ATOM     11  N   UNL d   1       1.039  -3.068  -0.321  0.00  0.00    -0.319 N 
ATOM     12  C   UNL d   1       2.133  -3.878  -0.074  0.00  0.00     0.274 C 
ATOM     13  O   UNL d   1       3.231  -3.500   0.322  0.00  0.00    -0.266 OA
ATOM     14  H   UNL d   1       0.149  -3.550  -0.403  0.00  0.00     0.169 HD
BRANCH  12  15
ATOM     15  C   UNL d   1       1.864  -5.295  -0.329  0.00  0.00     0.125 A 
ATOM     16  N   UNL d   1       0.636  -5.744  -0.647  0.00  0.00    -0.256 N 
ATOM     17  O   UNL d   1       0.790  -7.089  -0.937  0.00  0.00    -0.242 OA
ATOM     18  HN  UNL d   1      -0.230  -5.205  -0.669  1.00  0.00     0.195 HD
ATOM     19  C   UNL d   1       2.095  -7.440  -0.786  0.00  0.00     0.075 A 
ATOM     20  C   UNL d   1       2.806  -6.354  -0.346  0.00  0.00     0.071 A 
ATOM     21  C   UNL d   1       2.461  -8.818  -1.159  0.00  0.00     0.079 C 
ENDBRANCH  12  15
ENDBRANCH   2  11
BRANCH   1  22
ATOM     22  C   UNL d   1       3.416  -1.032  -1.056  0.00  0.00     0.312 C 
ATOM     23  O   UNL d   1       4.420  -0.390  -0.771  0.00  0.00    -0.258 OA
BRANCH  22  24
ATOM     24  O   UNL d   1       3.360  -1.973  -2.047  0.00  0.00    -0.317 OA
BRANCH  24  25
ATOM     25  C   UNL d   1       4.607  -2.266  -2.690  0.00  0.00     0.175 C 
ATOM     26  C   UNL d   1       4.824  -1.332  -3.867  0.00  0.00     0.034 C 
ENDBRANCH  24  25
ENDBRANCH  22  24
ENDBRANCH   1  22
BRANCH   7  27
ATOM     27  N   UNL d   1      -3.905  -0.488   0.062  0.00  0.00    -0.116 N 
ATOM     28  O   UNL d   1      -4.233  -1.682   0.019  0.00  0.00    -0.532 OA
ATOM     29  O   UNL d   1      -4.704   0.457   0.135  0.00  0.00    -0.532 OA
ENDBRANCH   7  27
TORSDOF 6
