REMARK  4 active torsions:
REMARK  status: ('A' for Active; 'I' for Inactive)
REMARK    1  A    between atoms: C_6  and  C_1 
REMARK    2  A    between atoms: N_9  and  C_3 
REMARK    3  A    between atoms: O_11  and  C_6 
REMARK    4  A    between atoms: C_14  and  O_11 
ROOT
ATOM      1  C   UNL d   1      -2.140  -0.143   0.052  0.00  0.00     0.109 A 
ATOM      2  S   UNL d   1      -1.130  -1.532   0.102  0.00  0.00    -0.063 SA
ATOM      3  C   UNL d   1      -1.381   1.018   0.044  0.00  0.00     0.062 A 
ATOM      4  C   UNL d   1       0.032   0.768   0.040  0.00  0.00     0.025 A 
ATOM      5  C   UNL d   1       0.287  -0.598   0.065  0.00  0.00     0.087 A 
ATOM      6  N   UNL d   1       1.499  -1.193   0.059  0.00  0.00    -0.360 N 
ATOM      7  HN  UNL d   1       1.620  -2.206   0.081  1.00  0.00     0.166 HD
ATOM      8  C   UNL d   1       1.159   1.619   0.003  0.00  0.00     0.018 A 
ATOM      9  C   UNL d   1       2.534  -0.331   0.021  0.00  0.00     0.089 A 
ATOM     10  C   UNL d   1       2.429   1.048  -0.006  0.00  0.00     0.018 A 
ENDROOT
BRANCH   1  11
ATOM     11  C   UNL d   1      -3.574  -0.349  -0.026  0.00  0.00     0.302 C 
ATOM     12  O   UNL d   1      -4.150  -1.427  -0.105  0.00  0.00    -0.259 OA
BRANCH  11  13
ATOM     13  O   UNL d   1      -4.217   0.858  -0.100  0.00  0.00    -0.317 OA
BRANCH  13  14
ATOM     14  C   UNL d   1      -5.537   0.822  -0.656  0.00  0.00     0.174 C 
ATOM     15  C   UNL d   1      -5.411   0.918  -2.166  0.00  0.00     0.034 C 
ENDBRANCH  13  14
ENDBRANCH  11  13
ENDBRANCH   1  11
BRANCH   3  16
ATOM     16  N   UNL d   1      -1.897   2.268   0.011  0.00  0.00    -0.397 N 
ATOM     17  H   UNL d   1      -2.903   2.433   0.025  0.00  0.00     0.156 HD
ATOM     18  H   UNL d   1      -1.332   3.111   0.013  0.00  0.00     0.156 HD
ENDBRANCH   3  16
TORSDOF 4
