REMARK  9 active torsions:
REMARK  status: ('A' for Active; 'I' for Inactive)
REMARK    1  A    between atoms: C_11  and  N_9 
REMARK    2  A    between atoms: C_14  and  C_11 
REMARK    3  A    between atoms: C_17  and  C_14 
REMARK    4  A    between atoms: O_19  and  C_14 
REMARK    5  A    between atoms: N_18  and  C_17 
REMARK    6  A    between atoms: C_20  and  N_18 
REMARK    7  A    between atoms: C_21  and  N_18 
REMARK    8  A    between atoms: C_22  and  C_20 
REMARK    9  A    between atoms: C_23  and  C_21 
ROOT
ATOM      1  C   UNL d   1       0.410  -1.161  -0.248  0.00  0.00     0.145 A 
ATOM      2  C   UNL d   1       1.496  -0.357  -0.020  0.00  0.00     0.149 A 
ATOM      3  N   UNL d   1       0.034  -2.167   0.617  0.00  0.00    -0.287 N 
ATOM      4  N   UNL d   1       1.917  -1.599   1.958  0.00  0.00    -0.269 N 
ATOM      5  C   UNL d   1       0.788  -2.407   1.765  0.00  0.00     0.332 A 
ATOM      6  C   UNL d   1       2.360  -0.594   1.092  0.00  0.00     0.282 A 
ATOM      7  N   UNL d   1      -0.234  -0.839  -1.397  0.00  0.00    -0.336 N 
ATOM      8  HN  UNL d   1      -1.048  -1.296  -1.807  1.00  0.00     0.168 HD
ATOM      9  N   UNL d   1       1.465   0.585  -1.026  0.00  0.00    -0.333 N 
ATOM     10  C   UNL d   1       0.427   0.195  -1.861  0.00  0.00     0.185 A 
ATOM     11  O   UNL d   1       0.475  -3.292   2.561  0.00  0.00    -0.246 OA
ATOM     12  O   UNL d   1       3.427  -0.011   1.259  0.00  0.00    -0.265 OA
ATOM     13  C   UNL d   1      -1.159  -2.964   0.407  0.00  0.00     0.163 C 
ATOM     14  C   UNL d   1       2.760  -1.866   3.111  0.00  0.00     0.164 C 
ENDROOT
BRANCH   9  15
ATOM     15  C   UNL d   1       1.998   1.935  -1.112  0.00  0.00     0.163 C 
BRANCH  15  16
ATOM     16  C   UNL d   1       3.429   2.316  -0.693  0.00  0.00     0.164 C 
BRANCH  16  17
ATOM     17  C   UNL d   1       4.564   1.846  -1.642  0.00  0.00     0.305 C 
BRANCH  17  18
ATOM     18  N   UNL d   1       4.586   2.296  -3.051  0.00  0.00     0.090 N 
BRANCH  18  19
ATOM     19  C   UNL d   1       4.701   3.757  -3.285  0.00  0.00     0.272 C 
BRANCH  19  20
ATOM     20  C   UNL d   1       6.030   4.523  -3.075  0.00  0.00     0.026 C 
ATOM     21  C   UNL d   1       6.536   4.681  -1.651  0.00  0.00     0.007 C 
ENDBRANCH  19  20
ENDBRANCH  18  19
BRANCH  18  22
ATOM     22  C   UNL d   1       5.620   1.603  -3.859  0.00  0.00     0.272 C 
BRANCH  22  23
ATOM     23  C   UNL d   1       5.737   0.074  -3.782  0.00  0.00     0.026 C 
ATOM     24  C   UNL d   1       4.489  -0.678  -4.207  0.00  0.00     0.007 C 
ENDBRANCH  22  23
ENDBRANCH  18  22
ENDBRANCH  17  18
ENDBRANCH  16  17
BRANCH  16  25
ATOM     25  O   UNL d   1       3.507   3.733  -0.450  0.00  0.00    -0.392 OA
ATOM     26  H   UNL d   1       2.993   4.190  -1.133  0.00  0.00     0.210 HD
ENDBRANCH  16  25
ENDBRANCH  15  16
ENDBRANCH   9  15
TORSDOF 9
