REMARK  4 active torsions:
REMARK  status: ('A' for Active; 'I' for Inactive)
REMARK       I    between atoms: N_6  and  C_1 
REMARK       I    between atoms: N_7  and  C_1 
REMARK    1  A    between atoms: N_2  and  N_7 
REMARK    2  A    between atoms: N_4  and  N_6 
REMARK    3  A    between atoms: C_11  and  C_14 
REMARK    4  A    between atoms: C_12  and  C_13 
ROOT
ATOM      1  C   UNL d   1       1.091  -0.110  -0.010  0.00  0.00     0.353 C 
ATOM      2  N   UNL d   1       0.435  -0.748  -1.065  0.00  0.00    -0.251 N 
ATOM      3  N   UNL d   1       0.174   0.422   0.898  0.00  0.00    -0.251 N 
ATOM      4  O   UNL d   1       2.310  -0.031   0.105  0.00  0.00    -0.244 OA
ATOM      5  H   UNL d   1      -0.569  -0.698  -1.142  0.00  0.00     0.191 HD
ATOM      6  H   UNL d   1      -0.813   0.274   0.762  0.00  0.00     0.191 HD
ENDROOT
BRANCH   2   7
ATOM      7  N   UNL d   1       1.154  -1.307  -2.082  0.00  0.00    -0.307 N 
ATOM      8  C   UNL d   1       0.465  -1.858  -3.032  0.00  0.00     0.119 C 
ATOM      9  HN  UNL d   1       2.174  -1.293  -2.093  1.00  0.00     0.186 HD
BRANCH   8  10
ATOM     10  C   UNL d   1       1.117  -2.482  -4.212  0.00  0.00    -0.008 A 
ATOM     11  C   UNL d   1       0.361  -3.084  -5.260  0.00  0.00    -0.014 A 
ATOM     12  C   UNL d   1       1.077  -3.642  -6.353  0.00  0.00    -0.025 A 
ATOM     13  C   UNL d   1      -1.055  -3.170  -5.306  0.00  0.00     0.013 A 
ATOM     14  C   UNL d   1       0.386  -4.243  -7.419  0.00  0.00     0.012 A 
ATOM     15  C   UNL d   1       2.479  -3.594  -6.379  0.00  0.00     0.012 A 
ATOM     16  C   UNL d   1      -1.005  -4.303  -7.434  0.00  0.00     0.001 A 
ATOM     17  C   UNL d   1      -1.726  -3.768  -6.377  0.00  0.00     0.001 A 
ATOM     18  C   UNL d   1       3.197  -2.998  -5.347  0.00  0.00     0.002 A 
ATOM     19  C   UNL d   1       2.520  -2.444  -4.268  0.00  0.00     0.014 A 
ENDBRANCH   8  10
ENDBRANCH   2   7
BRANCH   3  20
ATOM     20  N   UNL d   1       0.603   1.088   2.012  0.00  0.00    -0.307 N 
ATOM     21  C   UNL d   1      -0.335   1.519   2.798  0.00  0.00     0.119 C 
ATOM     22  HN  UNL d   1       1.592   1.235   2.212  1.00  0.00     0.186 HD
BRANCH  21  23
ATOM     23  C   UNL d   1      -0.047   2.261   4.051  0.00  0.00    -0.008 A 
ATOM     24  C   UNL d   1      -1.096   2.723   4.900  0.00  0.00    -0.014 A 
ATOM     25  C   UNL d   1      -0.731   3.428   6.077  0.00  0.00    -0.025 A 
ATOM     26  C   UNL d   1      -2.484   2.536   4.666  0.00  0.00     0.013 A 
ATOM     27  C   UNL d   1      -1.722   3.905   6.952  0.00  0.00     0.012 A 
ATOM     28  C   UNL d   1       0.622   3.651   6.376  0.00  0.00     0.012 A 
ATOM     29  C   UNL d   1      -3.075   3.699   6.692  0.00  0.00     0.001 A 
ATOM     30  C   UNL d   1      -3.456   3.014   5.549  0.00  0.00     0.001 A 
ATOM     31  C   UNL d   1       1.630   3.187   5.535  0.00  0.00     0.002 A 
ATOM     32  C   UNL d   1       1.298   2.494   4.377  0.00  0.00     0.014 A 
ENDBRANCH  21  23
ENDBRANCH   3  20
TORSDOF 4
