REMARK  5 active torsions:
REMARK  status: ('A' for Active; 'I' for Inactive)
REMARK    1  A    between atoms: O_15  and  C_1 
REMARK    2  A    between atoms: C_22  and  C_4 
REMARK    3  A    between atoms: N_7  and  C_8 
REMARK    4  A    between atoms: C_16  and  O_15 
REMARK    5  A    between atoms: C_17  and  C_21 
ROOT
ATOM      1  C   UNL d   1       2.050  -3.926   0.949  0.00  0.00     0.137 A 
ATOM      2  C   UNL d   1       1.118  -3.986  -0.106  0.00  0.00     0.109 A 
ATOM      3  C   UNL d   1       3.303  -4.560   0.836  0.00  0.00     0.050 A 
ATOM      4  C   UNL d   1       3.639  -5.243  -0.335  0.00  0.00    -0.031 A 
ATOM      5  C   UNL d   1       1.492  -4.646  -1.288  0.00  0.00     0.041 A 
ATOM      6  C   UNL d   1       2.728  -5.289  -1.391  0.00  0.00     0.014 A 
ENDROOT
BRANCH   4   7
ATOM      7  C   UNL d   1       4.980  -5.791  -0.512  0.00  0.00     0.047 C 
ATOM      8  C   UNL d   1       5.985  -5.086  -1.044  0.00  0.00     0.111 A 
ATOM      9  N   UNL d   1       7.245  -5.582  -1.272  0.00  0.00    -0.331 N 
ATOM     10  C   UNL d   1       5.904  -3.665  -1.497  0.00  0.00     0.316 A 
ATOM     11  C   UNL d   1       7.851  -4.576  -1.817  0.00  0.00     0.162 A 
ATOM     12  HN  UNL d   1       7.612  -6.510  -1.064  1.00  0.00     0.168 HD
ATOM     13  O   UNL d   1       7.151  -3.431  -1.983  0.00  0.00    -0.256 OA
ATOM     14  O   UNL d   1       4.982  -2.878  -1.471  0.00  0.00    -0.257 OA
BRANCH  11  15
ATOM     15  C   UNL d   1       9.236  -4.525  -2.309  0.00  0.00     0.015 A 
ATOM     16  C   UNL d   1      10.023  -5.679  -2.245  0.00  0.00     0.016 A 
ATOM     17  C   UNL d   1      11.334  -5.656  -2.724  0.00  0.00     0.001 A 
ATOM     18  C   UNL d   1      11.861  -4.482  -3.263  0.00  0.00     0.000 A 
ATOM     19  C   UNL d   1      11.080  -3.328  -3.324  0.00  0.00     0.001 A 
ATOM     20  C   UNL d   1       9.770  -3.346  -2.848  0.00  0.00     0.016 A 
ENDBRANCH  11  15
ENDBRANCH   4   7
BRANCH   1  21
ATOM     21  N   UNL d   1       1.772  -3.192   2.196  0.00  0.00    -0.113 N 
ATOM     22  O   UNL d   1       0.762  -2.480   2.267  0.00  0.00    -0.532 OA
ATOM     23  O   UNL d   1       2.586  -3.322   3.125  0.00  0.00    -0.532 OA
ENDBRANCH   1  21
BRANCH   2  24
ATOM     24  O   UNL d   1      -0.120  -3.402   0.071  0.00  0.00    -0.305 OA
BRANCH  24  25
ATOM     25  C   UNL d   1      -1.146  -3.630  -0.820  0.00  0.00     0.123 A 
ATOM     26  C   UNL d   1      -1.728  -4.899  -0.986  0.00  0.00     0.093 A 
ATOM     27  C   UNL d   1      -2.761  -5.075  -1.922  0.00  0.00     0.082 A 
ATOM     28 CL   UNL d   1      -1.197  -6.230   0.001  0.00  0.00    -0.079 Cl
ATOM     29 CL   UNL d   1      -3.379  -6.672  -2.239  0.00  0.00    -0.081 Cl
ATOM     30  C   UNL d   1      -3.283  -3.963  -2.612  0.00  0.00     0.081 A 
ATOM     31  C   UNL d   1      -2.765  -2.676  -2.371  0.00  0.00     0.082 A 
ATOM     32 CL   UNL d   1      -4.579  -4.180  -3.756  0.00  0.00    -0.081 Cl
ATOM     33  C   UNL d   1      -1.687  -2.515  -1.485  0.00  0.00     0.093 A 
ATOM     34 CL   UNL d   1      -3.461  -1.289  -3.159  0.00  0.00    -0.081 Cl
ATOM     35 CL   UNL d   1      -1.002  -0.945  -1.185  0.00  0.00    -0.079 Cl
ENDBRANCH  24  25
ENDBRANCH   2  24
TORSDOF 5
