REMARK  4 active torsions:
REMARK  status: ('A' for Active; 'I' for Inactive)
REMARK    1  A    between atoms: S_10  and  C_1 
REMARK    2  A    between atoms: C_11  and  N_2 
REMARK    3  A    between atoms: N_6  and  C_3 
REMARK    4  A    between atoms: C_5  and  S_10 
ROOT
ATOM      1  C   UNL d   1       0.926  -0.678  -0.203  0.00  0.00     0.177 A 
ATOM      2  N   UNL d   1       0.995   0.663  -0.001  0.00  0.00    -0.241 N 
ATOM      3  N   UNL d   1      -0.279  -1.175  -0.180  0.00  0.00    -0.275 N 
ATOM      4  HN  UNL d   1      -0.564  -2.144  -0.324  1.00  0.00     0.189 HD
ATOM      5  C   UNL d   1      -0.311   1.072   0.198  0.00  0.00     0.347 A 
ATOM      6  N   UNL d   1      -1.073  -0.090   0.083  0.00  0.00    -0.249 N 
ATOM      7  O   UNL d   1      -0.748   2.194   0.394  0.00  0.00    -0.245 OA
ATOM      8  H   UNL d   1      -2.083  -0.139   0.110  0.00  0.00     0.192 HD
ENDROOT
BRANCH   1   9
ATOM      9  S   UNL d   1       2.336  -1.652  -0.450  0.00  0.00    -0.027 SA
BRANCH   9  10
ATOM     10  C   UNL d   1       2.629  -2.125   1.208  0.00  0.00     0.121 A 
ATOM     11  S   UNL d   1       3.514  -3.555   1.576  0.00  0.00    -0.039 SA
ATOM     12  C   UNL d   1       3.218  -3.287   3.226  0.00  0.00     0.161 A 
ATOM     13  C   UNL d   1       2.541  -2.104   3.416  0.00  0.00     0.133 A 
ATOM     14  N   UNL d   1       2.220  -1.426   2.248  0.00  0.00    -0.352 N 
ATOM     15  HN  UNL d   1       1.740  -0.527   2.202  1.00  0.00     0.166 HD
BRANCH  12  16
ATOM     16  N   UNL d   1       3.625  -4.222   4.226  0.00  0.00    -0.107 N 
ATOM     17  O   UNL d   1       3.312  -3.948   5.391  0.00  0.00    -0.531 OA
ATOM     18  O   UNL d   1       4.244  -5.231   3.865  0.00  0.00    -0.531 OA
ENDBRANCH  12  16
ENDBRANCH   9  10
ENDBRANCH   1   9
BRANCH   2  19
ATOM     19  C   UNL d   1       2.107   1.514  -0.037  0.00  0.00     0.049 A 
ATOM     20  C   UNL d   1       2.934   1.558  -1.165  0.00  0.00     0.069 A 
ATOM     21  C   UNL d   1       4.071   2.362  -1.161  0.00  0.00     0.104 A 
ATOM     22  O   UNL d   1       4.825   2.358  -2.305  0.00  0.00    -0.346 OA
ATOM     23  C   UNL d   1       4.386   3.126  -0.034  0.00  0.00     0.102 A 
ATOM     24  C   UNL d   1       6.120   2.927  -2.084  0.00  0.00     0.202 C 
ATOM     25  C   UNL d   1       6.022   4.203  -1.263  0.00  0.00     0.202 C 
ATOM     26  O   UNL d   1       5.492   3.932   0.039  0.00  0.00    -0.346 OA
ATOM     27  C   UNL d   1       3.564   3.084   1.090  0.00  0.00     0.042 A 
ATOM     28  C   UNL d   1       2.409   2.300   1.080  0.00  0.00     0.033 A 
ENDBRANCH   2  19
TORSDOF 4
