REMARK  4 active torsions:
REMARK  status: ('A' for Active; 'I' for Inactive)
REMARK    1  A    between atoms: N_7  and  C_1 
REMARK       I    between atoms: C_2  and  N_6 
REMARK       I    between atoms: N_9  and  C_2 
REMARK    2  A    between atoms: C_5  and  C_8 
REMARK    3  A    between atoms: C_20  and  N_9 
REMARK    4  A    between atoms: C_13  and  C_14 
ROOT
ATOM      1  C   UNL d   1      -1.105   6.532   0.229  0.00  0.00     0.322 C 
ATOM      2  N   UNL d   1       0.010   5.708   0.277  0.00  0.00    -0.333 N 
ATOM      3  N   UNL d   1       0.115   2.733  -0.001  0.00  0.00    -0.253 NA
ATOM      4  N   UNL d   1      -1.407   7.211   1.381  0.00  0.00    -0.309 N 
ATOM      5  O   UNL d   1      -1.757   6.615  -0.813  0.00  0.00    -0.247 OA
ATOM      6  C   UNL d   1       0.369   5.012  -0.967  0.00  0.00     0.142 C 
ATOM      7  C   UNL d   1      -0.264   3.622  -1.121  0.00  0.00     0.118 C 
ATOM      8  C   UNL d   1       0.134   3.997   2.140  0.00  0.00     0.035 C 
ATOM      9  C   UNL d   1       0.726   5.234   1.463  0.00  0.00     0.129 C 
ATOM     10  C   UNL d   1      -0.601   2.994   1.252  0.00  0.00     0.100 C 
ATOM     11  H   UNL d   1      -0.701   7.240   2.095  0.00  0.00     0.170 HD
ENDROOT
BRANCH   4  12
ATOM     12  C   UNL d   1      -2.582   7.963   1.640  0.00  0.00     0.036 A 
ATOM     13  C   UNL d   1      -3.674   8.023   0.780  0.00  0.00     0.030 A 
ATOM     14  C   UNL d   1      -4.876   8.622   1.181  0.00  0.00     0.010 A 
ATOM     15  C   UNL d   1      -5.027   9.178   2.461  0.00  0.00    -0.051 A 
ATOM     16  C   UNL d   1      -3.881   9.226   3.269  0.00  0.00     0.010 A 
ATOM     17  C   UNL d   1      -2.676   8.625   2.867  0.00  0.00     0.030 A 
BRANCH  15  18
ATOM     18  C   UNL d   1      -6.420   9.608   2.953  0.00  0.00    -0.024 C 
ATOM     19  C   UNL d   1      -6.421  10.138   4.404  0.00  0.00     0.019 C 
ATOM     20  C   UNL d   1      -7.016  10.708   2.053  0.00  0.00     0.019 C 
ATOM     21  C   UNL d   1      -7.361   8.379   2.923  0.00  0.00     0.019 C 
ENDBRANCH  15  18
ENDBRANCH   4  12
BRANCH   3  22
ATOM     22  C   UNL d   1       0.124   1.377  -0.341  0.00  0.00     0.160 A 
ATOM     23  N   UNL d   1      -0.314   0.999  -1.550  0.00  0.00    -0.329 N 
ATOM     24  C   UNL d   1      -0.203  -0.301  -1.922  0.00  0.00     0.120 A 
ATOM     25  HN  UNL d   1      -0.728   1.683  -2.185  1.00  0.00     0.168 HD
ATOM     26  C   UNL d   1       0.360  -1.241  -1.084  0.00  0.00     0.051 A 
ATOM     27  C   UNL d   1       0.768  -0.778   0.137  0.00  0.00     0.093 A 
ATOM     28  N   UNL d   1       0.652   0.505   0.531  0.00  0.00    -0.343 N 
ATOM     29  HN  UNL d   1       0.953   0.802   1.460  1.00  0.00     0.167 HD
BRANCH  24  30
ATOM     30  C   UNL d   1      -0.696  -0.715  -3.296  0.00  0.00     0.432 C 
ATOM     31  F   UNL d   1      -1.276   0.292  -4.010  0.00  0.00    -0.165 F 
ATOM     32  F   UNL d   1       0.308  -1.199  -4.083  0.00  0.00    -0.165 F 
ATOM     33  F   UNL d   1      -1.627  -1.712  -3.238  0.00  0.00    -0.165 F 
ENDBRANCH  24  30
ENDBRANCH   3  22
TORSDOF 4
