REMARK  10 active torsions:
REMARK  status: ('A' for Active; 'I' for Inactive)
REMARK    1  A    between atoms: C_1  and  O_9 
REMARK    2  A    between atoms: C_2  and  N_7 
REMARK    3  A    between atoms: C_3  and  O_10 
REMARK    4  A    between atoms: C_4  and  O_21 
REMARK    5  A    between atoms: C_6  and  C_15 
REMARK    6  A    between atoms: C_8  and  N_7 
REMARK    7  A    between atoms: C_11  and  O_9 
REMARK    8  A    between atoms: C_12  and  O_10 
REMARK    9  A    between atoms: C_14  and  O_16 
REMARK   10  A    between atoms: O_16  and  C_15 
ROOT
ATOM      1  C   UNL d   1       1.665  -0.033   0.159  0.00  0.00     0.191 C 
ATOM      2  C   UNL d   1       0.859  -1.308  -0.170  0.00  0.00     0.171 C 
ATOM      3  C   UNL d   1       0.893   1.266  -0.174  0.00  0.00     0.194 C 
ATOM      4  C   UNL d   1      -0.629  -1.180   0.255  0.00  0.00     0.285 C 
ATOM      5  O   UNL d   1      -1.202   0.038  -0.226  0.00  0.00    -0.349 OA
ATOM      6  C   UNL d   1      -0.561   1.204   0.320  0.00  0.00     0.181 C 
ENDROOT
BRANCH   2   7
ATOM      7  N   UNL d   1       1.516  -2.567   0.265  0.00  0.00    -0.355 N 
ATOM      8  H   UNL d   1       1.476  -3.296  -0.433  0.00  0.00     0.162 HD
BRANCH   7   9
ATOM      9  C   UNL d   1       1.732  -3.050   1.523  0.00  0.00     0.167 C 
ATOM     10  S   UNL d   1       1.369  -2.323   2.974  0.00  0.00    -0.041 SA
ATOM     11  N   UNL d   1       2.341  -4.270   1.573  0.00  0.00    -0.372 N 
ATOM     12  C   UNL d   1       3.086  -4.925   0.521  0.00  0.00     0.148 C 
ATOM     13  H   UNL d   1       2.460  -4.627   2.515  0.00  0.00     0.161 HD
ENDBRANCH   7   9
ENDBRANCH   2   7
BRANCH   1  14
ATOM     14  O   UNL d   1       2.987  -0.029  -0.470  0.00  0.00    -0.311 OA
BRANCH  14  15
ATOM     15  C   UNL d   1       3.092  -0.042  -1.824  0.00  0.00     0.255 C 
ATOM     16  O   UNL d   1       2.156  -0.059  -2.612  0.00  0.00    -0.266 OA
ATOM     17  C   UNL d   1       4.527   0.015  -2.236  0.00  0.00     0.126 C 
ENDBRANCH  14  15
ENDBRANCH   1  14
BRANCH   4  18
ATOM     18  O   UNL d   1      -1.412  -2.300  -0.189  0.00  0.00    -0.364 OA
ATOM     19  C   UNL d   1      -1.566  -2.399  -1.597  0.00  0.00     0.204 C 
ENDBRANCH   4  18
BRANCH   3  20
ATOM     20  O   UNL d   1       1.611   2.457   0.242  0.00  0.00    -0.311 OA
BRANCH  20  21
ATOM     21  C   UNL d   1       1.827   2.664   1.568  0.00  0.00     0.255 C 
ATOM     22  O   UNL d   1       1.438   1.931   2.463  0.00  0.00    -0.266 OA
ATOM     23  C   UNL d   1       2.645   3.899   1.792  0.00  0.00     0.126 C 
ENDBRANCH  20  21
ENDBRANCH   3  20
BRANCH   6  24
ATOM     24  C   UNL d   1      -1.355   2.430  -0.162  0.00  0.00     0.213 C 
BRANCH  24  25
ATOM     25  O   UNL d   1      -2.688   2.421   0.388  0.00  0.00    -0.319 OA
BRANCH  25  26
ATOM     26  C   UNL d   1      -2.793   2.883   1.661  0.00  0.00     0.254 C 
ATOM     27  O   UNL d   1      -1.873   3.347   2.319  0.00  0.00    -0.266 OA
ATOM     28  C   UNL d   1      -4.200   2.753   2.159  0.00  0.00     0.126 C 
ENDBRANCH  25  26
ENDBRANCH  24  25
ENDBRANCH   6  24
TORSDOF 10
