REMARK  6 active torsions:
REMARK  status: ('A' for Active; 'I' for Inactive)
REMARK    1  A    between atoms: C_12  and  C_2 
REMARK    2  A    between atoms: C_13  and  C_5 
REMARK       I    between atoms: N_16  and  C_12 
REMARK    3  A    between atoms: C_14  and  C_18 
REMARK       I    between atoms: C_15  and  N_17 
REMARK    4  A    between atoms: C_19  and  C_15 
REMARK    5  A    between atoms: N_17  and  N_16 
REMARK    6  A    between atoms: O_33  and  C_20 
ROOT
ATOM      1  C   UNL d   1      -0.376   0.397  -0.078  0.00  0.00     0.089 A 
ATOM      2  C   UNL d   1      -2.527  -0.817  -0.069  0.00  0.00     0.083 A 
ATOM      3  C   UNL d   1      -0.163  -0.973   0.018  0.00  0.00     0.027 A 
ATOM      4  C   UNL d   1      -1.435  -1.684   0.054  0.00  0.00    -0.024 A 
ATOM      5  C   UNL d   1       1.804   0.921  -0.049  0.00  0.00     0.119 A 
ATOM      6  S   UNL d   1      -2.027   0.812  -0.158  0.00  0.00    -0.065 SA
ATOM      7  N   UNL d   1       0.552   1.371  -0.125  0.00  0.00    -0.335 N 
ATOM      8  HN  UNL d   1       0.319   2.360  -0.211  1.00  0.00     0.168 HD
ATOM      9  N   UNL d   1       2.139  -0.379   0.045  0.00  0.00    -0.345 N 
ATOM     10  HN  UNL d   1       3.123  -0.636   0.116  1.00  0.00     0.167 HD
ATOM     11  C   UNL d   1       1.197  -1.354   0.048  0.00  0.00     0.020 A 
ATOM     12  C   UNL d   1      -1.613  -3.169   0.186  0.00  0.00     0.050 C 
ATOM     13  C   UNL d   1       1.784  -2.731   0.077  0.00  0.00     0.069 C 
ENDROOT
BRANCH   2  14
ATOM     14  C   UNL d   1      -3.939  -1.197  -0.124  0.00  0.00     0.277 C 
ATOM     15  N   UNL d   1      -4.887  -0.200  -0.292  0.00  0.00    -0.263 N 
ATOM     16  H   UNL d   1      -4.665   0.791  -0.407  0.00  0.00     0.190 HD
ATOM     17  O   UNL d   1      -4.331  -2.365  -0.045  0.00  0.00    -0.265 OA
BRANCH  15  18
ATOM     18  N   UNL d   1      -6.226  -0.595  -0.448  0.00  0.00    -0.263 N 
ATOM     19  C   UNL d   1      -7.213   0.361  -0.538  0.00  0.00     0.270 C 
ATOM     20  O   UNL d   1      -6.984   1.565  -0.506  0.00  0.00    -0.266 OA
ATOM     21  H   UNL d   1      -6.408  -1.586  -0.289  0.00  0.00     0.190 HD
BRANCH  19  22
ATOM     22  C   UNL d   1      -8.615  -0.149  -0.642  0.00  0.00     0.033 A 
ATOM     23  C   UNL d   1      -9.656   0.673  -0.194  0.00  0.00     0.018 A 
ATOM     24  C   UNL d   1     -10.987   0.253  -0.301  0.00  0.00     0.017 A 
ATOM     25  C   UNL d   1     -11.299  -0.991  -0.867  0.00  0.00     0.048 A 
ATOM     26  C   UNL d   1     -10.252  -1.810  -1.319  0.00  0.00     0.017 A 
ATOM     27  C   UNL d   1      -8.918  -1.393  -1.210  0.00  0.00     0.018 A 
BRANCH  25  28
ATOM     28  C   UNL d   1     -12.734  -1.446  -1.019  0.00  0.00     0.417 C 
ATOM     29  F   UNL d   1     -13.640  -0.582  -0.483  0.00  0.00    -0.166 F 
ATOM     30  F   UNL d   1     -13.092  -1.603  -2.323  0.00  0.00    -0.166 F 
ATOM     31  F   UNL d   1     -12.964  -2.647  -0.420  0.00  0.00    -0.166 F 
ENDBRANCH  25  28
ENDBRANCH  19  22
ENDBRANCH  15  18
ENDBRANCH   2  14
BRANCH   5  32
ATOM     32  C   UNL d   1       2.950   1.854  -0.140  0.00  0.00     0.041 A 
ATOM     33  C   UNL d   1       2.937   3.212   0.230  0.00  0.00     0.082 A 
ATOM     34  C   UNL d   1       4.076   4.020   0.057  0.00  0.00     0.038 A 
ATOM     35  C   UNL d   1       5.261   3.491  -0.453  0.00  0.00     0.003 A 
ATOM     36  C   UNL d   1       5.314   2.153  -0.805  0.00  0.00     0.001 A 
ATOM     37  C   UNL d   1       4.178   1.355  -0.649  0.00  0.00     0.018 A 
BRANCH  33  38
ATOM     38  O   UNL d   1       1.837   3.878   0.707  0.00  0.00    -0.355 OA
ATOM     39  C   UNL d   1       1.455   3.458   2.016  0.00  0.00     0.210 C 
ENDBRANCH  33  38
ENDBRANCH   5  32
TORSDOF 6
