REMARK  4 active torsions:
REMARK  status: ('A' for Active; 'I' for Inactive)
REMARK    1  A    between atoms: C_8  and  N_1 
REMARK    2  A    between atoms: S_10  and  C_2 
REMARK    3  A    between atoms: C_18  and  S_10 
REMARK    4  A    between atoms: C_15  and  C_18 
ROOT
ATOM      1  N   UNL d   1       2.379   0.815  -0.093  0.00  0.00    -0.258 N 
ATOM      2  C   UNL d   1       2.362  -0.585  -0.019  0.00  0.00     0.155 A 
ATOM      3  C   UNL d   1       1.178   1.535  -0.093  0.00  0.00     0.266 A 
ATOM      4  N   UNL d   1       1.275  -1.288   0.049  0.00  0.00    -0.335 N 
ATOM      5  HN  UNL d   1       1.321  -2.305   0.119  1.00  0.00     0.168 HD
ATOM      6  C   UNL d   1      -0.066   0.751  -0.036  0.00  0.00     0.059 A 
ATOM      7  C   UNL d   1       0.040  -0.634   0.025  0.00  0.00     0.051 A 
ATOM      8  C   UNL d   1      -1.318   1.383  -0.060  0.00  0.00     0.021 A 
ATOM      9  C   UNL d   1      -1.130  -1.399   0.041  0.00  0.00     0.054 A 
ATOM     10  O   UNL d   1       1.083   2.762  -0.115  0.00  0.00    -0.267 OA
ATOM     11  C   UNL d   1      -2.380  -0.777   0.003  0.00  0.00     0.036 A 
ATOM     12  C   UNL d   1      -2.480   0.612  -0.042  0.00  0.00     0.025 A 
ATOM     13 CL   UNL d   1      -3.811  -1.732   0.000  0.00  0.00    -0.084 Cl
ENDROOT
BRANCH   2  14
ATOM     14  S   UNL d   1       3.890  -1.463  -0.064  0.00  0.00    -0.088 SA
BRANCH  14  15
ATOM     15  C   UNL d   1       3.370  -3.142  -0.518  0.00  0.00     0.122 C 
BRANCH  15  16
ATOM     16  C   UNL d   1       4.521  -4.126  -0.421  0.00  0.00    -0.027 A 
ATOM     17  C   UNL d   1       5.081  -4.776  -1.533  0.00  0.00     0.041 A 
ATOM     18 CL   UNL d   1       4.516  -4.508  -3.143  0.00  0.00    -0.084 Cl
ATOM     19  C   UNL d   1       6.134  -5.688  -1.372  0.00  0.00     0.024 A 
ATOM     20  C   UNL d   1       6.645  -5.962  -0.105  0.00  0.00     0.002 A 
ATOM     21  C   UNL d   1       6.103  -5.329   1.008  0.00  0.00     0.001 A 
ATOM     22  C   UNL d   1       5.049  -4.425   0.852  0.00  0.00     0.009 A 
ENDBRANCH  15  16
ENDBRANCH  14  15
ENDBRANCH   2  14
BRANCH   1  23
ATOM     23  C   UNL d   1       3.584   1.582  -0.236  0.00  0.00     0.046 A 
ATOM     24  C   UNL d   1       3.723   2.452  -1.330  0.00  0.00     0.055 A 
ATOM     25  C   UNL d   1       4.910   3.161  -1.534  0.00  0.00     0.058 A 
ATOM     26 CL   UNL d   1       5.012   4.169  -2.934  0.00  0.00    -0.082 Cl
ATOM     27  C   UNL d   1       5.967   3.024  -0.631  0.00  0.00     0.055 A 
ATOM     28  C   UNL d   1       5.818   2.201   0.489  0.00  0.00     0.028 A 
ATOM     29 CL   UNL d   1       7.480   3.830  -0.842  0.00  0.00    -0.083 Cl
ATOM     30  C   UNL d   1       4.630   1.492   0.691  0.00  0.00     0.032 A 
ENDBRANCH   1  23
TORSDOF 4
