REMARK  3 active torsions:
REMARK  status: ('A' for Active; 'I' for Inactive)
REMARK    1  A    between atoms: C_2  and  C_1 
REMARK       I    between atoms: N_3  and  C_1 
REMARK       I    between atoms: N_4  and  C_2 
REMARK    2  A    between atoms: C_5  and  N_3 
REMARK    3  A    between atoms: C_7  and  N_4 
ROOT
ATOM      1  C   UNL d   1      -0.068   1.621  -0.822  0.00  0.00     0.310 C 
ATOM      2  N   UNL d   1      -0.973   0.757  -1.423  0.00  0.00    -0.348 N 
ATOM      3  O   UNL d   1      -0.180   2.120   0.291  0.00  0.00    -0.262 OA
ATOM      4  H   UNL d   1      -0.729   0.400  -2.343  0.00  0.00     0.163 HD
ENDROOT
BRANCH   1   5
ATOM      5  C   UNL d   1       1.167   1.969  -1.677  0.00  0.00     0.314 C 
ATOM      6  N   UNL d   1       1.750   3.170  -1.315  0.00  0.00    -0.317 N 
ATOM      7  H   UNL d   1       1.210   3.746  -0.668  0.00  0.00     0.169 HD
ATOM      8  O   UNL d   1       1.461   1.233  -2.607  0.00  0.00    -0.262 OA
BRANCH   6   9
ATOM      9  C   UNL d   1       2.741   3.814  -2.095  0.00  0.00     0.057 A 
ATOM     10  C   UNL d   1       2.716   5.211  -2.242  0.00  0.00     0.062 A 
ATOM     11  C   UNL d   1       3.547   5.838  -3.174  0.00  0.00     0.050 A 
ATOM     12 CL   UNL d   1       1.588   6.182  -1.364  0.00  0.00    -0.082 Cl
ATOM     13  C   UNL d   1       4.453   5.075  -3.908  0.00  0.00     0.035 A 
ATOM     14  C   UNL d   1       4.573   3.707  -3.680  0.00  0.00     0.026 A 
ATOM     15 CL   UNL d   1       5.407   5.822  -5.129  0.00  0.00    -0.084 Cl
ATOM     16  C   UNL d   1       3.715   3.078  -2.774  0.00  0.00     0.033 A 
ENDBRANCH   6   9
ENDBRANCH   1   5
BRANCH   2  17
ATOM     17  C   UNL d   1      -2.073   0.194  -0.661  0.00  0.00     0.085 C 
ATOM     18  C   UNL d   1      -2.570  -1.166  -1.187  0.00  0.00     0.034 C 
ATOM     19  C   UNL d   1      -3.761  -1.172  -2.177  0.00  0.00    -0.045 C 
ATOM     20  C   UNL d   1      -3.282  -0.917  -3.616  0.00  0.00     0.015 C 
ATOM     21  C   UNL d   1      -4.418  -2.573  -2.148  0.00  0.00     0.015 C 
ATOM     22  C   UNL d   1      -4.832  -0.144  -1.770  0.00  0.00     0.013 C 
ATOM     23  C   UNL d   1      -4.268   1.260  -1.524  0.00  0.00    -0.016 C 
ATOM     24  C   UNL d   1      -3.201   1.215  -0.423  0.00  0.00     0.029 C 
ATOM     25  C   UNL d   1      -5.396   2.208  -1.108  0.00  0.00     0.010 C 
ENDBRANCH   2  17
TORSDOF 3
