REMARK  1 active torsions:
REMARK  status: ('A' for Active; 'I' for Inactive)
REMARK    1  A    between atoms: C_2  and  C_1 
ROOT
ATOM      1  C   UNL d   1       2.483   0.067   0.049  0.00  0.00     0.039 A 
ATOM      2  S   UNL d   1       1.603   1.534   0.116  0.00  0.00    -0.087 SA
ATOM      3  C   UNL d   1       1.638  -1.036   0.002  0.00  0.00    -0.031 A 
ATOM      4  C   UNL d   1       0.235  -0.634   0.006  0.00  0.00    -0.010 A 
ATOM      5  C   UNL d   1       0.086   0.751   0.055  0.00  0.00     0.016 A 
ATOM      6  C   UNL d   1      -0.949  -1.420  -0.034  0.00  0.00     0.037 A 
ATOM      7  C   UNL d   1      -1.181   1.369   0.056  0.00  0.00     0.021 A 
ATOM      8  C   UNL d   1      -2.206  -0.811  -0.029  0.00  0.00     0.035 A 
ATOM      9  C   UNL d   1       2.019  -2.487  -0.044  0.00  0.00     0.050 C 
ATOM     10  C   UNL d   1      -2.325   0.569   0.012  0.00  0.00     0.025 A 
ATOM     11 CL   UNL d   1      -3.623  -1.787  -0.076  0.00  0.00    -0.084 Cl
ENDROOT
BRANCH   1  12
ATOM     12  C   UNL d   1       3.998   0.054   0.038  0.00  0.00     0.057 A 
ATOM     13  N   UNL d   1       4.732  -1.111  -0.111  0.00  0.00    -0.353 N 
ATOM     14  C   UNL d   1       6.021  -0.850  -0.112  0.00  0.00     0.047 A 
ATOM     15  HN  UNL d   1       4.328  -2.043  -0.207  1.00  0.00     0.166 HD
ATOM     16  C   UNL d   1       7.088  -1.873  -0.277  0.00  0.00     0.076 C 
ATOM     17  S   UNL d   1       6.439   0.801   0.091  0.00  0.00    -0.087 SA
ATOM     18  C   UNL d   1       4.772   1.194   0.162  0.00  0.00     0.082 A 
ENDBRANCH   1  12
TORSDOF 1
