REMARK  10 active torsions:
REMARK  status: ('A' for Active; 'I' for Inactive)
REMARK    1  A    between atoms: C_2  and  S_1 
REMARK    2  A    between atoms: C_4  and  S_1 
REMARK    3  A    between atoms: C_3  and  C_2 
REMARK    4  A    between atoms: C_10  and  C_2 
REMARK       I    between atoms: N_11  and  C_3 
REMARK    5  A    between atoms: O_16  and  C_5 
REMARK    6  A    between atoms: O_17  and  C_6 
REMARK    7  A    between atoms: N_13  and  C_7 
REMARK    8  A    between atoms: C_18  and  N_11 
REMARK    9  A    between atoms: C_14  and  C_20 
REMARK   10  A    between atoms: C_20  and  C_18 
ROOT
ATOM      1  C   UNL d   1       0.366   1.714  -0.212  0.00  0.00     0.177 C 
ENDROOT
BRANCH   1   2
ATOM      2  S   UNL d   1       1.212   2.384   1.275  0.00  0.00    -0.109 SA
BRANCH   2   3
ATOM      3  C   UNL d   1       0.925   4.147   1.454  0.00  0.00     0.022 A 
ATOM      4  C   UNL d   1       0.097   5.045   0.753  0.00  0.00     0.022 A 
ATOM      5  C   UNL d   1       0.113   6.409   1.130  0.00  0.00     0.024 A 
ATOM      6  C   UNL d   1       0.935   6.897   2.145  0.00  0.00     0.002 A 
ATOM      7  C   UNL d   1       1.726   6.015   2.856  0.00  0.00     0.001 A 
ATOM      8  C   UNL d   1       1.715   4.663   2.514  0.00  0.00     0.020 A 
BRANCH   4   9
ATOM      9  N   UNL d   1      -0.942   4.681  -0.122  0.00  0.00    -0.302 NA
ATOM     10  H   UNL d   1      -0.749   3.902  -0.740  0.00  0.00     0.124 HD
ATOM     11  H   UNL d   1      -1.242   5.452  -0.714  0.00  0.00     0.124 HD
ENDBRANCH   4   9
ENDBRANCH   2   3
ENDBRANCH   1   2
BRANCH   1  12
ATOM     12  C   UNL d   1       0.840   2.452  -1.477  0.00  0.00     0.236 C 
ATOM     13  O   UNL d   1       0.036   3.104  -2.158  0.00  0.00    -0.272 OA
ATOM     14  N   UNL d   1       2.169   2.345  -1.816  0.00  0.00    -0.359 N 
ATOM     15  H   UNL d   1       2.789   1.931  -1.126  0.00  0.00     0.162 HD
BRANCH  14  16
ATOM     16  C   UNL d   1       2.729   3.181  -2.859  0.00  0.00     0.127 C 
BRANCH  16  17
ATOM     17  C   UNL d   1       4.084   2.667  -3.350  0.00  0.00     0.058 C 
BRANCH  17  18
ATOM     18  C   UNL d   1       4.622   3.518  -4.473  0.00  0.00    -0.054 A 
ATOM     19  C   UNL d   1       4.294   3.218  -5.805  0.00  0.00     0.046 A 
ATOM     20  C   UNL d   1       4.736   4.023  -6.867  0.00  0.00     0.102 A 
ATOM     21  C   UNL d   1       5.498   5.167  -6.575  0.00  0.00     0.101 A 
ATOM     22  C   UNL d   1       5.853   5.447  -5.249  0.00  0.00     0.040 A 
ATOM     23  C   UNL d   1       5.414   4.636  -4.203  0.00  0.00     0.010 A 
BRANCH  20  24
ATOM     24  O   UNL d   1       4.484   3.744  -8.184  0.00  0.00    -0.353 OA
ATOM     25  C   UNL d   1       3.761   2.558  -8.489  0.00  0.00     0.210 C 
ENDBRANCH  20  24
BRANCH  21  26
ATOM     26  O   UNL d   1       6.005   6.068  -7.479  0.00  0.00    -0.353 OA
ATOM     27  C   UNL d   1       5.175   6.358  -8.598  0.00  0.00     0.210 C 
ENDBRANCH  21  26
ENDBRANCH  17  18
ENDBRANCH  16  17
ENDBRANCH  14  16
ENDBRANCH   1  12
BRANCH   1  28
ATOM     28  C   UNL d   1       0.508   0.191  -0.382  0.00  0.00    -0.035 A 
ATOM     29  C   UNL d   1       1.189  -0.645   0.522  0.00  0.00     0.009 A 
ATOM     30  C   UNL d   1       1.252  -2.028   0.326  0.00  0.00     0.001 A 
ATOM     31  C   UNL d   1       0.636  -2.607  -0.778  0.00  0.00     0.000 A 
ATOM     32  C   UNL d   1      -0.045  -1.803  -1.687  0.00  0.00     0.001 A 
ATOM     33  C   UNL d   1      -0.113  -0.421  -1.489  0.00  0.00     0.009 A 
ENDBRANCH   1  28
TORSDOF 10
