REMARK  4 active torsions:
REMARK  status: ('A' for Active; 'I' for Inactive)
REMARK    1  A    between atoms: C_2  and  S_1 
REMARK    2  A    between atoms: N_5  and  S_1 
REMARK    3  A    between atoms: C_9  and  N_5 
REMARK    4  A    between atoms: C_11  and  C_9 
ROOT
ATOM      1  S   UNL d   1       0.906  -0.148   0.030  0.00  0.00     0.260 S 
ATOM      2  O   UNL d   1       0.418  -1.262  -0.746  0.00  0.00    -0.200 OA
ATOM      3  O   UNL d   1       0.654  -0.070   1.454  0.00  0.00    -0.200 OA
ENDROOT
BRANCH   1   4
ATOM      4  C   UNL d   1       0.442   1.424  -0.660  0.00  0.00     0.096 A 
ATOM      5  C   UNL d   1      -0.383   1.622  -1.772  0.00  0.00     0.029 A 
ATOM      6  I   UNL d   1      -1.206   0.154  -3.021  0.00  0.00    -0.043 I 
ATOM      7  C   UNL d   1      -0.727   2.939  -2.138  0.00  0.00     0.020 A 
ATOM      8  C   UNL d   1      -0.260   4.038  -1.415  0.00  0.00     0.001 A 
ATOM      9  C   UNL d   1       0.566   3.842  -0.318  0.00  0.00     0.002 A 
ATOM     10  C   UNL d   1       0.912   2.545   0.059  0.00  0.00     0.027 A 
ENDBRANCH   1   4
BRANCH   1  11
ATOM     11  N   UNL d   1       2.592  -0.137  -0.122  0.00  0.00    -0.315 N 
ATOM     12  H   UNL d   1       3.021  -0.448   0.750  0.00  0.00     0.172 HD
BRANCH  11  13
ATOM     13  C   UNL d   1       3.161  -0.653  -1.373  0.00  0.00     0.132 C 
BRANCH  13  14
ATOM     14  C   UNL d   1       4.685  -0.577  -1.300  0.00  0.00     0.016 C 
ATOM     15  C   UNL d   1       5.329  -1.119  -2.566  0.00  0.00     0.006 C 
ENDBRANCH  13  14
ENDBRANCH  11  13
ENDBRANCH   1  11
TORSDOF 4
