REMARK  5 active torsions:
REMARK  status: ('A' for Active; 'I' for Inactive)
REMARK       I    between atoms: C_2  and  N_5 
REMARK    1  A    between atoms: C_9  and  C_2 
REMARK    2  A    between atoms: N_5  and  C_20 
REMARK    3  A    between atoms: C_19  and  N_6 
REMARK    4  A    between atoms: C_10  and  C_11 
REMARK    5  A    between atoms: C_21  and  C_19 
ROOT
ATOM      1  C   UNL d   1      -4.281  -3.623   3.158  0.00  0.00     0.035 A 
ATOM      2  C   UNL d   1      -3.077  -1.201   2.292  0.00  0.00    -0.030 A 
ATOM      3  C   UNL d   1      -3.225  -3.631   2.248  0.00  0.00     0.030 A 
ATOM      4  C   UNL d   1      -4.750  -2.383   3.613  0.00  0.00     0.030 A 
ATOM      5  C   UNL d   1      -4.157  -1.182   3.182  0.00  0.00     0.011 A 
ATOM      6  C   UNL d   1      -2.627  -2.440   1.826  0.00  0.00     0.011 A 
ENDROOT
BRANCH   1   7
ATOM      7  N   UNL d   1      -4.875  -4.803   3.677  0.00  0.00    -0.323 N 
ATOM      8  C   UNL d   1      -4.499  -6.107   3.381  0.00  0.00     0.256 C 
ATOM      9  O   UNL d   1      -3.682  -6.452   2.533  0.00  0.00    -0.267 OA
ATOM     10  H   UNL d   1      -5.559  -4.665   4.409  0.00  0.00     0.169 HD
BRANCH   8  11
ATOM     11  C   UNL d   1      -5.093  -7.182   4.228  0.00  0.00     0.032 A 
ATOM     12  C   UNL d   1      -6.385  -7.135   4.753  0.00  0.00     0.017 A 
ATOM     13  C   UNL d   1      -6.838  -8.170   5.590  0.00  0.00     0.009 A 
ATOM     14  C   UNL d   1      -6.020  -9.271   5.924  0.00  0.00    -0.051 A 
ATOM     15  C   UNL d   1      -4.747  -9.321   5.335  0.00  0.00     0.009 A 
ATOM     16  C   UNL d   1      -4.293  -8.296   4.500  0.00  0.00     0.017 A 
BRANCH  14  17
ATOM     17  C   UNL d   1      -6.499 -10.341   6.925  0.00  0.00    -0.024 C 
ATOM     18  C   UNL d   1      -5.457 -11.456   7.184  0.00  0.00     0.019 C 
ATOM     19  C   UNL d   1      -6.791  -9.673   8.287  0.00  0.00     0.019 C 
ATOM     20  C   UNL d   1      -7.785 -11.028   6.421  0.00  0.00     0.019 C 
ENDBRANCH  14  17
ENDBRANCH   8  11
ENDBRANCH   1   7
BRANCH   2  21
ATOM     21  C   UNL d   1      -2.417   0.068   1.794  0.00  0.00     0.311 C 
BRANCH  21  22
ATOM     22  N   UNL d   1      -1.793   0.907   2.835  0.00  0.00     0.094 N 
ATOM     23  C   UNL d   1      -0.764   0.235   3.646  0.00  0.00     0.287 C 
ATOM     24  C   UNL d   1       0.484  -0.192   2.897  0.00  0.00     0.170 C 
ATOM     25  S   UNL d   1       1.252   1.195   2.100  0.00  0.00     0.147 S 
ATOM     26  C   UNL d   1      -0.107   2.031   1.321  0.00  0.00     0.170 C 
ATOM     27  O   UNL d   1       2.107   0.681   1.049  0.00  0.00    -0.228 OA
ATOM     28  O   UNL d   1       1.792   2.072   3.124  0.00  0.00    -0.228 OA
ATOM     29  C   UNL d   1      -1.275   2.174   2.284  0.00  0.00     0.287 C 
ENDBRANCH  21  22
ENDBRANCH   2  21
TORSDOF 5
