REMARK  2 active torsions:
REMARK  status: ('A' for Active; 'I' for Inactive)
REMARK    1  A    between atoms: C_9  and  C_4 
REMARK    2  A    between atoms: N_10  and  C_5 
ROOT
ATOM      1  C   UNL d   1      -0.176  -1.331  -0.006  0.00  0.00     0.167 A 
ATOM      2  N   UNL d   1       1.107  -0.842  -0.045  0.00  0.00    -0.324 N 
ATOM      3  HN  UNL d   1       1.980  -1.367  -0.095  1.00  0.00     0.169 HD
ATOM      4  C   UNL d   1       0.944   0.466  -0.002  0.00  0.00     0.161 A 
ATOM      5  C   UNL d   1      -1.092  -0.298   0.046  0.00  0.00     0.183 A 
ATOM      6  O   UNL d   1      -0.367   0.868   0.050  0.00  0.00    -0.273 OA
ATOM      7  C   UNL d   1      -0.410  -2.733  -0.018  0.00  0.00     0.122 C 
ATOM      8  N   UNL d   1      -0.620  -3.877  -0.029  0.00  0.00    -0.190 NA
ENDROOT
BRANCH   5   9
ATOM      9  N   UNL d   1      -2.429  -0.137   0.102  0.00  0.00    -0.372 N 
ATOM     10  C   UNL d   1      -3.394  -1.210   0.042  0.00  0.00     0.148 C 
ATOM     11  H   UNL d   1      -2.810   0.805   0.074  0.00  0.00     0.161 HD
ENDBRANCH   5   9
BRANCH   4  12
ATOM     12  C   UNL d   1       1.979   1.496  -0.004  0.00  0.00     0.015 A 
ATOM     13  C   UNL d   1       3.317   1.102  -0.183  0.00  0.00     0.016 A 
ATOM     14  C   UNL d   1       4.352   2.038  -0.173  0.00  0.00     0.001 A 
ATOM     15  C   UNL d   1       4.064   3.385   0.020  0.00  0.00     0.000 A 
ATOM     16  C   UNL d   1       2.743   3.796   0.196  0.00  0.00     0.001 A 
ATOM     17  C   UNL d   1       1.704   2.857   0.182  0.00  0.00     0.016 A 
ENDBRANCH   4  12
TORSDOF 2
