REMARK  4 active torsions:
REMARK  status: ('A' for Active; 'I' for Inactive)
REMARK    1  A    between atoms: C_2  and  S_1 
REMARK    2  A    between atoms: N_4  and  S_1 
REMARK    3  A    between atoms: C_3  and  C_6 
REMARK    4  A    between atoms: C_7  and  N_4 
ROOT
ATOM      1  S   UNL d   1       1.074   0.123  -0.147  0.00  0.00     0.260 S 
ATOM      2  O   UNL d   1       0.714   1.295  -0.911  0.00  0.00    -0.200 OA
ATOM      3  O   UNL d   1       2.457  -0.248   0.058  0.00  0.00    -0.200 OA
ENDROOT
BRANCH   1   4
ATOM      4  C   UNL d   1       0.245  -1.270  -0.883  0.00  0.00     0.102 A 
ATOM      5  C   UNL d   1       0.996  -2.429  -1.158  0.00  0.00     0.043 A 
ATOM      6  C   UNL d   1       0.362  -3.609  -1.578  0.00  0.00     0.049 A 
ATOM      7  C   UNL d   1      -1.021  -3.586  -1.808  0.00  0.00     0.018 A 
ATOM      8  C   UNL d   1      -1.758  -2.419  -1.588  0.00  0.00     0.026 A 
ATOM      9  C   UNL d   1      -1.135  -1.261  -1.105  0.00  0.00     0.057 A 
ATOM     10 CL   UNL d   1      -2.162   0.081  -0.757  0.00  0.00    -0.083 Cl
BRANCH   6  11
ATOM     11  C   UNL d   1       1.126  -4.908  -1.705  0.00  0.00     0.417 C 
ATOM     12  F   UNL d   1       2.452  -4.787  -1.424  0.00  0.00    -0.166 F 
ATOM     13  F   UNL d   1       0.652  -5.856  -0.849  0.00  0.00    -0.166 F 
ATOM     14  F   UNL d   1       1.047  -5.450  -2.949  0.00  0.00    -0.166 F 
ENDBRANCH   6  11
ENDBRANCH   1   4
BRANCH   1  15
ATOM     15  N   UNL d   1       0.364   0.251   1.372  0.00  0.00    -0.310 N 
ATOM     16  H   UNL d   1      -0.551   0.701   1.389  0.00  0.00     0.172 HD
BRANCH  15  17
ATOM     17  C   UNL d   1       0.800  -0.607   2.490  0.00  0.00     0.101 C 
ATOM     18  C   UNL d   1       0.692  -2.109   2.183  0.00  0.00     0.065 C 
ATOM     19  C   UNL d   1       0.417  -2.697   3.523  0.00  0.00    -0.050 A 
ATOM     20  C   UNL d   1       0.475  -4.036   3.872  0.00  0.00     0.007 A 
ATOM     21  C   UNL d   1      -0.004  -1.719   4.426  0.00  0.00    -0.050 A 
ATOM     22  C   UNL d   1       0.114  -4.394   5.170  0.00  0.00     0.001 A 
ATOM     23  C   UNL d   1      -0.299  -3.417   6.086  0.00  0.00     0.001 A 
ATOM     24  C   UNL d   1      -0.366  -2.071   5.716  0.00  0.00     0.007 A 
ATOM     25  C   UNL d   1      -0.040  -0.369   3.771  0.00  0.00     0.065 C 
ENDBRANCH  15  17
ENDBRANCH   1  15
TORSDOF 4
