REMARK  3 active torsions:
REMARK  status: ('A' for Active; 'I' for Inactive)
REMARK    1  A    between atoms: C_6  and  C_1 
REMARK    2  A    between atoms: C_7  and  C_6 
REMARK    3  A    between atoms: O_12  and  C_7 
ROOT
ATOM      1  C   UNL d   1       2.452   0.105  -0.013  0.00  0.00    -0.000 A 
ATOM      2  S   UNL d   1       1.560   1.563  -0.044  0.00  0.00    -0.093 SA
ATOM      3  C   UNL d   1       1.625  -1.008  -0.005  0.00  0.00    -0.037 A 
ATOM      4  C   UNL d   1       0.221  -0.636  -0.013  0.00  0.00    -0.011 A 
ATOM      5  C   UNL d   1       0.052   0.750  -0.022  0.00  0.00     0.016 A 
ATOM      6  C   UNL d   1      -0.947  -1.443  -0.006  0.00  0.00     0.037 A 
ATOM      7  C   UNL d   1      -1.227   1.345  -0.014  0.00  0.00     0.021 A 
ATOM      8  C   UNL d   1      -2.215  -0.855  -0.001  0.00  0.00     0.035 A 
ATOM      9  C   UNL d   1      -2.356   0.524  -0.002  0.00  0.00     0.025 A 
ATOM     10  C   UNL d   1       2.087  -2.435   0.017  0.00  0.00     0.050 C 
ATOM     11 CL   UNL d   1      -3.614  -1.856   0.011  0.00  0.00    -0.084 Cl
ENDROOT
BRANCH   1  12
ATOM     12  C   UNL d   1       3.955   0.184   0.021  0.00  0.00     0.156 C 
BRANCH  12  13
ATOM     13  C   UNL d   1       4.621  -0.461  -1.179  0.00  0.00     0.144 C 
ATOM     14  O   UNL d   1       5.726  -0.985  -1.115  0.00  0.00    -0.650 OA
BRANCH  13  15
ATOM     15  O   UNL d   1       3.954  -0.367  -2.350  0.00  0.00    -0.776 OA
ATOM     16  H   UNL d   1       3.087   0.082  -2.290  0.00  0.00     0.167 HD
ENDBRANCH  13  15
ENDBRANCH  12  13
ENDBRANCH   1  12
TORSDOF 3
