REMARK  4 active torsions:
REMARK  status: ('A' for Active; 'I' for Inactive)
REMARK    1  A    between atoms: N_2  and  C_1 
REMARK    2  A    between atoms: C_5  and  C_11 
REMARK    3  A    between atoms: S_12  and  C_6 
REMARK    4  A    between atoms: C_17  and  S_12 
ROOT
ATOM      1  C   UNL d   1       1.403  -0.131  -0.159  0.00  0.00     0.120 A 
ATOM      2  C   UNL d   1       0.641  -1.306  -0.134  0.00  0.00     0.038 A 
ATOM      3  C   UNL d   1       0.824   1.148  -0.051  0.00  0.00     0.051 A 
ATOM      4  C   UNL d   1      -0.561   1.275   0.092  0.00  0.00    -0.006 A 
ATOM      5  C   UNL d   1      -0.748  -1.159  -0.017  0.00  0.00     0.022 A 
ATOM      6  C   UNL d   1      -1.340   0.109   0.088  0.00  0.00     0.015 A 
ENDROOT
BRANCH   2   7
ATOM      7  S   UNL d   1       1.301  -2.969  -0.058  0.00  0.00    -0.088 SA
BRANCH   7   8
ATOM      8  C   UNL d   1       1.247  -3.482  -1.764  0.00  0.00     0.005 A 
ATOM      9  C   UNL d   1       2.413  -3.420  -2.534  0.00  0.00     0.020 A 
ATOM     10  C   UNL d   1       2.402  -3.808  -3.876  0.00  0.00     0.025 A 
ATOM     11  C   UNL d   1       1.227  -4.287  -4.446  0.00  0.00     0.034 A 
ATOM     12  C   UNL d   1       0.070  -4.403  -3.677  0.00  0.00     0.025 A 
ATOM     13 CL   UNL d   1       1.204  -4.737  -6.106  0.00  0.00    -0.084 Cl
ATOM     14  C   UNL d   1       0.080  -4.004  -2.335  0.00  0.00     0.020 A 
ENDBRANCH   7   8
ENDBRANCH   2   7
BRANCH   1  15
ATOM     15  N   UNL d   1       2.848  -0.177  -0.276  0.00  0.00    -0.114 N 
ATOM     16  O   UNL d   1       3.320  -0.570  -1.348  0.00  0.00    -0.532 OA
ATOM     17  O   UNL d   1       3.499   0.236   0.692  0.00  0.00    -0.532 OA
ENDBRANCH   1  15
BRANCH   4  18
ATOM     18  C   UNL d   1      -1.161   2.598   0.239  0.00  0.00     0.049 A 
ATOM     19  N   UNL d   1      -0.544   3.728  -0.277  0.00  0.00    -0.353 N 
ATOM     20  C   UNL d   1      -1.285   4.793  -0.048  0.00  0.00     0.047 A 
ATOM     21  HN  UNL d   1       0.352   3.733  -0.763  1.00  0.00     0.166 HD
ATOM     22  C   UNL d   1      -0.957   6.170  -0.507  0.00  0.00     0.076 C 
ATOM     23  S   UNL d   1      -2.730   4.513   0.837  0.00  0.00    -0.087 SA
ATOM     24  C   UNL d   1      -2.350   2.843   0.900  0.00  0.00     0.081 A 
ENDBRANCH   4  18
TORSDOF 4
