REMARK  10 active torsions:
REMARK  status: ('A' for Active; 'I' for Inactive)
REMARK    1  A    between atoms: O_16  and  C_5 
REMARK    2  A    between atoms: O_15  and  C_6 
REMARK    3  A    between atoms: O_17  and  C_7 
REMARK    4  A    between atoms: O_18  and  C_8 
REMARK    5  A    between atoms: C_11  and  C_19 
REMARK    6  A    between atoms: C_20  and  C_12 
REMARK    7  A    between atoms: C_19  and  C_26 
REMARK    8  A    between atoms: C_25  and  C_20 
REMARK    9  A    between atoms: C_27  and  C_25 
REMARK   10  A    between atoms: C_26  and  C_27 
ROOT
ATOM      1  C   UNL d   1       6.821  -1.139   0.243  0.00  0.00     0.001 C 
ENDROOT
BRANCH   1   2
ATOM      2  C   UNL d   1       7.580  -2.442   0.525  0.00  0.00     0.005 C 
BRANCH   2   3
ATOM      3  C   UNL d   1       7.433  -3.517  -0.558  0.00  0.00     0.041 C 
BRANCH   3   4
ATOM      4  C   UNL d   1       8.101  -4.872  -0.357  0.00  0.00    -0.022 A 
ATOM      5  C   UNL d   1       8.894  -5.259   0.732  0.00  0.00     0.075 A 
ATOM      6  C   UNL d   1       9.383  -6.571   0.795  0.00  0.00     0.059 A 
ATOM      7  C   UNL d   1       9.169  -7.502  -0.233  0.00  0.00     0.047 A 
ATOM      8  C   UNL d   1       8.425  -7.129  -1.351  0.00  0.00     0.086 A 
ATOM      9 BR   UNL d   1       9.962  -9.200   0.102  0.00  0.00    -0.048 Br
ATOM     10  C   UNL d   1       7.892  -5.824  -1.379  0.00  0.00     0.048 A 
BRANCH   5  11
ATOM     11  O   UNL d   1       9.145  -4.347   1.720  0.00  0.00    -0.355 OA
ATOM     12  C   UNL d   1      10.287  -4.577   2.535  0.00  0.00     0.210 C 
ENDBRANCH   5  11
BRANCH   8  13
ATOM     13  O   UNL d   1       8.079  -7.825  -2.474  0.00  0.00    -0.355 OA
ATOM     14  C   UNL d   1       8.633  -9.102  -2.733  0.00  0.00     0.210 C 
ENDBRANCH   8  13
ENDBRANCH   3   4
ENDBRANCH   2   3
ENDBRANCH   1   2
BRANCH   1  15
ATOM     15  C   UNL d   1       5.296  -1.256   0.110  0.00  0.00     0.005 C 
BRANCH  15  16
ATOM     16  C   UNL d   1       4.637  -1.979   1.288  0.00  0.00     0.041 C 
BRANCH  16  17
ATOM     17  C   UNL d   1       3.128  -2.027   1.185  0.00  0.00    -0.022 A 
ATOM     18  C   UNL d   1       2.373  -0.988   1.758  0.00  0.00     0.048 A 
ATOM     19  C   UNL d   1       0.965  -0.985   1.759  0.00  0.00     0.086 A 
ATOM     20  C   UNL d   1       0.310  -2.059   1.152  0.00  0.00     0.047 A 
ATOM     21  C   UNL d   1       1.059  -3.088   0.550  0.00  0.00     0.059 A 
ATOM     22 BR   UNL d   1      -1.573  -2.324   1.045  0.00  0.00    -0.048 Br
ATOM     23  C   UNL d   1       2.457  -3.084   0.559  0.00  0.00     0.075 A 
BRANCH  19  24
ATOM     24  O   UNL d   1       0.491   0.127   2.397  0.00  0.00    -0.355 OA
ATOM     25  C   UNL d   1      -0.898   0.357   2.536  0.00  0.00     0.210 C 
ENDBRANCH  19  24
BRANCH  23  26
ATOM     26  O   UNL d   1       3.239  -4.059   0.000  0.00  0.00    -0.355 OA
ATOM     27  C   UNL d   1       2.576  -5.172  -0.591  0.00  0.00     0.210 C 
ENDBRANCH  23  26
ENDBRANCH  16  17
ENDBRANCH  15  16
ENDBRANCH   1  15
TORSDOF 10
