REMARK  3 active torsions:
REMARK  status: ('A' for Active; 'I' for Inactive)
REMARK    1  A    between atoms: C_3  and  C_4 
REMARK    2  A    between atoms: C_4  and  C_7 
REMARK    3  A    between atoms: O_9  and  C_8 
ROOT
ATOM      1  N   UNL d   1       4.258  -2.143   1.902  0.00  0.00    -0.197 NA
ATOM      2  C   UNL d   1       4.108  -1.284   1.139  0.00  0.00     0.067 C 
ATOM      3  C   UNL d   1       3.844  -0.212   0.182  0.00  0.00     0.207 C 
ENDROOT
BRANCH   3   4
ATOM      4  C   UNL d   1       4.371   1.109   0.683  0.00  0.00     0.172 C 
ATOM      5  O   UNL d   1       5.518   1.478   0.433  0.00  0.00    -0.291 OA
BRANCH   4   6
ATOM      6  C   UNL d   1       3.468   2.015   1.452  0.00  0.00     0.013 A 
ATOM      7  C   UNL d   1       2.412   1.530   2.237  0.00  0.00     0.052 A 
ATOM      8  C   UNL d   1       1.578   2.423   2.914  0.00  0.00     0.069 A 
ATOM      9  C   UNL d   1       1.812   3.797   2.813  0.00  0.00     0.037 A 
ATOM     10  C   UNL d   1       2.872   4.285   2.050  0.00  0.00     0.004 A 
ATOM     11  C   UNL d   1       3.701   3.395   1.372  0.00  0.00     0.015 A 
BRANCH   8  12
ATOM     12  O   UNL d   1       0.509   2.087   3.698  0.00  0.00    -0.356 OA
ATOM     13  C   UNL d   1       0.224   0.703   3.853  0.00  0.00     0.210 C 
ENDBRANCH   8  12
ENDBRANCH   4   6
ENDBRANCH   3   4
TORSDOF 3
