REMARK  4 active torsions:
REMARK  status: ('A' for Active; 'I' for Inactive)
REMARK    1  A    between atoms: C_2  and  S_1 
REMARK    2  A    between atoms: N_12  and  S_1 
REMARK    3  A    between atoms: C_3  and  C_17 
REMARK    4  A    between atoms: C_20  and  N_12 
ROOT
ATOM      1  C   UNL d   1       1.606  -5.262  -0.982  0.00  0.00    -0.002 A 
ATOM      2  C   UNL d   1       0.910  -2.749   0.116  0.00  0.00     0.042 A 
ATOM      3  C   UNL d   1       2.549  -4.226  -0.904  0.00  0.00     0.016 A 
ATOM      4  C   UNL d   1       0.325  -5.027  -0.458  0.00  0.00     0.016 A 
ATOM      5  C   UNL d   1      -0.022  -3.784   0.079  0.00  0.00     0.031 A 
ATOM      6  C   UNL d   1       2.199  -2.974  -0.372  0.00  0.00     0.031 A 
ENDROOT
BRANCH   2   7
ATOM      7  N   UNL d   1       0.535  -1.425   0.461  0.00  0.00    -0.281 N 
ATOM      8  H   UNL d   1       0.074  -0.846  -0.241  0.00  0.00     0.179 HD
BRANCH   7   9
ATOM      9  S   UNL d   1       0.464  -0.830   2.018  0.00  0.00     0.267 S 
ATOM     10  O   UNL d   1       0.064   0.550   1.903  0.00  0.00    -0.200 OA
ATOM     11  O   UNL d   1      -0.291  -1.752   2.850  0.00  0.00    -0.200 OA
BRANCH   9  12
ATOM     12  C   UNL d   1       2.024  -0.767   2.717  0.00  0.00     0.135 A 
ATOM     13  C   UNL d   1       2.942   0.269   2.736  0.00  0.00     0.098 A 
ATOM     14  O   UNL d   1       4.038  -0.144   3.432  0.00  0.00    -0.241 OA
ATOM     15  C   UNL d   1       3.063   1.648   2.227  0.00  0.00     0.081 C 
ATOM     16  N   UNL d   1       3.856  -1.431   3.877  0.00  0.00    -0.264 N 
ATOM     17  C   UNL d   1       2.642  -1.799   3.454  0.00  0.00     0.054 A 
ATOM     18  HN  UNL d   1       4.513  -1.992   4.419  1.00  0.00     0.194 HD
ATOM     19  C   UNL d   1       2.151  -3.157   3.789  0.00  0.00     0.072 C 
ENDBRANCH   9  12
ENDBRANCH   7   9
ENDBRANCH   2   7
BRANCH   1  20
ATOM     20  C   UNL d   1       1.957  -6.545  -1.614  0.00  0.00     0.085 A 
ATOM     21  N   UNL d   1       3.175  -7.039  -1.688  0.00  0.00    -0.349 N 
ATOM     22  C   UNL d   1       3.142  -8.294  -2.276  0.00  0.00     0.050 A 
ATOM     23  HN  UNL d   1       4.018  -6.568  -1.362  1.00  0.00     0.166 HD
ATOM     24  C   UNL d   1       4.242  -9.155  -2.448  0.00  0.00     0.031 A 
ATOM     25  C   UNL d   1       1.890  -8.720  -2.715  0.00  0.00     0.034 A 
ATOM     26  C   UNL d   1       4.058 -10.406  -3.049  0.00  0.00     0.009 A 
ATOM     27  C   UNL d   1       2.797 -10.814  -3.492  0.00  0.00    -0.061 A 
ATOM     28  C   UNL d   1       1.692  -9.968  -3.329  0.00  0.00     0.028 A 
ATOM     29  C   UNL d   1       2.635 -12.160  -4.136  0.00  0.00     0.048 C 
ATOM     30  S   UNL d   1       0.737  -7.504  -2.369  0.00  0.00    -0.070 SA
ENDBRANCH   1  20
TORSDOF 4
