REMARK  6 active torsions:
REMARK  status: ('A' for Active; 'I' for Inactive)
REMARK    1  A    between atoms: N_3  and  S_1 
REMARK    2  A    between atoms: C_7  and  S_1 
REMARK    3  A    between atoms: C_16  and  N_3 
REMARK    4  A    between atoms: C_4  and  O_11 
REMARK    5  A    between atoms: N_5  and  C_12 
REMARK    6  A    between atoms: O_11  and  C_19 
ROOT
ATOM      1  C   UNL d   1      -2.932  -6.920  -1.478  0.00  0.00     0.100 A 
ATOM      2  C   UNL d   1      -2.161  -5.986  -0.764  0.00  0.00     0.098 A 
ATOM      3  C   UNL d   1      -2.486  -7.405  -2.751  0.00  0.00     0.104 C 
ATOM      4  N   UNL d   1      -2.122  -7.820  -3.775  0.00  0.00    -0.191 NA
ATOM      5  C   UNL d   1      -4.133  -7.379  -0.916  0.00  0.00     0.057 A 
ATOM      6 CL   UNL d   1      -5.162  -8.506  -1.731  0.00  0.00    -0.083 Cl
ATOM      7  C   UNL d   1      -2.544  -5.608   0.532  0.00  0.00     0.039 A 
ATOM      8  C   UNL d   1      -3.747  -6.055   1.072  0.00  0.00     0.005 A 
ATOM      9  C   UNL d   1      -4.548  -6.930   0.343  0.00  0.00     0.025 A 
ENDROOT
BRANCH   2  10
ATOM     10  O   UNL d   1      -1.007  -5.507  -1.358  0.00  0.00    -0.309 OA
BRANCH  10  11
ATOM     11  C   UNL d   1      -0.596  -4.217  -1.090  0.00  0.00     0.076 A 
ATOM     12  C   UNL d   1       0.784  -4.012  -1.005  0.00  0.00     0.039 A 
ATOM     13  C   UNL d   1       1.288  -2.749  -0.682  0.00  0.00     0.028 A 
ATOM     14  C   UNL d   1       0.403  -1.693  -0.454  0.00  0.00     0.080 A 
ATOM     15  C   UNL d   1      -0.977  -1.872  -0.607  0.00  0.00     0.028 A 
ATOM     16  C   UNL d   1      -1.473  -3.135  -0.941  0.00  0.00     0.039 A 
BRANCH  14  17
ATOM     17  S   UNL d   1       1.017  -0.105   0.065  0.00  0.00     0.263 S 
ATOM     18  O   UNL d   1       2.463  -0.162   0.102  0.00  0.00    -0.200 OA
ATOM     19  O   UNL d   1       0.321   0.895  -0.713  0.00  0.00    -0.200 OA
BRANCH  17  20
ATOM     20  N   UNL d   1       0.443   0.033   1.633  0.00  0.00    -0.281 N 
ATOM     21  H   UNL d   1      -0.268   0.737   1.813  0.00  0.00     0.179 HD
BRANCH  20  22
ATOM     22  C   UNL d   1       0.806  -0.901   2.626  0.00  0.00     0.042 A 
ATOM     23  C   UNL d   1       1.927  -0.679   3.412  0.00  0.00     0.032 A 
ATOM     24  C   UNL d   1       2.259  -1.598   4.413  0.00  0.00     0.031 A 
ATOM     25  C   UNL d   1       1.494  -2.754   4.650  0.00  0.00     0.030 A 
ATOM     26  C   UNL d   1       0.376  -2.950   3.830  0.00  0.00     0.031 A 
ATOM     27  C   UNL d   1       0.019  -2.025   2.844  0.00  0.00     0.032 A 
BRANCH  25  28
ATOM     28  N   UNL d   1       1.843  -3.650   5.639  0.00  0.00    -0.381 N 
ATOM     29  C   UNL d   1       1.570  -5.083   5.547  0.00  0.00     0.123 C 
ATOM     30  C   UNL d   1       2.864  -5.841   5.855  0.00  0.00     0.020 C 
ATOM     31  C   UNL d   1       3.478  -5.407   7.188  0.00  0.00     0.003 C 
ATOM     32  C   UNL d   1       3.623  -3.887   7.277  0.00  0.00     0.020 C 
ATOM     33  C   UNL d   1       2.308  -3.186   6.946  0.00  0.00     0.123 C 
ENDBRANCH  25  28
ENDBRANCH  20  22
ENDBRANCH  17  20
ENDBRANCH  14  17
ENDBRANCH  10  11
ENDBRANCH   2  10
TORSDOF 6
