REMARK  4 active torsions:
REMARK  status: ('A' for Active; 'I' for Inactive)
REMARK    1  A    between atoms: C_9  and  C_2 
REMARK       I    between atoms: C_13  and  N_3 
REMARK    2  A    between atoms: C_6  and  S_18 
REMARK    3  A    between atoms: C_19  and  C_13 
REMARK    4  A    between atoms: S_18  and  C_19 
ROOT
ATOM      1  C   UNL d   1       0.996  -0.807   0.104  0.00  0.00     0.049 A 
ATOM      2  C   UNL d   1       2.406  -1.353   0.140  0.00  0.00     0.245 C 
ATOM      3  N   UNL d   1       3.335  -0.248  -0.271  0.00  0.00    -0.333 N 
ATOM      4  C   UNL d   1       0.610   0.511  -0.041  0.00  0.00    -0.019 A 
ATOM      5  N   UNL d   1      -0.143  -1.567   0.174  0.00  0.00    -0.356 N 
ATOM      6  C   UNL d   1      -0.810   0.559  -0.018  0.00  0.00    -0.001 A 
ATOM      7  C   UNL d   1      -1.256  -0.758   0.105  0.00  0.00     0.043 A 
ATOM      8  C   UNL d   1       4.630  -0.428  -0.759  0.00  0.00     0.230 C 
ATOM      9  C   UNL d   1       2.995   1.110   0.224  0.00  0.00     0.131 C 
ATOM     10  C   UNL d   1       1.606   1.597  -0.218  0.00  0.00     0.061 C 
ATOM     11  O   UNL d   1       5.366   0.552  -0.943  0.00  0.00    -0.273 OA
ATOM     12  C   UNL d   1      -1.765   1.593  -0.103  0.00  0.00     0.014 A 
ATOM     13  C   UNL d   1      -2.615  -1.093   0.138  0.00  0.00     0.030 A 
ATOM     14  C   UNL d   1      -3.126   1.274  -0.061  0.00  0.00     0.001 A 
ATOM     15  C   UNL d   1      -3.543  -0.050   0.054  0.00  0.00     0.002 A 
ATOM     16  H   UNL d   1      -0.186  -2.575   0.270  0.00  0.00     0.166 HD
ENDROOT
BRANCH   2  17
ATOM     17  C   UNL d   1       2.782  -2.044   1.482  0.00  0.00     0.413 C 
ATOM     18  F   UNL d   1       1.742  -2.151   2.339  0.00  0.00    -0.168 F 
ATOM     19  F   UNL d   1       3.223  -3.306   1.246  0.00  0.00    -0.168 F 
ATOM     20  F   UNL d   1       3.777  -1.397   2.133  0.00  0.00    -0.168 F 
ENDBRANCH   2  17
BRANCH   8  21
ATOM     21  C   UNL d   1       5.242  -1.813  -0.935  0.00  0.00     0.185 C 
BRANCH  21  22
ATOM     22  S   UNL d   1       4.454  -2.965  -2.071  0.00  0.00    -0.077 SA
BRANCH  22  23
ATOM     23  C   UNL d   1       4.123  -1.985  -3.459  0.00  0.00     0.188 A 
ATOM     24  N   UNL d   1       4.655  -0.800  -3.673  0.00  0.00    -0.329 N 
ATOM     25  C   UNL d   1       4.011  -0.347  -4.794  0.00  0.00     0.068 A 
ATOM     26  HN  UNL d   1       5.379  -0.329  -3.130  1.00  0.00     0.168 HD
ATOM     27  C   UNL d   1       4.093   0.871  -5.475  0.00  0.00     0.032 A 
ATOM     28  C   UNL d   1       3.132  -1.314  -5.250  0.00  0.00     0.105 A 
ATOM     29  C   UNL d   1       3.261   1.059  -6.590  0.00  0.00     0.002 A 
ATOM     30  C   UNL d   1       2.389   0.051  -7.022  0.00  0.00     0.003 A 
ATOM     31  C   UNL d   1       2.309  -1.179  -6.358  0.00  0.00     0.040 A 
ATOM     32  O   UNL d   1       3.212  -2.378  -4.406  0.00  0.00    -0.285 OA
ENDBRANCH  22  23
ENDBRANCH  21  22
ENDBRANCH   8  21
TORSDOF 4
