REMARK  1 active torsions:
REMARK  status: ('A' for Active; 'I' for Inactive)
REMARK    1  A    between atoms: C_6  and  N_2 
ROOT
ATOM      1  C   UNL d   1      -1.266  -1.043   0.118  0.00  0.00     0.163 C 
ATOM      2  N   UNL d   1      -1.816   0.064   0.734  0.00  0.00    -0.261 N 
ATOM      3  N   UNL d   1      -0.100  -0.655  -0.556  0.00  0.00    -0.236 NA
ATOM      4  C   UNL d   1      -1.193   1.219   0.288  0.00  0.00     0.258 C 
ATOM      5  C   UNL d   1      -0.068   0.794  -0.658  0.00  0.00     0.220 C 
ATOM      6  S   UNL d   1      -1.865  -2.607   0.063  0.00  0.00    -0.046 SA
ATOM      7  S   UNL d   1       1.556   1.337  -0.083  0.00  0.00    -0.138 SA
ATOM      8  O   UNL d   1      -1.450   2.373   0.595  0.00  0.00    -0.270 OA
ATOM      9  C   UNL d   1       1.168  -1.240  -0.109  0.00  0.00     0.110 C 
ATOM     10  C   UNL d   1       1.877  -0.219   0.773  0.00  0.00     0.091 C 
ENDROOT
BRANCH   2  11
ATOM     11  C   UNL d   1      -2.572   0.042   1.931  0.00  0.00     0.044 A 
ATOM     12  C   UNL d   1      -3.583   0.976   2.178  0.00  0.00     0.032 A 
ATOM     13  C   UNL d   1      -4.285   0.948   3.389  0.00  0.00     0.026 A 
ATOM     14  C   UNL d   1      -3.954   0.016   4.372  0.00  0.00     0.034 A 
ATOM     15  C   UNL d   1      -2.924  -0.893   4.156  0.00  0.00     0.026 A 
ATOM     16 CL   UNL d   1      -4.807  -0.008   5.862  0.00  0.00    -0.084 Cl
ATOM     17  C   UNL d   1      -2.242  -0.879   2.940  0.00  0.00     0.032 A 
ENDBRANCH   2  11
TORSDOF 1
