REMARK  7 active torsions:
REMARK  status: ('A' for Active; 'I' for Inactive)
REMARK    1  A    between atoms: C_9  and  C_5 
REMARK    2  A    between atoms: N_7  and  C_10 
REMARK    3  A    between atoms: N_8  and  C_15 
REMARK       I    between atoms: N_21  and  C_9 
REMARK    4  A    between atoms: C_28  and  N_21 
REMARK    5  A    between atoms: C_29  and  N_21 
REMARK    6  A    between atoms: C_31  and  C_28 
REMARK    7  A    between atoms: C_30  and  C_29 
ROOT
ATOM      1  C   UNL d   1      -1.512   0.492   0.187  0.00  0.00     0.002 C 
ATOM      2  C   UNL d   1       0.824   0.081   0.079  0.00  0.00     0.018 C 
ATOM      3  C   UNL d   1      -0.244   1.152   0.119  0.00  0.00    -0.008 C 
ATOM      4  C   UNL d   1       0.122  -1.235   0.253  0.00  0.00    -0.009 C 
ATOM      5  C   UNL d   1      -2.696   1.234  -0.029  0.00  0.00     0.046 C 
ATOM      6  C   UNL d   1      -1.248  -0.932   0.459  0.00  0.00    -0.013 C 
ATOM      7  C   UNL d   1      -1.359   3.274   0.135  0.00  0.00     0.104 C 
ATOM      8  C   UNL d   1       2.163   0.258  -0.050  0.00  0.00     0.136 C 
ATOM      9  C   UNL d   1      -0.167   2.540   0.128  0.00  0.00     0.049 C 
ATOM     10  C   UNL d   1      -2.604   2.634   0.035  0.00  0.00     0.054 C 
ATOM     11  C   UNL d   1       0.581  -2.549   0.308  0.00  0.00     0.049 C 
ATOM     12  C   UNL d   1      -0.302  -3.549   0.738  0.00  0.00     0.103 C 
ATOM     13  C   UNL d   1       2.766   1.540  -0.216  0.00  0.00     0.111 C 
ATOM     14  C   UNL d   1       3.114  -0.812  -0.022  0.00  0.00     0.111 C 
ATOM     15  N   UNL d   1       3.259   2.577  -0.350  0.00  0.00    -0.191 NA
ATOM     16  N   UNL d   1       3.899  -1.660  -0.002  0.00  0.00    -0.191 NA
ATOM     17  C   UNL d   1      -2.062  -1.911   1.021  0.00  0.00     0.015 C 
ATOM     18  C   UNL d   1      -1.593  -3.221   1.167  0.00  0.00     0.037 C 
ENDROOT
BRANCH   5  19
ATOM     19  C   UNL d   1      -4.064   0.657  -0.270  0.00  0.00     0.254 C 
ATOM     20  N   UNL d   1      -4.983   1.276  -1.157  0.00  0.00    -0.348 N 
ATOM     21  O   UNL d   1      -4.394  -0.325   0.389  0.00  0.00    -0.267 OA
BRANCH  20  22
ATOM     22  C   UNL d   1      -6.366   0.756  -1.125  0.00  0.00     0.125 C 
BRANCH  22  23
ATOM     23  C   UNL d   1      -6.680  -0.272  -2.217  0.00  0.00     0.015 C 
ATOM     24  C   UNL d   1      -8.130  -0.734  -2.135  0.00  0.00     0.006 C 
ENDBRANCH  22  23
ENDBRANCH  20  22
BRANCH  20  25
ATOM     25  C   UNL d   1      -4.609   2.099  -2.330  0.00  0.00     0.125 C 
BRANCH  25  26
ATOM     26  C   UNL d   1      -5.591   3.229  -2.691  0.00  0.00     0.015 C 
ATOM     27  C   UNL d   1      -5.786   4.279  -1.606  0.00  0.00     0.006 C 
ENDBRANCH  25  26
ENDBRANCH  20  25
ENDBRANCH   5  19
BRANCH   7  28
ATOM     28  N   UNL d   1      -1.312   4.740   0.229  0.00  0.00    -0.116 N 
ATOM     29  O   UNL d   1      -0.209   5.269   0.416  0.00  0.00    -0.532 OA
ATOM     30  O   UNL d   1      -2.381   5.356   0.119  0.00  0.00    -0.532 OA
ENDBRANCH   7  28
BRANCH  12  31
ATOM     31  N   UNL d   1       0.135  -4.951   0.748  0.00  0.00    -0.116 N 
ATOM     32  O   UNL d   1       1.225  -5.215   0.222  0.00  0.00    -0.532 OA
ATOM     33  O   UNL d   1      -0.621  -5.787   1.260  0.00  0.00    -0.532 OA
ENDBRANCH  12  31
TORSDOF 7
