REMARK  8 active torsions:
REMARK  status: ('A' for Active; 'I' for Inactive)
REMARK    1  A    between atoms: C_5  and  C_1 
REMARK    2  A    between atoms: C_9  and  C_1 
REMARK    3  A    between atoms: C_4  and  C_2 
REMARK    4  A    between atoms: C_3  and  C_8 
REMARK    5  A    between atoms: C_15  and  C_5 
REMARK    6  A    between atoms: C_19  and  C_7 
REMARK    7  A    between atoms: N_10  and  C_9 
REMARK    8  A    between atoms: O_23  and  C_20 
ROOT
ATOM      1  C   UNL d   1       0.951   0.054   0.069  0.00  0.00     0.078 C 
ATOM      2  C   UNL d   1       0.286  -0.493  -0.972  0.00  0.00     0.044 C 
ENDROOT
BRANCH   1   3
ATOM      3  C   UNL d   1       0.195   0.631   1.218  0.00  0.00     0.201 C 
ATOM      4  O   UNL d   1      -0.971   1.001   1.091  0.00  0.00    -0.286 OA
BRANCH   3   5
ATOM      5  C   UNL d   1       0.857   0.747   2.550  0.00  0.00     0.016 A 
ATOM      6  C   UNL d   1       0.492   1.794   3.408  0.00  0.00     0.018 A 
ATOM      7  C   UNL d   1       1.098   1.927   4.666  0.00  0.00     0.037 A 
ATOM      8  C   UNL d   1       2.063   1.007   5.080  0.00  0.00     0.068 A 
ATOM      9  C   UNL d   1       2.392  -0.060   4.246  0.00  0.00     0.037 A 
ATOM     10  C   UNL d   1       1.789  -0.198   2.995  0.00  0.00     0.018 A 
BRANCH   8  11
ATOM     11  O   UNL d   1       2.695   1.005   6.291  0.00  0.00    -0.356 OA
ATOM     12  C   UNL d   1       2.903   2.280   6.885  0.00  0.00     0.210 C 
ENDBRANCH   8  11
ENDBRANCH   3   5
ENDBRANCH   1   3
BRANCH   1  13
ATOM     13  C   UNL d   1       2.471   0.054   0.069  0.00  0.00    -0.033 C 
BRANCH  13  14
ATOM     14  N   UNL d   1       3.732   0.054   0.069  0.00  0.00    -0.365 N 
ATOM     15  HN2 UNL d   1       2.712   0.054   0.069  1.00  0.00     0.165 HD
ATOM     16  HN1 UNL d   1       4.752   0.054   0.069  1.00  0.00     0.165 HD
ENDBRANCH  13  14
ENDBRANCH   1  13
BRANCH   2  17
ATOM     17  C   UNL d   1       0.968  -1.172  -2.033  0.00  0.00     0.007 A 
ATOM     18  S   UNL d   1       1.498  -0.333  -3.443  0.00  0.00    -0.081 SA
ATOM     19  C   UNL d   1       2.207  -1.734  -4.121  0.00  0.00     0.059 A 
ATOM     20  C   UNL d   1       2.025  -2.832  -3.308  0.00  0.00     0.029 A 
ATOM     21  C   UNL d   1       1.300  -2.514  -2.120  0.00  0.00     0.021 A 
BRANCH  19  22
ATOM     22  C   UNL d   1       2.890  -1.776  -5.383  0.00  0.00    -0.054 C 
ATOM     23  C   UNL d   1       3.469  -1.850  -6.433  0.00  0.00    -0.061 C 
BRANCH  23  24
ATOM     24  C   UNL d   1       4.151  -1.949  -7.689  0.00  0.00     0.018 A 
ATOM     25  C   UNL d   1       4.303  -0.813  -8.488  0.00  0.00     0.020 A 
ATOM     26  C   UNL d   1       4.968  -0.900  -9.713  0.00  0.00     0.001 A 
ATOM     27  C   UNL d   1       5.484  -2.123 -10.143  0.00  0.00     0.000 A 
ATOM     28  C   UNL d   1       5.333  -3.259  -9.349  0.00  0.00     0.001 A 
ATOM     29  C   UNL d   1       4.667  -3.174  -8.123  0.00  0.00     0.020 A 
ENDBRANCH  23  24
ENDBRANCH  19  22
ENDBRANCH   2  17
TORSDOF 8
