REMARK  6 active torsions:
REMARK  status: ('A' for Active; 'I' for Inactive)
REMARK    1  A    between atoms: C_8  and  C_1 
REMARK       I    between atoms: N_14  and  C_8 
REMARK    2  A    between atoms: O_18  and  C_9 
REMARK    3  A    between atoms: O_20  and  C_11 
REMARK    4  A    between atoms: C_21  and  N_14 
REMARK    5  A    between atoms: C_16  and  C_23 
REMARK    6  A    between atoms: C_23  and  C_21 
ROOT
ATOM      1  C   UNL d   1       2.720   2.766  -0.046  0.00  0.00     0.285 C 
ATOM      2  O   UNL d   1       2.266   3.900  -0.058  0.00  0.00    -0.264 OA
ATOM      3  N   UNL d   1       4.055   2.428  -0.067  0.00  0.00    -0.354 N 
ATOM      4  H   UNL d   1       4.285   1.438  -0.055  0.00  0.00     0.162 HD
ENDROOT
BRANCH   1   5
ATOM      5  C   UNL d   1       1.748   1.590   0.001  0.00  0.00     0.177 A 
ATOM      6  N   UNL d   1       0.424   1.953   0.012  0.00  0.00    -0.304 N 
ATOM      7  C   UNL d   1      -0.601   1.050   0.064  0.00  0.00     0.259 A 
ATOM      8  H   UNL d   1       0.191   2.939  -0.013  0.00  0.00     0.171 HD
ATOM      9  O   UNL d   1      -1.778   1.386   0.079  0.00  0.00    -0.267 OA
ATOM     10  C   UNL d   1      -0.189  -0.366   0.102  0.00  0.00     0.059 A 
ATOM     11  C   UNL d   1       1.185  -0.645   0.078  0.00  0.00     0.049 A 
ATOM     12  C   UNL d   1      -1.141  -1.389   0.158  0.00  0.00     0.019 A 
ATOM     13  N   UNL d   1       2.170   0.363   0.029  0.00  0.00    -0.337 N 
ATOM     14  C   UNL d   1       1.590  -1.980   0.107  0.00  0.00     0.030 A 
ATOM     15  HN  UNL d   1       3.165   0.139   0.017  1.00  0.00     0.167 HD
ATOM     16  C   UNL d   1       0.646  -3.012   0.163  0.00  0.00     0.002 A 
ATOM     17  C   UNL d   1      -0.718  -2.717   0.189  0.00  0.00     0.001 A 
ENDBRANCH   1   5
BRANCH   3  18
ATOM     18  C   UNL d   1       5.079   3.457  -0.108  0.00  0.00     0.127 C 
BRANCH  18  19
ATOM     19  C   UNL d   1       6.503   2.900  -0.121  0.00  0.00     0.058 C 
BRANCH  19  20
ATOM     20  C   UNL d   1       7.549   3.994  -0.127  0.00  0.00    -0.054 A 
ATOM     21  C   UNL d   1       8.032   4.518   1.084  0.00  0.00     0.046 A 
ATOM     22  C   UNL d   1       8.993   5.545   1.114  0.00  0.00     0.102 A 
ATOM     23  C   UNL d   1       9.492   6.039  -0.103  0.00  0.00     0.101 A 
ATOM     24  C   UNL d   1       8.991   5.535  -1.310  0.00  0.00     0.040 A 
ATOM     25  C   UNL d   1       8.030   4.521  -1.327  0.00  0.00     0.010 A 
BRANCH  22  26
ATOM     26  O   UNL d   1       9.447   6.117   2.273  0.00  0.00    -0.353 OA
ATOM     27  C   UNL d   1       8.921   5.640   3.505  0.00  0.00     0.210 C 
ENDBRANCH  22  26
BRANCH  23  28
ATOM     28  O   UNL d   1      10.413   7.042  -0.278  0.00  0.00    -0.353 OA
ATOM     29  C   UNL d   1      11.429   7.166   0.711  0.00  0.00     0.210 C 
ENDBRANCH  23  28
ENDBRANCH  19  20
ENDBRANCH  18  19
ENDBRANCH   3  18
TORSDOF 6
