REMARK  5 active torsions:
REMARK  status: ('A' for Active; 'I' for Inactive)
REMARK    1  A    between atoms: C_2  and  S_1 
REMARK    2  A    between atoms: C_3  and  S_1 
REMARK    3  A    between atoms: C_9  and  C_3 
REMARK    4  A    between atoms: S_8  and  C_9 
REMARK    5  A    between atoms: C_10  and  S_8 
ROOT
ATOM      1  S   UNL d   1       1.143   0.099   0.086  0.00  0.00     0.176 S 
ATOM      2  O   UNL d   1       2.559   0.149  -0.225  0.00  0.00    -0.223 OA
ATOM      3  O   UNL d   1       0.683  -0.440   1.351  0.00  0.00    -0.223 OA
ENDROOT
BRANCH   1   4
ATOM      4  C   UNL d   1       0.359  -0.845  -1.206  0.00  0.00     0.059 A 
ATOM      5  C   UNL d   1       0.957  -0.909  -2.472  0.00  0.00     0.026 A 
ATOM      6  C   UNL d   1       0.394  -1.724  -3.456  0.00  0.00     0.044 A 
ATOM      7  C   UNL d   1      -0.746  -2.467  -3.166  0.00  0.00     0.116 A 
ATOM      8  C   UNL d   1      -1.341  -2.410  -1.909  0.00  0.00     0.044 A 
ATOM      9  F   UNL d   1      -1.269  -3.264  -4.107  0.00  0.00    -0.206 F 
ATOM     10  C   UNL d   1      -0.787  -1.598  -0.918  0.00  0.00     0.026 A 
ENDBRANCH   1   4
BRANCH   1  11
ATOM     11  C   UNL d   1       0.476   1.738  -0.094  0.00  0.00     0.156 C 
BRANCH  11  12
ATOM     12  C   UNL d   1       1.094   2.658   0.950  0.00  0.00     0.095 C 
BRANCH  12  13
ATOM     13  S   UNL d   1       0.405   4.338   0.755  0.00  0.00    -0.129 SA
BRANCH  13  14
ATOM     14  C   UNL d   1       1.204   5.289   2.046  0.00  0.00     0.000 A 
ATOM     15  C   UNL d   1       2.169   4.803   2.932  0.00  0.00     0.019 A 
ATOM     16  C   UNL d   1       2.733   5.642   3.905  0.00  0.00     0.008 A 
ATOM     17  C   UNL d   1       2.342   6.981   4.012  0.00  0.00    -0.062 A 
ATOM     18  C   UNL d   1       1.378   7.470   3.129  0.00  0.00     0.008 A 
ATOM     19  C   UNL d   1       2.953   7.868   5.056  0.00  0.00     0.048 C 
ATOM     20  C   UNL d   1       0.817   6.632   2.158  0.00  0.00     0.019 A 
ENDBRANCH  13  14
ENDBRANCH  12  13
ENDBRANCH  11  12
ENDBRANCH   1  11
TORSDOF 5
