REMARK  6 active torsions:
REMARK  status: ('A' for Active; 'I' for Inactive)
REMARK    1  A    between atoms: C_5  and  N_1 
REMARK    2  A    between atoms: C_2  and  C_3 
REMARK       I    between atoms: N_10  and  C_2 
REMARK    3  A    between atoms: C_3  and  C_12 
REMARK    4  A    between atoms: C_13  and  C_5 
REMARK    5  A    between atoms: O_14  and  C_11 
REMARK    6  A    between atoms: C_12  and  O_14 
ROOT
ATOM      1  N   UNL d   1       1.376  -0.028   0.253  0.00  0.00     0.092 N 
ATOM      2  C   UNL d   1      -0.731   1.307   0.268  0.00  0.00     0.062 C 
ATOM      3  C   UNL d   1      -0.828  -1.163   0.379  0.00  0.00     0.062 C 
ATOM      4  C   UNL d   1       0.717   1.204  -0.218  0.00  0.00     0.275 C 
ATOM      5  C   UNL d   1       0.607  -1.220  -0.143  0.00  0.00     0.275 C 
ATOM      6  C   UNL d   1      -1.546   0.083  -0.145  0.00  0.00     0.124 C 
ENDROOT
BRANCH   6   7
ATOM      7  O   UNL d   1      -1.676   0.084  -1.580  0.00  0.00    -0.385 OA
BRANCH   7   8
ATOM      8  C   UNL d   1      -2.583  -0.914  -2.056  0.00  0.00     0.177 C 
BRANCH   8   9
ATOM      9  C   UNL d   1      -2.699  -0.839  -3.570  0.00  0.00     0.129 C 
BRANCH   9  10
ATOM     10  C   UNL d   1      -3.563  -1.977  -4.067  0.00  0.00     0.217 C 
ATOM     11  O   UNL d   1      -4.100  -2.808  -3.347  0.00  0.00    -0.274 OA
ATOM     12  N   UNL d   1      -3.713  -2.034  -5.418  0.00  0.00    -0.370 N 
ATOM     13  H   UNL d   1      -3.307  -1.361  -6.053  0.00  0.00     0.159 HD
ATOM     14  H   UNL d   1      -4.287  -2.780  -5.795  0.00  0.00     0.159 HD
ENDBRANCH   9  10
ENDBRANCH   8   9
ENDBRANCH   7   8
ENDBRANCH   6   7
BRANCH   1  15
ATOM     15  C   UNL d   1       2.747  -0.140  -0.287  0.00  0.00     0.311 C 
BRANCH  15  16
ATOM     16  C   UNL d   1       3.681   0.964   0.158  0.00  0.00    -0.030 A 
ATOM     17  C   UNL d   1       3.934   1.185   1.519  0.00  0.00     0.009 A 
ATOM     18  C   UNL d   1       4.790   2.210   1.923  0.00  0.00     0.001 A 
ATOM     19  C   UNL d   1       5.407   3.021   0.972  0.00  0.00     0.000 A 
ATOM     20  C   UNL d   1       5.170   2.806  -0.385  0.00  0.00     0.001 A 
ATOM     21  C   UNL d   1       4.314   1.782  -0.791  0.00  0.00     0.009 A 
ENDBRANCH  15  16
ENDBRANCH   1  15
TORSDOF 6
