REMARK  6 active torsions:
REMARK  status: ('A' for Active; 'I' for Inactive)
REMARK    1  A    between atoms: C_2  and  S_1 
REMARK    2  A    between atoms: N_9  and  S_1 
REMARK    3  A    between atoms: O_14  and  C_5 
REMARK    4  A    between atoms: C_16  and  N_9 
REMARK    5  A    between atoms: O_15  and  C_10 
REMARK    6  A    between atoms: C_13  and  C_16 
ROOT
ATOM      1  N   UNL d   1       6.997   0.140  -0.625  0.00  0.00    -0.197 NA
ATOM      2  C   UNL d   1       5.982   0.693  -0.543  0.00  0.00     0.060 C 
ATOM      3  C   UNL d   1       4.691   1.385  -0.436  0.00  0.00     0.139 C 
ENDROOT
BRANCH   3   4
ATOM      4  C   UNL d   1       3.561   0.374  -0.249  0.00  0.00     0.118 C 
BRANCH   4   5
ATOM      5  N   UNL d   1       2.258   1.061  -0.140  0.00  0.00    -0.215 NA
ATOM      6  H   UNL d   1       2.200   1.880   0.468  0.00  0.00     0.140 HD
BRANCH   5   7
ATOM      7  S   UNL d   1       0.894   0.090   0.120  0.00  0.00     0.241 S 
ATOM      8  O   UNL d   1       1.330  -1.099   0.817  0.00  0.00    -0.206 OA
ATOM      9  O   UNL d   1      -0.113   0.968   0.670  0.00  0.00    -0.206 OA
BRANCH   7  10
ATOM     10  C   UNL d   1       0.375  -0.358  -1.516  0.00  0.00     0.077 A 
ATOM     11  C   UNL d   1       0.425  -1.701  -1.910  0.00  0.00     0.064 A 
ATOM     12  C   UNL d   1      -0.067  -2.098  -3.164  0.00  0.00     0.102 A 
ATOM     13  C   UNL d   1      -0.602  -1.122  -4.026  0.00  0.00     0.101 A 
ATOM     14  C   UNL d   1      -0.649   0.220  -3.607  0.00  0.00     0.041 A 
ATOM     15  C   UNL d   1      -0.170   0.608  -2.356  0.00  0.00     0.028 A 
BRANCH  12  16
ATOM     16  O   UNL d   1      -0.064  -3.402  -3.580  0.00  0.00    -0.353 OA
ATOM     17  C   UNL d   1       0.457  -4.396  -2.708  0.00  0.00     0.210 C 
ENDBRANCH  12  16
BRANCH  13  18
ATOM     18  O   UNL d   1      -1.126  -1.284  -5.283  0.00  0.00    -0.353 OA
ATOM     19  C   UNL d   1      -1.126  -2.577  -5.871  0.00  0.00     0.210 C 
ENDBRANCH  13  18
ENDBRANCH   7  10
ENDBRANCH   5   7
ENDBRANCH   4   5
ENDBRANCH   3   4
TORSDOF 6
