REMARK  5 active torsions:
REMARK  status: ('A' for Active; 'I' for Inactive)
REMARK    1  A    between atoms: N_2  and  C_1 
REMARK    2  A    between atoms: N_6  and  N_2 
REMARK    3  A    between atoms: C_3  and  N_6 
REMARK    4  A    between atoms: N_7  and  C_3 
REMARK    5  A    between atoms: C_11  and  N_7 
ROOT
ATOM      1  N   UNL d   1      -2.311  -2.130   0.280  0.00  0.00    -0.200 NA
ATOM      2  H   UNL d   1      -2.361  -2.102   1.304  0.00  0.00     0.153 HD
ENDROOT
BRANCH   1   3
ATOM      3  C   UNL d   1      -2.683  -0.898  -0.319  0.00  0.00     0.073 A 
ATOM      4  C   UNL d   1      -2.553  -0.579  -1.681  0.00  0.00     0.073 A 
ATOM      5 CL   UNL d   1      -1.766  -1.592  -2.838  0.00  0.00    -0.081 Cl
ATOM      6  C   UNL d   1      -3.104   0.614  -2.151  0.00  0.00     0.113 A 
ATOM      7  N   UNL d   1      -3.774   1.508  -1.387  0.00  0.00    -0.372 N 
ATOM      8  C   UNL d   1      -3.914   1.185  -0.084  0.00  0.00     0.113 A 
ATOM      9  HN  UNL d   1      -4.150   2.374  -1.773  1.00  0.00     0.164 HD
ATOM     10  C   UNL d   1      -3.405   0.021   0.478  0.00  0.00     0.073 A 
ATOM     11 CL   UNL d   1      -3.660  -0.259   2.168  0.00  0.00    -0.081 Cl
ENDBRANCH   1   3
BRANCH   1  12
ATOM     12  N   UNL d   1      -1.165  -2.809  -0.162  0.00  0.00    -0.293 N 
ATOM     13  H   UNL d   1      -0.636  -2.362  -0.904  0.00  0.00     0.183 HD
BRANCH  12  14
ATOM     14  C   UNL d   1      -1.187  -4.184  -0.149  0.00  0.00     0.183 C 
ATOM     15  S   UNL d   1      -2.508  -5.147   0.226  0.00  0.00    -0.040 SA
BRANCH  14  16
ATOM     16  N   UNL d   1      -0.014  -4.834  -0.385  0.00  0.00    -0.358 N 
ATOM     17  H   UNL d   1      -0.150  -5.840  -0.311  0.00  0.00     0.162 HD
BRANCH  16  18
ATOM     18  C   UNL d   1       1.394  -4.387  -0.329  0.00  0.00     0.021 C 
ATOM     19  C   UNL d   1       1.687  -3.642   0.982  0.00  0.00     0.037 C 
ATOM     20  C   UNL d   1       2.278  -5.652  -0.366  0.00  0.00     0.037 C 
ATOM     21  C   UNL d   1       1.764  -3.518  -1.538  0.00  0.00     0.037 C 
ENDBRANCH  16  18
ENDBRANCH  14  16
ENDBRANCH  12  14
ENDBRANCH   1  12
TORSDOF 5
