REMARK  4 active torsions:
REMARK  status: ('A' for Active; 'I' for Inactive)
REMARK    1  A    between atoms: C_7  and  C_1 
REMARK    2  A    between atoms: C_10  and  C_4 
REMARK    3  A    between atoms: N_9  and  C_7 
REMARK       I    between atoms: C_8  and  N_9 
REMARK    4  A    between atoms: C_12  and  C_8 
ROOT
ATOM      1  C   UNL d   1       0.074  -1.243  -0.024  0.00  0.00     0.020 A 
ATOM      2  N   UNL d   1      -0.386   0.824   0.814  0.00  0.00    -0.260 N 
ATOM      3  HN  UNL d   1      -0.544   1.605   1.451  1.00  0.00     0.195 HD
ATOM      4  C   UNL d   1      -0.025  -0.426   1.153  0.00  0.00     0.075 A 
ATOM      5  O   UNL d   1      -0.502   0.848  -0.555  0.00  0.00    -0.242 OA
ATOM      6  C   UNL d   1      -0.224  -0.379  -1.058  0.00  0.00     0.082 A 
ATOM      7  C   UNL d   1      -0.310  -0.517  -2.525  0.00  0.00     0.079 C 
ENDROOT
BRANCH   1   8
ATOM      8  C   UNL d   1       0.364  -2.692  -0.128  0.00  0.00     0.166 C 
BRANCH   8   9
ATOM      9  N   UNL d   1       1.789  -2.900  -0.256  0.00  0.00    -0.356 N 
ATOM     10  C   UNL d   1       2.296  -4.181  -0.204  0.00  0.00     0.222 C 
ATOM     11  O   UNL d   1       1.569  -5.157  -0.066  0.00  0.00    -0.273 OA
ATOM     12  H   UNL d   1       2.415  -2.108  -0.197  0.00  0.00     0.162 HD
BRANCH  10  13
ATOM     13  C   UNL d   1       3.824  -4.268  -0.289  0.00  0.00     0.078 C 
ATOM     14  C   UNL d   1       4.366  -3.640  -1.580  0.00  0.00     0.014 C 
ATOM     15  C   UNL d   1       4.037  -4.484  -2.810  0.00  0.00     0.001 C 
ATOM     16  C   UNL d   1       4.549  -5.914  -2.663  0.00  0.00     0.000 C 
ATOM     17  C   UNL d   1       4.049  -6.572  -1.382  0.00  0.00     0.001 C 
ATOM     18  C   UNL d   1       4.326  -5.714  -0.145  0.00  0.00     0.014 C 
ENDBRANCH  10  13
ENDBRANCH   8   9
ENDBRANCH   1   8
BRANCH   4  19
ATOM     19  C   UNL d   1       0.194  -0.780   2.559  0.00  0.00    -0.007 A 
ATOM     20  C   UNL d   1      -0.536  -0.142   3.575  0.00  0.00     0.014 A 
ATOM     21  C   UNL d   1      -0.339  -0.476   4.917  0.00  0.00     0.001 A 
ATOM     22  C   UNL d   1       0.590  -1.456   5.266  0.00  0.00     0.000 A 
ATOM     23  C   UNL d   1       1.330  -2.089   4.273  0.00  0.00     0.001 A 
ATOM     24  C   UNL d   1       1.141  -1.744   2.934  0.00  0.00     0.014 A 
ENDBRANCH   4  19
TORSDOF 4
