REMARK  5 active torsions:
REMARK  status: ('A' for Active; 'I' for Inactive)
REMARK    1  A    between atoms: C_2  and  S_1 
REMARK    2  A    between atoms: N_8  and  S_1 
REMARK    3  A    between atoms: C_5  and  C_3 
REMARK       I    between atoms: N_9  and  C_5 
REMARK    4  A    between atoms: C_11  and  N_9 
REMARK    5  A    between atoms: N_10  and  C_12 
ROOT
ATOM      1  C   UNL d   1       0.285  -1.072   5.228  0.00  0.00     0.258 C 
ATOM      2  N   UNL d   1      -0.759  -0.194   5.416  0.00  0.00    -0.321 N 
ATOM      3  O   UNL d   1       0.806  -1.754   6.104  0.00  0.00    -0.267 OA
ATOM      4  H   UNL d   1      -1.298   0.099   4.609  0.00  0.00     0.169 HD
ENDROOT
BRANCH   1   5
ATOM      5  C   UNL d   1       0.666  -1.222   3.830  0.00  0.00     0.065 A 
ATOM      6  C   UNL d   1       0.561  -0.307   2.741  0.00  0.00     0.070 A 
ATOM      7  C   UNL d   1       1.060  -0.929   1.604  0.00  0.00     0.186 A 
ATOM      8  O   UNL d   1       1.453  -2.200   1.960  0.00  0.00    -0.301 OA
ATOM      9  C   UNL d   1       1.227  -2.364   3.287  0.00  0.00     0.066 A 
ATOM     10  C   UNL d   1       1.577  -3.690   3.842  0.00  0.00     0.078 C 
BRANCH   7  11
ATOM     11  S   UNL d   1       1.186  -0.367  -0.103  0.00  0.00     0.266 S 
ATOM     12  O   UNL d   1       2.593  -0.450  -0.432  0.00  0.00    -0.204 OA
ATOM     13  O   UNL d   1       0.462   0.889  -0.117  0.00  0.00    -0.204 OA
BRANCH  11  14
ATOM     14  N   UNL d   1       0.330  -1.484  -1.053  0.00  0.00    -0.205 NA
ATOM     15  C   UNL d   1      -1.122  -1.607  -0.796  0.00  0.00     0.107 C 
ATOM     16  C   UNL d   1      -1.310  -3.046  -0.350  0.00  0.00     0.017 C 
ATOM     17  C   UNL d   1      -0.281  -3.787  -1.181  0.00  0.00     0.017 C 
ATOM     18  C   UNL d   1       0.917  -2.844  -1.179  0.00  0.00     0.107 C 
ENDBRANCH  11  14
ENDBRANCH   7  11
ENDBRANCH   1   5
BRANCH   2  19
ATOM     19  C   UNL d   1      -1.423   0.042   6.638  0.00  0.00     0.056 A 
ATOM     20  C   UNL d   1      -2.804   0.370   6.575  0.00  0.00     0.037 A 
ATOM     21  C   UNL d   1      -3.442   0.710   7.778  0.00  0.00     0.026 A 
ATOM     22  C   UNL d   1      -2.745   0.717   8.992  0.00  0.00     0.002 A 
ATOM     23  C   UNL d   1      -1.396   0.377   9.031  0.00  0.00     0.002 A 
ATOM     24  C   UNL d   1      -0.736   0.031   7.856  0.00  0.00     0.031 A 
BRANCH  20  25
ATOM     25  N   UNL d   1      -3.469   0.347   5.333  0.00  0.00    -0.278 NA
ATOM     26  C   UNL d   1      -4.719   1.127   5.186  0.00  0.00     0.122 C 
ATOM     27  C   UNL d   1      -5.054   1.235   3.687  0.00  0.00     0.182 C 
ATOM     28  O   UNL d   1      -5.168  -0.059   3.065  0.00  0.00    -0.389 OA
ATOM     29  C   UNL d   1      -3.964  -0.824   3.250  0.00  0.00     0.182 C 
ATOM     30  C   UNL d   1      -3.649  -1.007   4.745  0.00  0.00     0.122 C 
ENDBRANCH  20  25
ENDBRANCH   2  19
TORSDOF 5
