REMARK  3 active torsions:
REMARK  status: ('A' for Active; 'I' for Inactive)
REMARK    1  A    between atoms: C_14  and  N_3 
REMARK    2  A    between atoms: C_13  and  C_4 
REMARK    3  A    between atoms: O_22  and  C_18 
ROOT
ATOM      1  C   UNL d   1       0.275  -0.628  -0.000  0.00  0.00     0.046 A 
ATOM      2  C   UNL d   1       0.248   0.740   0.045  0.00  0.00     0.143 A 
ATOM      3  N   UNL d   1       1.558   1.186   0.005  0.00  0.00    -0.239 N 
ATOM      4  C   UNL d   1      -0.949  -1.388   0.009  0.00  0.00     0.016 A 
ATOM      5  N   UNL d   1      -0.944   1.433   0.029  0.00  0.00    -0.306 N 
ATOM      6  C   UNL d   1      -2.148  -0.746   0.012  0.00  0.00     0.124 A 
ATOM      7  N   UNL d   1       2.412   0.147  -0.169  0.00  0.00    -0.296 N 
ATOM      8  HN  UNL d   1       3.420   0.194  -0.320  1.00  0.00     0.187 HD
ATOM      9  C   UNL d   1      -2.194   0.742   0.009  0.00  0.00     0.268 A 
ATOM     10  C   UNL d   1       1.651  -0.958  -0.098  0.00  0.00     0.037 A 
ATOM     11  C   UNL d   1      -3.416  -1.413   0.010  0.00  0.00     0.106 C 
ATOM     12  N   UNL d   1      -4.437  -1.962   0.009  0.00  0.00    -0.191 NA
ATOM     13  O   UNL d   1      -3.192   1.435  -0.010  0.00  0.00    -0.266 OA
ATOM     14  C   UNL d   1       2.312  -2.290  -0.162  0.00  0.00     0.070 C 
ATOM     15  H   UNL d   1      -0.969   2.445  -0.032  0.00  0.00     0.170 HD
ENDROOT
BRANCH   4  16
ATOM     16  C   UNL d   1      -0.948  -2.870   0.022  0.00  0.00    -0.023 A 
ATOM     17  C   UNL d   1      -1.014  -3.595  -1.173  0.00  0.00     0.015 A 
ATOM     18  C   UNL d   1      -1.025  -4.992  -1.139  0.00  0.00     0.037 A 
ATOM     19  C   UNL d   1      -0.950  -5.678   0.075  0.00  0.00     0.068 A 
ATOM     20  C   UNL d   1      -0.890  -4.955   1.266  0.00  0.00     0.037 A 
ATOM     21  C   UNL d   1      -0.889  -3.557   1.241  0.00  0.00     0.015 A 
BRANCH  19  22
ATOM     22  O   UNL d   1      -1.004  -7.039  -0.022  0.00  0.00    -0.356 OA
ATOM     23  C   UNL d   1      -0.348  -7.775   1.005  0.00  0.00     0.210 C 
ENDBRANCH  19  22
ENDBRANCH   4  16
BRANCH   3  24
ATOM     24  C   UNL d   1       2.010   2.528   0.037  0.00  0.00     0.058 A 
ATOM     25  C   UNL d   1       1.285   3.507   0.731  0.00  0.00     0.031 A 
ATOM     26  C   UNL d   1       1.670   4.846   0.651  0.00  0.00     0.002 A 
ATOM     27  C   UNL d   1       2.779   5.207  -0.110  0.00  0.00     0.000 A 
ATOM     28  C   UNL d   1       3.534   4.228  -0.758  0.00  0.00     0.002 A 
ATOM     29  C   UNL d   1       3.166   2.884  -0.670  0.00  0.00     0.031 A 
ENDBRANCH   3  24
TORSDOF 3
