REMARK  3 active torsions:
REMARK  status: ('A' for Active; 'I' for Inactive)
REMARK    1  A    between atoms: C_12  and  C_2 
REMARK    2  A    between atoms: N_10  and  N_6 
REMARK    3  A    between atoms: C_15  and  N_10 
ROOT
ATOM      1  C   UNL d   1      -0.497   1.310  -0.046  0.00  0.00     0.150 A 
ATOM      2  C   UNL d   1      -1.386   0.140  -0.171  0.00  0.00     0.099 A 
ATOM      3  N   UNL d   1      -0.699  -0.860  -0.644  0.00  0.00    -0.254 N 
ATOM      4  HN  UNL d   1      -1.062  -1.800  -0.801  1.00  0.00     0.195 HD
ATOM      5  C   UNL d   1       0.827   0.880  -0.591  0.00  0.00     0.335 A 
ATOM      6  N   UNL d   1      -0.648   2.497   0.456  0.00  0.00    -0.309 N 
ATOM      7  HN  UNL d   1       0.114   3.175   0.421  1.00  0.00     0.181 HD
ATOM      8  O   UNL d   1       0.644  -0.436  -0.911  0.00  0.00    -0.193 OA
ATOM      9  O   UNL d   1       1.833   1.548  -0.687  0.00  0.00    -0.255 OA
ENDROOT
BRANCH   2  10
ATOM     10  C   UNL d   1      -2.802  -0.002   0.179  0.00  0.00    -0.005 A 
ATOM     11  C   UNL d   1      -3.751   0.977  -0.125  0.00  0.00     0.014 A 
ATOM     12  C   UNL d   1      -5.080   0.809   0.271  0.00  0.00     0.001 A 
ATOM     13  C   UNL d   1      -5.476  -0.359   0.921  0.00  0.00     0.000 A 
ATOM     14  C   UNL d   1      -4.548  -1.371   1.161  0.00  0.00     0.001 A 
ATOM     15  C   UNL d   1      -3.215  -1.194   0.788  0.00  0.00     0.014 A 
ENDBRANCH   2  10
BRANCH   6  16
ATOM     16  N   UNL d   1      -1.833   2.820   1.027  0.00  0.00    -0.205 NA
ATOM     17  H   UNL d   1      -1.897   2.623   2.030  0.00  0.00     0.153 HD
BRANCH  16  18
ATOM     18  C   UNL d   1      -2.318   4.135   0.775  0.00  0.00     0.029 A 
ATOM     19  C   UNL d   1      -1.873   4.904  -0.311  0.00  0.00     0.050 A 
ATOM     20  C   UNL d   1      -2.452   6.144  -0.605  0.00  0.00     0.053 A 
ATOM     21 CL   UNL d   1      -1.826   7.018  -1.958  0.00  0.00    -0.083 Cl
ATOM     22  C   UNL d   1      -3.509   6.619   0.175  0.00  0.00     0.032 A 
ATOM     23  C   UNL d   1      -3.984   5.850   1.239  0.00  0.00     0.022 A 
ATOM     24 BR   UNL d   1      -4.367   8.282  -0.154  0.00  0.00    -0.049 Br
ATOM     25  C   UNL d   1      -3.401   4.611   1.527  0.00  0.00     0.026 A 
ENDBRANCH  16  18
ENDBRANCH   6  16
TORSDOF 3
