REMARK  5 active torsions:
REMARK  status: ('A' for Active; 'I' for Inactive)
REMARK    1  A    between atoms: C_9  and  N_1 
REMARK    2  A    between atoms: C_10  and  C_2 
REMARK    3  A    between atoms: S_8  and  C_5 
REMARK    4  A    between atoms: C_13  and  S_8 
REMARK    5  A    between atoms: C_12  and  C_13 
ROOT
ATOM      1  N   UNL d   1      -0.302  -1.299  -0.086  0.00  0.00    -0.275 N 
ATOM      2  C   UNL d   1       0.946  -0.664  -0.087  0.00  0.00     0.139 A 
ATOM      3  N   UNL d   1       0.761   0.647  -0.099  0.00  0.00    -0.282 N 
ATOM      4  HN  UNL d   1       1.499   1.350  -0.062  1.00  0.00     0.188 HD
ATOM      5  C   UNL d   1      -1.204  -0.249  -0.165  0.00  0.00     0.168 A 
ATOM      6  N   UNL d   1      -0.576   0.903  -0.169  0.00  0.00    -0.278 N 
ATOM      7  HN  UNL d   1      -1.010   1.825  -0.216  1.00  0.00     0.189 HD
ENDROOT
BRANCH   1   8
ATOM      8  C   UNL d   1      -0.570  -2.696  -0.001  0.00  0.00     0.043 A 
ATOM      9  C   UNL d   1       0.197  -3.511   0.845  0.00  0.00     0.030 A 
ATOM     10  C   UNL d   1      -0.025  -4.889   0.884  0.00  0.00     0.002 A 
ATOM     11  C   UNL d   1      -1.018  -5.460   0.090  0.00  0.00     0.000 A 
ATOM     12  C   UNL d   1      -1.792  -4.654  -0.742  0.00  0.00     0.002 A 
ATOM     13  C   UNL d   1      -1.571  -3.276  -0.792  0.00  0.00     0.030 A 
ENDBRANCH   1   8
BRANCH   2  14
ATOM     14  C   UNL d   1       2.277  -1.284  -0.138  0.00  0.00     0.010 A 
ATOM     15  C   UNL d   1       2.566  -2.379  -0.964  0.00  0.00     0.015 A 
ATOM     16  C   UNL d   1       3.843  -2.948  -0.973  0.00  0.00     0.001 A 
ATOM     17  C   UNL d   1       4.855  -2.407  -0.184  0.00  0.00     0.000 A 
ATOM     18  C   UNL d   1       4.595  -1.292   0.610  0.00  0.00     0.001 A 
ATOM     19  C   UNL d   1       3.315  -0.733   0.630  0.00  0.00     0.015 A 
ENDBRANCH   2  14
BRANCH   5  20
ATOM     20  S   UNL d   1      -2.934  -0.374  -0.055  0.00  0.00    -0.085 SA
BRANCH  20  21
ATOM     21  C   UNL d   1      -3.416   1.142  -0.928  0.00  0.00     0.160 C 
BRANCH  21  22
ATOM     22  C   UNL d   1      -2.982   1.133  -2.385  0.00  0.00     0.132 C 
ATOM     23  O   UNL d   1      -2.803   0.102  -3.036  0.00  0.00    -0.298 OA
ATOM     24  C   UNL d   1      -2.859   2.486  -3.041  0.00  0.00     0.091 C 
ENDBRANCH  21  22
ENDBRANCH  20  21
ENDBRANCH   5  20
TORSDOF 5
