REMARK  2 active torsions:
REMARK  status: ('A' for Active; 'I' for Inactive)
REMARK    1  A    between atoms: N_2  and  N_6 
REMARK    2  A    between atoms: C_9  and  C_8 
ROOT
ATOM      1  N   UNL d   1       0.411  -3.408   0.044  0.00  0.00    -0.302 N 
ATOM      2  HN  UNL d   1      -0.364  -2.745   0.064  1.00  0.00     0.186 HD
ATOM      3  C   UNL d   1       0.178  -4.691   0.061  0.00  0.00     0.032 C 
ATOM      4  C   UNL d   1       1.241  -5.776   0.014  0.00  0.00     0.070 C 
ENDROOT
BRANCH   1   5
ATOM      5  N   UNL d   1       1.695  -2.956   0.000  0.00  0.00    -0.276 N 
ATOM      6  C   UNL d   1       2.093  -1.657  -0.055  0.00  0.00     0.168 C 
ATOM      7  N   UNL d   1       3.335  -1.274  -0.203  0.00  0.00    -0.364 N 
ATOM      8  N   UNL d   1       1.138  -0.690   0.004  0.00  0.00    -0.262 NA
ATOM      9  C   UNL d   1       3.229   0.214  -0.239  0.00  0.00     0.137 C 
ATOM     10  HN  UNL d   1       4.172  -1.852  -0.277  1.00  0.00     0.162 HD
ATOM     11  C   UNL d   1       1.745   0.531  -0.463  0.00  0.00     0.115 C 
ATOM     12  H   UNL d   1       0.254  -0.988  -0.391  0.00  0.00     0.130 HD
ATOM     13  H   UNL d   1       2.489  -3.583  -0.049  0.00  0.00     0.189 HD
ENDBRANCH   1   5
BRANCH   3  14
ATOM     14  C   UNL d   1      -1.258  -5.157   0.127  0.00  0.00    -0.013 A 
ATOM     15  C   UNL d   1      -2.292  -4.210   0.156  0.00  0.00     0.013 A 
ATOM     16  C   UNL d   1      -3.629  -4.617   0.190  0.00  0.00     0.001 A 
ATOM     17  C   UNL d   1      -3.948  -5.973   0.200  0.00  0.00     0.000 A 
ATOM     18  C   UNL d   1      -2.931  -6.924   0.186  0.00  0.00     0.001 A 
ATOM     19  C   UNL d   1      -1.593  -6.519   0.152  0.00  0.00     0.013 A 
ENDBRANCH   3  14
TORSDOF 2
