REMARK  2 active torsions:
REMARK  status: ('A' for Active; 'I' for Inactive)
REMARK    1  A    between atoms: C_8  and  N_4 
REMARK    2  A    between atoms: C_10  and  C_8 
ROOT
ATOM      1  C   UNL d   1       0.766   1.111  -0.184  0.00  0.00     0.170 C 
ATOM      2  N   UNL d   1       1.298  -0.131  -0.276  0.00  0.00    -0.342 N 
ATOM      3  N   UNL d   1      -0.579   1.176  -0.040  0.00  0.00    -0.342 N 
ATOM      4  N   UNL d   1      -0.762  -1.181   0.197  0.00  0.00     0.125 N 
ATOM      5  C   UNL d   1       0.485  -1.279  -0.534  0.00  0.00     0.399 C 
ATOM      6  C   UNL d   1      -1.439   0.041  -0.214  0.00  0.00     0.399 C 
ATOM      7  S   UNL d   1       1.715   2.471  -0.193  0.00  0.00    -0.041 SA
ATOM      8  H   UNL d   1       2.289  -0.179  -0.452  0.00  0.00     0.163 HD
ATOM      9  H   UNL d   1      -0.985   2.101  -0.017  0.00  0.00     0.163 HD
ENDROOT
BRANCH   4  10
ATOM     10  C   UNL d   1      -0.633  -1.259   1.663  0.00  0.00     0.308 C 
BRANCH  10  11
ATOM     11  C   UNL d   1       0.078  -2.503   2.239  0.00  0.00     0.150 C 
ATOM     12  O   UNL d   1       0.051  -2.424   3.679  0.00  0.00    -0.384 OA
ATOM     13  C   UNL d   1      -0.594  -3.586   4.202  0.00  0.00     0.168 C 
ATOM     14  C   UNL d   1      -0.560  -4.634   3.117  0.00  0.00     0.029 C 
ATOM     15  C   UNL d   1      -0.571  -3.824   1.845  0.00  0.00     0.036 C 
ENDBRANCH  10  11
ENDBRANCH   4  10
TORSDOF 2
