REMARK  5 active torsions:
REMARK  status: ('A' for Active; 'I' for Inactive)
REMARK    1  A    between atoms: C_12  and  C_2 
REMARK    2  A    between atoms: C_13  and  C_9 
REMARK    3  A    between atoms: C_14  and  C_11 
REMARK    4  A    between atoms: O_27  and  C_17 
REMARK    5  A    between atoms: O_28  and  C_19 
ROOT
ATOM      1  N   UNL d   1       0.318   0.650   0.060  0.00  0.00    -0.235 N 
ATOM      2  C   UNL d   1      -0.805   1.468   0.055  0.00  0.00     0.144 A 
ATOM      3  C   UNL d   1       0.173  -0.743   0.021  0.00  0.00     0.130 A 
ATOM      4  N   UNL d   1       1.628   0.994   0.085  0.00  0.00    -0.291 N 
ATOM      5  HN  UNL d   1       2.018   1.934   0.150  1.00  0.00     0.187 HD
ATOM      6  N   UNL d   1      -1.045  -1.359   0.038  0.00  0.00    -0.340 N 
ATOM      7  HN  UNL d   1      -1.130  -2.375   0.018  1.00  0.00     0.167 HD
ATOM      8  C   UNL d   1       1.441  -1.266  -0.037  0.00  0.00     0.082 A 
ATOM      9  C   UNL d   1       2.303  -0.157   0.006  0.00  0.00     0.069 A 
ATOM     10  C   UNL d   1      -2.033   0.909   0.047  0.00  0.00     0.067 A 
ATOM     11  C   UNL d   1      -2.095  -0.587   0.082  0.00  0.00     0.046 A 
ENDROOT
BRANCH  11  12
ATOM     12  C   UNL d   1      -3.447  -1.217   0.163  0.00  0.00    -0.006 A 
ATOM     13  C   UNL d   1      -3.631  -2.495  -0.392  0.00  0.00     0.053 A 
ATOM     14  C   UNL d   1      -4.865  -3.160  -0.304  0.00  0.00     0.102 A 
ATOM     15  C   UNL d   1      -5.934  -2.520   0.348  0.00  0.00     0.101 A 
ATOM     16  C   UNL d   1      -5.737  -1.249   0.910  0.00  0.00     0.040 A 
ATOM     17  C   UNL d   1      -4.505  -0.601   0.829  0.00  0.00     0.016 A 
BRANCH  14  18
ATOM     18  O   UNL d   1      -5.077  -4.411  -0.817  0.00  0.00    -0.353 OA
ATOM     19  C   UNL d   1      -4.003  -5.074  -1.470  0.00  0.00     0.210 C 
ENDBRANCH  14  18
BRANCH  15  20
ATOM     20  O   UNL d   1      -7.216  -2.966   0.541  0.00  0.00    -0.353 OA
ATOM     21  C   UNL d   1      -7.585  -4.244   0.046  0.00  0.00     0.210 C 
ENDBRANCH  15  20
ENDBRANCH  11  12
BRANCH   2  22
ATOM     22  C   UNL d   1      -0.630   2.941   0.030  0.00  0.00     0.434 C 
ATOM     23  F   UNL d   1       0.639   3.408  -0.007  0.00  0.00    -0.165 F 
ATOM     24  F   UNL d   1      -1.264   3.478  -1.049  0.00  0.00    -0.165 F 
ATOM     25  F   UNL d   1      -1.217   3.510   1.120  0.00  0.00    -0.165 F 
ENDBRANCH   2  22
BRANCH   9  26
ATOM     26  C   UNL d   1       3.801  -0.192  -0.036  0.00  0.00     0.033 A 
ATOM     27  S   UNL d   1       4.729  -1.615  -0.228  0.00  0.00    -0.100 SA
ATOM     28  C   UNL d   1       6.197  -0.739  -0.200  0.00  0.00     0.050 A 
ATOM     29  C   UNL d   1       5.989   0.611  -0.025  0.00  0.00     0.008 A 
ATOM     30  C   UNL d   1       4.602   0.928   0.068  0.00  0.00     0.021 A 
ENDBRANCH   9  26
TORSDOF 5
