REMARK  3 active torsions:
REMARK  status: ('A' for Active; 'I' for Inactive)
REMARK    1  A    between atoms: C_4  and  C_1 
REMARK       I    between atoms: N_7  and  C_4 
REMARK    2  A    between atoms: N_8  and  N_7 
REMARK    3  A    between atoms: C_11  and  N_8 
ROOT
ATOM      1  C   UNL d   1       3.923  -0.086   0.033  0.00  0.00     0.274 C 
ATOM      2  N   UNL d   1       4.568  -1.309   0.203  0.00  0.00    -0.282 N 
ATOM      3  O   UNL d   1       4.603   0.934  -0.131  0.00  0.00    -0.266 OA
ATOM      4  H   UNL d   1       4.073  -2.082   0.637  0.00  0.00     0.184 HD
ENDROOT
BRANCH   1   5
ATOM      5  C   UNL d   1       2.466  -0.093   0.079  0.00  0.00     0.097 A 
ATOM      6  S   UNL d   1       1.678   1.433   0.080  0.00  0.00    -0.082 SA
ATOM      7  C   UNL d   1       0.110   0.743   0.066  0.00  0.00     0.017 A 
ATOM      8  C   UNL d   1      -1.114   1.442   0.035  0.00  0.00     0.020 A 
ATOM      9  C   UNL d   1       0.166  -0.651   0.083  0.00  0.00     0.004 A 
ATOM     10  C   UNL d   1      -2.307   0.720   0.003  0.00  0.00     0.001 A 
ATOM     11  C   UNL d   1      -2.289  -0.666   0.011  0.00  0.00     0.001 A 
ATOM     12  C   UNL d   1      -1.070  -1.355   0.058  0.00  0.00     0.014 A 
ATOM     13  C   UNL d   1       1.536  -1.115   0.119  0.00  0.00     0.068 A 
ATOM     14 CL   UNL d   1       1.893  -2.801   0.174  0.00  0.00    -0.082 Cl
ENDBRANCH   1   5
BRANCH   2  15
ATOM     15  N   UNL d   1       5.948  -1.250   0.479  0.00  0.00    -0.203 NA
ATOM     16  H   UNL d   1       6.328  -0.309   0.298  0.00  0.00     0.153 HD
BRANCH  15  17
ATOM     17  C   UNL d   1       6.756  -2.253  -0.107  0.00  0.00     0.027 A 
ATOM     18  C   UNL d   1       6.249  -3.412  -0.712  0.00  0.00     0.028 A 
ATOM     19  C   UNL d   1       7.108  -4.425  -1.153  0.00  0.00     0.044 A 
ATOM     20  C   UNL d   1       8.478  -4.294  -0.971  0.00  0.00     0.116 A 
ATOM     21  C   UNL d   1       9.009  -3.163  -0.370  0.00  0.00     0.044 A 
ATOM     22  F   UNL d   1       9.295  -5.279  -1.368  0.00  0.00    -0.206 F 
ATOM     23  C   UNL d   1       8.149  -2.149   0.062  0.00  0.00     0.028 A 
ENDBRANCH  15  17
ENDBRANCH   2  15
TORSDOF 3
