REMARK  3 active torsions:
REMARK  status: ('A' for Active; 'I' for Inactive)
REMARK    1  A    between atoms: C_2  and  C_1 
REMARK    2  A    between atoms: N_4  and  N_11 
REMARK    3  A    between atoms: N_11  and  C_6 
ROOT
ATOM      1  N   UNL d   1      -3.850  -0.018  -0.066  0.00  0.00    -0.285 N 
ATOM      2  H   UNL d   1      -4.212   0.843   0.336  0.00  0.00     0.188 HD
ENDROOT
BRANCH   1   3
ATOM      3  N   UNL d   1      -4.572  -1.167   0.051  0.00  0.00    -0.306 N 
ATOM      4  C   UNL d   1      -5.864  -1.115   0.171  0.00  0.00     0.012 C 
ATOM      5  C   UNL d   1      -6.643  -2.432   0.227  0.00  0.00     0.034 C 
ATOM      6  C   UNL d   1      -6.742   0.128   0.220  0.00  0.00     0.034 C 
ATOM      7  C   UNL d   1      -7.467  -2.446   1.520  0.00  0.00     0.015 C 
ATOM      8  C   UNL d   1      -7.583  -2.453  -0.988  0.00  0.00     0.015 C 
ATOM      9  C   UNL d   1      -8.405  -1.225   1.565  0.00  0.00    -0.013 C 
ATOM     10  C   UNL d   1      -7.553   0.059   1.524  0.00  0.00     0.015 C 
ATOM     11  C   UNL d   1      -9.343  -1.251   0.346  0.00  0.00     0.009 C 
ATOM     12  C   UNL d   1      -8.522  -1.230  -0.954  0.00  0.00    -0.013 C 
ATOM     13  C   UNL d   1      -7.673   0.056  -0.999  0.00  0.00     0.015 C 
ATOM     14  HN  UNL d   1      -4.097  -2.070   0.045  1.00  0.00     0.186 HD
ENDBRANCH   1   3
BRANCH   1  15
ATOM     15  C   UNL d   1      -2.440  -0.140  -0.003  0.00  0.00     0.135 A 
ATOM     16  C   UNL d   1      -1.614   0.989  -0.059  0.00  0.00     0.094 A 
ATOM     17  C   UNL d   1      -0.211   0.807  -0.130  0.00  0.00     0.045 A 
ATOM     18  C   UNL d   1       0.324  -0.471  -0.145  0.00  0.00     0.050 A 
ATOM     19  C   UNL d   1      -0.553  -1.531  -0.078  0.00  0.00     0.113 A 
ATOM     20 CL   UNL d   1       2.018  -0.716  -0.240  0.00  0.00    -0.083 Cl
ATOM     21  N   UNL d   1      -1.894  -1.389  -0.009  0.00  0.00    -0.349 N 
ATOM     22  HN  UNL d   1      -2.495  -2.212   0.039  1.00  0.00     0.167 HD
BRANCH  16  23
ATOM     23  C   UNL d   1      -2.138   2.386  -0.045  0.00  0.00     0.421 C 
ATOM     24  F   UNL d   1      -3.491   2.488   0.121  0.00  0.00    -0.166 F 
ATOM     25  F   UNL d   1      -1.600   3.128   0.968  0.00  0.00    -0.166 F 
ATOM     26  F   UNL d   1      -1.849   3.065  -1.187  0.00  0.00    -0.166 F 
ENDBRANCH  16  23
ENDBRANCH   1  15
TORSDOF 3
