REMARK  5 active torsions:
REMARK  status: ('A' for Active; 'I' for Inactive)
REMARK    1  A    between atoms: C_2  and  S_1 
REMARK    2  A    between atoms: N_4  and  S_1 
REMARK    3  A    between atoms: C_23  and  N_12 
REMARK    4  A    between atoms: N_18  and  C_24 
REMARK    5  A    between atoms: C_24  and  C_23 
ROOT
ATOM      1  N   UNL d   1       0.339   1.326   0.428  0.00  0.00    -0.203 NA
ATOM      2  N   UNL d   1       0.910   3.669  -1.338  0.00  0.00     0.092 N 
ATOM      3  C   UNL d   1      -0.578   1.683  -0.702  0.00  0.00     0.138 C 
ATOM      4  C   UNL d   1       1.059   2.534   0.929  0.00  0.00     0.138 C 
ATOM      5  C   UNL d   1       0.155   2.482  -1.811  0.00  0.00     0.288 C 
ATOM      6  C   UNL d   1       1.792   3.250  -0.220  0.00  0.00     0.288 C 
ENDROOT
BRANCH   1   7
ATOM      7  S   UNL d   1       1.322  -0.045   0.181  0.00  0.00     0.250 S 
ATOM      8  O   UNL d   1       1.535  -0.234  -1.235  0.00  0.00    -0.205 OA
ATOM      9  O   UNL d   1       2.435   0.016   1.108  0.00  0.00    -0.205 OA
BRANCH   7  10
ATOM     10  C   UNL d   1       0.469  -1.520   0.686  0.00  0.00     0.116 A 
ATOM     11  S   UNL d   1      -1.032  -1.359   1.478  0.00  0.00    -0.074 SA
ATOM     12  C   UNL d   1      -1.154  -3.047   1.755  0.00  0.00     0.042 A 
ATOM     13  C   UNL d   1      -2.230  -3.644   2.497  0.00  0.00     0.117 A 
ATOM     14  C   UNL d   1      -0.081  -3.721   1.204  0.00  0.00     0.024 A 
ATOM     15  O   UNL d   1      -2.289  -4.997   2.727  0.00  0.00    -0.237 OA
ATOM     16  C   UNL d   1      -3.325  -3.073   3.117  0.00  0.00     0.059 A 
ATOM     17  N   UNL d   1      -3.390  -5.307   3.503  0.00  0.00    -0.272 N 
ATOM     18  C   UNL d   1      -3.995  -4.143   3.733  0.00  0.00     0.117 A 
ATOM     19  HN  UNL d   1      -3.678  -6.229   3.829  1.00  0.00     0.194 HD
ATOM     20  C   UNL d   1       0.854  -2.844   0.591  0.00  0.00     0.034 A 
ENDBRANCH   7  10
ENDBRANCH   1   7
BRANCH   2  21
ATOM     21  C   UNL d   1      -0.016   4.769  -0.992  0.00  0.00     0.302 C 
BRANCH  21  22
ATOM     22  C   UNL d   1       0.706   6.092  -0.646  0.00  0.00     0.302 C 
BRANCH  22  23
ATOM     23  N   UNL d   1      -0.167   7.203  -0.208  0.00  0.00     0.094 N 
ATOM     24  C   UNL d   1       0.666   8.389   0.125  0.00  0.00     0.298 C 
ATOM     25  C   UNL d   1       1.487   8.230   1.423  0.00  0.00     0.198 C 
ATOM     26  O   UNL d   1       0.661   7.875   2.541  0.00  0.00    -0.388 OA
ATOM     27  C   UNL d   1      -0.120   6.706   2.267  0.00  0.00     0.198 C 
ATOM     28  C   UNL d   1      -0.968   6.892   0.999  0.00  0.00     0.298 C 
ENDBRANCH  22  23
ENDBRANCH  21  22
ENDBRANCH   2  21
TORSDOF 5
