REMARK  7 active torsions:
REMARK  status: ('A' for Active; 'I' for Inactive)
REMARK    1  A    between atoms: C_6  and  C_2 
REMARK    2  A    between atoms: C_3  and  C_4 
REMARK    3  A    between atoms: C_14  and  C_5 
REMARK       I    between atoms: N_12  and  C_6 
REMARK    4  A    between atoms: C_7  and  N_13 
REMARK    5  A    between atoms: N_11  and  C_7 
REMARK    6  A    between atoms: C_8  and  N_11 
REMARK    7  A    between atoms: N_13  and  N_12 
ROOT
ATOM      1  C   UNL d   1      -0.297   2.499   0.497  0.00  0.00     0.277 C 
ATOM      2  N   UNL d   1      -1.550   3.075   0.671  0.00  0.00    -0.263 N 
ATOM      3  O   UNL d   1      -0.181   1.365   0.037  0.00  0.00    -0.265 OA
ATOM      4  H   UNL d   1      -1.677   3.967   1.133  0.00  0.00     0.190 HD
ENDROOT
BRANCH   2   5
ATOM      5  N   UNL d   1      -2.701   2.283   0.552  0.00  0.00    -0.273 N 
ATOM      6  H   UNL d   1      -2.533   1.280   0.441  0.00  0.00     0.189 HD
BRANCH   5   7
ATOM      7  C   UNL d   1      -3.857   2.803   0.018  0.00  0.00     0.191 C 
ATOM      8  S   UNL d   1      -4.035   4.362  -0.565  0.00  0.00    -0.039 SA
BRANCH   7   9
ATOM      9  N   UNL d   1      -4.924   1.945  -0.047  0.00  0.00    -0.331 N 
ATOM     10  H   UNL d   1      -5.617   2.205  -0.746  0.00  0.00     0.168 HD
BRANCH   9  11
ATOM     11  C   UNL d   1      -5.311   0.951   0.885  0.00  0.00     0.049 A 
ATOM     12  C   UNL d   1      -6.279  -0.010   0.539  0.00  0.00     0.074 A 
ATOM     13  C   UNL d   1      -6.741  -0.905   1.530  0.00  0.00     0.018 A 
ATOM     14  C   UNL d   1      -6.254  -0.854   2.834  0.00  0.00     0.001 A 
ATOM     15  C   UNL d   1      -5.289   0.086   3.167  0.00  0.00     0.002 A 
ATOM     16  C   UNL d   1      -4.824   0.981   2.202  0.00  0.00     0.030 A 
BRANCH  12  17
ATOM     17  C   UNL d   1      -6.820  -0.192  -0.857  0.00  0.00     0.419 C 
ATOM     18  F   UNL d   1      -6.390   0.733  -1.760  0.00  0.00    -0.166 F 
ATOM     19  F   UNL d   1      -6.491  -1.406  -1.382  0.00  0.00    -0.166 F 
ATOM     20  F   UNL d   1      -8.181  -0.130  -0.897  0.00  0.00    -0.166 F 
ENDBRANCH  12  17
ENDBRANCH   9  11
ENDBRANCH   7   9
ENDBRANCH   5   7
ENDBRANCH   2   5
BRANCH   1  21
ATOM     21  C   UNL d   1       0.802   3.332   0.977  0.00  0.00     0.075 C 
ATOM     22  S   UNL d   1       2.334   2.616   1.253  0.00  0.00    -0.084 SA
ATOM     23  C   UNL d   1       2.978   4.039   1.971  0.00  0.00     0.016 C 
ATOM     24  C   UNL d   1       2.065   5.075   1.885  0.00  0.00     0.021 C 
ATOM     25  C   UNL d   1       0.825   4.675   1.305  0.00  0.00     0.026 C 
BRANCH  23  26
ATOM     26  C   UNL d   1       4.331   4.054   2.559  0.00  0.00    -0.019 A 
ATOM     27  C   UNL d   1       5.101   5.229   2.531  0.00  0.00     0.014 A 
ATOM     28  C   UNL d   1       6.366   5.278   3.129  0.00  0.00     0.024 A 
ATOM     29  C   UNL d   1       6.877   4.148   3.761  0.00  0.00     0.034 A 
ATOM     30  C   UNL d   1       6.136   2.972   3.799  0.00  0.00     0.024 A 
ATOM     31 CL   UNL d   1       8.426   4.209   4.507  0.00  0.00    -0.084 Cl
ATOM     32  C   UNL d   1       4.870   2.927   3.204  0.00  0.00     0.014 A 
ENDBRANCH  23  26
ENDBRANCH   1  21
TORSDOF 7
