REMARK  10 active torsions:
REMARK  status: ('A' for Active; 'I' for Inactive)
REMARK    1  A    between atoms: C_8  and  N_1 
REMARK    2  A    between atoms: S_11  and  C_2 
REMARK    3  A    between atoms: C_13  and  C_7 
REMARK    4  A    between atoms: C_16  and  S_11 
REMARK    5  A    between atoms: C_12  and  C_16 
REMARK       I    between atoms: N_14  and  C_12 
REMARK    6  A    between atoms: C_18  and  C_13 
REMARK    7  A    between atoms: C_20  and  N_14 
REMARK    8  A    between atoms: S_17  and  C_18 
REMARK    9  A    between atoms: C_19  and  S_17 
REMARK   10  A    between atoms: O_26  and  C_21 
ROOT
ATOM      1  N   UNL d   1      -0.447  -1.440  -0.177  0.00  0.00    -0.310 N 
ATOM      2  C   UNL d   1       0.774  -0.981  -0.608  0.00  0.00     0.163 C 
ATOM      3  N   UNL d   1       0.812   0.325  -0.471  0.00  0.00    -0.278 N 
ATOM      4  HN  UNL d   1       1.620   0.923  -0.646  1.00  0.00     0.189 HD
ATOM      5  N   UNL d   1      -0.419   0.743  -0.055  0.00  0.00    -0.287 N 
ATOM      6  HN  UNL d   1      -0.684   1.707   0.147  1.00  0.00     0.188 HD
ATOM      7  C   UNL d   1      -1.210  -0.311   0.044  0.00  0.00     0.101 C 
ENDROOT
BRANCH   2   8
ATOM      8  S   UNL d   1       2.109  -1.942  -1.186  0.00  0.00    -0.083 SA
BRANCH   8   9
ATOM      9  C   UNL d   1       3.332  -0.605  -1.305  0.00  0.00     0.185 C 
BRANCH   9  10
ATOM     10  C   UNL d   1       4.662  -0.910  -1.965  0.00  0.00     0.231 C 
ATOM     11  N   UNL d   1       4.821  -2.130  -2.585  0.00  0.00    -0.327 N 
ATOM     12  H   UNL d   1       4.003  -2.733  -2.619  0.00  0.00     0.169 HD
ATOM     13  O   UNL d   1       5.512  -0.014  -1.955  0.00  0.00    -0.272 OA
BRANCH  11  14
ATOM     14  C   UNL d   1       5.970  -2.557  -3.299  0.00  0.00     0.034 A 
ATOM     15  C   UNL d   1       7.196  -1.887  -3.260  0.00  0.00     0.029 A 
ATOM     16  C   UNL d   1       8.278  -2.318  -4.035  0.00  0.00     0.002 A 
ATOM     17  C   UNL d   1       8.150  -3.432  -4.853  0.00  0.00     0.000 A 
ATOM     18  C   UNL d   1       6.943  -4.130  -4.876  0.00  0.00     0.002 A 
ATOM     19  C   UNL d   1       5.863  -3.702  -4.097  0.00  0.00     0.029 A 
ENDBRANCH  11  14
ENDBRANCH   9  10
ENDBRANCH   8   9
ENDBRANCH   2   8
BRANCH   1  20
ATOM     20  C   UNL d   1      -0.787  -2.826   0.048  0.00  0.00     0.093 A 
ATOM     21  C   UNL d   1      -1.938  -3.357   0.868  0.00  0.00     0.028 A 
ATOM     22  C   UNL d   1      -0.541  -3.458   1.405  0.00  0.00     0.028 A 
ENDBRANCH   1  20
BRANCH   7  23
ATOM     23  C   UNL d   1      -2.700  -0.229   0.165  0.00  0.00     0.088 C 
BRANCH  23  24
ATOM     24  C   UNL d   1      -3.164   1.230   0.004  0.00  0.00     0.087 C 
BRANCH  24  25
ATOM     25  S   UNL d   1      -4.984   1.404   0.014  0.00  0.00    -0.130 SA
BRANCH  25  26
ATOM     26  C   UNL d   1      -5.104   3.192  -0.031  0.00  0.00     0.000 A 
ATOM     27  C   UNL d   1      -4.571   3.936  -1.087  0.00  0.00     0.021 A 
ATOM     28  C   UNL d   1      -4.651   5.338  -1.088  0.00  0.00     0.038 A 
ATOM     29  C   UNL d   1      -5.271   6.006  -0.034  0.00  0.00     0.068 A 
ATOM     30  C   UNL d   1      -5.830   5.259   1.006  0.00  0.00     0.038 A 
ATOM     31  C   UNL d   1      -5.754   3.861   1.008  0.00  0.00     0.021 A 
BRANCH  29  32
ATOM     32  O   UNL d   1      -5.396   7.361   0.102  0.00  0.00    -0.356 OA
ATOM     33  C   UNL d   1      -4.782   8.170  -0.895  0.00  0.00     0.210 C 
ENDBRANCH  29  32
ENDBRANCH  25  26
ENDBRANCH  24  25
ENDBRANCH  23  24
ENDBRANCH   7  23
TORSDOF 10
