REMARK  3 active torsions:
REMARK  status: ('A' for Active; 'I' for Inactive)
REMARK       I    between atoms: N_4  and  C_1 
REMARK       I    between atoms: N_8  and  C_1 
REMARK    1  A    between atoms: N_2  and  N_4 
REMARK    2  A    between atoms: C_9  and  C_6 
REMARK    3  A    between atoms: C_7  and  C_9 
ROOT
ATOM      1  N   UNL d   1       1.130  -1.463  -3.598  0.00  0.00    -0.305 N 
ATOM      2  HN  UNL d   1       0.570  -2.307  -3.483  1.00  0.00     0.186 HD
ATOM      3  C   UNL d   1       0.548  -0.301  -3.677  0.00  0.00     0.000 C 
ATOM      4  C   UNL d   1       1.226   1.038  -3.871  0.00  0.00     0.065 C 
ENDROOT
BRANCH   1   5
ATOM      5  N   UNL d   1       2.488  -1.549  -3.670  0.00  0.00    -0.252 N 
ATOM      6  C   UNL d   1       3.141  -2.756  -3.614  0.00  0.00     0.332 C 
ATOM      7  O   UNL d   1       4.358  -2.858  -3.689  0.00  0.00    -0.246 OA
ATOM      8  N   UNL d   1       2.325  -3.828  -3.466  0.00  0.00    -0.351 N 
ATOM      9  H   UNL d   1       1.330  -3.649  -3.492  0.00  0.00     0.160 HD
ATOM     10  H   UNL d   1       2.707  -4.758  -3.475  0.00  0.00     0.160 HD
ATOM     11  H   UNL d   1       3.082  -0.739  -3.772  0.00  0.00     0.191 HD
ENDBRANCH   1   5
BRANCH   3  12
ATOM     12  C   UNL d   1      -0.980  -0.296  -3.598  0.00  0.00     0.062 C 
BRANCH  12  13
ATOM     13  C   UNL d   1      -1.585  -0.236  -2.173  0.00  0.00    -0.046 C 
ATOM     14  C   UNL d   1      -1.238   1.083  -1.466  0.00  0.00     0.015 C 
ATOM     15  C   UNL d   1      -3.119  -0.323  -2.305  0.00  0.00     0.015 C 
ATOM     16  C   UNL d   1      -1.109  -1.412  -1.305  0.00  0.00     0.015 C 
ENDBRANCH  12  13
ENDBRANCH   3  12
TORSDOF 3
