REMARK  4 active torsions:
REMARK  status: ('A' for Active; 'I' for Inactive)
REMARK    1  A    between atoms: S_2  and  C_1 
REMARK    2  A    between atoms: N_14  and  S_2 
REMARK    3  A    between atoms: C_8  and  C_18 
REMARK    4  A    between atoms: C_19  and  N_14 
ROOT
ATOM      1  C   UNL d   1       2.978   0.844   5.287  0.00  0.00    -0.008 A 
ATOM      2  C   UNL d   1       3.586  -0.167   2.733  0.00  0.00     0.022 A 
ATOM      3  C   UNL d   1       1.973   0.661   4.325  0.00  0.00     0.015 A 
ATOM      4  C   UNL d   1       4.296   0.507   4.948  0.00  0.00     0.015 A 
ATOM      5  C   UNL d   1       4.597  -0.006   3.680  0.00  0.00     0.025 A 
ATOM      6  C   UNL d   1       2.272   0.155   3.057  0.00  0.00     0.025 A 
ENDROOT
BRANCH   2   7
ATOM      7  N   UNL d   1       3.889  -0.733   1.458  0.00  0.00    -0.180 NA
ATOM      8  H   UNL d   1       3.263  -0.425   0.711  0.00  0.00     0.146 HD
BRANCH   7   9
ATOM      9  S   UNL d   1       3.943  -2.435   1.397  0.00  0.00     0.263 S 
ATOM     10  O   UNL d   1       4.725  -2.951   2.503  0.00  0.00    -0.204 OA
ATOM     11  O   UNL d   1       4.232  -2.801   0.027  0.00  0.00    -0.204 OA
BRANCH   9  12
ATOM     12  C   UNL d   1       2.323  -3.044   1.657  0.00  0.00     0.161 A 
ATOM     13  N   UNL d   1       1.205  -2.528   1.013  0.00  0.00    -0.335 N 
ATOM     14  C   UNL d   1       0.192  -3.278   1.409  0.00  0.00     0.079 A 
ATOM     15  HN  UNL d   1       1.173  -1.737   0.370  1.00  0.00     0.168 HD
ATOM     16  C   UNL d   1      -1.214  -3.171   0.936  0.00  0.00     0.089 C 
ATOM     17  N   UNL d   1       0.611  -4.218   2.323  0.00  0.00    -0.348 N 
ATOM     18  C   UNL d   1       1.959  -4.076   2.496  0.00  0.00     0.135 A 
ATOM     19  C   UNL d   1      -0.214  -5.210   2.969  0.00  0.00     0.156 C 
ENDBRANCH   9  12
ENDBRANCH   7   9
ENDBRANCH   2   7
BRANCH   1  20
ATOM     20  C   UNL d   1       2.613   1.351   6.605  0.00  0.00     0.060 A 
ATOM     21  N   UNL d   1       1.308   1.701   6.934  0.00  0.00    -0.335 N 
ATOM     22  C   UNL d   1       1.381   2.048   8.187  0.00  0.00     0.147 A 
ATOM     23  HN  UNL d   1       0.484   1.690   6.333  1.00  0.00     0.168 HD
ATOM     24  S   UNL d   1       0.233   2.566   9.351  0.00  0.00    -0.092 SA
ATOM     25  N   UNL d   1       2.637   1.951   8.681  0.00  0.00    -0.335 N 
ATOM     26  C   UNL d   1       1.559   2.928  10.573  0.00  0.00     0.102 C 
ATOM     27  C   UNL d   1       2.819   2.202  10.090  0.00  0.00     0.141 C 
ATOM     28  C   UNL d   1       3.458   1.514   7.697  0.00  0.00     0.123 A 
ENDBRANCH   1  20
TORSDOF 4
