REMARK  7 active torsions:
REMARK  status: ('A' for Active; 'I' for Inactive)
REMARK    1  A    between atoms: N_8  and  C_1 
REMARK    2  A    between atoms: C_6  and  C_3 
REMARK    3  A    between atoms: C_12  and  C_11 
REMARK    4  A    between atoms: O_25  and  C_12 
REMARK    5  A    between atoms: C_22  and  N_13 
REMARK    6  A    between atoms: C_26  and  C_22 
REMARK    7  A    between atoms: C_27  and  O_25 
ROOT
ATOM      1  C   UNL d   1      -1.122  -1.457  -0.137  0.00  0.00     0.045 A 
ATOM      2  C   UNL d   1      -1.129  -0.852  -1.424  0.00  0.00     0.018 A 
ATOM      3  C   UNL d   1      -1.091   0.778   0.803  0.00  0.00     0.119 A 
ATOM      4  N   UNL d   1      -1.110   1.351  -0.427  0.00  0.00    -0.352 N 
ATOM      5  HN  UNL d   1      -1.111   2.366  -0.527  1.00  0.00     0.166 HD
ATOM      6  C   UNL d   1      -1.119  -0.604   0.973  0.00  0.00     0.064 A 
ATOM      7  C   UNL d   1      -1.128   0.560  -1.505  0.00  0.00     0.045 A 
ATOM      8  C   UNL d   1      -1.068  -1.583  -2.629  0.00  0.00     0.033 A 
ATOM      9  C   UNL d   1      -1.073  -0.962  -3.880  0.00  0.00     0.040 A 
ATOM     10  C   UNL d   1      -1.100   1.168  -2.756  0.00  0.00     0.031 A 
ATOM     11  C   UNL d   1      -1.085   0.428  -3.943  0.00  0.00     0.020 A 
ENDROOT
BRANCH   1  12
ATOM     12  N   UNL d   1      -1.006  -2.838   0.030  0.00  0.00    -0.377 N 
ATOM     13  C   UNL d   1      -0.271  -3.366   1.194  0.00  0.00     0.153 C 
ATOM     14  C   UNL d   1       0.325  -4.745   0.839  0.00  0.00     0.292 C 
ATOM     15  N   UNL d   1      -0.658  -5.749   0.364  0.00  0.00     0.095 N 
ATOM     16  C   UNL d   1      -1.427  -5.146  -0.760  0.00  0.00     0.292 C 
ATOM     17  C   UNL d   1      -2.058  -3.752  -0.463  0.00  0.00     0.153 C 
BRANCH  15  18
ATOM     18  C   UNL d   1      -1.578  -6.208   1.418  0.00  0.00     0.311 C 
BRANCH  18  19
ATOM     19  C   UNL d   1      -0.906  -6.805   2.635  0.00  0.00    -0.030 A 
ATOM     20  C   UNL d   1      -1.046  -6.192   3.890  0.00  0.00     0.009 A 
ATOM     21  C   UNL d   1      -0.457  -6.752   5.024  0.00  0.00     0.001 A 
ATOM     22  C   UNL d   1       0.279  -7.930   4.916  0.00  0.00     0.000 A 
ATOM     23  C   UNL d   1       0.433  -8.544   3.674  0.00  0.00     0.001 A 
ATOM     24  C   UNL d   1      -0.153  -7.983   2.537  0.00  0.00     0.009 A 
ENDBRANCH  18  19
ENDBRANCH  15  18
ENDBRANCH   1  12
BRANCH   3  25
ATOM     25  C   UNL d   1      -1.002   1.658   2.041  0.00  0.00     0.432 C 
ATOM     26  F   UNL d   1      -0.867   2.989   1.783  0.00  0.00    -0.165 F 
ATOM     27  F   UNL d   1      -2.102   1.542   2.842  0.00  0.00    -0.165 F 
ATOM     28  F   UNL d   1       0.059   1.326   2.837  0.00  0.00    -0.165 F 
ENDBRANCH   3  25
BRANCH   9  29
ATOM     29  C   UNL d   1      -0.990  -1.841  -5.073  0.00  0.00     0.293 C 
ATOM     30  O   UNL d   1      -1.055  -3.057  -5.016  0.00  0.00    -0.259 OA
BRANCH  29  31
ATOM     31  O   UNL d   1      -0.708  -1.102  -6.171  0.00  0.00    -0.318 OA
BRANCH  31  32
ATOM     32  C   UNL d   1      -0.143  -1.843  -7.259  0.00  0.00     0.174 C 
ATOM     33  C   UNL d   1       1.362  -1.861  -7.068  0.00  0.00     0.034 C 
ENDBRANCH  31  32
ENDBRANCH  29  31
ENDBRANCH   9  29
TORSDOF 7
