REMARK  8 active torsions:
REMARK  status: ('A' for Active; 'I' for Inactive)
REMARK    1  A    between atoms: N_2  and  S_1 
REMARK    2  A    between atoms: C_3  and  S_1 
REMARK    3  A    between atoms: N_4  and  N_2 
REMARK       I    between atoms: C_5  and  N_4 
REMARK    4  A    between atoms: C_9  and  C_5 
REMARK    5  A    between atoms: C_14  and  C_9 
REMARK    6  A    between atoms: S_12  and  C_14 
REMARK    7  A    between atoms: C_13  and  S_12 
REMARK    8  A    between atoms: O_21  and  C_15 
ROOT
ATOM      1  N   UNL d   1       0.348  -1.693  -2.022  0.00  0.00    -0.260 N 
ATOM      2  C   UNL d   1       0.600  -3.023  -2.260  0.00  0.00     0.237 C 
ATOM      3  O   UNL d   1       1.565  -3.398  -2.927  0.00  0.00    -0.272 OA
ATOM      4  H   UNL d   1      -0.403  -1.375  -1.405  0.00  0.00     0.190 HD
ENDROOT
BRANCH   1   5
ATOM      5  N   UNL d   1       1.325  -0.707  -2.459  0.00  0.00    -0.220 N 
ATOM      6  H   UNL d   1       2.185  -1.083  -2.876  0.00  0.00     0.200 HD
BRANCH   5   7
ATOM      7  S   UNL d   1       1.442   0.708  -1.540  0.00  0.00     0.276 S 
ATOM      8  O   UNL d   1       2.136   0.357  -0.320  0.00  0.00    -0.199 OA
ATOM      9  O   UNL d   1       0.133   1.328  -1.506  0.00  0.00    -0.199 OA
BRANCH   7  10
ATOM     10  C   UNL d   1       2.508   1.726  -2.520  0.00  0.00     0.082 A 
ATOM     11  C   UNL d   1       2.067   2.167  -3.771  0.00  0.00     0.049 A 
ATOM     12  C   UNL d   1       2.886   3.013  -4.516  0.00  0.00     0.035 A 
ATOM     13 CL   UNL d   1       2.363   3.570  -6.057  0.00  0.00    -0.084 Cl
ATOM     14  C   UNL d   1       4.126   3.421  -4.020  0.00  0.00     0.024 A 
ATOM     15  C   UNL d   1       4.557   2.979  -2.768  0.00  0.00     0.003 A 
ATOM     16  C   UNL d   1       3.748   2.129  -2.013  0.00  0.00     0.025 A 
ENDBRANCH   7  10
ENDBRANCH   5   7
ENDBRANCH   1   5
BRANCH   2  17
ATOM     17  C   UNL d   1      -0.423  -3.998  -1.710  0.00  0.00     0.115 C 
BRANCH  17  18
ATOM     18  C   UNL d   1      -0.868  -3.757  -0.269  0.00  0.00     0.089 C 
BRANCH  18  19
ATOM     19  S   UNL d   1      -2.049  -2.359  -0.142  0.00  0.00    -0.130 SA
BRANCH  19  20
ATOM     20  C   UNL d   1      -2.379  -2.290   1.613  0.00  0.00     0.000 A 
ATOM     21  C   UNL d   1      -2.577  -1.037   2.203  0.00  0.00     0.021 A 
ATOM     22  C   UNL d   1      -2.913  -0.921   3.560  0.00  0.00     0.038 A 
ATOM     23  C   UNL d   1      -3.059  -2.065   4.342  0.00  0.00     0.068 A 
ATOM     24  C   UNL d   1      -2.853  -3.315   3.759  0.00  0.00     0.038 A 
ATOM     25  C   UNL d   1      -2.523  -3.430   2.405  0.00  0.00     0.021 A 
BRANCH  23  26
ATOM     26  O   UNL d   1      -3.401  -2.103   5.665  0.00  0.00    -0.356 OA
ATOM     27  C   UNL d   1      -3.742  -0.867   6.279  0.00  0.00     0.210 C 
ENDBRANCH  23  26
ENDBRANCH  19  20
ENDBRANCH  18  19
ENDBRANCH  17  18
ENDBRANCH   2  17
TORSDOF 8
