REMARK  6 active torsions:
REMARK  status: ('A' for Active; 'I' for Inactive)
REMARK       I    between atoms: N_2  and  C_1 
REMARK    1  A    between atoms: O_5  and  C_1 
REMARK    2  A    between atoms: C_4  and  N_2 
REMARK    3  A    between atoms: C_3  and  C_4 
REMARK       I    between atoms: N_9  and  C_3 
REMARK    4  A    between atoms: C_10  and  C_4 
REMARK    5  A    between atoms: C_8  and  O_5 
REMARK    6  A    between atoms: C_15  and  C_10 
ROOT
ATOM      1  C   UNL d   1       0.868  -1.371   2.067  0.00  0.00     0.161 C 
ENDROOT
BRANCH   1   2
ATOM      2  C   UNL d   1       1.847  -0.354   2.729  0.00  0.00     0.235 C 
ATOM      3  O   UNL d   1       1.931   0.810   2.328  0.00  0.00    -0.272 OA
ATOM      4  N   UNL d   1       2.604  -0.825   3.780  0.00  0.00    -0.364 N 
ATOM      5  C   UNL d   1       3.427   0.050   4.580  0.00  0.00     0.149 C 
ATOM      6  H   UNL d   1       2.632  -1.816   3.976  0.00  0.00     0.161 HD
ENDBRANCH   1   2
BRANCH   1   7
ATOM      7  N   UNL d   1       0.184  -0.621   1.003  0.00  0.00    -0.224 NA
ATOM      8  C   UNL d   1      -0.056  -1.130  -0.243  0.00  0.00     0.339 C 
ATOM      9  O   UNL d   1       0.300  -0.531  -1.249  0.00  0.00    -0.245 OA
ATOM     10  H   UNL d   1       0.598   0.304   0.892  0.00  0.00     0.133 HD
BRANCH   8  11
ATOM     11  O   UNL d   1      -0.781  -2.267  -0.217  0.00  0.00    -0.298 OA
BRANCH  11  12
ATOM     12  C   UNL d   1      -1.312  -2.865  -1.433  0.00  0.00     0.061 C 
ATOM     13  C   UNL d   1      -0.198  -3.601  -2.176  0.00  0.00     0.046 C 
ATOM     14  C   UNL d   1      -2.356  -3.887  -0.949  0.00  0.00     0.046 C 
ATOM     15  C   UNL d   1      -2.036  -1.863  -2.346  0.00  0.00     0.046 C 
ENDBRANCH  11  12
ENDBRANCH   8  11
ENDBRANCH   1   7
BRANCH   1  16
ATOM     16  C   UNL d   1      -0.059  -2.067   3.102  0.00  0.00     0.008 C 
ATOM     17  C   UNL d   1      -0.768  -3.291   2.507  0.00  0.00     0.012 C 
BRANCH  16  18
ATOM     18  C   UNL d   1      -1.120  -1.173   3.777  0.00  0.00     0.002 C 
ATOM     19  C   UNL d   1      -0.573  -0.073   4.672  0.00  0.00     0.005 C 
ENDBRANCH  16  18
ENDBRANCH   1  16
TORSDOF 6
