REMARK  5 active torsions:
REMARK  status: ('A' for Active; 'I' for Inactive)
REMARK    1  A    between atoms: N_5  and  C_1 
REMARK    2  A    between atoms: O_10  and  C_2 
REMARK    3  A    between atoms: C_6  and  N_5 
REMARK    4  A    between atoms: O_11  and  C_9 
REMARK    5  A    between atoms: C_14  and  O_10 
ROOT
ATOM      1  N   UNL d   1       1.665  -2.347  -0.128  0.00  0.00    -0.252 NA
ATOM      2  H   UNL d   1       2.537  -1.972  -0.532  0.00  0.00     0.134 HD
ENDROOT
BRANCH   1   3
ATOM      3  C   UNL d   1       0.652  -1.492  -0.138  0.00  0.00     0.105 A 
ATOM      4  C   UNL d   1      -0.722  -1.468  -0.053  0.00  0.00     0.148 A 
ATOM      5  C   UNL d   1      -0.747   0.011  -0.107  0.00  0.00     0.258 A 
ATOM      6  C   UNL d   1       0.722  -0.022  -0.288  0.00  0.00     0.248 A 
ATOM      7  O   UNL d   1      -1.539   0.920  -0.067  0.00  0.00    -0.281 OA
ATOM      8  O   UNL d   1       1.568   0.827  -0.416  0.00  0.00    -0.282 OA
BRANCH   4   9
ATOM      9  O   UNL d   1      -1.676  -2.323   0.059  0.00  0.00    -0.346 OA
BRANCH   9  10
ATOM     10  C   UNL d   1      -1.393  -3.601  -0.501  0.00  0.00     0.171 C 
ATOM     11  C   UNL d   1      -2.663  -4.433  -0.442  0.00  0.00     0.034 C 
ENDBRANCH   9  10
ENDBRANCH   4   9
ENDBRANCH   1   3
BRANCH   1  12
ATOM     12  C   UNL d   1       2.143  -2.929   1.098  0.00  0.00     0.046 A 
ATOM     13  C   UNL d   1       2.766  -4.186   1.054  0.00  0.00     0.087 A 
ATOM     14  C   UNL d   1       3.403  -4.724   2.167  0.00  0.00     0.038 A 
ATOM     15  C   UNL d   1       3.446  -3.990   3.352  0.00  0.00     0.003 A 
ATOM     16  C   UNL d   1       2.853  -2.729   3.414  0.00  0.00     0.002 A 
ATOM     17  C   UNL d   1       2.211  -2.196   2.291  0.00  0.00     0.026 A 
BRANCH  13  18
ATOM     18  O   UNL d   1       2.756  -4.916  -0.102  0.00  0.00    -0.359 OA
ATOM     19  H   UNL d   1       2.170  -4.430  -0.711  0.00  0.00     0.217 HD
ENDBRANCH  13  18
ENDBRANCH   1  12
TORSDOF 5
