REMARK  5 active torsions:
REMARK  status: ('A' for Active; 'I' for Inactive)
REMARK       I    between atoms: C_2  and  N_5 
REMARK    1  A    between atoms: C_9  and  C_2 
REMARK    2  A    between atoms: N_5  and  C_16 
REMARK    3  A    between atoms: C_13  and  N_6 
REMARK    4  A    between atoms: C_17  and  C_13 
REMARK    5  A    between atoms: O_25  and  C_18 
ROOT
ATOM      1  C   UNL d   1      -4.210  -3.619   3.199  0.00  0.00     0.035 A 
ATOM      2  C   UNL d   1      -3.056  -1.187   2.300  0.00  0.00    -0.030 A 
ATOM      3  C   UNL d   1      -3.150  -3.619   2.293  0.00  0.00     0.030 A 
ATOM      4  C   UNL d   1      -4.714  -2.383   3.628  0.00  0.00     0.030 A 
ATOM      5  C   UNL d   1      -4.142  -1.177   3.184  0.00  0.00     0.011 A 
ATOM      6  C   UNL d   1      -2.579  -2.423   1.851  0.00  0.00     0.011 A 
ENDROOT
BRANCH   1   7
ATOM      7  N   UNL d   1      -4.794  -4.802   3.711  0.00  0.00    -0.323 N 
ATOM      8  C   UNL d   1      -4.392  -6.104   3.437  0.00  0.00     0.256 C 
ATOM      9  O   UNL d   1      -3.482  -6.444   2.685  0.00  0.00    -0.267 OA
ATOM     10  H   UNL d   1      -5.595  -4.676   4.314  0.00  0.00     0.169 HD
BRANCH   8  11
ATOM     11  C   UNL d   1      -5.165  -7.195   4.094  0.00  0.00     0.032 A 
ATOM     12  C   UNL d   1      -5.278  -8.421   3.418  0.00  0.00     0.020 A 
ATOM     13  C   UNL d   1      -6.017  -9.475   3.966  0.00  0.00     0.038 A 
ATOM     14  C   UNL d   1      -6.645  -9.316   5.200  0.00  0.00     0.068 A 
ATOM     15  C   UNL d   1      -6.485  -8.114   5.899  0.00  0.00     0.038 A 
ATOM     16  C   UNL d   1      -5.747  -7.056   5.356  0.00  0.00     0.020 A 
BRANCH  14  17
ATOM     17  O   UNL d   1      -7.421 -10.247   5.831  0.00  0.00    -0.356 OA
ATOM     18  C   UNL d   1      -7.743 -11.422   5.094  0.00  0.00     0.210 C 
ENDBRANCH  14  17
ENDBRANCH   8  11
ENDBRANCH   1   7
BRANCH   2  19
ATOM     19  C   UNL d   1      -2.409   0.085   1.796  0.00  0.00     0.311 C 
BRANCH  19  20
ATOM     20  N   UNL d   1      -1.800   0.933   2.836  0.00  0.00     0.094 N 
ATOM     21  C   UNL d   1      -0.768   0.272   3.654  0.00  0.00     0.287 C 
ATOM     22  C   UNL d   1       0.492  -0.137   2.915  0.00  0.00     0.170 C 
ATOM     23  S   UNL d   1       1.248   1.263   2.129  0.00  0.00     0.147 S 
ATOM     24  C   UNL d   1      -0.115   2.073   1.332  0.00  0.00     0.170 C 
ATOM     25  O   UNL d   1       2.128   0.763   1.090  0.00  0.00    -0.228 OA
ATOM     26  O   UNL d   1       1.758   2.147   3.160  0.00  0.00    -0.228 OA
ATOM     27  C   UNL d   1      -1.292   2.204   2.286  0.00  0.00     0.287 C 
ENDBRANCH  19  20
ENDBRANCH   2  19
TORSDOF 5
