REMARK  6 active torsions:
REMARK  status: ('A' for Active; 'I' for Inactive)
REMARK    1  A    between atoms: C_2  and  C_1 
REMARK       I    between atoms: N_4  and  C_2 
REMARK    2  A    between atoms: C_3  and  N_4 
REMARK    3  A    between atoms: N_6  and  C_5 
REMARK    4  A    between atoms: C_7  and  C_8 
REMARK    5  A    between atoms: O_17  and  C_7 
REMARK    6  A    between atoms: C_20  and  O_17 
ROOT
ATOM      1  C   UNL d   1      -0.822  -0.209  -2.204  0.00  0.00     0.062 A 
ATOM      2  C   UNL d   1      -1.012  -1.264  -1.276  0.00  0.00     0.057 A 
ATOM      3  C   UNL d   1      -1.462  -1.673  -4.053  0.00  0.00     0.041 A 
ATOM      4  C   UNL d   1      -1.020  -0.431  -3.579  0.00  0.00     0.049 A 
ATOM      5  C   UNL d   1      -1.434  -2.507  -1.794  0.00  0.00     0.033 A 
ATOM      6  C   UNL d   1      -1.666  -2.715  -3.153  0.00  0.00     0.020 A 
ENDROOT
BRANCH   1   7
ATOM      7  N   UNL d   1      -0.383   1.054  -1.763  0.00  0.00    -0.321 N 
ATOM      8  C   UNL d   1      -0.551   2.307  -2.285  0.00  0.00     0.277 C 
ATOM      9  O   UNL d   1       0.416   3.070  -2.116  0.00  0.00    -0.268 OA
ATOM     10  H   UNL d   1       0.443   1.010  -1.182  0.00  0.00     0.169 HD
BRANCH   8  11
ATOM     11  C   UNL d   1      -1.873   2.815  -2.922  0.00  0.00     0.269 C 
ATOM     12 CL   UNL d   1      -3.266   1.718  -2.813  0.00  0.00    -0.073 Cl
ATOM     13 CL   UNL d   1      -1.552   3.258  -4.618  0.00  0.00    -0.073 Cl
ATOM     14 CL   UNL d   1      -2.338   4.307  -2.012  0.00  0.00    -0.073 Cl
ENDBRANCH   8  11
ENDBRANCH   1   7
BRANCH   2  15
ATOM     15  N   UNL d   1      -0.878  -1.192   0.112  0.00  0.00    -0.379 N 
ATOM     16  C   UNL d   1      -2.130  -1.366   0.873  0.00  0.00     0.123 C 
ATOM     17  C   UNL d   1      -1.808  -2.061   2.195  0.00  0.00     0.020 C 
ATOM     18  C   UNL d   1      -0.766  -1.273   2.985  0.00  0.00     0.003 C 
ATOM     19  C   UNL d   1       0.474  -0.999   2.137  0.00  0.00     0.020 C 
ATOM     20  C   UNL d   1       0.123  -0.369   0.787  0.00  0.00     0.123 C 
ENDBRANCH   2  15
BRANCH   3  21
ATOM     21  C   UNL d   1      -1.740  -1.819  -5.505  0.00  0.00     0.293 C 
ATOM     22  O   UNL d   1      -1.543  -0.930  -6.320  0.00  0.00    -0.259 OA
BRANCH  21  23
ATOM     23  O   UNL d   1      -2.308  -3.025  -5.753  0.00  0.00    -0.318 OA
BRANCH  23  24
ATOM     24  C   UNL d   1      -2.863  -3.203  -7.060  0.00  0.00     0.174 C 
ATOM     25  C   UNL d   1      -4.301  -2.717  -7.051  0.00  0.00     0.034 C 
ENDBRANCH  23  24
ENDBRANCH  21  23
ENDBRANCH   3  21
TORSDOF 6
