REMARK  9 active torsions:
REMARK  status: ('A' for Active; 'I' for Inactive)
REMARK    1  A    between atoms: C_6  and  N_1 
REMARK    2  A    between atoms: C_7  and  C_6 
REMARK    3  A    between atoms: C_8  and  C_7 
REMARK    4  A    between atoms: O_10  and  C_7 
REMARK    5  A    between atoms: N_9  and  C_8 
REMARK    6  A    between atoms: C_15  and  N_9 
REMARK    7  A    between atoms: C_16  and  N_9 
REMARK    8  A    between atoms: C_17  and  C_15 
REMARK    9  A    between atoms: C_18  and  C_16 
ROOT
ATOM      1  N   UNL d   1      -0.071  -1.156   0.534  0.00  0.00    -0.343 N 
ATOM      2  C   UNL d   1       0.280  -0.043   1.279  0.00  0.00     0.046 A 
ATOM      3  C   UNL d   1      -0.353  -0.738  -0.761  0.00  0.00     0.046 A 
ATOM      4  C   UNL d   1       0.747   0.908   0.355  0.00  0.00     0.003 A 
ATOM      5  C   UNL d   1       0.351   0.455  -0.937  0.00  0.00     0.003 A 
ATOM      6  C   UNL d   1       0.235   0.229   2.647  0.00  0.00     0.030 A 
ATOM      7  C   UNL d   1      -1.166  -1.258  -1.789  0.00  0.00     0.030 A 
ATOM      8  C   UNL d   1       0.391   1.067  -2.217  0.00  0.00     0.014 A 
ATOM      9  C   UNL d   1       1.300   2.107   0.832  0.00  0.00     0.014 A 
ATOM     10  C   UNL d   1      -1.190  -0.573  -3.017  0.00  0.00     0.002 A 
ATOM     11  C   UNL d   1       1.271   2.376   2.203  0.00  0.00     0.001 A 
ATOM     12  C   UNL d   1      -0.387   0.538  -3.247  0.00  0.00     0.001 A 
ATOM     13  C   UNL d   1       0.707   1.466   3.091  0.00  0.00     0.002 A 
ENDROOT
BRANCH   1  14
ATOM     14  C   UNL d   1      -0.285  -2.488   1.106  0.00  0.00     0.163 C 
BRANCH  14  15
ATOM     15  C   UNL d   1       0.851  -3.525   0.888  0.00  0.00     0.164 C 
BRANCH  15  16
ATOM     16  C   UNL d   1       2.130  -3.492   1.820  0.00  0.00     0.305 C 
BRANCH  16  17
ATOM     17  N   UNL d   1       2.051  -3.752   3.273  0.00  0.00     0.090 N 
BRANCH  17  18
ATOM     18  C   UNL d   1       1.410  -5.021   3.704  0.00  0.00     0.272 C 
BRANCH  18  19
ATOM     19  C   UNL d   1       2.172  -6.378   3.726  0.00  0.00     0.026 C 
ATOM     20  C   UNL d   1       2.511  -7.051   2.405  0.00  0.00     0.007 C 
ENDBRANCH  18  19
ENDBRANCH  17  18
BRANCH  17  21
ATOM     21  C   UNL d   1       3.315  -3.553   4.027  0.00  0.00     0.272 C 
BRANCH  21  22
ATOM     22  C   UNL d   1       4.279  -2.393   3.719  0.00  0.00     0.026 C 
ATOM     23  C   UNL d   1       3.748  -1.000   3.994  0.00  0.00     0.007 C 
ENDBRANCH  21  22
ENDBRANCH  17  21
ENDBRANCH  16  17
ENDBRANCH  15  16
BRANCH  15  24
ATOM     24  O   UNL d   1       0.250  -4.835   0.901  0.00  0.00    -0.392 OA
ATOM     25  H   UNL d   1       0.970  -5.485   0.954  0.00  0.00     0.210 HD
ENDBRANCH  15  24
ENDBRANCH  14  15
ENDBRANCH   1  14
TORSDOF 9
