REMARK  5 active torsions:
REMARK  status: ('A' for Active; 'I' for Inactive)
REMARK    1  A    between atoms: C_7  and  C_1 
REMARK    2  A    between atoms: C_10  and  N_4 
REMARK    3  A    between atoms: S_11  and  C_5 
REMARK    4  A    between atoms: N_12  and  C_7 
REMARK    5  A    between atoms: O_13  and  N_8 
ROOT
ATOM      1  C   UNL d   1      -2.074   2.927   0.035  0.00  0.00     0.056 A 
ATOM      2  N   UNL d   1      -4.012   4.127  -0.218  0.00  0.00    -0.287 N 
ATOM      3  HN  UNL d   1      -4.666   4.894  -0.376  1.00  0.00     0.188 HD
ATOM      4  N   UNL d   1      -4.303   2.817  -0.017  0.00  0.00    -0.266 N 
ATOM      5  C   UNL d   1      -2.682   4.190  -0.162  0.00  0.00     0.099 A 
ATOM      6  C   UNL d   1      -3.159   2.073   0.149  0.00  0.00     0.134 A 
ENDROOT
BRANCH   1   7
ATOM      7  C   UNL d   1      -0.687   2.522   0.136  0.00  0.00     0.112 C 
ATOM      8  N   UNL d   1      -0.395   1.458   0.817  0.00  0.00    -0.257 N 
ATOM      9  HN  UNL d   1      -1.077   0.858   1.281  1.00  0.00     0.195 HD
BRANCH   8  10
ATOM     10  O   UNL d   1       0.997   1.250   0.824  0.00  0.00    -0.289 OA
ATOM     11  H   UNL d   1       1.078   0.436   1.356  0.00  0.00     0.244 HD
ENDBRANCH   8  10
BRANCH   7  12
ATOM     12  N   UNL d   1       0.205   3.314  -0.525  0.00  0.00    -0.286 NA
ATOM     13  H   UNL d   1      -0.017   4.303  -0.571  0.00  0.00     0.125 HD
ATOM     14  H   UNL d   1       1.153   3.124  -0.222  0.00  0.00     0.125 HD
ENDBRANCH   7  12
ENDBRANCH   1   7
BRANCH   5  15
ATOM     15  S   UNL d   1      -1.833   5.723  -0.263  0.00  0.00    -0.114 SA
ATOM     16  C   UNL d   1      -3.177   6.892  -0.537  0.00  0.00     0.097 C 
ENDBRANCH   5  15
BRANCH   4  17
ATOM     17  C   UNL d   1      -5.654   2.361   0.012  0.00  0.00     0.056 A 
ATOM     18  C   UNL d   1      -5.964   1.022   0.290  0.00  0.00     0.031 A 
ATOM     19  C   UNL d   1      -7.300   0.605   0.321  0.00  0.00     0.002 A 
ATOM     20  C   UNL d   1      -8.327   1.514   0.072  0.00  0.00     0.000 A 
ATOM     21  C   UNL d   1      -8.025   2.844  -0.209  0.00  0.00     0.002 A 
ATOM     22  C   UNL d   1      -6.694   3.270  -0.237  0.00  0.00     0.031 A 
ENDBRANCH   4  17
TORSDOF 5
