REMARK  8 active torsions:
REMARK  status: ('A' for Active; 'I' for Inactive)
REMARK    1  A    between atoms: N_4  and  C_1 
REMARK    2  A    between atoms: N_6  and  C_1 
REMARK       I    between atoms: C_2  and  N_11 
REMARK    3  A    between atoms: O_12  and  C_2 
REMARK       I    between atoms: C_3  and  N_7 
REMARK    4  A    between atoms: C_16  and  C_3 
REMARK    5  A    between atoms: C_5  and  N_4 
REMARK    6  A    between atoms: N_7  and  N_6 
REMARK    7  A    between atoms: N_11  and  C_16 
REMARK    8  A    between atoms: C_15  and  O_12 
ROOT
ATOM      1  C   UNL d   1      -1.703  -1.326  -2.546  0.00  0.00     0.253 C 
ATOM      2  N   UNL d   1      -1.035  -0.152  -2.236  0.00  0.00    -0.267 N 
ATOM      3  O   UNL d   1      -1.124  -2.351  -2.908  0.00  0.00    -0.270 OA
ATOM      4  H   UNL d   1      -1.514   0.747  -2.235  0.00  0.00     0.190 HD
ENDROOT
BRANCH   1   5
ATOM      5  C   UNL d   1      -3.208  -1.267  -2.295  0.00  0.00     0.229 C 
BRANCH   5   6
ATOM      6  N   UNL d   1      -3.958  -2.028  -3.271  0.00  0.00    -0.328 N 
ATOM      7  C   UNL d   1      -4.822  -1.444  -4.139  0.00  0.00     0.361 C 
ATOM      8  O   UNL d   1      -5.029  -0.238  -4.195  0.00  0.00    -0.238 OA
ATOM      9  H   UNL d   1      -3.766  -3.014  -3.400  0.00  0.00     0.165 HD
BRANCH   7  10
ATOM     10  O   UNL d   1      -5.417  -2.390  -4.899  0.00  0.00    -0.294 OA
BRANCH  10  11
ATOM     11  C   UNL d   1      -6.400  -2.015  -5.902  0.00  0.00     0.061 C 
ATOM     12  C   UNL d   1      -5.768  -1.123  -6.979  0.00  0.00     0.046 C 
ATOM     13  C   UNL d   1      -6.840  -3.339  -6.547  0.00  0.00     0.046 C 
ATOM     14  C   UNL d   1      -7.631  -1.355  -5.267  0.00  0.00     0.046 C 
ENDBRANCH  10  11
ENDBRANCH   7  10
ENDBRANCH   5   6
ENDBRANCH   1   5
BRANCH   2  15
ATOM     15  N   UNL d   1       0.342  -0.122  -2.497  0.00  0.00    -0.274 N 
ATOM     16  H   UNL d   1       0.779  -1.034  -2.620  0.00  0.00     0.189 HD
BRANCH  15  17
ATOM     17  C   UNL d   1       0.982   1.017  -2.917  0.00  0.00     0.186 C 
ATOM     18  S   UNL d   1       0.357   2.564  -2.821  0.00  0.00    -0.040 SA
BRANCH  17  19
ATOM     19  N   UNL d   1       2.234   0.827  -3.449  0.00  0.00    -0.361 N 
ATOM     20  H   UNL d   1       2.685   1.678  -3.776  0.00  0.00     0.162 HD
BRANCH  19  21
ATOM     21  C   UNL d   1       2.726  -0.418  -3.954  0.00  0.00     0.084 A 
ATOM     22  C   UNL d   1       3.423  -1.405  -3.061  0.00  0.00     0.027 A 
ATOM     23  C   UNL d   1       4.200  -0.662  -4.107  0.00  0.00     0.027 A 
ENDBRANCH  19  21
ENDBRANCH  17  19
ENDBRANCH  15  17
ENDBRANCH   2  15
TORSDOF 8
