REMARK  5 active torsions:
REMARK  status: ('A' for Active; 'I' for Inactive)
REMARK    1  A    between atoms: N_2  and  S_1 
REMARK    2  A    between atoms: C_5  and  S_1 
REMARK    3  A    between atoms: C_3  and  N_2 
REMARK    4  A    between atoms: C_9  and  C_4 
REMARK    5  A    between atoms: O_16  and  C_9 
ROOT
ATOM      1  S   UNL d   1       1.910  -1.383   0.289  0.00  0.00     0.242 S 
ATOM      2  O   UNL d   1       2.534  -2.683   0.272  0.00  0.00    -0.206 OA
ATOM      3  O   UNL d   1       1.297  -0.895   1.506  0.00  0.00    -0.206 OA
ENDROOT
BRANCH   1   4
ATOM      4  N   UNL d   1       0.739  -1.329  -0.931  0.00  0.00    -0.209 NA
ATOM      5  H   UNL d   1       0.086  -0.577  -0.663  0.00  0.00     0.140 HD
BRANCH   4   6
ATOM      6  C   UNL d   1       1.083  -1.308  -2.372  0.00  0.00     0.088 C 
ATOM      7  C   UNL d   1       1.711  -2.613  -2.949  0.00  0.00    -0.026 C 
ATOM      8  C   UNL d   1       1.412  -2.457  -4.452  0.00  0.00     0.016 C 
ATOM      9  C   UNL d   1       0.835  -3.830  -2.588  0.00  0.00     0.011 C 
ATOM     10  C   UNL d   1       3.200  -2.823  -2.763  0.00  0.00     0.017 C 
ATOM     11  C   UNL d   1      -0.092  -2.343  -4.249  0.00  0.00    -0.004 C 
ATOM     12  C   UNL d   1      -0.206  -1.123  -3.279  0.00  0.00    -0.026 C 
ATOM     13  C   UNL d   1      -0.364  -3.682  -3.535  0.00  0.00     0.006 C 
ATOM     14  C   UNL d   1      -1.572  -1.089  -2.573  0.00  0.00     0.017 C 
ATOM     15  C   UNL d   1      -0.099   0.198  -4.078  0.00  0.00     0.017 C 
ENDBRANCH   4   6
ENDBRANCH   1   4
BRANCH   1  16
ATOM     16  C   UNL d   1       3.113  -0.173  -0.208  0.00  0.00     0.090 A 
ATOM     17  C   UNL d   1       2.800   1.190  -0.206  0.00  0.00     0.062 A 
ATOM     18  C   UNL d   1       3.772   2.120  -0.613  0.00  0.00     0.019 A 
ATOM     19  C   UNL d   1       5.035   1.690  -1.026  0.00  0.00     0.001 A 
ATOM     20  C   UNL d   1       5.348   0.334  -1.010  0.00  0.00     0.002 A 
ATOM     21  C   UNL d   1       4.401  -0.594  -0.573  0.00  0.00     0.026 A 
BRANCH  17  22
ATOM     22  C   UNL d   1       1.452   1.692   0.133  0.00  0.00     0.294 C 
ATOM     23  O   UNL d   1       0.418   1.217  -0.314  0.00  0.00    -0.259 OA
BRANCH  22  24
ATOM     24  O   UNL d   1       1.578   2.745   0.968  0.00  0.00    -0.322 OA
ATOM     25  C   UNL d   1       0.358   3.337   1.423  0.00  0.00     0.213 C 
ENDBRANCH  22  24
ENDBRANCH  17  22
ENDBRANCH   1  16
TORSDOF 5
