REMARK  9 active torsions:
REMARK  status: ('A' for Active; 'I' for Inactive)
REMARK    1  A    between atoms: C_2  and  C_1 
REMARK    2  A    between atoms: C_3  and  N_11 
REMARK    3  A    between atoms: N_13  and  C_3 
REMARK    4  A    between atoms: N_11  and  N_6 
REMARK    5  A    between atoms: C_17  and  C_8 
REMARK    6  A    between atoms: C_26  and  N_13 
REMARK    7  A    between atoms: C_14  and  C_16 
REMARK    8  A    between atoms: O_23  and  C_17 
REMARK    9  A    between atoms: C_25  and  O_23 
ROOT
ATOM      1  C   UNL d   1      -1.005  11.786   4.158  0.00  0.00    -0.012 A 
ATOM      2  C   UNL d   1      -1.381  13.088   4.504  0.00  0.00     0.016 A 
ATOM      3  C   UNL d   1      -0.722  10.860   5.169  0.00  0.00     0.016 A 
ATOM      4  C   UNL d   1      -1.125  12.554   6.856  0.00  0.00     0.069 A 
ATOM      5  C   UNL d   1      -1.425  13.469   5.846  0.00  0.00     0.037 A 
ATOM      6  C   UNL d   1      -0.785  11.244   6.518  0.00  0.00     0.037 A 
ENDROOT
BRANCH   1   7
ATOM      7  C   UNL d   1      -0.843  11.468   2.705  0.00  0.00     0.032 C 
ATOM      8  N   UNL d   1      -1.681  12.004   1.867  0.00  0.00    -0.302 N 
ATOM      9  HN  UNL d   1      -2.515  12.481   2.207  1.00  0.00     0.186 HD
ATOM     10  C   UNL d   1       0.309  10.560   2.329  0.00  0.00     0.070 C 
BRANCH   8  11
ATOM     11  N   UNL d   1      -1.434  11.921   0.529  0.00  0.00    -0.276 N 
ATOM     12  H   UNL d   1      -0.476  12.008   0.211  0.00  0.00     0.189 HD
BRANCH  11  13
ATOM     13  C   UNL d   1      -2.443  12.072  -0.388  0.00  0.00     0.191 C 
ATOM     14  S   UNL d   1      -4.020  11.546  -0.163  0.00  0.00    -0.039 SA
BRANCH  13  15
ATOM     15  N   UNL d   1      -2.119  12.593  -1.611  0.00  0.00    -0.332 N 
ATOM     16  H   UNL d   1      -2.834  12.409  -2.308  0.00  0.00     0.168 HD
BRANCH  15  17
ATOM     17  C   UNL d   1      -1.205  13.611  -1.959  0.00  0.00     0.034 A 
ATOM     18  C   UNL d   1      -0.456  14.350  -1.039  0.00  0.00     0.029 A 
ATOM     19  C   UNL d   1       0.349  15.411  -1.469  0.00  0.00     0.002 A 
ATOM     20  C   UNL d   1       0.401  15.756  -2.818  0.00  0.00     0.000 A 
ATOM     21  C   UNL d   1      -0.347  15.033  -3.742  0.00  0.00     0.002 A 
ATOM     22  C   UNL d   1      -1.142  13.967  -3.315  0.00  0.00     0.029 A 
ENDBRANCH  15  17
ENDBRANCH  13  15
ENDBRANCH  11  13
ENDBRANCH   8  11
ENDBRANCH   1   7
BRANCH   4  23
ATOM     23  O   UNL d   1      -1.154  13.076   8.117  0.00  0.00    -0.345 OA
BRANCH  23  24
ATOM     24  C   UNL d   1      -1.369  12.166   9.197  0.00  0.00     0.234 C 
BRANCH  24  25
ATOM     25  C   UNL d   1      -1.847  12.950  10.403  0.00  0.00     0.055 A 
ATOM     26  N   UNL d   1      -1.038  12.931  11.505  0.00  0.00    -0.365 N 
ATOM     27  C   UNL d   1      -1.431  13.636  12.593  0.00  0.00     0.104 A 
ATOM     28  HN  UNL d   1      -0.166  12.402  11.507  1.00  0.00     0.165 HD
ATOM     29  C   UNL d   1      -2.604  14.370  12.659  0.00  0.00     0.064 A 
ATOM     30  C   UNL d   1      -3.426  14.374  11.529  0.00  0.00     0.043 A 
ATOM     31  C   UNL d   1      -3.051  13.656  10.390  0.00  0.00     0.059 A 
ATOM     32 CL   UNL d   1      -4.123  13.671   9.040  0.00  0.00    -0.082 Cl
BRANCH  29  33
ATOM     33  C   UNL d   1      -2.955  15.110  13.913  0.00  0.00     0.418 C 
ATOM     34  F   UNL d   1      -4.106  15.829  13.814  0.00  0.00    -0.166 F 
ATOM     35  F   UNL d   1      -1.992  15.997  14.283  0.00  0.00    -0.166 F 
ATOM     36  F   UNL d   1      -3.125  14.277  14.975  0.00  0.00    -0.166 F 
ENDBRANCH  29  33
ENDBRANCH  24  25
ENDBRANCH  23  24
ENDBRANCH   4  23
TORSDOF 9
