REMARK  5 active torsions:
REMARK  status: ('A' for Active; 'I' for Inactive)
REMARK    1  A    between atoms: C_2  and  CA_1 
REMARK    2  A    between atoms: N_3  and  CA_1 
REMARK    3  A    between atoms: CB_4  and  CA_1 
REMARK    4  A    between atoms: OXT_6  and  C_2 
REMARK       I    between atoms: C3_15  and  N_3 
REMARK    5  A    between atoms: CG_7  and  CB_4 
ROOT
ATOM      1  CA  PHE d   1       0.954   0.136   0.064  0.00  0.00     0.186 C 
ENDROOT
BRANCH   1   2
ATOM      2  C   PHE d   1       0.431   1.297  -0.794  0.00  0.00     0.163 C 
ATOM      3  O   PHE d   1       0.940   1.672  -1.838  0.00  0.00    -0.648 OA
BRANCH   2   4
ATOM      4  OXT PHE d   1      -0.731   1.819  -0.321  0.00  0.00    -0.775 OA
ATOM      5  HXT PHE d   1      -1.115   1.290   0.414  0.00  0.00     0.167 HD
ENDBRANCH   2   4
ENDBRANCH   1   2
BRANCH   1   6
ATOM      6  N   PHE d   1       0.336  -1.099  -0.408  0.00  0.00    -0.347 N 
ATOM      7  C3  <1> d   1      -0.896  -1.481   0.060  0.00  0.00     0.214 C 
ATOM      8  O2  <1> d   1      -1.530  -0.792   0.852  0.00  0.00    -0.274 OA
ATOM      9  C6  <1> d   1      -1.396  -2.792  -0.487  0.00  0.00     0.117 C 
ATOM     10  H   PHE d   1       0.675  -1.502  -1.275  0.00  0.00     0.163 HD
ENDBRANCH   1   6
BRANCH   1  11
ATOM     11  CB  PHE d   1       2.484   0.087  -0.017  0.00  0.00     0.074 C 
BRANCH  11  12
ATOM     12  CG  PHE d   1       3.114  -0.968   0.865  0.00  0.00    -0.056 A 
ATOM     13  CD1 PHE d   1       3.869  -2.001   0.292  0.00  0.00     0.007 A 
ATOM     14  CE1 PHE d   1       4.514  -2.940   1.099  0.00  0.00     0.001 A 
ATOM     15  CZ  PHE d   1       4.406  -2.861   2.486  0.00  0.00     0.000 A 
ATOM     16  CE2 PHE d   1       3.640  -1.852   3.066  0.00  0.00     0.001 A 
ATOM     17  CD2 PHE d   1       2.997  -0.909   2.261  0.00  0.00     0.007 A 
ENDBRANCH  11  12
ENDBRANCH   1  11
TORSDOF 5
