REMARK  3 active torsions:
REMARK  status: ('A' for Active; 'I' for Inactive)
REMARK    1  A    between atoms: C_7  and  C_1 
REMARK    2  A    between atoms: C_8  and  C_2 
REMARK    3  A    between atoms: C_10  and  C_7 
ROOT
ATOM      1  C   UNL d   1       2.160   0.636  -0.410  0.00  0.00     0.015 C 
ATOM      2  C   UNL d   1       2.326  -0.692  -0.227  0.00  0.00     0.026 C 
ATOM      3  S   UNL d   1       1.094  -1.814   0.242  0.00  0.00    -0.088 SA
ATOM      4  C   UNL d   1       0.846   1.300  -0.146  0.00  0.00     0.191 C 
ATOM      5  C   UNL d   1      -0.400   0.513  -0.109  0.00  0.00     0.032 A 
ATOM      6  C   UNL d   1      -0.384  -0.873   0.009  0.00  0.00     0.019 A 
ATOM      7  O   UNL d   1       0.778   2.519   0.019  0.00  0.00    -0.287 OA
ATOM      8  C   UNL d   1      -1.624   1.201  -0.198  0.00  0.00     0.017 A 
ATOM      9  C   UNL d   1      -1.606  -1.566   0.005  0.00  0.00     0.020 A 
ATOM     10  C   UNL d   1      -2.830   0.505  -0.196  0.00  0.00     0.001 A 
ATOM     11  C   UNL d   1      -2.821  -0.882  -0.103  0.00  0.00     0.001 A 
ENDROOT
BRANCH   1  12
ATOM     12  C   UNL d   1       3.261   1.610  -0.809  0.00  0.00     0.082 C 
BRANCH  12  13
ATOM     13  C   UNL d   1       3.866   1.471  -2.197  0.00  0.00    -0.054 A 
ATOM     14  C   UNL d   1       3.303   0.698  -3.223  0.00  0.00     0.009 A 
ATOM     15  C   UNL d   1       3.989   0.502  -4.426  0.00  0.00     0.019 A 
ATOM     16  C   UNL d   1       5.209   1.138  -4.640  0.00  0.00     0.011 A 
ATOM     17  C   UNL d   1       5.734   1.992  -3.677  0.00  0.00     0.019 A 
ATOM     18 BR   UNL d   1       6.164   0.825  -6.241  0.00  0.00    -0.051 Br
ATOM     19  C   UNL d   1       5.066   2.155  -2.462  0.00  0.00     0.009 A 
ENDBRANCH  12  13
ENDBRANCH   1  12
BRANCH   2  20
ATOM     20  C   UNL d   1       3.644  -1.349  -0.381  0.00  0.00    -0.018 A 
ATOM     21  C   UNL d   1       4.583  -1.312   0.660  0.00  0.00     0.013 A 
ATOM     22  C   UNL d   1       5.843  -1.894   0.497  0.00  0.00     0.001 A 
ATOM     23  C   UNL d   1       6.179  -2.511  -0.707  0.00  0.00     0.000 A 
ATOM     24  C   UNL d   1       5.249  -2.574  -1.740  0.00  0.00     0.001 A 
ATOM     25  C   UNL d   1       3.981  -2.014  -1.570  0.00  0.00     0.013 A 
ENDBRANCH   2  20
TORSDOF 3
