REMARK  5 active torsions:
REMARK  status: ('A' for Active; 'I' for Inactive)
REMARK    1  A    between atoms: C_5  and  C_1 
REMARK    2  A    between atoms: C_14  and  C_4 
REMARK       I    between atoms: N_13  and  C_5 
REMARK    3  A    between atoms: C_6  and  C_9 
REMARK       I    between atoms: C_10  and  N_15 
REMARK       I    between atoms: N_16  and  C_10 
REMARK    4  A    between atoms: N_15  and  N_13 
REMARK    5  A    between atoms: C_25  and  N_16 
ROOT
ATOM      1  C   UNL d   1       1.137   0.878   0.052  0.00  0.00     0.110 A 
ATOM      2  N   UNL d   1      -0.175   1.364   0.157  0.00  0.00    -0.344 N 
ATOM      3  HN  UNL d   1      -0.421   2.324   0.398  1.00  0.00     0.167 HD
ATOM      4  C   UNL d   1      -1.050   0.401  -0.101  0.00  0.00     0.101 A 
ATOM      5  S   UNL d   1      -0.338  -1.142  -0.419  0.00  0.00    -0.080 SA
ATOM      6  C   UNL d   1       1.220  -0.469  -0.245  0.00  0.00     0.087 A 
ENDROOT
BRANCH   1   7
ATOM      7  C   UNL d   1       2.319   1.741   0.191  0.00  0.00     0.287 C 
ATOM      8  N   UNL d   1       2.015   3.051   0.508  0.00  0.00    -0.261 N 
ATOM      9  H   UNL d   1       1.094   3.266   0.895  0.00  0.00     0.190 HD
ATOM     10  O   UNL d   1       3.466   1.339   0.012  0.00  0.00    -0.264 OA
BRANCH   8  11
ATOM     11  N   UNL d   1       3.057   3.958   0.809  0.00  0.00    -0.248 N 
ATOM     12  C   UNL d   1       2.769   4.953   1.720  0.00  0.00     0.339 C 
ATOM     13  N   UNL d   1       3.822   5.827   1.923  0.00  0.00    -0.308 N 
ATOM     14  O   UNL d   1       1.676   4.983   2.283  0.00  0.00    -0.245 OA
ATOM     15  H   UNL d   1       4.614   5.734   1.302  0.00  0.00     0.170 HD
ATOM     16  H   UNL d   1       3.761   4.072   0.091  0.00  0.00     0.192 HD
BRANCH  13  17
ATOM     17  C   UNL d   1       3.908   6.821   2.923  0.00  0.00     0.036 A 
ATOM     18  C   UNL d   1       2.959   6.969   3.941  0.00  0.00     0.031 A 
ATOM     19  C   UNL d   1       3.133   7.916   4.955  0.00  0.00     0.026 A 
ATOM     20  C   UNL d   1       4.257   8.733   4.954  0.00  0.00     0.034 A 
ATOM     21  C   UNL d   1       5.200   8.619   3.936  0.00  0.00     0.026 A 
ATOM     22 CL   UNL d   1       4.488   9.870   6.223  0.00  0.00    -0.084 Cl
ATOM     23  C   UNL d   1       5.027   7.665   2.924  0.00  0.00     0.031 A 
ENDBRANCH  13  17
ENDBRANCH   8  11
ENDBRANCH   1   7
BRANCH   4  24
ATOM     24  C   UNL d   1      -2.521   0.570  -0.162  0.00  0.00     0.066 A 
ATOM     25  N   UNL d   1      -3.266  -0.540  -0.408  0.00  0.00    -0.363 N 
ATOM     26  C   UNL d   1      -4.610  -0.400  -0.498  0.00  0.00     0.104 A 
ATOM     27  HN  UNL d   1      -2.825  -1.453  -0.521  1.00  0.00     0.165 HD
ATOM     28  C   UNL d   1      -5.275   0.807  -0.356  0.00  0.00     0.063 A 
ATOM     29  C   UNL d   1      -4.495   1.940  -0.103  0.00  0.00     0.020 A 
ATOM     30  C   UNL d   1      -3.107   1.822  -0.003  0.00  0.00     0.033 A 
BRANCH  28  31
ATOM     31  C   UNL d   1      -6.767   0.883  -0.473  0.00  0.00     0.418 C 
ATOM     32  F   UNL d   1      -7.358  -0.319  -0.721  0.00  0.00    -0.166 F 
ATOM     33  F   UNL d   1      -7.354   1.360   0.658  0.00  0.00    -0.166 F 
ATOM     34  F   UNL d   1      -7.169   1.708  -1.478  0.00  0.00    -0.166 F 
ENDBRANCH  28  31
ENDBRANCH   4  24
TORSDOF 5
