REMARK  5 active torsions:
REMARK  status: ('A' for Active; 'I' for Inactive)
REMARK    1  A    between atoms: C_10  and  C_1 
REMARK    2  A    between atoms: N_16  and  C_3 
REMARK    3  A    between atoms: C_9  and  C_6 
REMARK    4  A    between atoms: C_15  and  C_10 
REMARK    5  A    between atoms: C_13  and  C_11 
ROOT
ATOM      1  C   UNL d   1      -2.093  -0.229  -0.014  0.00  0.00     0.085 A 
ATOM      2  C   UNL d   1       0.038   0.811  -0.014  0.00  0.00     0.041 A 
ATOM      3  C   UNL d   1      -1.395   0.967   0.019  0.00  0.00     0.061 A 
ATOM      4  C   UNL d   1       0.352  -0.547  -0.043  0.00  0.00     0.088 A 
ATOM      5  S   UNL d   1      -1.022  -1.553  -0.129  0.00  0.00    -0.065 SA
ATOM      6  C   UNL d   1       1.136   1.710  -0.014  0.00  0.00     0.065 A 
ATOM      7  N   UNL d   1       1.580  -1.106  -0.017  0.00  0.00    -0.349 N 
ATOM      8  HN  UNL d   1       1.723  -2.115  -0.047  1.00  0.00     0.166 HD
ATOM      9  C   UNL d   1       2.603  -0.234   0.051  0.00  0.00     0.051 A 
ATOM     10  C   UNL d   1       2.427   1.141   0.015  0.00  0.00     0.048 A 
ENDROOT
BRANCH   1  11
ATOM     11  C   UNL d   1      -3.545  -0.381  -0.048  0.00  0.00     0.201 C 
ATOM     12  O   UNL d   1      -4.283   0.493  -0.509  0.00  0.00    -0.286 OA
BRANCH  11  13
ATOM     13  C   UNL d   1      -4.231  -1.579   0.515  0.00  0.00     0.015 A 
ATOM     14  C   UNL d   1      -5.425  -2.003  -0.090  0.00  0.00     0.017 A 
ATOM     15  C   UNL d   1      -6.127  -3.097   0.421  0.00  0.00     0.025 A 
ATOM     16  C   UNL d   1      -5.643  -3.765   1.543  0.00  0.00     0.034 A 
ATOM     17  C   UNL d   1      -4.473  -3.334   2.171  0.00  0.00     0.025 A 
ATOM     18 CL   UNL d   1      -6.498  -5.120   2.167  0.00  0.00    -0.084 Cl
ATOM     19  C   UNL d   1      -3.773  -2.234   1.667  0.00  0.00     0.017 A 
ENDBRANCH  11  13
ENDBRANCH   1  11
BRANCH   3  20
ATOM     20  N   UNL d   1      -2.038   2.151   0.100  0.00  0.00    -0.397 N 
ATOM     21  H   UNL d   1      -1.585   3.051  -0.052  0.00  0.00     0.156 HD
ATOM     22  H   UNL d   1      -3.045   2.196  -0.092  0.00  0.00     0.156 HD
ENDBRANCH   3  20
BRANCH   6  23
ATOM     23  C   UNL d   1       1.079   3.218  -0.025  0.00  0.00     0.418 C 
ATOM     24  F   UNL d   1      -0.160   3.770  -0.095  0.00  0.00    -0.166 F 
ATOM     25  F   UNL d   1       1.659   3.755   1.085  0.00  0.00    -0.166 F 
ATOM     26  F   UNL d   1       1.764   3.739  -1.083  0.00  0.00    -0.166 F 
ENDBRANCH   6  23
BRANCH   9  27
ATOM     27  C   UNL d   1       3.933  -0.854   0.191  0.00  0.00     0.031 A 
ATOM     28  S   UNL d   1       5.216  -0.020   0.986  0.00  0.00    -0.100 SA
ATOM     29  C   UNL d   1       6.302  -1.319   0.777  0.00  0.00     0.050 A 
ATOM     30  C   UNL d   1       5.716  -2.378   0.128  0.00  0.00     0.008 A 
ATOM     31  C   UNL d   1       4.352  -2.115  -0.203  0.00  0.00     0.021 A 
ENDBRANCH   9  27
TORSDOF 5
