REMARK  10 active torsions:
REMARK  status: ('A' for Active; 'I' for Inactive)
REMARK    1  A    between atoms: C_2  and  S_1 
REMARK    2  A    between atoms: N_5  and  S_1 
REMARK    3  A    between atoms: O_9  and  C_3 
REMARK    4  A    between atoms: C_19  and  N_5 
REMARK    5  A    between atoms: C_6  and  C_16 
REMARK    6  A    between atoms: C_7  and  C_18 
REMARK    7  A    between atoms: C_16  and  O_9 
REMARK    8  A    between atoms: O_15  and  C_14 
REMARK    9  A    between atoms: C_18  and  O_15 
REMARK   10  A    between atoms: C_31  and  C_26 
ROOT
ATOM      1  C   UNL d   1       0.419   0.020  -1.750  0.00  0.00     0.109 A 
ATOM      2  C   UNL d   1       0.198   1.251  -2.402  0.00  0.00     0.115 A 
ATOM      3  C   UNL d   1      -0.361   1.226  -3.701  0.00  0.00     0.112 A 
ATOM      4  C   UNL d   1      -0.717   2.432  -4.404  0.00  0.00     0.105 C 
ATOM      5  N   UNL d   1      -0.964   3.425  -4.951  0.00  0.00    -0.191 NA
ATOM      6  C   UNL d   1       0.163  -1.196  -2.394  0.00  0.00     0.030 A 
ATOM      7  C   UNL d   1      -0.649  -0.011  -4.333  0.00  0.00     0.092 A 
ATOM      8  C   UNL d   1      -0.340  -1.210  -3.688  0.00  0.00     0.040 A 
ENDROOT
BRANCH   2   9
ATOM      9  O   UNL d   1       0.482   2.371  -1.671  0.00  0.00    -0.339 OA
BRANCH   9  10
ATOM     10  C   UNL d   1       1.002   3.550  -2.300  0.00  0.00     0.293 C 
BRANCH  10  11
ATOM     11  C   UNL d   1       1.955   4.317  -1.379  0.00  0.00     0.408 C 
ATOM     12  F   UNL d   1       2.249   3.644  -0.246  0.00  0.00    -0.169 F 
ATOM     13  F   UNL d   1       3.132   4.552  -2.012  0.00  0.00    -0.169 F 
ATOM     14  F   UNL d   1       1.444   5.518  -1.028  0.00  0.00    -0.169 F 
ENDBRANCH  10  11
ENDBRANCH   9  10
ENDBRANCH   2   9
BRANCH   7  15
ATOM     15  O   UNL d   1      -1.240   0.037  -5.575  0.00  0.00    -0.341 OA
BRANCH  15  16
ATOM     16  C   UNL d   1      -1.827  -1.183  -6.060  0.00  0.00     0.293 C 
BRANCH  16  17
ATOM     17  C   UNL d   1      -2.768  -0.958  -7.240  0.00  0.00     0.408 C 
ATOM     18  F   UNL d   1      -2.634   0.261  -7.799  0.00  0.00    -0.169 F 
ATOM     19  F   UNL d   1      -2.535  -1.878  -8.207  0.00  0.00    -0.169 F 
ATOM     20  F   UNL d   1      -4.058  -1.101  -6.856  0.00  0.00    -0.169 F 
ENDBRANCH  16  17
ENDBRANCH  15  16
ENDBRANCH   7  15
BRANCH   1  21
ATOM     21  S   UNL d   1       0.983  -0.091  -0.055  0.00  0.00     0.248 S 
ATOM     22  O   UNL d   1       0.572  -1.385   0.455  0.00  0.00    -0.205 OA
ATOM     23  O   UNL d   1       0.621   1.116   0.650  0.00  0.00    -0.205 OA
BRANCH  21  24
ATOM     24  N   UNL d   1       2.666  -0.052  -0.262  0.00  0.00    -0.181 NA
ATOM     25  H   UNL d   1       3.054   0.694   0.316  0.00  0.00     0.146 HD
BRANCH  24  26
ATOM     26  C   UNL d   1       3.357  -1.299  -0.226  0.00  0.00     0.022 A 
ATOM     27  C   UNL d   1       3.684  -1.944  -1.417  0.00  0.00     0.025 A 
ATOM     28  C   UNL d   1       4.343  -3.178  -1.383  0.00  0.00     0.009 A 
ATOM     29  C   UNL d   1       4.670  -3.779  -0.160  0.00  0.00    -0.058 A 
ATOM     30  C   UNL d   1       4.321  -3.126   1.030  0.00  0.00     0.009 A 
ATOM     31  C   UNL d   1       3.669  -1.891   0.998  0.00  0.00     0.025 A 
BRANCH  29  32
ATOM     32  C   UNL d   1       5.360  -5.120  -0.121  0.00  0.00     0.034 C 
ATOM     33  C   UNL d   1       4.370  -6.275  -0.110  0.00  0.00     0.010 C 
ENDBRANCH  29  32
ENDBRANCH  24  26
ENDBRANCH  21  24
ENDBRANCH   1  21
TORSDOF 10
