REMARK  0 active torsions:
REMARK  status: ('A' for Active; 'I' for Inactive)
ROOT
ATOM      1  N   UNL d   1       2.460  -0.215  -0.000  0.00  0.00    -0.061 NA
ATOM      2  N   UNL d   1       1.551  -1.175  -0.001  0.00  0.00    -0.292 N 
ATOM      3  HN  UNL d   1       1.774  -2.170  -0.001  1.00  0.00     0.183 HD
ATOM      4  C   UNL d   1       0.256  -0.668  -0.000  0.00  0.00     0.065 A 
ATOM      5  S   UNL d   1       1.793   1.317   0.001  0.00  0.00     0.002 SA
ATOM      6  C   UNL d   1       0.173   0.728   0.000  0.00  0.00     0.047 A 
ATOM      7  N   UNL d   1      -4.393  -2.104   0.008  0.00  0.00    -0.191 NA
ATOM      8  C   UNL d   1      -3.398  -1.508   0.004  0.00  0.00     0.099 C 
ATOM      9  C   UNL d   1      -0.940  -1.418   0.001  0.00  0.00     0.054 A 
ATOM     10  C   UNL d   1      -1.050   1.410   0.000  0.00  0.00     0.024 A 
ATOM     11  C   UNL d   1      -2.176  -0.754   0.001  0.00  0.00     0.046 A 
ATOM     12  C   UNL d   1      -2.223   0.644  -0.001  0.00  0.00     0.024 A 
ENDROOT
TORSDOF 0
