REMARK  4 active torsions:
REMARK  status: ('A' for Active; 'I' for Inactive)
REMARK    1  A    between atoms: N_2  and  S_1 
REMARK    2  A    between atoms: C_6  and  S_1 
REMARK    3  A    between atoms: C_3  and  N_5 
REMARK    4  A    between atoms: C_4  and  C_7 
ROOT
ATOM      1  N   UNL d   1       0.530  -0.451   1.293  0.00  0.00    -0.203 NA
ATOM      2  N   UNL d   1       2.409  -1.923   2.892  0.00  0.00    -0.215 N 
ATOM      3  C   UNL d   1       1.335   0.238   2.362  0.00  0.00     0.128 C 
ATOM      4  C   UNL d   1       0.331  -1.897   1.636  0.00  0.00     0.128 C 
ATOM      5  C   UNL d   1       1.675  -2.616   1.834  0.00  0.00     0.157 C 
ATOM      6  C   UNL d   1       2.663  -0.497   2.675  0.00  0.00     0.157 C 
ENDROOT
BRANCH   1   7
ATOM      7  S   UNL d   1       0.996  -0.146  -0.313  0.00  0.00     0.243 S 
ATOM      8  O   UNL d   1       0.468  -1.197  -1.153  0.00  0.00    -0.206 OA
ATOM      9  O   UNL d   1       2.399   0.203  -0.340  0.00  0.00    -0.206 OA
BRANCH   7  10
ATOM     10  C   UNL d   1       0.063   1.325  -0.690  0.00  0.00     0.075 A 
ATOM     11  C   UNL d   1      -1.229   1.192  -1.215  0.00  0.00     0.041 A 
ATOM     12  C   UNL d   1      -1.943   2.328  -1.626  0.00  0.00     0.049 A 
ATOM     13  C   UNL d   1      -1.340   3.590  -1.492  0.00  0.00     0.016 A 
ATOM     14  C   UNL d   1      -0.050   3.716  -0.968  0.00  0.00     0.002 A 
ATOM     15  C   UNL d   1       0.659   2.582  -0.575  0.00  0.00     0.025 A 
BRANCH  12  16
ATOM     16  C   UNL d   1      -3.323   2.209  -2.228  0.00  0.00     0.417 C 
ATOM     17  F   UNL d   1      -3.783   0.929  -2.291  0.00  0.00    -0.166 F 
ATOM     18  F   UNL d   1      -4.258   2.906  -1.525  0.00  0.00    -0.166 F 
ATOM     19  F   UNL d   1      -3.377   2.689  -3.501  0.00  0.00    -0.166 F 
ENDBRANCH  12  16
ENDBRANCH   7  10
ENDBRANCH   1   7
BRANCH   2  20
ATOM     20  C   UNL d   1       3.199  -2.641   3.755  0.00  0.00     0.679 A 
ATOM     21  N   UNL d   1       3.125  -3.982   3.737  0.00  0.00    -0.202 N 
ATOM     22  C   UNL d   1       3.812  -4.666   4.671  0.00  0.00     0.107 A 
ATOM     23  HN  UNL d   1       2.565  -4.468   3.037  1.00  0.00     0.183 HD
ATOM     24  C   UNL d   1       4.574  -4.067   5.637  0.00  0.00     0.035 A 
ATOM     25  C   UNL d   1       4.608  -2.699   5.577  0.00  0.00     0.107 A 
ATOM     26  N   UNL d   1       3.942  -1.976   4.656  0.00  0.00    -0.202 N 
ATOM     27  HN  UNL d   1       4.000  -0.958   4.642  1.00  0.00     0.183 HD
ENDBRANCH   2  20
TORSDOF 4
