REMARK  3 active torsions:
REMARK  status: ('A' for Active; 'I' for Inactive)
REMARK    1  A    between atoms: C_3  and  C_7 
REMARK    2  A    between atoms: C_6  and  C_3 
REMARK    3  A    between atoms: C_7  and  S_5 
ROOT
ATOM      1  C   UNL d   1       4.267  -1.135   0.925  0.00  0.00     0.134 C 
ATOM      2  N   UNL d   1       5.163  -1.796   1.250  0.00  0.00    -0.184 NA
ATOM      3  S   UNL d   1       2.954  -0.151   0.517  0.00  0.00    -0.043 SA
ENDROOT
BRANCH   3   4
ATOM      4  C   UNL d   1       3.729   1.463   0.824  0.00  0.00     0.174 C 
BRANCH   4   5
ATOM      5  C   UNL d   1       4.874   1.760  -0.131  0.00  0.00     0.169 C 
ATOM      6  O   UNL d   1       5.194   1.012  -1.052  0.00  0.00    -0.291 OA
BRANCH   5   7
ATOM      7  C   UNL d   1       5.644   3.028   0.060  0.00  0.00     0.011 A 
ATOM      8  C   UNL d   1       5.249   4.024   0.964  0.00  0.00     0.015 A 
ATOM      9  C   UNL d   1       6.006   5.193   1.092  0.00  0.00     0.001 A 
ATOM     10  C   UNL d   1       7.155   5.375   0.324  0.00  0.00     0.000 A 
ATOM     11  C   UNL d   1       7.553   4.390  -0.577  0.00  0.00     0.001 A 
ATOM     12  C   UNL d   1       6.800   3.222  -0.709  0.00  0.00     0.015 A 
ENDBRANCH   5   7
ENDBRANCH   4   5
ENDBRANCH   3   4
TORSDOF 3
