REMARK  7 active torsions:
REMARK  status: ('A' for Active; 'I' for Inactive)
REMARK       I    between atoms: N_6  and  C_1 
REMARK       I    between atoms: N_7  and  C_1 
REMARK    1  A    between atoms: C_2  and  C_4 
REMARK    2  A    between atoms: O_5  and  C_2 
REMARK    3  A    between atoms: C_3  and  O_8 
REMARK    4  A    between atoms: C_13  and  O_5 
REMARK    5  A    between atoms: C_12  and  N_6 
REMARK    6  A    between atoms: C_17  and  N_7 
REMARK    7  A    between atoms: O_8  and  C_18 
ROOT
ATOM      1  C   UNL d   1       0.976   0.022   0.373  0.00  0.00     0.325 C 
ATOM      2  N   UNL d   1       0.391  -0.769  -0.596  0.00  0.00    -0.309 N 
ATOM      3  N   UNL d   1       0.175   1.098   0.705  0.00  0.00    -0.309 N 
ATOM      4  O   UNL d   1       2.077  -0.194   0.870  0.00  0.00    -0.247 OA
ATOM      5  H   UNL d   1      -0.385  -0.357  -1.096  0.00  0.00     0.170 HD
ATOM      6  H   UNL d   1      -0.815   0.996   0.532  0.00  0.00     0.170 HD
ENDROOT
BRANCH   2   7
ATOM      7  C   UNL d   1       0.979  -1.917  -1.178  0.00  0.00     0.037 A 
ATOM      8  C   UNL d   1       2.080  -2.589  -0.625  0.00  0.00     0.047 A 
ATOM      9  C   UNL d   1       2.682  -3.655  -1.304  0.00  0.00     0.041 A 
ATOM     10  C   UNL d   1       2.150  -4.064  -2.534  0.00  0.00     0.018 A 
ATOM     11  C   UNL d   1       1.027  -3.434  -3.067  0.00  0.00     0.003 A 
ATOM     12  C   UNL d   1       0.438  -2.367  -2.389  0.00  0.00     0.029 A 
BRANCH   9  13
ATOM     13  C   UNL d   1       3.900  -4.353  -0.796  0.00  0.00     0.294 C 
ATOM     14  O   UNL d   1       4.483  -5.194  -1.466  0.00  0.00    -0.259 OA
BRANCH  13  15
ATOM     15  O   UNL d   1       4.254  -3.938   0.444  0.00  0.00    -0.307 OA
BRANCH  15  16
ATOM     16  C   UNL d   1       5.467  -4.450   1.071  0.00  0.00     0.060 C 
ATOM     17  C   UNL d   1       6.712  -4.097   0.245  0.00  0.00     0.046 C 
ATOM     18  C   UNL d   1       5.564  -3.746   2.437  0.00  0.00     0.046 C 
ATOM     19  C   UNL d   1       5.376  -5.960   1.321  0.00  0.00     0.046 C 
ENDBRANCH  15  16
ENDBRANCH  13  15
ENDBRANCH   9  13
ENDBRANCH   2   7
BRANCH   3  20
ATOM     20  C   UNL d   1       0.570   2.165   1.542  0.00  0.00     0.036 A 
ATOM     21  C   UNL d   1       1.908   2.452   1.828  0.00  0.00     0.032 A 
ATOM     22  C   UNL d   1       2.256   3.494   2.693  0.00  0.00     0.039 A 
ATOM     23  C   UNL d   1       1.267   4.303   3.238  0.00  0.00     0.078 A 
ATOM     24  C   UNL d   1      -0.073   4.019   2.958  0.00  0.00     0.039 A 
ATOM     25  C   UNL d   1      -0.423   2.967   2.104  0.00  0.00     0.032 A 
BRANCH  23  26
ATOM     26  O   UNL d   1       1.463   5.364   4.067  0.00  0.00    -0.255 OA
BRANCH  26  27
ATOM     27  C   UNL d   1       2.692   6.075   4.017  0.00  0.00     0.530 C 
ATOM     28  F   UNL d   1       3.422   5.842   2.906  0.00  0.00    -0.144 F 
ATOM     29  F   UNL d   1       2.413   7.398   4.050  0.00  0.00    -0.144 F 
ATOM     30  F   UNL d   1       3.434   5.774   5.104  0.00  0.00    -0.144 F 
ENDBRANCH  26  27
ENDBRANCH  23  26
ENDBRANCH   3  20
TORSDOF 7
