REMARK  8 active torsions:
REMARK  status: ('A' for Active; 'I' for Inactive)
REMARK    1  A    between atoms: C_8  and  C_1 
REMARK    2  A    between atoms: C_7  and  C_2 
REMARK    3  A    between atoms: C_9  and  C_3 
REMARK    4  A    between atoms: O_16  and  C_7 
REMARK    5  A    between atoms: O_17  and  C_8 
REMARK    6  A    between atoms: O_14  and  C_15 
REMARK    7  A    between atoms: C_20  and  O_14 
REMARK    8  A    between atoms: C_23  and  C_20 
ROOT
ATOM      1  C   UNL d   1      -1.289  -0.990   0.140  0.00  0.00     0.052 C 
ATOM      2  C   UNL d   1       1.282  -1.011   0.154  0.00  0.00     0.052 C 
ATOM      3  C   UNL d   1       0.000  -1.830  -0.032  0.00  0.00     0.100 C 
ATOM      4  C   UNL d   1      -1.225   0.362   0.059  0.00  0.00     0.018 C 
ATOM      5  C   UNL d   1       1.235   0.340   0.071  0.00  0.00     0.018 C 
ATOM      6  N   UNL d   1       0.017   0.973  -0.100  0.00  0.00    -0.362 N 
ATOM      7  C   UNL d   1      -2.355   1.361   0.140  0.00  0.00     0.069 C 
ATOM      8  C   UNL d   1       2.440   1.245   0.147  0.00  0.00     0.069 C 
ATOM      9  H   UNL d   1       0.025   1.991  -0.104  0.00  0.00     0.165 HD
ENDROOT
BRANCH   3  10
ATOM     10  C   UNL d   1       0.004  -2.474  -1.427  0.00  0.00    -0.044 A 
ATOM     11  C   UNL d   1      -0.056  -3.864  -1.597  0.00  0.00     0.011 A 
ATOM     12  C   UNL d   1      -0.104  -4.415  -2.885  0.00  0.00     0.037 A 
ATOM     13  C   UNL d   1      -0.107  -3.591  -4.011  0.00  0.00     0.069 A 
ATOM     14  C   UNL d   1       0.019  -2.213  -3.850  0.00  0.00     0.037 A 
ATOM     15  C   UNL d   1       0.056  -1.663  -2.574  0.00  0.00     0.011 A 
BRANCH  13  16
ATOM     16  O   UNL d   1      -0.248  -4.214  -5.224  0.00  0.00    -0.347 OA
BRANCH  16  17
ATOM     17  C   UNL d   1      -0.772  -3.376  -6.259  0.00  0.00     0.214 C 
BRANCH  17  18
ATOM     18  C   UNL d   1      -1.373  -4.220  -7.353  0.00  0.00    -0.034 A 
ATOM     19  C   UNL d   1      -2.752  -4.178  -7.600  0.00  0.00     0.009 A 
ATOM     20  C   UNL d   1      -3.310  -4.931  -8.632  0.00  0.00     0.001 A 
ATOM     21  C   UNL d   1      -2.494  -5.736  -9.423  0.00  0.00     0.000 A 
ATOM     22  C   UNL d   1      -1.120  -5.793  -9.182  0.00  0.00     0.001 A 
ATOM     23  C   UNL d   1      -0.561  -5.037  -8.149  0.00  0.00     0.009 A 
ENDBRANCH  17  18
ENDBRANCH  16  17
ENDBRANCH  13  16
ENDBRANCH   3  10
BRANCH   2  24
ATOM     24  C   UNL d   1       2.570  -1.724   0.359  0.00  0.00     0.291 C 
ATOM     25  O   UNL d   1       3.670  -1.258   0.104  0.00  0.00    -0.260 OA
BRANCH  24  26
ATOM     26  O   UNL d   1       2.366  -2.948   0.914  0.00  0.00    -0.323 OA
ATOM     27  C   UNL d   1       3.581  -3.647   1.199  0.00  0.00     0.213 C 
ENDBRANCH  24  26
ENDBRANCH   2  24
BRANCH   1  28
ATOM     28  C   UNL d   1      -2.495  -1.818   0.423  0.00  0.00     0.291 C 
ATOM     29  O   UNL d   1      -2.438  -2.936   0.918  0.00  0.00    -0.260 OA
BRANCH  28  30
ATOM     30  O   UNL d   1      -3.643  -1.196   0.064  0.00  0.00    -0.323 OA
ATOM     31  C   UNL d   1      -4.846  -1.874   0.430  0.00  0.00     0.213 C 
ENDBRANCH  28  30
ENDBRANCH   1  28
TORSDOF 8
