REMARK  4 active torsions:
REMARK  status: ('A' for Active; 'I' for Inactive)
REMARK    1  A    between atoms: C_11  and  C_4 
REMARK    2  A    between atoms: C_12  and  C_5 
REMARK    3  A    between atoms: N_9  and  C_6 
REMARK    4  A    between atoms: N_10  and  C_7 
ROOT
ATOM      1  C   UNL d   1      -1.270  -0.038   0.125  0.00  0.00    -0.007 C 
ATOM      2  C   UNL d   1       1.278   0.048   0.147  0.00  0.00    -0.007 C 
ATOM      3  C   UNL d   1       0.031  -0.757  -0.042  0.00  0.00     0.184 C 
ATOM      4  C   UNL d   1      -2.350  -0.814   0.344  0.00  0.00     0.022 C 
ATOM      5  C   UNL d   1       2.430  -0.645   0.240  0.00  0.00     0.022 C 
ATOM      6  O   UNL d   1       0.072  -1.958  -0.312  0.00  0.00    -0.287 OA
ATOM      7  C   UNL d   1       1.172   1.544   0.228  0.00  0.00     0.043 C 
ATOM      8  C   UNL d   1      -1.310   1.462   0.044  0.00  0.00     0.043 C 
ATOM      9  C   UNL d   1      -0.036   2.057  -0.540  0.00  0.00     0.009 C 
ENDROOT
BRANCH   4  10
ATOM     10  C   UNL d   1      -3.700  -0.294   0.552  0.00  0.00    -0.035 A 
ATOM     11  C   UNL d   1      -4.567  -0.140  -0.524  0.00  0.00     0.013 A 
ATOM     12  C   UNL d   1      -5.860   0.368  -0.323  0.00  0.00     0.030 A 
ATOM     13  C   UNL d   1      -6.337   0.728   0.948  0.00  0.00     0.029 A 
ATOM     14  C   UNL d   1      -5.434   0.556   2.012  0.00  0.00     0.030 A 
ATOM     15  C   UNL d   1      -4.135   0.062   1.825  0.00  0.00     0.013 A 
BRANCH  13  16
ATOM     16  N   UNL d   1      -7.627   1.189   1.157  0.00  0.00    -0.390 N 
ATOM     17  C   UNL d   1      -7.945   2.117   2.239  0.00  0.00     0.149 C 
ATOM     18  C   UNL d   1      -8.700   0.993   0.186  0.00  0.00     0.149 C 
ENDBRANCH  13  16
ENDBRANCH   4  10
BRANCH   5  19
ATOM     19  C   UNL d   1       3.724  -0.024   0.519  0.00  0.00    -0.035 A 
ATOM     20  C   UNL d   1       4.147   0.135   1.836  0.00  0.00     0.013 A 
ATOM     21  C   UNL d   1       5.372   0.756   2.116  0.00  0.00     0.030 A 
ATOM     22  C   UNL d   1       6.219   1.234   1.102  0.00  0.00     0.029 A 
ATOM     23  C   UNL d   1       5.760   1.056  -0.216  0.00  0.00     0.030 A 
ATOM     24  C   UNL d   1       4.534   0.442  -0.510  0.00  0.00     0.013 A 
BRANCH  22  25
ATOM     25  N   UNL d   1       7.449   1.812   1.372  0.00  0.00    -0.390 N 
ATOM     26  C   UNL d   1       8.020   2.839   0.505  0.00  0.00     0.149 C 
ATOM     27  C   UNL d   1       8.133   1.642   2.651  0.00  0.00     0.149 C 
ENDBRANCH  22  25
ENDBRANCH   5  19
TORSDOF 4
