REMARK  5 active torsions:
REMARK  status: ('A' for Active; 'I' for Inactive)
REMARK    1  A    between atoms: C_3  and  C_1 
REMARK    2  A    between atoms: N_2  and  C_4 
REMARK    3  A    between atoms: C_8  and  C_12 
REMARK    4  A    between atoms: C_19  and  C_8 
REMARK    5  A    between atoms: C_20  and  C_8 
ROOT
ATOM      1  N   UNL d   1      -0.526  -1.992  -5.181  0.00  0.00    -0.367 N 
ATOM      2  C   UNL d   1      -1.711  -2.845  -5.270  0.00  0.00     0.125 C 
ATOM      3  C   UNL d   1      -0.040  -1.342  -6.398  0.00  0.00     0.125 C 
ATOM      4  C   UNL d   1      -2.329  -1.684  -7.470  0.00  0.00     0.001 C 
ATOM      5  C   UNL d   1      -1.189  -0.693  -7.165  0.00  0.00     0.025 C 
ATOM      6  C   UNL d   1      -2.826  -2.205  -6.100  0.00  0.00     0.025 C 
ENDROOT
BRANCH   4   7
ATOM      7  C   UNL d   1      -1.923  -2.841  -8.455  0.00  0.00     0.056 C 
BRANCH   7   8
ATOM      8  C   UNL d   1      -3.093  -3.782  -8.751  0.00  0.00    -0.049 A 
ATOM      9  C   UNL d   1      -4.274  -3.313  -9.347  0.00  0.00     0.008 A 
ATOM     10  C   UNL d   1      -5.329  -4.186  -9.624  0.00  0.00     0.001 A 
ATOM     11  C   UNL d   1      -5.217  -5.538  -9.313  0.00  0.00     0.000 A 
ATOM     12  C   UNL d   1      -4.051  -6.020  -8.723  0.00  0.00     0.001 A 
ATOM     13  C   UNL d   1      -2.995  -5.149  -8.445  0.00  0.00     0.008 A 
ENDBRANCH   7   8
BRANCH   7  14
ATOM     14  C   UNL d   1      -1.250  -2.405  -9.762  0.00  0.00    -0.049 A 
ATOM     15  C   UNL d   1      -0.266  -3.232 -10.335  0.00  0.00     0.008 A 
ATOM     16  C   UNL d   1       0.382  -2.867 -11.517  0.00  0.00     0.001 A 
ATOM     17  C   UNL d   1       0.053  -1.673 -12.151  0.00  0.00     0.000 A 
ATOM     18  C   UNL d   1      -0.937  -0.855 -11.616  0.00  0.00     0.001 A 
ATOM     19  C   UNL d   1      -1.596  -1.224 -10.440  0.00  0.00     0.008 A 
ENDBRANCH   7  14
ENDBRANCH   4   7
BRANCH   1  20
ATOM     20  C   UNL d   1      -0.203  -1.422  -3.958  0.00  0.00     0.102 A 
ATOM     21  C   UNL d   1       1.125  -1.088  -3.676  0.00  0.00     0.049 A 
ATOM     22  C   UNL d   1       1.469  -0.532  -2.444  0.00  0.00     0.021 A 
ATOM     23  C   UNL d   1       0.477  -0.303  -1.495  0.00  0.00     0.063 A 
ATOM     24  C   UNL d   1      -0.813  -0.674  -1.839  0.00  0.00     0.106 A 
ATOM     25  N   UNL d   1      -1.162  -1.230  -3.027  0.00  0.00    -0.352 N 
ATOM     26  HN  UNL d   1      -2.129  -1.496  -3.214  1.00  0.00     0.166 HD
BRANCH  23  27
ATOM     27  C   UNL d   1       0.791   0.300  -0.164  0.00  0.00     0.418 C 
ATOM     28  F   UNL d   1      -0.304   0.505   0.619  0.00  0.00    -0.166 F 
ATOM     29  F   UNL d   1       1.401   1.512  -0.275  0.00  0.00    -0.166 F 
ATOM     30  F   UNL d   1       1.636  -0.474   0.572  0.00  0.00    -0.166 F 
ENDBRANCH  23  27
ENDBRANCH   1  20
TORSDOF 5
