REMARK  2 active torsions:
REMARK  status: ('A' for Active; 'I' for Inactive)
REMARK    1  A    between atoms: C_5  and  C_1 
REMARK    2  A    between atoms: C_8  and  C_2 
ROOT
ATOM      1  C   UNL d   1      -1.322  -0.884   0.170  0.00  0.00     0.085 A 
ATOM      2  C   UNL d   1       0.023  -1.376  -0.004  0.00  0.00     0.062 A 
ATOM      3  N   UNL d   1      -1.303   0.427   0.456  0.00  0.00    -0.259 N 
ATOM      4  HN  UNL d   1      -2.108   1.012   0.681  1.00  0.00     0.195 HD
ATOM      5  O   UNL d   1       0.004   0.828   0.389  0.00  0.00    -0.241 OA
ATOM      6  C   UNL d   1       0.798  -0.232   0.101  0.00  0.00     0.088 A 
ATOM      7  C   UNL d   1       2.228   0.107  -0.056  0.00  0.00     0.080 C 
ENDROOT
BRANCH   1   8
ATOM      8  C   UNL d   1      -2.604  -1.594   0.108  0.00  0.00     0.054 A 
ATOM      9  C   UNL d   1      -3.724  -1.089  -0.580  0.00  0.00     0.049 A 
ATOM     10 CL   UNL d   1      -3.699   0.388  -1.492  0.00  0.00    -0.083 Cl
ATOM     11  C   UNL d   1      -4.936  -1.798  -0.602  0.00  0.00     0.025 A 
ATOM     12  C   UNL d   1      -5.045  -3.030   0.038  0.00  0.00     0.005 A 
ATOM     13  C   UNL d   1      -3.949  -3.545   0.716  0.00  0.00     0.043 A 
ATOM     14  C   UNL d   1      -2.753  -2.826   0.761  0.00  0.00     0.130 A 
ATOM     15  F   UNL d   1      -1.741  -3.356   1.461  0.00  0.00    -0.205 F 
ENDBRANCH   1   8
BRANCH   2  16
ATOM     16  C   UNL d   1       0.478  -2.720  -0.273  0.00  0.00     0.109 C 
ATOM     17  S   UNL d   1       1.718  -3.389   0.606  0.00  0.00    -0.060 SA
ATOM     18  N   UNL d   1      -0.161  -3.438  -1.240  0.00  0.00    -0.389 N 
ATOM     19  H   UNL d   1      -0.923  -3.069  -1.796  0.00  0.00     0.157 HD
ATOM     20  H   UNL d   1       0.123  -4.396  -1.398  0.00  0.00     0.157 HD
ENDBRANCH   2  16
TORSDOF 2
