REMARK  2 active torsions:
REMARK  status: ('A' for Active; 'I' for Inactive)
REMARK       I    between atoms: N_3  and  C_1 
REMARK       I    between atoms: N_9  and  C_1 
REMARK    1  A    between atoms: C_2  and  N_4 
REMARK    2  A    between atoms: C_18  and  N_9 
ROOT
ATOM      1  C   UNL d   1       0.927  -0.082   0.175  0.00  0.00     0.323 C 
ATOM      2  N   UNL d   1       0.349  -1.280  -0.203  0.00  0.00    -0.331 N 
ATOM      3  N   UNL d   1      -0.009  -3.821  -1.430  0.00  0.00    -0.214 N 
ATOM      4  N   UNL d   1       0.458   1.057  -0.431  0.00  0.00    -0.309 N 
ATOM      5  O   UNL d   1       1.828  -0.080   1.013  0.00  0.00    -0.247 OA
ATOM      6  C   UNL d   1       0.847  -2.507   0.447  0.00  0.00     0.148 C 
ATOM      7  C   UNL d   1      -0.802  -1.508  -1.094  0.00  0.00     0.148 C 
ATOM      8  C   UNL d   1       1.155  -3.611  -0.576  0.00  0.00     0.161 C 
ATOM      9  C   UNL d   1      -0.536  -2.642  -2.110  0.00  0.00     0.161 C 
ATOM     10  H   UNL d   1      -0.308   0.964  -1.069  0.00  0.00     0.170 HD
ENDROOT
BRANCH   4  11
ATOM     11  C   UNL d   1       0.996   2.362  -0.311  0.00  0.00     0.036 A 
ATOM     12  C   UNL d   1       2.090   2.686   0.497  0.00  0.00     0.031 A 
ATOM     13  C   UNL d   1       2.636   3.973   0.490  0.00  0.00     0.026 A 
ATOM     14  C   UNL d   1       2.082   4.955  -0.320  0.00  0.00     0.034 A 
ATOM     15  C   UNL d   1       0.961   4.668  -1.095  0.00  0.00     0.026 A 
ATOM     16 CL   UNL d   1       2.791   6.519  -0.374  0.00  0.00    -0.084 Cl
ATOM     17  C   UNL d   1       0.417   3.377  -1.089  0.00  0.00     0.031 A 
ENDBRANCH   4  11
BRANCH   3  18
ATOM     18  C   UNL d   1      -0.596  -5.050  -1.545  0.00  0.00     0.680 A 
ATOM     19  N   UNL d   1      -1.692  -5.179  -2.312  0.00  0.00    -0.201 N 
ATOM     20  C   UNL d   1      -2.238  -6.410  -2.431  0.00  0.00     0.126 A 
ATOM     21  HN  UNL d   1      -2.099  -4.374  -2.788  1.00  0.00     0.183 HD
ATOM     22  C   UNL d   1      -1.736  -7.524  -1.812  0.00  0.00     0.042 A 
ATOM     23  C   UNL d   1      -0.630  -7.305  -1.037  0.00  0.00     0.126 A 
ATOM     24 BR   UNL d   1      -2.502  -9.223  -2.018  0.00  0.00    -0.048 Br
ATOM     25  N   UNL d   1      -0.054  -6.092  -0.889  0.00  0.00    -0.201 N 
ATOM     26  HN  UNL d   1       0.767  -5.969  -0.297  1.00  0.00     0.183 HD
ENDBRANCH   3  18
TORSDOF 2
