REMARK  7 active torsions:
REMARK  status: ('A' for Active; 'I' for Inactive)
REMARK       I    between atoms: C_2  and  N_1 
REMARK    1  A    between atoms: C_11  and  C_2 
REMARK    2  A    between atoms: O_19  and  C_8 
REMARK    3  A    between atoms: O_20  and  C_10 
REMARK    4  A    between atoms: C_12  and  C_11 
REMARK    5  A    between atoms: C_17  and  C_12 
REMARK    6  A    between atoms: C_13  and  C_17 
REMARK    7  A    between atoms: O_18  and  C_13 
ROOT
ATOM      1  N   UNL d   1      -2.475   0.547  -0.126  0.00  0.00    -0.343 N 
ATOM      2  C   UNL d   1      -3.291   0.866  -1.201  0.00  0.00     0.221 C 
ATOM      3  C   UNL d   1      -0.029   0.540   0.191  0.00  0.00    -0.026 A 
ATOM      4  C   UNL d   1      -1.325   1.316   0.382  0.00  0.00     0.116 C 
ATOM      5  C   UNL d   1      -0.025  -0.856   0.019  0.00  0.00    -0.045 A 
ATOM      6  C   UNL d   1       1.194   1.230   0.225  0.00  0.00     0.049 A 
ATOM      7  C   UNL d   1      -2.538  -0.825   0.386  0.00  0.00     0.131 C 
ATOM      8  C   UNL d   1       2.409   0.554   0.075  0.00  0.00     0.102 A 
ATOM      9  C   UNL d   1       1.198  -1.537  -0.114  0.00  0.00     0.047 A 
ATOM     10  C   UNL d   1       2.416  -0.845  -0.074  0.00  0.00     0.102 A 
ATOM     11  O   UNL d   1      -4.234   0.133  -1.511  0.00  0.00    -0.273 OA
ATOM     12  C   UNL d   1      -1.324  -1.624  -0.100  0.00  0.00     0.059 C 
ATOM     13  C   UNL d   1      -1.511   1.678   1.864  0.00  0.00     0.037 C 
ENDROOT
BRANCH   2  14
ATOM     14  C   UNL d   1      -3.006   2.091  -2.071  0.00  0.00     0.112 C 
BRANCH  14  15
ATOM     15  C   UNL d   1      -4.144   3.147  -2.182  0.00  0.00    -0.030 C 
ATOM     16  C   UNL d   1      -3.683   4.246  -3.170  0.00  0.00     0.016 C 
ATOM     17  C   UNL d   1      -5.427   2.530  -2.788  0.00  0.00     0.016 C 
BRANCH  15  18
ATOM     18  C   UNL d   1      -4.534   3.768  -0.818  0.00  0.00     0.119 C 
BRANCH  18  19
ATOM     19  C   UNL d   1      -3.437   4.467  -0.043  0.00  0.00     0.140 C 
ATOM     20  O   UNL d   1      -2.282   4.619  -0.404  0.00  0.00    -0.650 OA
BRANCH  19  21
ATOM     21  O   UNL d   1      -3.875   4.920   1.156  0.00  0.00    -0.776 OA
ATOM     22  H   UNL d   1      -4.820   4.740   1.326  0.00  0.00     0.167 HD
ENDBRANCH  19  21
ENDBRANCH  18  19
ENDBRANCH  15  18
ENDBRANCH  14  15
ENDBRANCH   2  14
BRANCH   8  23
ATOM     23  O   UNL d   1       3.629   1.187   0.108  0.00  0.00    -0.353 OA
ATOM     24  C   UNL d   1       3.635   2.539  -0.337  0.00  0.00     0.210 C 
ENDBRANCH   8  23
BRANCH  10  25
ATOM     25  O   UNL d   1       3.650  -1.433  -0.191  0.00  0.00    -0.353 OA
ATOM     26  C   UNL d   1       3.697  -2.846  -0.329  0.00  0.00     0.210 C 
ENDBRANCH  10  25
TORSDOF 7
