REMARK  8 active torsions:
REMARK  status: ('A' for Active; 'I' for Inactive)
REMARK    1  A    between atoms: C_5  and  C_1 
REMARK       I    between atoms: N_8  and  C_1 
REMARK    2  A    between atoms: C_2  and  C_6 
REMARK    3  A    between atoms: C_3  and  C_7 
REMARK    4  A    between atoms: S_4  and  C_5 
REMARK    5  A    between atoms: C_11  and  S_4 
REMARK    6  A    between atoms: C_16  and  C_5 
REMARK    7  A    between atoms: C_9  and  N_8 
REMARK    8  A    between atoms: N_23  and  C_15 
ROOT
ATOM      1  C   UNL d   1       0.970   0.145   0.111  0.00  0.00     0.240 C 
ATOM      2  N   UNL d   1       1.029   1.518  -0.064  0.00  0.00    -0.326 N 
ATOM      3  O   UNL d   1       1.373  -0.426   1.127  0.00  0.00    -0.272 OA
ATOM      4  H   UNL d   1       0.509   1.906  -0.844  0.00  0.00     0.169 HD
ENDROOT
BRANCH   1   5
ATOM      5  C   UNL d   1       0.378  -0.683  -1.061  0.00  0.00     0.177 C 
BRANCH   5   6
ATOM      6  S   UNL d   1      -0.320   0.301  -2.473  0.00  0.00    -0.109 SA
BRANCH   6   7
ATOM      7  C   UNL d   1      -1.631   1.240  -1.695  0.00  0.00     0.022 A 
ATOM      8  C   UNL d   1      -1.612   2.648  -1.819  0.00  0.00     0.022 A 
ATOM      9  C   UNL d   1      -2.537   3.403  -1.095  0.00  0.00     0.024 A 
ATOM     10  C   UNL d   1      -3.531   2.772  -0.347  0.00  0.00     0.002 A 
ATOM     11  C   UNL d   1      -3.592   1.381  -0.293  0.00  0.00     0.001 A 
ATOM     12  C   UNL d   1      -2.642   0.612  -0.966  0.00  0.00     0.020 A 
BRANCH   8  13
ATOM     13  N   UNL d   1      -0.506   3.305  -2.412  0.00  0.00    -0.302 NA
ATOM     14  H   UNL d   1      -0.097   2.728  -3.151  0.00  0.00     0.124 HD
ATOM     15  H   UNL d   1      -0.738   4.231  -2.763  0.00  0.00     0.124 HD
ENDBRANCH   8  13
ENDBRANCH   6   7
ENDBRANCH   5   6
BRANCH   5  16
ATOM     16  C   UNL d   1       1.404  -1.644  -1.662  0.00  0.00    -0.035 A 
ATOM     17  C   UNL d   1       2.753  -1.279  -1.814  0.00  0.00     0.009 A 
ATOM     18  C   UNL d   1       3.651  -2.124  -2.467  0.00  0.00     0.001 A 
ATOM     19  C   UNL d   1       3.216  -3.340  -2.986  0.00  0.00     0.000 A 
ATOM     20  C   UNL d   1       1.884  -3.722  -2.837  0.00  0.00     0.001 A 
ATOM     21  C   UNL d   1       0.984  -2.883  -2.178  0.00  0.00     0.009 A 
ENDBRANCH   5  16
ENDBRANCH   1   5
BRANCH   2  22
ATOM     22  C   UNL d   1       1.697   2.455   0.741  0.00  0.00     0.036 A 
ATOM     23  C   UNL d   1       2.714   2.112   1.626  0.00  0.00     0.045 A 
ATOM     24  C   UNL d   1       3.448   3.101   2.301  0.00  0.00     0.050 A 
ATOM     25  C   UNL d   1       3.116   4.453   2.113  0.00  0.00     0.032 A 
ATOM     26  C   UNL d   1       2.077   4.820   1.246  0.00  0.00     0.050 A 
ATOM     27  C   UNL d   1       1.378   3.809   0.565  0.00  0.00     0.045 A 
BRANCH  24  28
ATOM     28  C   UNL d   1       4.613   2.681   3.164  0.00  0.00     0.417 C 
ATOM     29  F   UNL d   1       5.282   3.732   3.716  0.00  0.00    -0.166 F 
ATOM     30  F   UNL d   1       4.240   1.887   4.203  0.00  0.00    -0.166 F 
ATOM     31  F   UNL d   1       5.546   1.977   2.463  0.00  0.00    -0.166 F 
ENDBRANCH  24  28
BRANCH  26  32
ATOM     32  C   UNL d   1       1.720   6.267   1.006  0.00  0.00     0.417 C 
ATOM     33  F   UNL d   1       2.543   7.144   1.642  0.00  0.00    -0.166 F 
ATOM     34  F   UNL d   1       1.770   6.601  -0.315  0.00  0.00    -0.166 F 
ATOM     35  F   UNL d   1       0.458   6.571   1.417  0.00  0.00    -0.166 F 
ENDBRANCH  26  32
ENDBRANCH   2  22
TORSDOF 8
