REMARK  4 active torsions:
REMARK  status: ('A' for Active; 'I' for Inactive)
REMARK    1  A    between atoms: C_9  and  C_1 
REMARK    2  A    between atoms: C_22  and  C_6 
REMARK    3  A    between atoms: C_10  and  N_7 
REMARK    4  A    between atoms: N_8  and  C_9 
ROOT
ATOM      1  N   UNL d   1       3.851  -0.399  -0.130  0.00  0.00    -0.378 N 
ATOM      2  N   UNL d   1       1.551  -2.013   0.035  0.00  0.00    -0.404 N 
ATOM      3  C   UNL d   1       3.141  -0.840  -1.371  0.00  0.00     0.142 C 
ATOM      4  C   UNL d   1       3.260  -0.790   1.183  0.00  0.00     0.142 C 
ATOM      5  C   UNL d   1       2.269  -2.100  -1.218  0.00  0.00     0.137 C 
ATOM      6  C   UNL d   1       2.441  -2.091   1.167  0.00  0.00     0.137 C 
ENDROOT
BRANCH   2   7
ATOM      7  C   UNL d   1       0.181  -2.425   0.126  0.00  0.00     0.176 C 
BRANCH   7   8
ATOM      8  C   UNL d   1      -0.708  -1.275  -0.216  0.00  0.00     0.050 A 
ATOM      9  N   UNL d   1      -0.291   0.038  -0.284  0.00  0.00    -0.346 N 
ATOM     10  C   UNL d   1      -1.393   0.825  -0.502  0.00  0.00     0.081 A 
ATOM     11  H   UNL d   1       0.655   0.352  -0.119  0.00  0.00     0.167 HD
ATOM     12  N   UNL d   1      -2.464   0.082  -0.670  0.00  0.00    -0.348 N 
ATOM     13  C   UNL d   1      -2.072  -1.211  -0.441  0.00  0.00     0.031 A 
ATOM     14  HN  UNL d   1      -3.399   0.403  -0.920  1.00  0.00     0.167 HD
ATOM     15  C   UNL d   1      -3.085  -2.280  -0.368  0.00  0.00     0.070 C 
BRANCH  10  16
ATOM     16  C   UNL d   1      -1.382   2.311  -0.427  0.00  0.00     0.072 C 
ATOM     17  C   UNL d   1      -2.277   2.771   0.720  0.00  0.00     0.013 C 
ENDBRANCH  10  16
ENDBRANCH   7   8
ENDBRANCH   2   7
BRANCH   1  18
ATOM     18  C   UNL d   1       4.388   0.913  -0.192  0.00  0.00     0.030 A 
ATOM     19  C   UNL d   1       4.592   1.702   0.960  0.00  0.00     0.032 A 
ATOM     20  C   UNL d   1       5.070   3.016   0.887  0.00  0.00     0.044 A 
ATOM     21  C   UNL d   1       5.384   3.560  -0.345  0.00  0.00     0.116 A 
ATOM     22  C   UNL d   1       5.246   2.811  -1.500  0.00  0.00     0.044 A 
ATOM     23  F   UNL d   1       5.835   4.818  -0.420  0.00  0.00    -0.206 F 
ATOM     24  C   UNL d   1       4.766   1.498  -1.418  0.00  0.00     0.032 A 
ENDBRANCH   1  18
TORSDOF 4
