REMARK  6 active torsions:
REMARK  status: ('A' for Active; 'I' for Inactive)
REMARK    1  A    between atoms: C_2  and  C_1 
REMARK       I    between atoms: N_4  and  C_2 
REMARK    2  A    between atoms: C_13  and  C_6 
REMARK    3  A    between atoms: C_7  and  N_15 
REMARK    4  A    between atoms: C_12  and  C_8 
REMARK    5  A    between atoms: C_14  and  C_12 
REMARK    6  A    between atoms: O_26  and  C_13 
REMARK       I    between atoms: N_15  and  C_14 
ROOT
ATOM      1  C   UNL d   1       3.896   0.141   0.036  0.00  0.00     0.263 C 
ATOM      2  N   UNL d   1       4.561  -1.077   0.241  0.00  0.00    -0.332 N 
ATOM      3  C   UNL d   1       4.298  -2.294  -0.580  0.00  0.00     0.188 C 
ATOM      4  C   UNL d   1       4.006  -3.554   0.272  0.00  0.00     0.241 C 
ATOM      5  N   UNL d   1       4.626  -3.628   1.497  0.00  0.00    -0.358 N 
ATOM      6  O   UNL d   1       2.935   0.190  -0.729  0.00  0.00    -0.267 OA
ATOM      7  O   UNL d   1       3.432  -4.549  -0.162  0.00  0.00    -0.271 OA
ATOM      8  C   UNL d   1       5.515  -1.319   1.331  0.00  0.00     0.147 C 
ATOM      9  C   UNL d   1       5.037  -2.455   2.232  0.00  0.00     0.142 C 
ATOM     10  H   UNL d   1       4.413  -4.479   2.009  0.00  0.00     0.162 HD
ENDROOT
BRANCH   3  11
ATOM     11  C   UNL d   1       3.415  -2.226  -1.829  0.00  0.00     0.138 C 
BRANCH  11  12
ATOM     12  C   UNL d   1       1.906  -2.434  -1.735  0.00  0.00     0.224 C 
ATOM     13  N   UNL d   1       1.279  -2.020  -0.579  0.00  0.00    -0.326 N 
ATOM     14  H   UNL d   1       1.793  -1.396   0.039  0.00  0.00     0.169 HD
ATOM     15  O   UNL d   1       1.319  -2.873  -2.728  0.00  0.00    -0.273 OA
BRANCH  13  16
ATOM     16  C   UNL d   1      -0.107  -2.077  -0.376  0.00  0.00     0.058 A 
ATOM     17  C   UNL d   1      -0.751  -1.358   0.624  0.00  0.00     0.106 A 
ATOM     18  S   UNL d   1      -2.459  -1.552   0.545  0.00  0.00    -0.094 SA
ATOM     19  C   UNL d   1      -2.350  -2.632  -0.763  0.00  0.00     0.053 A 
ATOM     20  C   UNL d   1      -1.044  -2.848  -1.136  0.00  0.00     0.038 A 
BRANCH  17  21
ATOM     21  C   UNL d   1      -0.144  -0.518   1.643  0.00  0.00     0.302 C 
ATOM     22  O   UNL d   1       1.058  -0.503   1.905  0.00  0.00    -0.259 OA
BRANCH  21  23
ATOM     23  O   UNL d   1      -1.065   0.268   2.264  0.00  0.00    -0.322 OA
ATOM     24  C   UNL d   1      -0.545   1.144   3.263  0.00  0.00     0.213 C 
ENDBRANCH  21  23
ENDBRANCH  17  21
ENDBRANCH  13  16
ENDBRANCH  11  12
ENDBRANCH   3  11
BRANCH   1  25
ATOM     25  C   UNL d   1       4.311   1.327   0.770  0.00  0.00     0.096 C 
ATOM     26  S   UNL d   1       3.076   2.300   1.452  0.00  0.00    -0.082 SA
ATOM     27  C   UNL d   1       4.194   3.371   2.185  0.00  0.00     0.017 A 
ATOM     28  C   UNL d   1       3.888   4.483   2.994  0.00  0.00     0.020 A 
ATOM     29  C   UNL d   1       5.511   3.015   1.887  0.00  0.00     0.004 A 
ATOM     30  C   UNL d   1       4.932   5.213   3.562  0.00  0.00     0.001 A 
ATOM     31  C   UNL d   1       6.250   4.851   3.330  0.00  0.00     0.001 A 
ATOM     32  C   UNL d   1       6.548   3.776   2.487  0.00  0.00     0.014 A 
ATOM     33  C   UNL d   1       5.549   1.910   0.962  0.00  0.00     0.068 C 
ATOM     34 CL   UNL d   1       7.021   1.398   0.229  0.00  0.00    -0.082 Cl
ENDBRANCH   1  25
TORSDOF 6
