REMARK  9 active torsions:
REMARK  status: ('A' for Active; 'I' for Inactive)
REMARK    1  A    between atoms: N_2  and  S_1 
REMARK    2  A    between atoms: C_3  and  S_1 
REMARK    3  A    between atoms: C_6  and  N_2 
REMARK    4  A    between atoms: C_9  and  C_6 
REMARK    5  A    between atoms: C_12  and  C_9 
REMARK    6  A    between atoms: O_21  and  C_9 
REMARK    7  A    between atoms: O_10  and  C_12 
REMARK    8  A    between atoms: C_11  and  O_10 
REMARK    9  A    between atoms: O_22  and  C_13 
ROOT
ATOM      1  C   UNL d   1       1.042  -1.037  -2.372  0.00  0.00     0.138 C 
ENDROOT
BRANCH   1   2
ATOM      2  N   UNL d   1       0.642  -1.090  -0.952  0.00  0.00    -0.213 NA
ATOM      3  H   UNL d   1      -0.354  -1.201  -0.768  0.00  0.00     0.140 HD
BRANCH   2   4
ATOM      4  S   UNL d   1       1.259   0.138   0.046  0.00  0.00     0.241 S 
ATOM      5  O   UNL d   1       2.664   0.292  -0.249  0.00  0.00    -0.206 OA
ATOM      6  O   UNL d   1       0.773  -0.135   1.383  0.00  0.00    -0.206 OA
BRANCH   4   7
ATOM      7  C   UNL d   1       0.387   1.566  -0.546  0.00  0.00     0.074 A 
ATOM      8  C   UNL d   1      -1.007   1.601  -0.431  0.00  0.00     0.025 A 
ATOM      9  C   UNL d   1      -1.709   2.705  -0.913  0.00  0.00     0.008 A 
ATOM     10  C   UNL d   1      -1.025   3.783  -1.491  0.00  0.00    -0.062 A 
ATOM     11  C   UNL d   1       0.374   3.744  -1.577  0.00  0.00     0.008 A 
ATOM     12  C   UNL d   1      -1.798   4.966  -1.997  0.00  0.00     0.048 C 
ATOM     13  C   UNL d   1       1.084   2.637  -1.107  0.00  0.00     0.025 A 
ENDBRANCH   4   7
ENDBRANCH   2   4
ENDBRANCH   1   2
BRANCH   1  14
ATOM     14  C   UNL d   1       0.486  -2.229  -3.170  0.00  0.00     0.156 C 
BRANCH  14  15
ATOM     15  C   UNL d   1      -1.047  -2.277  -3.220  0.00  0.00     0.208 C 
BRANCH  15  16
ATOM     16  O   UNL d   1      -1.538  -1.039  -3.748  0.00  0.00    -0.349 OA
BRANCH  16  17
ATOM     17  C   UNL d   1      -2.898  -0.898  -3.810  0.00  0.00     0.069 A 
ATOM     18  C   UNL d   1      -3.836  -1.859  -3.433  0.00  0.00     0.039 A 
ATOM     19  C   UNL d   1      -5.207  -1.591  -3.530  0.00  0.00     0.039 A 
ATOM     20  C   UNL d   1      -5.654  -0.362  -4.013  0.00  0.00     0.068 A 
ATOM     21  C   UNL d   1      -4.715   0.596  -4.397  0.00  0.00     0.039 A 
ATOM     22  C   UNL d   1      -3.346   0.331  -4.296  0.00  0.00     0.039 A 
BRANCH  20  23
ATOM     23  O   UNL d   1      -6.960   0.013  -4.160  0.00  0.00    -0.356 OA
ATOM     24  C   UNL d   1      -7.946  -0.933  -3.764  0.00  0.00     0.210 C 
ENDBRANCH  20  23
ENDBRANCH  16  17
ENDBRANCH  15  16
ENDBRANCH  14  15
BRANCH  14  25
ATOM     25  O   UNL d   1       0.991  -2.156  -4.511  0.00  0.00    -0.392 OA
ATOM     26  H   UNL d   1       0.598  -1.361  -4.920  0.00  0.00     0.210 HD
ENDBRANCH  14  25
ENDBRANCH   1  14
TORSDOF 9
