REMARK  5 active torsions:
REMARK  status: ('A' for Active; 'I' for Inactive)
REMARK    1  A    between atoms: C_10  and  N_1 
REMARK    2  A    between atoms: C_9  and  C_2 
REMARK    3  A    between atoms: N_12  and  C_11 
REMARK    4  A    between atoms: C_18  and  N_12 
REMARK    5  A    between atoms: C_19  and  N_12 
ROOT
ATOM      1  N   UNL d   1       0.275  -0.325  -0.965  0.00  0.00    -0.223 N 
ATOM      2  C   UNL d   1       0.947  -0.737   0.189  0.00  0.00     0.145 A 
ATOM      3  N   UNL d   1      -1.070  -0.185   0.708  0.00  0.00    -0.226 N 
ATOM      4  HN  UNL d   1      -1.901   0.001   1.270  1.00  0.00     0.210 HD
ATOM      5  N   UNL d   1      -1.014  -0.067  -0.605  0.00  0.00    -0.219 N 
ATOM      6  HN  UNL d   1      -1.785   0.171  -1.229  1.00  0.00     0.210 HD
ATOM      7  N   UNL d   1       0.128  -0.587   1.214  0.00  0.00    -0.268 N 
ATOM      8  HN  UNL d   1       0.350  -0.742   2.198  1.00  0.00     0.190 HD
ENDROOT
BRANCH   1   9
ATOM      9  C   UNL d   1       0.682  -0.086  -2.311  0.00  0.00     0.060 A 
ATOM     10  C   UNL d   1      -0.308   0.103  -3.292  0.00  0.00     0.032 A 
ATOM     11  C   UNL d   1       0.037   0.401  -4.613  0.00  0.00     0.009 A 
ATOM     12  C   UNL d   1       1.378   0.535  -4.979  0.00  0.00    -0.062 A 
ATOM     13  C   UNL d   1       2.366   0.342  -4.008  0.00  0.00     0.009 A 
ATOM     14  C   UNL d   1       1.732   0.894  -6.394  0.00  0.00     0.048 C 
ATOM     15  C   UNL d   1       2.027   0.030  -2.683  0.00  0.00     0.032 A 
ENDBRANCH   1   9
BRANCH   2  16
ATOM     16  C   UNL d   1       2.263  -1.250   0.230  0.00  0.00     0.068 C 
ATOM     17  C   UNL d   1       2.551  -2.478  -0.217  0.00  0.00     0.089 C 
BRANCH  17  18
ATOM     18  N   UNL d   1       3.772  -3.141  -0.155  0.00  0.00    -0.391 N 
BRANCH  18  19
ATOM     19  C   UNL d   1       4.631  -3.137   1.041  0.00  0.00     0.117 C 
ATOM     20  C   UNL d   1       4.417  -4.401   1.867  0.00  0.00     0.026 C 
ENDBRANCH  18  19
BRANCH  18  21
ATOM     21  C   UNL d   1       4.267  -3.908  -1.304  0.00  0.00     0.117 C 
ATOM     22  C   UNL d   1       5.101  -2.998  -2.196  0.00  0.00     0.026 C 
ENDBRANCH  18  21
ENDBRANCH  17  18
ENDBRANCH   2  16
TORSDOF 5
