REMARK  2 active torsions:
REMARK  status: ('A' for Active; 'I' for Inactive)
REMARK    1  A    between atoms: C_10  and  C_2 
REMARK    2  A    between atoms: C_7  and  C_5 
ROOT
ATOM      1  N   UNL d   1      -0.272   1.155  -0.049  0.00  0.00    -0.353 N 
ATOM      2  C   UNL d   1       1.040   0.612   0.035  0.00  0.00     0.123 C 
ATOM      3  N   UNL d   1       1.046  -0.683   0.118  0.00  0.00    -0.304 N 
ATOM      4  HN  UNL d   1       1.861  -1.297   0.128  1.00  0.00     0.182 HD
ATOM      5  C   UNL d   1      -1.187   0.028  -0.157  0.00  0.00     0.209 C 
ATOM      6  N   UNL d   1      -0.275  -1.054   0.191  0.00  0.00    -0.211 NA
ATOM      7  H   UNL d   1      -0.506   2.122  -0.185  0.00  0.00     0.163 HD
ATOM      8  H   UNL d   1      -0.487  -1.935  -0.278  0.00  0.00     0.149 HD
ENDROOT
BRANCH   5   9
ATOM      9  C   UNL d   1      -1.700  -0.014  -1.583  0.00  0.00    -0.018 A 
ATOM     10  C   UNL d   1      -0.824  -0.179  -2.676  0.00  0.00     0.036 A 
ATOM     11  C   UNL d   1      -1.292  -0.159  -3.995  0.00  0.00     0.056 A 
ATOM     12 CL   UNL d   1      -0.129  -0.342  -5.257  0.00  0.00    -0.083 Cl
ATOM     13  C   UNL d   1      -2.653   0.020  -4.244  0.00  0.00     0.055 A 
ATOM     14  C   UNL d   1      -3.536   0.174  -3.171  0.00  0.00     0.026 A 
ATOM     15 CL   UNL d   1      -3.305   0.069  -5.841  0.00  0.00    -0.083 Cl
ATOM     16  C   UNL d   1      -3.065   0.161  -1.851  0.00  0.00     0.012 A 
ENDBRANCH   5   9
BRANCH   2  17
ATOM     17  C   UNL d   1       2.207   1.486  -0.104  0.00  0.00     0.009 A 
ATOM     18  C   UNL d   1       2.147   2.828   0.290  0.00  0.00     0.017 A 
ATOM     19  C   UNL d   1       3.256   3.657   0.100  0.00  0.00     0.025 A 
ATOM     20  C   UNL d   1       4.416   3.147  -0.486  0.00  0.00     0.034 A 
ATOM     21  C   UNL d   1       4.481   1.811  -0.878  0.00  0.00     0.025 A 
ATOM     22 CL   UNL d   1       5.773   4.175  -0.724  0.00  0.00    -0.084 Cl
ATOM     23  C   UNL d   1       3.378   0.975  -0.681  0.00  0.00     0.017 A 
ENDBRANCH   2  17
TORSDOF 2
