REMARK  6 active torsions:
REMARK  status: ('A' for Active; 'I' for Inactive)
REMARK    1  A    between atoms: C_2  and  C_1 
REMARK       I    between atoms: N_3  and  C_1 
REMARK    2  A    between atoms: C_11  and  N_3 
REMARK    3  A    between atoms: N_4  and  C_14 
REMARK    4  A    between atoms: O_18  and  C_6 
REMARK    5  A    between atoms: N_9  and  C_8 
REMARK    6  A    between atoms: C_15  and  C_10 
ROOT
ATOM      1  C   UNL d   1      -1.246   1.239   0.110  0.00  0.00     0.035 A 
ATOM      2  C   UNL d   1      -4.074   1.314   0.207  0.00  0.00     0.032 A 
ATOM      3  C   UNL d   1      -1.949   0.499   1.060  0.00  0.00     0.032 A 
ATOM      4  C   UNL d   1      -1.966   2.080  -0.745  0.00  0.00     0.032 A 
ATOM      5  C   UNL d   1      -3.346   0.543   1.114  0.00  0.00     0.031 A 
ATOM      6  C   UNL d   1      -3.367   2.114  -0.694  0.00  0.00     0.031 A 
ENDROOT
BRANCH   1   7
ATOM      7  N   UNL d   1       0.156   1.161  -0.059  0.00  0.00    -0.323 N 
ATOM      8  C   UNL d   1       1.010   0.281   0.588  0.00  0.00     0.259 C 
ATOM      9  O   UNL d   1       0.697  -0.537   1.452  0.00  0.00    -0.267 OA
ATOM     10  H   UNL d   1       0.531   1.708  -0.821  0.00  0.00     0.169 HD
BRANCH   8  11
ATOM     11  C   UNL d   1       2.429   0.263   0.141  0.00  0.00     0.065 A 
ATOM     12  C   UNL d   1       3.170  -0.926   0.273  0.00  0.00     0.081 A 
ATOM     13  C   UNL d   1       4.489  -0.998  -0.164  0.00  0.00     0.037 A 
ATOM     14  C   UNL d   1       5.095   0.131  -0.719  0.00  0.00     0.003 A 
ATOM     15  C   UNL d   1       4.383   1.324  -0.823  0.00  0.00     0.001 A 
ATOM     16  C   UNL d   1       3.056   1.397  -0.393  0.00  0.00     0.020 A 
BRANCH  12  17
ATOM     17  O   UNL d   1       2.658  -2.071   0.827  0.00  0.00    -0.360 OA
ATOM     18  H   UNL d   1       1.802  -1.838   1.254  0.00  0.00     0.217 HD
ENDBRANCH  12  17
ENDBRANCH   8  11
ENDBRANCH   1   7
BRANCH   2  19
ATOM     19  N   UNL d   1      -5.478   1.352   0.176  0.00  0.00    -0.365 N 
ATOM     20  C   UNL d   1      -6.141   0.259   0.394  0.00  0.00     0.099 C 
ATOM     21  HN  UNL d   1      -5.969   2.226  -0.014  1.00  0.00     0.165 HD
BRANCH  20  22
ATOM     22  C   UNL d   1      -7.615   0.219   0.348  0.00  0.00    -0.021 A 
ATOM     23  C   UNL d   1      -8.341   1.318  -0.095  0.00  0.00     0.015 A 
ATOM     24  C   UNL d   1      -9.740   1.252  -0.160  0.00  0.00     0.030 A 
ATOM     25  C   UNL d   1     -10.456   0.100   0.210  0.00  0.00     0.029 A 
ATOM     26  C   UNL d   1      -9.683  -0.992   0.651  0.00  0.00     0.030 A 
ATOM     27  C   UNL d   1      -8.283  -0.942   0.726  0.00  0.00     0.015 A 
BRANCH  25  28
ATOM     28  N   UNL d   1     -11.839  -0.003   0.081  0.00  0.00    -0.390 N 
ATOM     29  C   UNL d   1     -12.612  -0.742   1.081  0.00  0.00     0.149 C 
ATOM     30  C   UNL d   1     -12.609   1.023  -0.621  0.00  0.00     0.149 C 
ENDBRANCH  25  28
ENDBRANCH  20  22
ENDBRANCH   2  19
TORSDOF 6
