REMARK  6 active torsions:
REMARK  status: ('A' for Active; 'I' for Inactive)
REMARK    1  A    between atoms: C_10  and  C_1 
REMARK    2  A    between atoms: C_5  and  O_12 
REMARK       I    between atoms: N_11  and  C_5 
REMARK    3  A    between atoms: O_12  and  N_7 
REMARK    4  A    between atoms: C_9  and  C_10 
REMARK    5  A    between atoms: N_17  and  C_9 
REMARK    6  A    between atoms: C_18  and  N_11 
ROOT
ATOM      1  N   UNL d   1       4.066  -1.190   0.659  0.00  0.00    -0.249 N 
ATOM      2  HN  UNL d   1       5.008  -1.139   1.047  1.00  0.00     0.196 HD
ATOM      3  C   UNL d   1       3.425  -2.290   0.374  0.00  0.00     0.080 C 
ENDROOT
BRANCH   3   4
ATOM      4  C   UNL d   1       4.124  -3.621   0.654  0.00  0.00     0.111 C 
BRANCH   4   5
ATOM      5  C   UNL d   1       3.404  -4.400   1.723  0.00  0.00    -0.033 A 
ATOM      6  C   UNL d   1       3.246  -3.966   3.096  0.00  0.00    -0.010 A 
ATOM      7  C   UNL d   1       2.486  -4.870   3.844  0.00  0.00     0.015 A 
ATOM      8  C   UNL d   1       3.720  -2.800   3.756  0.00  0.00     0.037 A 
ATOM      9  C   UNL d   1       2.177  -4.639   5.200  0.00  0.00     0.021 A 
ATOM     10  S   UNL d   1       2.025  -6.231   2.899  0.00  0.00    -0.101 SA
ATOM     11  C   UNL d   1       2.662  -3.485   5.819  0.00  0.00     0.025 A 
ATOM     12  C   UNL d   1       3.429  -2.581   5.102  0.00  0.00     0.035 A 
ATOM     13 CL   UNL d   1       4.040  -1.170   5.878  0.00  0.00    -0.084 Cl
ATOM     14  C   UNL d   1       2.820  -5.636   1.517  0.00  0.00     0.058 A 
ENDBRANCH   4   5
ENDBRANCH   3   4
BRANCH   3  15
ATOM     15  N   UNL d   1       2.155  -2.330  -0.154  0.00  0.00    -0.290 NA
ATOM     16  H   UNL d   1       1.660  -1.446  -0.079  0.00  0.00     0.125 HD
ATOM     17  H   UNL d   1       1.581  -3.125   0.109  0.00  0.00     0.125 HD
ENDBRANCH   3  15
BRANCH   1  18
ATOM     18  O   UNL d   1       3.245  -0.075   0.343  0.00  0.00    -0.180 OA
BRANCH  18  19
ATOM     19  C   UNL d   1       3.896   1.140   0.478  0.00  0.00     0.387 C 
ATOM     20  N   UNL d   1       5.145   1.038   1.039  0.00  0.00    -0.301 N 
ATOM     21  H   UNL d   1       5.366   0.084   1.298  0.00  0.00     0.171 HD
ATOM     22  O   UNL d   1       3.335   2.169   0.114  0.00  0.00    -0.236 OA
BRANCH  20  23
ATOM     23  C   UNL d   1       6.130   2.031   1.162  0.00  0.00     0.036 A 
ATOM     24  C   UNL d   1       5.973   3.338   0.696  0.00  0.00     0.029 A 
ATOM     25  C   UNL d   1       7.040   4.241   0.740  0.00  0.00     0.002 A 
ATOM     26  C   UNL d   1       8.268   3.849   1.267  0.00  0.00     0.000 A 
ATOM     27  C   UNL d   1       8.421   2.563   1.777  0.00  0.00     0.002 A 
ATOM     28  C   UNL d   1       7.355   1.659   1.728  0.00  0.00     0.029 A 
ENDBRANCH  20  23
ENDBRANCH  18  19
ENDBRANCH   1  18
TORSDOF 6
