REMARK  3 active torsions:
REMARK  status: ('A' for Active; 'I' for Inactive)
REMARK    1  A    between atoms: C_6  and  N_1 
REMARK    2  A    between atoms: C_17  and  C_9 
REMARK    3  A    between atoms: C_16  and  C_10 
ROOT
ATOM      1  C   UNL d   1      -2.536  -0.004  -0.555  0.00  0.00     0.058 A 
ATOM      2  C   UNL d   1      -2.894   0.589  -1.791  0.00  0.00    -0.030 A 
ATOM      3  C   UNL d   1      -3.517  -0.625   0.253  0.00  0.00    -0.030 A 
ATOM      4  C   UNL d   1      -5.168  -0.220  -1.492  0.00  0.00     0.001 A 
ATOM      5  C   UNL d   1      -4.830  -0.725  -0.239  0.00  0.00     0.009 A 
ATOM      6  C   UNL d   1      -4.213   0.445  -2.253  0.00  0.00     0.009 A 
ENDROOT
BRANCH   1   7
ATOM      7  N   UNL d   1      -1.185  -0.039  -0.162  0.00  0.00    -0.243 N 
ATOM      8  C   UNL d   1      -0.502   1.013   0.362  0.00  0.00     0.261 A 
ATOM      9  C   UNL d   1       0.929   0.679   0.276  0.00  0.00     0.018 A 
ATOM     10  O   UNL d   1      -0.927   2.063   0.815  0.00  0.00    -0.267 OA
ATOM     11  C   UNL d   1       2.005   1.642   0.609  0.00  0.00     0.055 C 
ATOM     12  C   UNL d   1       1.037  -0.546  -0.254  0.00  0.00     0.018 A 
ATOM     13  C   UNL d   1      -0.326  -1.024  -0.564  0.00  0.00     0.261 A 
ATOM     14  C   UNL d   1       2.256  -1.318  -0.589  0.00  0.00     0.055 C 
ATOM     15  O   UNL d   1      -0.554  -2.082  -1.121  0.00  0.00    -0.267 OA
ENDBRANCH   1   7
BRANCH   2  16
ATOM     16  C   UNL d   1      -1.946   1.410  -2.639  0.00  0.00     0.036 C 
ATOM     17  C   UNL d   1      -1.282   0.631  -3.763  0.00  0.00     0.010 C 
ENDBRANCH   2  16
BRANCH   3  18
ATOM     18  C   UNL d   1      -3.239  -1.085   1.669  0.00  0.00     0.036 C 
ATOM     19  C   UNL d   1      -3.544  -2.554   1.922  0.00  0.00     0.010 C 
ENDBRANCH   3  18
TORSDOF 3
