REMARK  7 active torsions:
REMARK  status: ('A' for Active; 'I' for Inactive)
REMARK       I    between atoms: C_6  and  N_1 
REMARK    1  A    between atoms: C_16  and  C_6 
REMARK    2  A    between atoms: O_18  and  C_8 
REMARK    3  A    between atoms: O_19  and  C_10 
REMARK    4  A    between atoms: C_11  and  C_20 
REMARK    5  A    between atoms: O_17  and  C_11 
REMARK    6  A    between atoms: S_15  and  C_16 
REMARK    7  A    between atoms: C_20  and  S_15 
ROOT
ATOM      1  N   UNL d   1      -2.491   0.606  -0.345  0.00  0.00    -0.343 N 
ATOM      2  C   UNL d   1      -0.051   0.612   0.045  0.00  0.00    -0.026 A 
ATOM      3  C   UNL d   1      -1.341   1.417   0.068  0.00  0.00     0.116 C 
ATOM      4  C   UNL d   1      -0.044  -0.788  -0.029  0.00  0.00    -0.045 A 
ATOM      5  C   UNL d   1       1.168   1.304   0.091  0.00  0.00     0.049 A 
ATOM      6  C   UNL d   1      -3.402   1.161  -1.237  0.00  0.00     0.229 C 
ATOM      7  C   UNL d   1      -2.554  -0.736   0.240  0.00  0.00     0.131 C 
ATOM      8  C   UNL d   1       2.390   0.626   0.088  0.00  0.00     0.102 A 
ATOM      9  C   UNL d   1       1.183  -1.472  -0.061  0.00  0.00     0.047 A 
ATOM     10  C   UNL d   1       2.399  -0.777  -0.000  0.00  0.00     0.102 A 
ATOM     11  C   UNL d   1      -1.334  -1.561  -0.166  0.00  0.00     0.059 C 
ATOM     12  O   UNL d   1      -3.291   2.325  -1.625  0.00  0.00    -0.273 OA
ATOM     13  C   UNL d   1      -1.573   2.040   1.449  0.00  0.00     0.037 C 
ENDROOT
BRANCH   6  14
ATOM     14  C   UNL d   1      -4.533   0.256  -1.714  0.00  0.00     0.177 C 
BRANCH  14  15
ATOM     15  S   UNL d   1      -5.611   1.010  -2.990  0.00  0.00    -0.149 SA
BRANCH  15  16
ATOM     16  C   UNL d   1      -4.402   1.228  -4.353  0.00  0.00     0.184 C 
BRANCH  16  17
ATOM     17  C   UNL d   1      -3.914  -0.102  -4.887  0.00  0.00     0.149 C 
ATOM     18  O   UNL d   1      -2.808  -0.274  -5.386  0.00  0.00    -0.649 OA
BRANCH  17  19
ATOM     19  O   UNL d   1      -4.830  -1.097  -4.818  0.00  0.00    -0.776 OA
ATOM     20  H   UNL d   1      -5.659  -0.775  -4.400  0.00  0.00     0.167 HD
ENDBRANCH  17  19
ENDBRANCH  16  17
ENDBRANCH  15  16
ENDBRANCH  14  15
ENDBRANCH   6  14
BRANCH   8  21
ATOM     21  O   UNL d   1       3.602   1.271   0.124  0.00  0.00    -0.353 OA
ATOM     22  C   UNL d   1       3.605   2.565   0.714  0.00  0.00     0.210 C 
ENDBRANCH   8  21
BRANCH  10  23
ATOM     23  O   UNL d   1       3.634  -1.379  -0.017  0.00  0.00    -0.353 OA
ATOM     24  C   UNL d   1       3.667  -2.796  -0.111  0.00  0.00     0.210 C 
ENDBRANCH  10  23
TORSDOF 7
