REMARK  2 active torsions:
REMARK  status: ('A' for Active; 'I' for Inactive)
REMARK       I    between atoms: N_2  and  C_1 
REMARK       I    between atoms: N_4  and  C_1 
REMARK    1  A    between atoms: C_5  and  N_3 
REMARK    2  A    between atoms: C_13  and  N_4 
ROOT
ATOM      1  C   UNL d   1       0.953  -0.069   0.149  0.00  0.00     0.323 C 
ATOM      2  N   UNL d   1       0.407  -1.341   0.017  0.00  0.00    -0.331 N 
ATOM      3  N   UNL d   1      -0.456  -4.047  -0.080  0.00  0.00    -0.364 N 
ATOM      4  N   UNL d   1       0.411   0.905  -0.657  0.00  0.00    -0.309 N 
ATOM      5  O   UNL d   1       1.871   0.131   0.941  0.00  0.00    -0.247 OA
ATOM      6  C   UNL d   1       0.890  -2.343   0.986  0.00  0.00     0.147 C 
ATOM      7  C   UNL d   1      -0.863  -1.704  -0.657  0.00  0.00     0.147 C 
ATOM      8  C   UNL d   1       0.891  -3.760   0.406  0.00  0.00     0.144 C 
ATOM      9  C   UNL d   1      -0.898  -3.170  -1.163  0.00  0.00     0.144 C 
ATOM     10  H   UNL d   1      -0.333   0.638  -1.274  0.00  0.00     0.170 HD
ENDROOT
BRANCH   4  11
ATOM     11  C   UNL d   1       0.796   2.264  -0.734  0.00  0.00     0.036 A 
ATOM     12  C   UNL d   1       1.831   2.831   0.016  0.00  0.00     0.029 A 
ATOM     13  C   UNL d   1       2.148   4.187  -0.115  0.00  0.00     0.002 A 
ATOM     14  C   UNL d   1       1.435   4.989  -0.997  0.00  0.00     0.000 A 
ATOM     15  C   UNL d   1       0.405   4.438  -1.754  0.00  0.00     0.002 A 
ATOM     16  C   UNL d   1       0.089   3.081  -1.624  0.00  0.00     0.029 A 
ENDBRANCH   4  11
BRANCH   3  17
ATOM     17  C   UNL d   1      -1.066  -5.260   0.138  0.00  0.00     0.102 A 
ATOM     18  N   UNL d   1      -1.828  -5.798  -0.836  0.00  0.00    -0.352 N 
ATOM     19  C   UNL d   1      -2.462  -6.965  -0.585  0.00  0.00     0.089 A 
ATOM     20  HN  UNL d   1      -1.924  -5.335  -1.740  1.00  0.00     0.166 HD
ATOM     21  C   UNL d   1      -2.404  -7.638   0.622  0.00  0.00     0.017 A 
ATOM     22  C   UNL d   1      -1.641  -7.078   1.631  0.00  0.00     0.005 A 
ATOM     23  C   UNL d   1      -0.966  -5.885   1.383  0.00  0.00     0.048 A 
ENDBRANCH   3  17
TORSDOF 2
