REMARK  4 active torsions:
REMARK  status: ('A' for Active; 'I' for Inactive)
REMARK    1  A    between atoms: C_4  and  N_1 
REMARK    2  A    between atoms: S_10  and  C_2 
REMARK    3  A    between atoms: C_16  and  S_10 
REMARK    4  A    between atoms: C_17  and  C_16 
ROOT
ATOM      1  N   UNL d   1       1.062  -0.654   0.063  0.00  0.00    -0.272 N 
ATOM      2  C   UNL d   1       0.955   0.698   0.172  0.00  0.00     0.166 C 
ATOM      3  C   UNL d   1      -0.217  -1.099   0.336  0.00  0.00     0.343 C 
ATOM      4  N   UNL d   1      -0.199   1.135   0.584  0.00  0.00    -0.276 N 
ATOM      5  HN  UNL d   1      -0.482   2.101   0.750  1.00  0.00     0.189 HD
ATOM      6  N   UNL d   1      -0.941   0.008   0.740  0.00  0.00    -0.249 N 
ATOM      7  O   UNL d   1      -0.682  -2.215   0.173  0.00  0.00    -0.245 OA
ATOM      8  H   UNL d   1      -1.944   0.026   0.868  0.00  0.00     0.192 HD
ENDROOT
BRANCH   2   9
ATOM      9  S   UNL d   1       2.245   1.777  -0.225  0.00  0.00    -0.088 SA
BRANCH   9  10
ATOM     10  C   UNL d   1       1.754   3.225   0.755  0.00  0.00     0.121 C 
BRANCH  10  11
ATOM     11  C   UNL d   1       2.784   4.326   0.689  0.00  0.00    -0.049 A 
ATOM     12  C   UNL d   1       2.715   5.309  -0.309  0.00  0.00     0.008 A 
ATOM     13  C   UNL d   1       3.659   6.337  -0.361  0.00  0.00     0.001 A 
ATOM     14  C   UNL d   1       4.686   6.391   0.579  0.00  0.00     0.000 A 
ATOM     15  C   UNL d   1       4.772   5.413   1.569  0.00  0.00     0.001 A 
ATOM     16  C   UNL d   1       3.830   4.385   1.623  0.00  0.00     0.008 A 
ENDBRANCH  10  11
ENDBRANCH   9  10
ENDBRANCH   2   9
BRANCH   1  17
ATOM     17  C   UNL d   1       1.979  -1.531  -0.664  0.00  0.00     0.105 C 
ATOM     18  C   UNL d   1       3.449  -1.117  -0.941  0.00  0.00     0.032 C 
ATOM     19  C   UNL d   1       4.242  -1.019   0.345  0.00  0.00    -0.024 C 
ATOM     20  C   UNL d   1       4.004  -2.463  -1.442  0.00  0.00     0.019 C 
ATOM     21  C   UNL d   1       4.390  -2.264   0.822  0.00  0.00    -0.026 C 
ATOM     22  C   UNL d   1       3.688  -3.193  -0.137  0.00  0.00     0.010 C 
ATOM     23  C   UNL d   1       2.171  -2.944   0.004  0.00  0.00     0.035 C 
ENDBRANCH   1  17
TORSDOF 4
