REMARK  4 active torsions:
REMARK  status: ('A' for Active; 'I' for Inactive)
REMARK    1  A    between atoms: C_2  and  C_1 
REMARK    2  A    between atoms: C_3  and  C_1 
REMARK    3  A    between atoms: O_6  and  C_1 
REMARK       I    between atoms: N_10  and  C_3 
REMARK    4  A    between atoms: C_11  and  O_6 
ROOT
ATOM      1  C   UNL d   1       1.079  -0.132   0.061  0.00  0.00     0.384 C 
ATOM      2  F   UNL d   1       0.657   0.953  -0.671  0.00  0.00    -0.190 F 
ENDROOT
BRANCH   1   3
ATOM      3  C   UNL d   1       0.460  -1.425  -0.515  0.00  0.00     0.459 C 
ATOM      4  F   UNL d   1      -0.809  -1.650  -0.096  0.00  0.00    -0.165 F 
ATOM      5  F   UNL d   1       0.400  -1.356  -1.874  0.00  0.00    -0.165 F 
ATOM      6  F   UNL d   1       1.185  -2.531  -0.223  0.00  0.00    -0.165 F 
ENDBRANCH   1   3
BRANCH   1   7
ATOM      7  C   UNL d   1       0.525  -0.028   1.492  0.00  0.00     0.293 C 
ATOM      8  O   UNL d   1       0.946  -0.657   2.461  0.00  0.00    -0.267 OA
ATOM      9  N   UNL d   1      -0.530   0.843   1.654  0.00  0.00    -0.365 N 
ATOM     10  H   UNL d   1      -0.777   1.509   0.932  0.00  0.00     0.159 HD
ATOM     11  H   UNL d   1      -0.874   0.997   2.593  0.00  0.00     0.159 HD
ENDBRANCH   1   7
BRANCH   1  12
ATOM     12  O   UNL d   1       2.506  -0.089   0.113  0.00  0.00    -0.338 OA
BRANCH  12  13
ATOM     13  C   UNL d   1       3.137  -0.160  -1.157  0.00  0.00     0.168 C 
ATOM     14  C   UNL d   1       4.638  -0.178  -0.933  0.00  0.00     0.033 C 
ENDBRANCH  12  13
ENDBRANCH   1  12
TORSDOF 4
