REMARK  8 active torsions:
REMARK  status: ('A' for Active; 'I' for Inactive)
REMARK    1  A    between atoms: O_17  and  C_1 
REMARK    2  A    between atoms: O_18  and  C_2 
REMARK    3  A    between atoms: O_19  and  C_3 
REMARK    4  A    between atoms: C_4  and  N_7 
REMARK    5  A    between atoms: N_5  and  C_6 
REMARK       I    between atoms: C_8  and  N_5 
REMARK    6  A    between atoms: N_7  and  C_16 
REMARK    7  A    between atoms: C_16  and  C_12 
REMARK    8  A    between atoms: O_21  and  C_15 
ROOT
ATOM      1  N   UNL d   1      -3.633  -0.878   0.111  0.00  0.00    -0.287 NA
ATOM      2  H   UNL d   1      -3.093  -1.717   0.302  0.00  0.00     0.128 HD
ENDROOT
BRANCH   1   3
ATOM      3  C   UNL d   1      -4.154  -0.914  -1.203  0.00  0.00     0.038 A 
ATOM      4  C   UNL d   1      -4.207  -2.134  -1.915  0.00  0.00     0.056 A 
ATOM      5  C   UNL d   1      -4.681  -2.165  -3.232  0.00  0.00     0.034 A 
ATOM      6  C   UNL d   1      -5.154  -1.005  -3.848  0.00  0.00     0.039 A 
ATOM      7  C   UNL d   1      -5.164   0.194  -3.144  0.00  0.00     0.070 A 
ATOM      8  C   UNL d   1      -4.677   0.228  -1.831  0.00  0.00     0.062 A 
BRANCH   4   9
ATOM      9  N   UNL d   1      -3.805  -3.327  -1.270  0.00  0.00    -0.326 N 
ATOM     10  C   UNL d   1      -3.177  -4.381  -1.908  0.00  0.00     0.218 C 
ATOM     11  O   UNL d   1      -2.765  -4.379  -3.062  0.00  0.00    -0.274 OA
ATOM     12  C   UNL d   1      -3.045  -5.604  -1.041  0.00  0.00     0.117 C 
ATOM     13  H   UNL d   1      -3.875  -3.341  -0.263  0.00  0.00     0.169 HD
ENDBRANCH   4   9
BRANCH   7  14
ATOM     14  O   UNL d   1      -5.617   1.399  -3.612  0.00  0.00    -0.356 OA
ATOM     15  C   UNL d   1      -6.199   1.407  -4.909  0.00  0.00     0.210 C 
ENDBRANCH   7  14
ENDBRANCH   1   3
BRANCH   1  16
ATOM     16  C   UNL d   1      -2.838   0.291   0.508  0.00  0.00     0.131 C 
BRANCH  16  17
ATOM     17  C   UNL d   1      -1.346   0.046   0.391  0.00  0.00    -0.040 A 
ATOM     18  C   UNL d   1      -0.782  -0.750  -0.608  0.00  0.00     0.048 A 
ATOM     19  C   UNL d   1       0.598  -0.970  -0.706  0.00  0.00     0.104 A 
ATOM     20  C   UNL d   1       1.463  -0.332   0.203  0.00  0.00     0.135 A 
ATOM     21  C   UNL d   1       0.919   0.561   1.154  0.00  0.00     0.104 A 
ATOM     22  C   UNL d   1      -0.470   0.712   1.265  0.00  0.00     0.048 A 
BRANCH  19  23
ATOM     23  O   UNL d   1       0.892  -1.825  -1.732  0.00  0.00    -0.353 OA
ATOM     24  C   UNL d   1       2.235  -2.196  -1.983  0.00  0.00     0.210 C 
ENDBRANCH  19  23
BRANCH  20  25
ATOM     25  O   UNL d   1       2.814  -0.506   0.051  0.00  0.00    -0.351 OA
ATOM     26  C   UNL d   1       3.541  -0.811   1.241  0.00  0.00     0.210 C 
ENDBRANCH  20  25
BRANCH  21  27
ATOM     27  O   UNL d   1       1.806   1.269   1.937  0.00  0.00    -0.353 OA
ATOM     28  C   UNL d   1       1.301   2.409   2.622  0.00  0.00     0.210 C 
ENDBRANCH  21  27
ENDBRANCH  16  17
ENDBRANCH   1  16
TORSDOF 8
