REMARK  10 active torsions:
REMARK  status: ('A' for Active; 'I' for Inactive)
REMARK       I    between atoms: N_11  and  C1_1 
REMARK    1  A    between atoms: O3_3  and  C1_1 
REMARK    2  A    between atoms: C7_4  and  O3_3 
REMARK    3  A    between atoms: C8_5  and  C7_4 
REMARK    4  A    between atoms: CA_13  and  N_11 
REMARK    5  A    between atoms: C_12  and  CA_13 
REMARK    6  A    between atoms: OXT_19  and  C_12 
REMARK    7  A    between atoms: CB_17  and  CA_13 
REMARK    8  A    between atoms: CD_14  and  CG_18 
REMARK    9  A    between atoms: OE2_20  and  CD_14 
REMARK   10  A    between atoms: CG_18  and  CB_17 
ROOT
ATOM      1  C1  <1> d   1       0.972  -0.049  -0.043  0.00  0.00     0.361 C 
ATOM      2  O1  <1> d   1       0.386  -0.384  -1.060  0.00  0.00    -0.238 OA
ATOM      3  N   GLU d   1       0.389  -0.246   1.178  0.00  0.00    -0.322 N 
ATOM      4  H   GLU d   1      -0.520  -0.692   1.112  0.00  0.00     0.165 HD
ENDROOT
BRANCH   3   5
ATOM      5  CA  GLU d   1       1.047  -0.212   2.494  0.00  0.00     0.185 C 
BRANCH   5   6
ATOM      6  C   GLU d   1       0.531   0.970   3.331  0.00  0.00     0.163 C 
ATOM      7  O   GLU d   1       0.807   1.153   4.508  0.00  0.00    -0.648 OA
BRANCH   6   8
ATOM      8  OXT GLU d   1      -0.248   1.829   2.631  0.00  0.00    -0.775 OA
ATOM      9  HXT GLU d   1      -0.315   1.547   1.695  0.00  0.00     0.167 HD
ENDBRANCH   6   8
ENDBRANCH   5   6
BRANCH   5  10
ATOM     10  CB  GLU d   1       0.800  -1.529   3.244  0.00  0.00     0.046 C 
BRANCH  10  11
ATOM     11  CG  GLU d   1       1.364  -2.744   2.503  0.00  0.00     0.112 C 
BRANCH  11  12
ATOM     12  CD  GLU d   1       1.149  -4.024   3.277  0.00  0.00     0.139 C 
ATOM     13  OE1 GLU d   1       0.595  -4.108   4.358  0.00  0.00    -0.650 OA
BRANCH  12  14
ATOM     14  OE2 GLU d   1       1.636  -5.106   2.624  0.00  0.00    -0.776 OA
ATOM     15  HE2 GLU d   1       2.046  -4.907   1.762  0.00  0.00     0.167 HD
ENDBRANCH  12  14
ENDBRANCH  11  12
ENDBRANCH  10  11
ENDBRANCH   5  10
ENDBRANCH   3   5
BRANCH   1  16
ATOM     16  O3  <1> d   1       2.189   0.531   0.025  0.00  0.00    -0.299 OA
BRANCH  16  17
ATOM     17  C7  <1> d   1       2.847   0.759  -1.237  0.00  0.00     0.219 C 
BRANCH  17  18
ATOM     18  C8  <1> d   1       3.016   2.231  -1.543  0.00  0.00    -0.034 A 
ATOM     19  C9  <1> d   1       3.137   3.189  -0.528  0.00  0.00     0.009 A 
ATOM     20  C12 <1> d   1       3.383   4.529  -0.839  0.00  0.00     0.001 A 
ATOM     21  C13 <1> d   1       3.521   4.928  -2.167  0.00  0.00     0.000 A 
ATOM     22  C11 <1> d   1       3.402   3.988  -3.188  0.00  0.00     0.001 A 
ATOM     23  C10 <1> d   1       3.153   2.649  -2.879  0.00  0.00     0.009 A 
ENDBRANCH  17  18
ENDBRANCH  16  17
ENDBRANCH   1  16
TORSDOF 10
