REMARK  2 active torsions:
REMARK  status: ('A' for Active; 'I' for Inactive)
REMARK    1  A    between atoms: O_2  and  C_1 
REMARK    2  A    between atoms: C_5  and  O_2 
REMARK       I    between atoms: N_9  and  C_5 
ROOT
ATOM      1  C   UNL d   1      -1.331  -0.933  -0.183  0.00  0.00     0.186 A 
ATOM      2  N   UNL d   1      -2.247   0.034  -0.316  0.00  0.00    -0.237 N 
ATOM      3  HN  UNL d   1      -3.258  -0.082  -0.382  1.00  0.00     0.197 HD
ATOM      4  C   UNL d   1      -0.011  -0.410  -0.089  0.00  0.00     0.053 A 
ATOM      5  O   UNL d   1      -1.543   1.219  -0.343  0.00  0.00    -0.235 OA
ATOM      6  C   UNL d   1      -0.219   0.959  -0.209  0.00  0.00     0.113 A 
ATOM      7  C   UNL d   1       1.319  -0.843   0.085  0.00  0.00     0.019 A 
ATOM      8  C   UNL d   1       0.784   1.928  -0.188  0.00  0.00     0.040 A 
ATOM      9  C   UNL d   1       2.357   0.107   0.104  0.00  0.00     0.001 A 
ATOM     10  C   UNL d   1       2.091   1.470  -0.032  0.00  0.00     0.003 A 
ENDROOT
BRANCH   1  11
ATOM     11  O   UNL d   1      -1.892  -2.155  -0.138  0.00  0.00    -0.241 OA
BRANCH  11  12
ATOM     12  C   UNL d   1      -1.202  -3.311  -0.273  0.00  0.00     0.368 C 
ATOM     13  N   UNL d   1      -2.054  -4.414  -0.260  0.00  0.00    -0.336 N 
ATOM     14  C   UNL d   1      -1.506  -5.756  -0.210  0.00  0.00     0.154 C 
ATOM     15  C   UNL d   1      -3.495  -4.283  -0.109  0.00  0.00     0.154 C 
ATOM     16  O   UNL d   1       0.011  -3.417  -0.396  0.00  0.00    -0.238 OA
ENDBRANCH  11  12
ENDBRANCH   1  11
TORSDOF 2
