REMARK  3 active torsions:
REMARK  status: ('A' for Active; 'I' for Inactive)
REMARK    1  A    between atoms: C_2  and  C_1 
REMARK       I    between atoms: N_4  and  C_1 
REMARK    2  A    between atoms: N_3  and  C_6 
REMARK    3  A    between atoms: C_11  and  N_4 
ROOT
ATOM      1  C   UNL d   1      -4.054   0.408   1.306  0.00  0.00     0.030 A 
ATOM      2  C   UNL d   1      -1.212   0.487   1.189  0.00  0.00     0.035 A 
ATOM      3  C   UNL d   1      -3.316  -0.678   0.824  0.00  0.00     0.031 A 
ATOM      4  C   UNL d   1      -3.323   1.520   1.746  0.00  0.00     0.031 A 
ATOM      5  C   UNL d   1      -1.929   1.563   1.693  0.00  0.00     0.032 A 
ATOM      6  C   UNL d   1      -1.914  -0.638   0.752  0.00  0.00     0.032 A 
ENDROOT
BRANCH   2   7
ATOM      7  N   UNL d   1       0.189   0.495   1.050  0.00  0.00    -0.323 N 
ATOM      8  C   UNL d   1       1.065   1.424   1.577  0.00  0.00     0.257 C 
ATOM      9  O   UNL d   1       0.779   2.293   2.400  0.00  0.00    -0.267 OA
ATOM     10  H   UNL d   1       0.583  -0.271   0.518  0.00  0.00     0.169 HD
BRANCH   8  11
ATOM     11  C   UNL d   1       2.464   1.398   1.061  0.00  0.00     0.054 A 
ATOM     12  C   UNL d   1       3.130   0.274   0.556  0.00  0.00     0.049 A 
ATOM     13 CL   UNL d   1       2.472  -1.326   0.570  0.00  0.00    -0.083 Cl
ATOM     14  C   UNL d   1       4.422   0.407   0.026  0.00  0.00     0.025 A 
ATOM     15  C   UNL d   1       5.058   1.649   0.006  0.00  0.00     0.002 A 
ATOM     16  C   UNL d   1       4.420   2.763   0.536  0.00  0.00     0.001 A 
ATOM     17  C   UNL d   1       3.134   2.638   1.063  0.00  0.00     0.019 A 
ENDBRANCH   8  11
ENDBRANCH   2   7
BRANCH   1  18
ATOM     18  N   UNL d   1      -5.429   0.407   1.415  0.00  0.00    -0.378 N 
ATOM     19  C   UNL d   1      -6.217  -0.830   1.457  0.00  0.00     0.153 C 
ATOM     20  C   UNL d   1      -7.464  -0.606   2.350  0.00  0.00     0.291 C 
ATOM     21  N   UNL d   1      -8.284   0.551   1.917  0.00  0.00     0.087 N 
ATOM     22  C   UNL d   1      -7.431   1.762   1.887  0.00  0.00     0.291 C 
ATOM     23  C   UNL d   1      -9.416   0.748   2.818  0.00  0.00     0.310 C 
ATOM     24  C   UNL d   1      -6.201   1.583   0.971  0.00  0.00     0.153 C 
ENDBRANCH   1  18
TORSDOF 3
