REMARK  6 active torsions:
REMARK  status: ('A' for Active; 'I' for Inactive)
REMARK    1  A    between atoms: S_8  and  C_3 
REMARK    2  A    between atoms: O_13  and  C_4 
REMARK    3  A    between atoms: C_11  and  S_8 
REMARK    4  A    between atoms: C_9  and  C_11 
REMARK    5  A    between atoms: C_16  and  C_10 
REMARK    6  A    between atoms: C_18  and  C_16 
ROOT
ATOM      1  N   UNL d   1      -0.382  -1.162  -0.047  0.00  0.00    -0.318 N 
ATOM      2  HN  UNL d   1      -0.958  -2.004  -0.061  1.00  0.00     0.170 HD
ATOM      3  C   UNL d   1       0.960  -1.208  -0.037  0.00  0.00     0.146 A 
ATOM      4  C   UNL d   1      -0.907   0.061  -0.037  0.00  0.00     0.143 A 
ATOM      5  N   UNL d   1       1.766  -0.132  -0.011  0.00  0.00    -0.340 N 
ATOM      6  HN  UNL d   1       2.782  -0.226   0.006  1.00  0.00     0.167 HD
ATOM      7  C   UNL d   1      -0.202   1.230  -0.017  0.00  0.00     0.081 A 
ATOM      8  C   UNL d   1       1.168   1.085  -0.008  0.00  0.00     0.015 A 
ENDROOT
BRANCH   3   9
ATOM      9  S   UNL d   1       1.645  -2.843  -0.033  0.00  0.00    -0.089 SA
BRANCH   9  10
ATOM     10  C   UNL d   1       3.429  -2.485  -0.026  0.00  0.00     0.122 C 
BRANCH  10  11
ATOM     11  C   UNL d   1       4.215  -3.776   0.065  0.00  0.00    -0.027 A 
ATOM     12  C   UNL d   1       4.614  -4.511  -1.064  0.00  0.00     0.041 A 
ATOM     13 CL   UNL d   1       4.297  -3.964  -2.673  0.00  0.00    -0.084 Cl
ATOM     14  C   UNL d   1       5.280  -5.733  -0.920  0.00  0.00     0.024 A 
ATOM     15  C   UNL d   1       5.555  -6.242   0.349  0.00  0.00     0.002 A 
ATOM     16  C   UNL d   1       5.166  -5.527   1.478  0.00  0.00     0.001 A 
ATOM     17  C   UNL d   1       4.502  -4.307   1.338  0.00  0.00     0.009 A 
ENDBRANCH  10  11
ENDBRANCH   9  10
ENDBRANCH   3   9
BRANCH   4  18
ATOM     18  O   UNL d   1      -2.265   0.081  -0.041  0.00  0.00    -0.346 OA
ATOM     19  H   UNL d   1      -2.455  -0.875  -0.053  0.00  0.00     0.219 HD
ENDBRANCH   4  18
BRANCH   8  20
ATOM     20  C   UNL d   1       2.053   2.308   0.030  0.00  0.00     0.057 C 
BRANCH  20  21
ATOM     21  C   UNL d   1       2.948   2.464  -1.202  0.00  0.00     0.002 C 
ATOM     22  C   UNL d   1       2.166   2.664  -2.493  0.00  0.00     0.005 C 
ENDBRANCH  20  21
ENDBRANCH   8  20
TORSDOF 6
