REMARK  4 active torsions:
REMARK  status: ('A' for Active; 'I' for Inactive)
REMARK    1  A    between atoms: C_7  and  C_1 
REMARK    2  A    between atoms: C_10  and  C_7 
REMARK       I    between atoms: C_8  and  N_9 
REMARK    3  A    between atoms: C_13  and  C_8 
REMARK    4  A    between atoms: N_9  and  C_16 
ROOT
ATOM      1  C   UNL d   1      -3.865   1.248   0.196  0.00  0.00     0.015 A 
ATOM      2  C   UNL d   1      -5.046   1.631  -0.464  0.00  0.00     0.018 A 
ATOM      3  C   UNL d   1      -3.956   0.460   1.338  0.00  0.00     0.018 A 
ATOM      4  C   UNL d   1      -6.396   0.442   1.169  0.00  0.00     0.034 A 
ATOM      5  C   UNL d   1      -6.300   1.223   0.011  0.00  0.00     0.030 A 
ATOM      6  C   UNL d   1      -5.209   0.042   1.802  0.00  0.00     0.030 A 
ENDROOT
BRANCH   1   7
ATOM      7  C   UNL d   1      -2.555   1.666  -0.384  0.00  0.00     0.193 C 
ATOM      8  O   UNL d   1      -2.534   2.656  -1.113  0.00  0.00    -0.287 OA
BRANCH   7   9
ATOM      9  C   UNL d   1      -1.276   0.911  -0.149  0.00  0.00     0.028 C 
ATOM     10  C   UNL d   1      -0.103   1.645   0.178  0.00  0.00    -0.041 C 
ATOM     11  C   UNL d   1       1.155   0.985   0.186  0.00  0.00    -0.049 C 
ATOM     12  C   UNL d   1      -0.160   3.127   0.476  0.00  0.00     0.050 C 
ATOM     13  C   UNL d   1       2.453   1.757   0.318  0.00  0.00     0.049 C 
ATOM     14  C   UNL d   1       1.216  -0.426   0.043  0.00  0.00    -0.049 C 
ATOM     15  C   UNL d   1       0.029  -1.169  -0.159  0.00  0.00    -0.049 C 
ATOM     16  C   UNL d   1       2.572  -1.105   0.069  0.00  0.00     0.049 C 
ATOM     17  C   UNL d   1      -1.202  -0.491  -0.369  0.00  0.00    -0.041 C 
ATOM     18  C   UNL d   1       0.096  -2.680  -0.207  0.00  0.00     0.049 C 
ATOM     19  C   UNL d   1      -2.392  -1.292  -0.847  0.00  0.00     0.050 C 
ENDBRANCH   7   9
ENDBRANCH   1   7
BRANCH   4  20
ATOM     20  N   UNL d   1      -7.679   0.111   1.656  0.00  0.00    -0.327 N 
ATOM     21  C   UNL d   1      -7.958  -0.371   2.926  0.00  0.00     0.226 C 
ATOM     22  O   UNL d   1      -7.102  -0.557   3.802  0.00  0.00    -0.273 OA
ATOM     23  H   UNL d   1      -8.473   0.354   1.068  0.00  0.00     0.169 HD
BRANCH  21  24
ATOM     24  C   UNL d   1      -9.458  -0.638   3.226  0.00  0.00     0.078 C 
ATOM     25  C   UNL d   1     -10.091   0.221   4.357  0.00  0.00     0.014 C 
ATOM     26  C   UNL d   1     -10.780  -1.046   4.887  0.00  0.00     0.002 C 
ATOM     27  C   UNL d   1      -9.749  -1.881   4.117  0.00  0.00     0.014 C 
ENDBRANCH  21  24
ENDBRANCH   4  20
TORSDOF 4
