REMARK  3 active torsions:
REMARK  status: ('A' for Active; 'I' for Inactive)
REMARK    1  A    between atoms: N_3  and  C_1 
REMARK       I    between atoms: C_7  and  N_3 
REMARK       I    between atoms: N_9  and  C_7 
REMARK    2  A    between atoms: C_10  and  N_9 
REMARK    3  A    between atoms: O_14  and  C_12 
ROOT
ATOM      1  N   UNL d   1       1.318  -2.102   0.753  0.00  0.00    -0.293 N 
ATOM      2  C   UNL d   1       1.044  -3.462   0.698  0.00  0.00     0.326 C 
ATOM      3  N   UNL d   1      -0.256  -3.650   0.259  0.00  0.00    -0.306 N 
ATOM      4  O   UNL d   1       1.835  -4.355   0.963  0.00  0.00    -0.247 OA
ATOM      5  H   UNL d   1       0.556  -1.555   1.129  0.00  0.00     0.172 HD
ATOM      6  H   UNL d   1      -0.539  -3.006  -0.467  0.00  0.00     0.171 HD
ENDROOT
BRANCH   1   7
ATOM      7  C   UNL d   1       2.591  -1.599   0.929  0.00  0.00     0.127 A 
ATOM      8  N   UNL d   1       3.767  -2.062   0.377  0.00  0.00    -0.281 N 
ATOM      9  N   UNL d   1       4.837  -1.303   0.715  0.00  0.00    -0.302 N 
ATOM     10  C   UNL d   1       3.967  -3.075  -0.633  0.00  0.00     0.179 C 
ATOM     11  C   UNL d   1       4.331  -0.334   1.484  0.00  0.00     0.025 A 
ATOM     12  HN  UNL d   1       5.810  -1.439   0.443  1.00  0.00     0.186 HD
ATOM     13  C   UNL d   1       2.934  -0.463   1.629  0.00  0.00     0.076 A 
ATOM     14  C   UNL d   1       5.210   0.717   2.042  0.00  0.00     0.070 C 
ENDBRANCH   1   7
BRANCH   3  15
ATOM     15  C   UNL d   1      -0.888  -4.907   0.233  0.00  0.00     0.069 A 
ATOM     16  C   UNL d   1      -1.626  -5.297  -0.895  0.00  0.00     0.095 A 
ATOM     17  C   UNL d   1      -2.390  -6.465  -0.861  0.00  0.00     0.039 A 
ATOM     18  C   UNL d   1      -2.408  -7.255   0.291  0.00  0.00     0.003 A 
ATOM     19  C   UNL d   1      -1.656  -6.882   1.405  0.00  0.00     0.002 A 
ATOM     20  C   UNL d   1      -0.886  -5.717   1.373  0.00  0.00     0.032 A 
BRANCH  16  21
ATOM     21  O   UNL d   1      -1.675  -4.562  -2.053  0.00  0.00    -0.354 OA
ATOM     22  C   UNL d   1      -0.395  -4.392  -2.669  0.00  0.00     0.210 C 
ENDBRANCH  16  21
ENDBRANCH   3  15
TORSDOF 3
