REMARK  7 active torsions:
REMARK  status: ('A' for Active; 'I' for Inactive)
REMARK    1  A    between atoms: C_9  and  C_2 
REMARK    2  A    between atoms: S_14  and  C_5 
REMARK    3  A    between atoms: C_8  and  C_11 
REMARK    4  A    between atoms: C_10  and  C_21 
REMARK    5  A    between atoms: C_11  and  S_14 
REMARK    6  A    between atoms: O_20  and  C_15 
REMARK    7  A    between atoms: C_21  and  O_20 
ROOT
ATOM      1  O   UNL d   1      -1.139  -0.048  -0.203  0.00  0.00    -0.267 OA
ATOM      2  C   UNL d   1      -0.272  -1.097  -0.036  0.00  0.00     0.176 A 
ATOM      3  N   UNL d   1       0.979  -0.699   0.087  0.00  0.00    -0.277 N 
ATOM      4  HN  UNL d   1       1.797  -1.292   0.225  1.00  0.00     0.189 HD
ATOM      5  C   UNL d   1      -0.291   1.031  -0.179  0.00  0.00     0.204 A 
ATOM      6  N   UNL d   1       0.965   0.677  -0.008  0.00  0.00    -0.272 N 
ATOM      7  HN  UNL d   1       1.771   1.300   0.044  1.00  0.00     0.189 HD
ENDROOT
BRANCH   2   8
ATOM      8  C   UNL d   1      -0.825  -2.440  -0.002  0.00  0.00     0.032 A 
ATOM      9  C   UNL d   1      -2.173  -2.708  -0.202  0.00  0.00     0.106 A 
ATOM     10  N   UNL d   1      -2.722  -3.950  -0.146  0.00  0.00    -0.346 N 
ATOM     11  C   UNL d   1      -1.903  -4.983   0.130  0.00  0.00     0.142 A 
ATOM     12  HN  UNL d   1      -3.719  -4.094  -0.307  1.00  0.00     0.167 HD
ATOM     13  C   UNL d   1      -0.539  -4.822   0.328  0.00  0.00     0.057 A 
ATOM     14  C   UNL d   1       0.000  -3.535   0.262  0.00  0.00     0.021 A 
BRANCH  11  15
ATOM     15  O   UNL d   1      -2.537  -6.183   0.278  0.00  0.00    -0.327 OA
BRANCH  15  16
ATOM     16  C   UNL d   1      -1.895  -7.282  -0.379  0.00  0.00     0.294 C 
BRANCH  16  17
ATOM     17  C   UNL d   1      -2.785  -8.520  -0.386  0.00  0.00     0.408 C 
ATOM     18  F   UNL d   1      -4.092  -8.239  -0.205  0.00  0.00    -0.169 F 
ATOM     19  F   UNL d   1      -2.673  -9.178  -1.566  0.00  0.00    -0.169 F 
ATOM     20  F   UNL d   1      -2.412  -9.386   0.587  0.00  0.00    -0.169 F 
ENDBRANCH  16  17
ENDBRANCH  15  16
ENDBRANCH  11  15
ENDBRANCH   2   8
BRANCH   5  21
ATOM     21  S   UNL d   1      -0.844   2.667  -0.362  0.00  0.00    -0.080 SA
BRANCH  21  22
ATOM     22  C   UNL d   1       0.716   3.465  -0.853  0.00  0.00     0.125 C 
BRANCH  22  23
ATOM     23  C   UNL d   1       0.515   4.914  -1.238  0.00  0.00    -0.005 A 
ATOM     24  C   UNL d   1       0.707   5.956  -0.310  0.00  0.00     0.042 A 
ATOM     25 CL   UNL d   1       1.163   5.655   1.333  0.00  0.00    -0.084 Cl
ATOM     26  C   UNL d   1       0.527   7.296  -0.675  0.00  0.00     0.024 A 
ATOM     27  C   UNL d   1       0.147   7.625  -1.973  0.00  0.00     0.003 A 
ATOM     28  C   UNL d   1      -0.064   6.614  -2.903  0.00  0.00     0.024 A 
ATOM     29  C   UNL d   1       0.116   5.273  -2.540  0.00  0.00     0.042 A 
ATOM     30 CL   UNL d   1      -0.178   4.093  -3.772  0.00  0.00    -0.084 Cl
ENDBRANCH  22  23
ENDBRANCH  21  22
ENDBRANCH   5  21
TORSDOF 7
