REMARK  6 active torsions:
REMARK  status: ('A' for Active; 'I' for Inactive)
REMARK    1  A    between atoms: C_4  and  C_1 
REMARK    2  A    between atoms: C_8  and  C_2 
REMARK    3  A    between atoms: C_3  and  C_10 
REMARK    4  A    between atoms: O_12  and  C_4 
REMARK    5  A    between atoms: O_13  and  C_8 
REMARK    6  A    between atoms: C_17  and  O_12 
ROOT
ATOM      1  C   UNL d   1      -0.757   1.111  -0.034  0.00  0.00     0.056 A 
ATOM      2  N   UNL d   1       1.332  -0.111  -0.058  0.00  0.00    -0.373 N 
ATOM      3  HN  UNL d   1       2.352  -0.120  -0.071  1.00  0.00     0.164 HD
ATOM      4  C   UNL d   1      -1.474  -0.093  -0.041  0.00  0.00     0.041 A 
ATOM      5  C   UNL d   1      -0.780  -1.303  -0.045  0.00  0.00     0.034 A 
ATOM      6  C   UNL d   1       0.631   1.049  -0.048  0.00  0.00     0.105 A 
ATOM      7  C   UNL d   1       0.610  -1.258  -0.049  0.00  0.00     0.108 A 
ENDROOT
BRANCH   5   8
ATOM      8  C   UNL d   1      -1.475  -2.555  -0.029  0.00  0.00    -0.062 C 
ATOM      9  C   UNL d   1      -2.049  -3.610  -0.017  0.00  0.00    -0.064 C 
BRANCH   9  10
ATOM     10  C   UNL d   1      -2.747  -4.912  -0.005  0.00  0.00     0.114 C 
ATOM     11  C   UNL d   1      -4.249  -4.720   0.206  0.00  0.00     0.060 C 
ATOM     12  C   UNL d   1      -2.487  -5.682  -1.298  0.00  0.00     0.060 C 
BRANCH  10  13
ATOM     13  O   UNL d   1      -2.241  -5.702   1.070  0.00  0.00    -0.378 OA
ATOM     14  H   UNL d   1      -2.385  -5.201   1.889  0.00  0.00     0.211 HD
ENDBRANCH  10  13
ENDBRANCH   9  10
ENDBRANCH   5   8
BRANCH   1  15
ATOM     15  C   UNL d   1      -1.386   2.445   0.069  0.00  0.00     0.294 C 
ATOM     16  O   UNL d   1      -0.749   3.483   0.137  0.00  0.00    -0.259 OA
BRANCH  15  17
ATOM     17  O   UNL d   1      -2.731   2.320   0.184  0.00  0.00    -0.318 OA
BRANCH  17  18
ATOM     18  C   UNL d   1      -3.413   3.479   0.688  0.00  0.00     0.174 C 
ATOM     19  C   UNL d   1      -3.445   3.382   2.203  0.00  0.00     0.034 C 
ENDBRANCH  17  18
ENDBRANCH  15  17
ENDBRANCH   1  15
TORSDOF 6
