REMARK  5 active torsions:
REMARK  status: ('A' for Active; 'I' for Inactive)
REMARK    1  A    between atoms: C_10  and  N_1 
REMARK    2  A    between atoms: C_2  and  S_9 
REMARK    3  A    between atoms: S_9  and  C_17 
REMARK    4  A    between atoms: C_12  and  C_16 
REMARK    5  A    between atoms: C_17  and  C_12 
ROOT
ATOM      1  C   UNL d   1      -4.898   1.780  -4.834  0.00  0.00     0.091 A 
ATOM      2  C   UNL d   1      -5.439   3.068  -4.913  0.00  0.00     0.084 A 
ATOM      3  N   UNL d   1      -5.667   0.672  -4.684  0.00  0.00    -0.353 N 
ATOM      4  HN  UNL d   1      -5.239  -0.251  -4.609  1.00  0.00     0.166 HD
ATOM      5  C   UNL d   1      -6.838   3.211  -4.798  0.00  0.00    -0.037 A 
ATOM      6  C   UNL d   1      -4.601   4.212  -5.123  0.00  0.00     0.103 C 
ATOM      7  N   UNL d   1      -3.968   5.170  -5.305  0.00  0.00    -0.191 NA
ATOM      8  C   UNL d   1      -7.006   0.813  -4.636  0.00  0.00     0.006 A 
ATOM      9  C   UNL d   1      -7.622   2.056  -4.663  0.00  0.00     0.033 A 
ATOM     10  C   UNL d   1      -7.550   4.539  -4.783  0.00  0.00     0.050 C 
ATOM     11  C   UNL d   1      -7.810  -0.445  -4.535  0.00  0.00     0.068 C 
ENDROOT
BRANCH   1  12
ATOM     12  S   UNL d   1      -3.135   1.450  -4.829  0.00  0.00    -0.103 SA
BRANCH  12  13
ATOM     13  C   UNL d   1      -3.129  -0.288  -5.419  0.00  0.00     0.164 C 
BRANCH  13  14
ATOM     14  C   UNL d   1      -3.538  -0.380  -6.884  0.00  0.00     0.169 C 
ATOM     15  O   UNL d   1      -3.961   0.565  -7.546  0.00  0.00    -0.291 OA
BRANCH  14  16
ATOM     16  C   UNL d   1      -3.366  -1.683  -7.590  0.00  0.00     0.011 A 
ATOM     17  C   UNL d   1      -3.477  -2.926  -6.954  0.00  0.00     0.017 A 
ATOM     18  C   UNL d   1      -3.322  -4.109  -7.696  0.00  0.00     0.037 A 
ATOM     19  C   UNL d   1      -3.048  -4.044  -9.073  0.00  0.00     0.102 A 
ATOM     20  C   UNL d   1      -2.941  -2.805  -9.712  0.00  0.00     0.037 A 
ATOM     21  C   UNL d   1      -3.105  -1.633  -8.969  0.00  0.00     0.017 A 
BRANCH  19  22
ATOM     22  N   UNL d   1      -2.877  -5.281  -9.851  0.00  0.00    -0.116 N 
ATOM     23  O   UNL d   1      -2.660  -5.171 -11.067  0.00  0.00    -0.532 OA
ATOM     24  O   UNL d   1      -2.955  -6.356  -9.244  0.00  0.00    -0.532 OA
ENDBRANCH  19  22
ENDBRANCH  14  16
ENDBRANCH  13  14
ENDBRANCH  12  13
ENDBRANCH   1  12
TORSDOF 5
