REMARK  4 active torsions:
REMARK  status: ('A' for Active; 'I' for Inactive)
REMARK    1  A    between atoms: C_3  and  CA_1 
REMARK    2  A    between atoms: N_4  and  CA_1 
REMARK    3  A    between atoms: C_6  and  C_2 
REMARK    4  A    between atoms: OXT_13  and  C_3 
REMARK       I    between atoms: C_5  and  N_4 
ROOT
ATOM      1  CA  UNL d   1      -0.693  -1.042  -0.344  0.00  0.00     0.110 C 
ATOM      2  C   UNL d   1       0.448  -0.829  -1.027  0.00  0.00     0.048 C 
ENDROOT
BRANCH   2   3
ATOM      3  C   UNL d   1       1.052  -1.718  -2.025  0.00  0.00    -0.033 A 
ATOM      4  C   UNL d   1       0.659  -1.623  -3.368  0.00  0.00     0.023 A 
ATOM      5  C   UNL d   1       1.296  -2.387  -4.362  0.00  0.00    -0.025 A 
ATOM      6  C   UNL d   1       0.921  -2.294  -5.715  0.00  0.00     0.012 A 
ATOM      7  C   UNL d   1       2.348  -3.255  -3.998  0.00  0.00    -0.026 A 
ATOM      8  C   UNL d   1       1.585  -3.039  -6.691  0.00  0.00     0.001 A 
ATOM      9  C   UNL d   1       2.635  -3.880  -6.332  0.00  0.00     0.001 A 
ATOM     10  C   UNL d   1       3.012  -3.991  -4.993  0.00  0.00     0.012 A 
ATOM     11  C   UNL d   1       2.714  -3.365  -2.648  0.00  0.00     0.013 A 
ATOM     12  C   UNL d   1       2.075  -2.598  -1.672  0.00  0.00     0.012 A 
ENDBRANCH   2   3
BRANCH   1  13
ATOM     13  C   UNL d   1      -1.358   0.040   0.457  0.00  0.00     0.193 C 
ATOM     14  O   UNL d   1      -2.536  -0.053   0.772  0.00  0.00    -0.645 OA
BRANCH  13  15
ATOM     15  OXT UNL d   1      -0.593   1.085   0.827  0.00  0.00    -0.772 OA
ATOM     16  HXT UNL d   1       0.364   0.976   0.695  0.00  0.00     0.167 HD
ENDBRANCH  13  15
ENDBRANCH   1  13
BRANCH   1  17
ATOM     17  N   UNL d   1      -1.448  -2.207  -0.417  0.00  0.00    -0.322 N 
ATOM     18  C   UNL d   1      -0.965  -3.465  -0.092  0.00  0.00     0.218 C 
ATOM     19  O   UNL d   1       0.157  -3.705   0.337  0.00  0.00    -0.274 OA
ATOM     20  C   UNL d   1      -1.998  -4.546  -0.278  0.00  0.00     0.117 C 
ATOM     21  H   UNL d   1      -2.425  -2.069  -0.152  0.00  0.00     0.169 HD
ENDBRANCH   1  17
TORSDOF 4
