REMARK  1 active torsions:
REMARK  status: ('A' for Active; 'I' for Inactive)
REMARK    1  A    between atoms: C_8  and  N_4 
ROOT
ATOM      1  C   UNL d   1      -2.086  -0.844  -0.805  0.00  0.00     0.146 A 
ATOM      2  N   UNL d   1      -0.745  -0.714  -0.615  0.00  0.00    -0.356 N 
ATOM      3  S   UNL d   1      -2.965   0.096   0.398  0.00  0.00    -0.057 SA
ATOM      4  N   UNL d   1      -2.754  -1.543  -1.656  0.00  0.00    -0.336 N 
ATOM      5  HN  UNL d   1      -3.769  -1.450  -1.688  1.00  0.00     0.168 HD
ATOM      6  C   UNL d   1      -1.494   0.502   1.257  0.00  0.00     0.005 A 
ATOM      7  C   UNL d   1      -0.236   0.055   0.517  0.00  0.00     0.065 A 
ATOM      8  C   UNL d   1      -1.547   1.160   2.426  0.00  0.00     0.029 C 
ATOM      9  C   UNL d   1       0.681  -0.864   1.342  0.00  0.00     0.036 C 
ATOM     10  C   UNL d   1       0.534   1.294   0.007  0.00  0.00     0.036 C 
ATOM     11  C   UNL d   1       1.972  -1.221   0.592  0.00  0.00     0.003 C 
ATOM     12  C   UNL d   1       1.847   0.954  -0.696  0.00  0.00     0.003 C 
ATOM     13  C   UNL d   1       2.724   0.023   0.135  0.00  0.00     0.000 C 
ATOM     14  H   UNL d   1      -0.138  -1.357  -1.101  0.00  0.00     0.162 HD
ENDROOT
BRANCH   4  15
ATOM     15  C   UNL d   1      -2.117  -2.433  -2.546  0.00  0.00     0.046 A 
ATOM     16  C   UNL d   1      -2.514  -3.790  -2.506  0.00  0.00    -0.035 A 
ATOM     17  C   UNL d   1      -1.941  -4.723  -3.390  0.00  0.00     0.009 A 
ATOM     18  C   UNL d   1      -3.592  -4.290  -1.579  0.00  0.00     0.050 C 
ATOM     19  C   UNL d   1      -0.966  -4.331  -4.298  0.00  0.00     0.001 A 
ATOM     20  C   UNL d   1      -0.578  -2.997  -4.353  0.00  0.00     0.009 A 
ATOM     21  C   UNL d   1      -1.165  -2.032  -3.511  0.00  0.00    -0.035 A 
ATOM     22  C   UNL d   1      -0.702  -0.612  -3.686  0.00  0.00     0.050 C 
ENDBRANCH   4  15
TORSDOF 1
