REMARK  7 active torsions:
REMARK  status: ('A' for Active; 'I' for Inactive)
REMARK    1  A    between atoms: C_5  and  C_1 
REMARK    2  A    between atoms: C_7  and  C_2 
REMARK    3  A    between atoms: S_9  and  C_7 
REMARK    4  A    between atoms: C_15  and  S_9 
REMARK    5  A    between atoms: C_12  and  C_15 
REMARK    6  A    between atoms: O_18  and  C_12 
REMARK    7  A    between atoms: C_23  and  O_18 
ROOT
ATOM      1  C   UNL d   1      -1.175  -0.616   0.353  0.00  0.00     0.085 A 
ATOM      2  C   UNL d   1       0.061  -1.270   0.023  0.00  0.00     0.082 A 
ATOM      3  N   UNL d   1      -0.946   0.669   0.676  0.00  0.00    -0.259 N 
ATOM      4  HN  UNL d   1      -1.633   1.344   1.012  1.00  0.00     0.195 HD
ATOM      5  O   UNL d   1       0.388   0.897   0.466  0.00  0.00    -0.241 OA
ATOM      6  C   UNL d   1       0.994  -0.245   0.058  0.00  0.00     0.089 A 
ATOM      7  C   UNL d   1       2.428  -0.103  -0.257  0.00  0.00     0.080 C 
ENDROOT
BRANCH   2   8
ATOM      8  C   UNL d   1       0.282  -2.661  -0.306  0.00  0.00     0.224 C 
ATOM      9  O   UNL d   1      -0.485  -3.334  -0.981  0.00  0.00    -0.280 OA
BRANCH   8  10
ATOM     10  S   UNL d   1       1.657  -3.377   0.537  0.00  0.00    -0.077 SA
BRANCH  10  11
ATOM     11  C   UNL d   1       1.867  -4.893  -0.427  0.00  0.00     0.193 C 
BRANCH  11  12
ATOM     12  C   UNL d   1       2.417  -4.630  -1.814  0.00  0.00     0.268 C 
ATOM     13  O   UNL d   1       2.445  -3.552  -2.391  0.00  0.00    -0.264 OA
BRANCH  12  14
ATOM     14  O   UNL d   1       2.880  -5.809  -2.330  0.00  0.00    -0.321 OA
BRANCH  14  15
ATOM     15  C   UNL d   1       3.390  -5.769  -3.671  0.00  0.00     0.174 C 
ATOM     16  C   UNL d   1       4.834  -5.303  -3.692  0.00  0.00     0.034 C 
ENDBRANCH  14  15
ENDBRANCH  12  14
ENDBRANCH  11  12
ENDBRANCH  10  11
ENDBRANCH   8  10
ENDBRANCH   2   8
BRANCH   1  17
ATOM     17  C   UNL d   1      -2.548  -1.126   0.428  0.00  0.00     0.037 A 
ATOM     18  C   UNL d   1      -2.907  -2.167   1.304  0.00  0.00     0.048 A 
ATOM     19 CL   UNL d   1      -1.770  -2.974   2.330  0.00  0.00    -0.083 Cl
ATOM     20  C   UNL d   1      -4.245  -2.574   1.428  0.00  0.00     0.025 A 
ATOM     21  C   UNL d   1      -5.250  -1.935   0.706  0.00  0.00     0.003 A 
ATOM     22  C   UNL d   1      -4.916  -0.905  -0.165  0.00  0.00     0.025 A 
ATOM     23  C   UNL d   1      -3.576  -0.513  -0.317  0.00  0.00     0.048 A 
ATOM     24 CL   UNL d   1      -3.285   0.746  -1.476  0.00  0.00    -0.083 Cl
ENDBRANCH   1  17
TORSDOF 7
