REMARK  3 active torsions:
REMARK  status: ('A' for Active; 'I' for Inactive)
REMARK    1  A    between atoms: C_4  and  C_1 
REMARK    2  A    between atoms: N_8  and  N_11 
REMARK    3  A    between atoms: C_10  and  C_13 
ROOT
ATOM      1  C   UNL d   1      -0.295   0.915  -0.035  0.00  0.00     0.125 A 
ATOM      2  N   UNL d   1      -0.712  -0.421  -0.116  0.00  0.00    -0.331 N 
ATOM      3  HN  UNL d   1      -1.683  -0.718  -0.220  1.00  0.00     0.168 HD
ATOM      4  C   UNL d   1       0.314  -1.243  -0.041  0.00  0.00     0.163 A 
ATOM      5  C   UNL d   1       1.072   1.070   0.104  0.00  0.00     0.087 A 
ATOM      6  S   UNL d   1       1.844  -0.450   0.134  0.00  0.00    -0.062 SA
ATOM      7  N   UNL d   1       0.195  -2.596  -0.096  0.00  0.00    -0.280 N 
ATOM      8  H   UNL d   1      -0.751  -2.957  -0.187  0.00  0.00     0.189 HD
ENDROOT
BRANCH   7   9
ATOM      9  N   UNL d   1       1.258  -3.431   0.014  0.00  0.00    -0.309 N 
ATOM     10  C   UNL d   1       1.038  -4.703  -0.074  0.00  0.00     0.120 C 
ATOM     11  HN  UNL d   1       2.200  -3.068   0.160  1.00  0.00     0.186 HD
BRANCH  10  12
ATOM     12  C   UNL d   1       2.176  -5.646   0.049  0.00  0.00     0.002 A 
ATOM     13  C   UNL d   1       2.016  -7.032  -0.033  0.00  0.00     0.045 A 
ATOM     14 CL   UNL d   1       0.485  -7.786  -0.298  0.00  0.00    -0.083 Cl
ATOM     15  C   UNL d   1       3.131  -7.869   0.104  0.00  0.00     0.024 A 
ATOM     16  C   UNL d   1       4.403  -7.328   0.318  0.00  0.00     0.002 A 
ATOM     17  C   UNL d   1       4.566  -5.949   0.394  0.00  0.00     0.001 A 
ATOM     18  C   UNL d   1       3.460  -5.112   0.260  0.00  0.00     0.014 A 
ENDBRANCH  10  12
ENDBRANCH   7   9
BRANCH   1  19
ATOM     19  C   UNL d   1      -1.275   2.047  -0.099  0.00  0.00     0.433 C 
ATOM     20  F   UNL d   1      -2.561   1.644  -0.259  0.00  0.00    -0.165 F 
ATOM     21  F   UNL d   1      -1.236   2.802   1.032  0.00  0.00    -0.165 F 
ATOM     22  F   UNL d   1      -0.995   2.889  -1.130  0.00  0.00    -0.165 F 
ENDBRANCH   1  19
TORSDOF 3
