REMARK  4 active torsions:
REMARK  status: ('A' for Active; 'I' for Inactive)
REMARK    1  A    between atoms: S_12  and  C_1 
REMARK    2  A    between atoms: C_7  and  N_11 
REMARK    3  A    between atoms: C_10  and  C_18 
REMARK       I    between atoms: N_11  and  C_10 
REMARK    4  A    between atoms: C_18  and  S_12 
ROOT
ATOM      1  C   UNL d   1      -4.624   2.475  -0.222  0.00  0.00     0.185 C 
ENDROOT
BRANCH   1   2
ATOM      2  C   UNL d   1      -6.113   2.782  -0.084  0.00  0.00     0.227 C 
ATOM      3  N   UNL d   1      -7.001   1.751  -0.185  0.00  0.00    -0.355 N 
ATOM      4  H   UNL d   1      -6.619   0.874  -0.510  0.00  0.00     0.162 HD
ATOM      5  O   UNL d   1      -6.505   3.949   0.044  0.00  0.00    -0.273 OA
BRANCH   3   6
ATOM      6  C   UNL d   1      -8.446   1.801  -0.043  0.00  0.00     0.092 C 
ATOM      7  C   UNL d   1      -9.258   2.566  -1.111  0.00  0.00     0.064 C 
ATOM      8  C   UNL d   1     -10.591   2.605  -0.407  0.00  0.00    -0.050 A 
ATOM      9  C   UNL d   1     -11.863   2.692  -0.950  0.00  0.00     0.007 A 
ATOM     10  C   UNL d   1     -10.409   2.492   0.980  0.00  0.00    -0.050 A 
ATOM     11  C   UNL d   1     -12.956   2.664  -0.076  0.00  0.00     0.001 A 
ATOM     12  C   UNL d   1     -12.767   2.578   1.312  0.00  0.00     0.001 A 
ATOM     13  C   UNL d   1     -11.483   2.497   1.853  0.00  0.00     0.007 A 
ATOM     14  C   UNL d   1      -8.955   2.334   1.310  0.00  0.00     0.064 C 
ENDBRANCH   3   6
ENDBRANCH   1   2
BRANCH   1  15
ATOM     15  S   UNL d   1      -3.970   1.052   0.713  0.00  0.00    -0.085 SA
BRANCH  15  16
ATOM     16  C   UNL d   1      -4.638  -0.295  -0.126  0.00  0.00     0.145 C 
ATOM     17  N   UNL d   1      -5.452  -0.218  -1.149  0.00  0.00    -0.335 N 
ATOM     18  C   UNL d   1      -6.156  -1.394  -1.115  0.00  0.00     0.061 A 
ATOM     19  HN  UNL d   1      -5.543   0.545  -1.820  1.00  0.00     0.168 HD
ATOM     20  C   UNL d   1      -7.313  -1.731  -1.826  0.00  0.00     0.038 A 
ATOM     21  C   UNL d   1      -5.671  -2.243  -0.129  0.00  0.00     0.061 A 
ATOM     22  C   UNL d   1      -7.979  -2.921  -1.504  0.00  0.00    -0.060 A 
ATOM     23  C   UNL d   1      -9.271  -3.258  -2.191  0.00  0.00     0.048 C 
ATOM     24  C   UNL d   1      -7.447  -3.775  -0.524  0.00  0.00     0.009 A 
ATOM     25  C   UNL d   1      -6.271  -3.462   0.179  0.00  0.00     0.032 A 
ATOM     26  N   UNL d   1      -4.615  -1.548   0.420  0.00  0.00    -0.335 N 
ATOM     27  H   UNL d   1      -4.069  -1.823   1.223  0.00  0.00     0.168 HD
ENDBRANCH  15  16
ENDBRANCH   1  15
TORSDOF 4
