REMARK  5 active torsions:
REMARK  status: ('A' for Active; 'I' for Inactive)
REMARK       I    between atoms: N_2  and  C_1 
REMARK    1  A    between atoms: C_6  and  C_1 
REMARK    2  A    between atoms: N_3  and  N_2 
REMARK    3  A    between atoms: C_5  and  N_3 
REMARK    4  A    between atoms: C_8  and  C_6 
REMARK    5  A    between atoms: C_10  and  C_8 
ROOT
ATOM      1  C   UNL d   1       0.797   0.206   0.018  0.00  0.00     0.232 C 
ATOM      2  N   UNL d   1       0.250   1.324  -0.577  0.00  0.00    -0.287 N 
ATOM      3  O   UNL d   1       0.087  -0.742   0.390  0.00  0.00    -0.272 OA
ATOM      4  H   UNL d   1       0.731   2.217  -0.489  0.00  0.00     0.184 HD
ENDROOT
BRANCH   2   5
ATOM      5  N   UNL d   1      -1.163   1.433  -0.422  0.00  0.00    -0.203 NA
ATOM      6  H   UNL d   1      -1.549   0.481  -0.304  0.00  0.00     0.153 HD
BRANCH   5   7
ATOM      7  C   UNL d   1      -1.869   2.044  -1.493  0.00  0.00     0.028 A 
ATOM      8  C   UNL d   1      -1.367   2.165  -2.794  0.00  0.00     0.032 A 
ATOM      9  C   UNL d   1      -2.169   2.659  -3.838  0.00  0.00    -0.060 A 
ATOM     10  C   UNL d   1      -1.640   2.749  -5.238  0.00  0.00     0.048 C 
ATOM     11  C   UNL d   1      -3.486   3.055  -3.570  0.00  0.00     0.007 A 
ATOM     12  C   UNL d   1      -3.998   2.942  -2.280  0.00  0.00     0.002 A 
ATOM     13  C   UNL d   1      -3.199   2.431  -1.257  0.00  0.00     0.025 A 
ENDBRANCH   5   7
ENDBRANCH   2   5
BRANCH   1  14
ATOM     14  C   UNL d   1       2.309   0.081   0.088  0.00  0.00     0.108 C 
BRANCH  14  15
ATOM     15  C   UNL d   1       3.181   1.333   0.210  0.00  0.00     0.048 C 
BRANCH  15  16
ATOM     16  C   UNL d   1       3.091   2.193   1.450  0.00  0.00    -0.058 A 
ATOM     17  C   UNL d   1       2.197   1.963   2.502  0.00  0.00     0.007 A 
ATOM     18  C   UNL d   1       2.178   2.808   3.617  0.00  0.00     0.001 A 
ATOM     19  C   UNL d   1       3.056   3.886   3.704  0.00  0.00     0.000 A 
ATOM     20  C   UNL d   1       3.960   4.122   2.673  0.00  0.00     0.001 A 
ATOM     21  C   UNL d   1       3.976   3.282   1.557  0.00  0.00     0.007 A 
ENDBRANCH  15  16
ENDBRANCH  14  15
ENDBRANCH   1  14
TORSDOF 5
