REMARK  9 active torsions:
REMARK  status: ('A' for Active; 'I' for Inactive)
REMARK    1  A    between atoms: C_4  and  C_1 
REMARK    2  A    between atoms: N_8  and  N_2 
REMARK       I    between atoms: N_12  and  C_4 
REMARK    3  A    between atoms: O_18  and  C_7 
REMARK    4  A    between atoms: C_14  and  N_8 
REMARK    5  A    between atoms: O_21  and  C_9 
REMARK    6  A    between atoms: C_24  and  N_12 
REMARK    7  A    between atoms: C_15  and  C_26 
REMARK    8  A    between atoms: O_25  and  C_16 
REMARK    9  A    between atoms: C_26  and  C_24 
ROOT
ATOM      1  C   UNL d   1       1.101  -0.027  -0.063  0.00  0.00     0.196 C 
ATOM      2  N   UNL d   1       0.426   0.003   1.057  0.00  0.00    -0.286 N 
ATOM      3  HN  UNL d   1      -0.593  -0.050   1.044  1.00  0.00     0.188 HD
ATOM      4  C   UNL d   1       2.548   0.011  -0.013  0.00  0.00     0.125 C 
ATOM      5  N   UNL d   1       3.703   0.037   0.107  0.00  0.00    -0.190 NA
ENDROOT
BRANCH   1   6
ATOM      6  C   UNL d   1       0.377  -0.090  -1.394  0.00  0.00     0.280 C 
ATOM      7  O   UNL d   1       1.029  -0.122  -2.427  0.00  0.00    -0.265 OA
ATOM      8  N   UNL d   1      -1.006  -0.091  -1.341  0.00  0.00    -0.355 N 
ATOM      9  H   UNL d   1      -1.446  -0.010  -0.428  0.00  0.00     0.162 HD
BRANCH   8  10
ATOM     10  C   UNL d   1      -1.793  -0.090  -2.566  0.00  0.00     0.127 C 
BRANCH  10  11
ATOM     11  C   UNL d   1      -3.303  -0.091  -2.318  0.00  0.00     0.058 C 
BRANCH  11  12
ATOM     12  C   UNL d   1      -4.110  -0.113  -3.598  0.00  0.00    -0.054 A 
ATOM     13  C   UNL d   1      -4.473  -1.335  -4.191  0.00  0.00     0.046 A 
ATOM     14  C   UNL d   1      -5.223  -1.387  -5.380  0.00  0.00     0.102 A 
ATOM     15  C   UNL d   1      -5.640  -0.183  -5.973  0.00  0.00     0.101 A 
ATOM     16  C   UNL d   1      -5.250   1.036  -5.399  0.00  0.00     0.040 A 
ATOM     17  C   UNL d   1      -4.495   1.074  -4.225  0.00  0.00     0.010 A 
BRANCH  14  18
ATOM     18  O   UNL d   1      -5.543  -2.556  -6.018  0.00  0.00    -0.353 OA
ATOM     19  C   UNL d   1      -5.102  -3.778  -5.441  0.00  0.00     0.210 C 
ENDBRANCH  14  18
BRANCH  15  20
ATOM     20  O   UNL d   1      -6.367  -0.029  -7.127  0.00  0.00    -0.353 OA
ATOM     21  C   UNL d   1      -7.331  -1.032  -7.425  0.00  0.00     0.210 C 
ENDBRANCH  15  20
ENDBRANCH  11  12
ENDBRANCH  10  11
ENDBRANCH   8  10
ENDBRANCH   1   6
BRANCH   2  22
ATOM     22  N   UNL d   1       1.095   0.107   2.246  0.00  0.00    -0.300 N 
ATOM     23  H   UNL d   1       2.110   0.026   2.337  0.00  0.00     0.187 HD
BRANCH  22  24
ATOM     24  C   UNL d   1       0.397   0.094   3.468  0.00  0.00     0.048 A 
ATOM     25  C   UNL d   1      -0.990  -0.061   3.546  0.00  0.00     0.034 A 
ATOM     26  C   UNL d   1      -1.657  -0.034   4.780  0.00  0.00     0.039 A 
ATOM     27  C   UNL d   1      -0.947   0.178   5.960  0.00  0.00     0.068 A 
ATOM     28  C   UNL d   1       0.435   0.356   5.892  0.00  0.00     0.039 A 
ATOM     29  C   UNL d   1       1.099   0.319   4.660  0.00  0.00     0.034 A 
BRANCH  27  30
ATOM     30  O   UNL d   1      -1.474   0.244   7.219  0.00  0.00    -0.356 OA
ATOM     31  C   UNL d   1      -2.882   0.074   7.336  0.00  0.00     0.210 C 
ENDBRANCH  27  30
ENDBRANCH  22  24
ENDBRANCH   2  22
TORSDOF 9
