REMARK  6 active torsions:
REMARK  status: ('A' for Active; 'I' for Inactive)
REMARK    1  A    between atoms: N_7  and  C_1 
REMARK    2  A    between atoms: N_8  and  C_1 
REMARK    3  A    between atoms: N_2  and  N_8 
REMARK    4  A    between atoms: C_4  and  C_16 
REMARK    5  A    between atoms: C_16  and  N_7 
REMARK    6  A    between atoms: C_15  and  C_14 
ROOT
ATOM      1  N   UNL d   1       2.413   0.147  -0.210  0.00  0.00    -0.277 N 
ATOM      2  H   UNL d   1       2.906  -0.450   0.447  0.00  0.00     0.189 HD
ENDROOT
BRANCH   1   3
ATOM      3  N   UNL d   1       3.088   0.966  -1.066  0.00  0.00    -0.309 N 
ATOM      4  C   UNL d   1       4.377   0.941  -0.980  0.00  0.00     0.120 C 
ATOM      5  HN  UNL d   1       2.604   1.564  -1.736  1.00  0.00     0.186 HD
BRANCH   4   6
ATOM      6  C   UNL d   1       5.191   1.810  -1.844  0.00  0.00    -0.004 A 
ATOM      7  C   UNL d   1       4.593   2.628  -2.795  0.00  0.00     0.100 A 
ATOM      8  N   UNL d   1       5.284   3.459  -3.611  0.00  0.00    -0.374 N 
ATOM      9  C   UNL d   1       6.627   3.469  -3.467  0.00  0.00     0.087 A 
ATOM     10  HN  UNL d   1       4.814   4.047  -4.299  1.00  0.00     0.164 HD
ATOM     11  C   UNL d   1       7.309   2.689  -2.546  0.00  0.00     0.018 A 
ATOM     12  C   UNL d   1       6.579   1.842  -1.715  0.00  0.00     0.015 A 
ENDBRANCH   4   6
ENDBRANCH   1   3
BRANCH   1  13
ATOM     13  C   UNL d   1       1.042   0.260  -0.091  0.00  0.00     0.186 C 
ATOM     14  S   UNL d   1       0.231  -0.597   1.084  0.00  0.00    -0.040 SA
BRANCH  13  15
ATOM     15  N   UNL d   1       0.498   1.138  -0.990  0.00  0.00    -0.360 N 
ATOM     16  H   UNL d   1       1.207   1.568  -1.575  0.00  0.00     0.162 HD
BRANCH  15  17
ATOM     17  C   UNL d   1      -0.811   1.748  -0.916  0.00  0.00     0.187 C 
BRANCH  17  18
ATOM     18  C   UNL d   1      -0.993   2.669  -2.065  0.00  0.00     0.070 A 
ATOM     19  O   UNL d   1      -1.638   2.169  -3.159  0.00  0.00    -0.325 OA
ATOM     20  C   UNL d   1      -1.718   3.174  -4.069  0.00  0.00     0.142 A 
ATOM     21  C   UNL d   1      -1.131   4.316  -3.577  0.00  0.00     0.027 A 
ATOM     22  C   UNL d   1      -0.654   3.990  -2.284  0.00  0.00     0.036 A 
ENDBRANCH  17  18
ENDBRANCH  15  17
ENDBRANCH  13  15
ENDBRANCH   1  13
TORSDOF 6
