REMARK  4 active torsions:
REMARK  status: ('A' for Active; 'I' for Inactive)
REMARK    1  A    between atoms: C_2  and  S_1 
REMARK    2  A    between atoms: O_5  and  S_1 
REMARK    3  A    between atoms: C_11  and  O_5 
REMARK    4  A    between atoms: N_12  and  C_13 
ROOT
ATOM      1  S   UNL d   1      -1.051   0.852  -0.269  0.00  0.00     0.305 S 
ATOM      2  O   UNL d   1      -0.862  -0.447  -0.885  0.00  0.00    -0.193 OA
ATOM      3  O   UNL d   1      -1.660   0.949   1.047  0.00  0.00    -0.193 OA
ENDROOT
BRANCH   1   4
ATOM      4  C   UNL d   1      -2.137   1.708  -1.358  0.00  0.00     0.117 A 
ATOM      5  C   UNL d   1      -1.803   2.838  -2.116  0.00  0.00     0.109 A 
ATOM      6  C   UNL d   1      -2.794   3.502  -2.966  0.00  0.00     0.086 A 
ATOM      7  N   UNL d   1      -0.654   3.513  -2.241  0.00  0.00    -0.238 N 
ATOM      8  N   UNL d   1      -2.213   4.556  -3.550  0.00  0.00    -0.239 N 
ATOM      9  C   UNL d   1      -4.119   3.047  -3.091  0.00  0.00     0.034 A 
ATOM     10  O   UNL d   1      -0.905   4.564  -3.102  0.00  0.00    -0.156 OA
ATOM     11  HN  UNL d   1      -2.646   5.219  -4.193  1.00  0.00     0.197 HD
ATOM     12  C   UNL d   1      -4.423   1.902  -2.334  0.00  0.00     0.004 A 
ATOM     13  C   UNL d   1      -3.474   1.259  -1.498  0.00  0.00     0.028 A 
ATOM     14  HN  UNL d   1       0.234   3.294  -1.790  1.00  0.00     0.197 HD
ENDBRANCH   1   4
BRANCH   1  15
ATOM     15  O   UNL d   1       0.383   1.617  -0.298  0.00  0.00    -0.227 OA
BRANCH  15  16
ATOM     16  C   UNL d   1       0.783   2.549   0.634  0.00  0.00     0.116 A 
ATOM     17  C   UNL d   1       2.137   2.553   1.058  0.00  0.00     0.065 A 
ATOM     18  C   UNL d   1       2.498   3.573   1.965  0.00  0.00     0.032 A 
ATOM     19  C   UNL d   1       1.593   4.538   2.418  0.00  0.00     0.002 A 
ATOM     20  C   UNL d   1       0.283   4.518   1.973  0.00  0.00     0.003 A 
ATOM     21  C   UNL d   1      -0.120   3.528   1.085  0.00  0.00     0.040 A 
BRANCH  17  22
ATOM     22  N   UNL d   1       3.125   1.678   0.612  0.00  0.00    -0.379 N 
ATOM     23  C   UNL d   1       3.080   1.027  -0.699  0.00  0.00     0.123 C 
ATOM     24  C   UNL d   1       4.456   1.119  -1.365  0.00  0.00     0.020 C 
ATOM     25  C   UNL d   1       5.571   0.601  -0.463  0.00  0.00     0.003 C 
ATOM     26  C   UNL d   1       5.530   1.304   0.892  0.00  0.00     0.020 C 
ATOM     27  C   UNL d   1       4.149   1.161   1.533  0.00  0.00     0.123 C 
ENDBRANCH  17  22
ENDBRANCH  15  16
ENDBRANCH   1  15
TORSDOF 4
