REMARK  1 active torsions:
REMARK  status: ('A' for Active; 'I' for Inactive)
REMARK    1  A    between atoms: S_13  and  C_10 
ROOT
ATOM      1  C   UNL d   1       0.227  -0.741   0.001  0.00  0.00     0.109 A 
ATOM      2  C   UNL d   1       0.383   0.620   0.000  0.00  0.00     0.106 A 
ATOM      3  N   UNL d   1      -0.966  -1.411   0.001  0.00  0.00    -0.325 N 
ATOM      4  S   UNL d   1       1.686  -1.564   0.003  0.00  0.00    -0.045 SA
ATOM      5  C   UNL d   1      -0.824   1.419  -0.001  0.00  0.00     0.132 A 
ATOM      6  N   UNL d   1      -2.010   0.699  -0.003  0.00  0.00    -0.322 N 
ATOM      7  N   UNL d   1       1.710   1.033   0.001  0.00  0.00    -0.340 N 
ATOM      8  HN  UNL d   1       2.029   2.002  -0.000  1.00  0.00     0.167 HD
ATOM      9  C   UNL d   1      -2.125  -0.677  -0.002  0.00  0.00     0.177 A 
ATOM     10  C   UNL d   1       2.490  -0.031   0.002  0.00  0.00     0.114 A 
ATOM     11  S   UNL d   1      -0.767   3.075  -0.002  0.00  0.00    -0.058 SA
ATOM     12  S   UNL d   1      -3.615  -1.415  -0.003  0.00  0.00    -0.040 SA
ATOM     13  H   UNL d   1      -0.993  -2.424   0.002  0.00  0.00     0.169 HD
ATOM     14  H   UNL d   1      -2.872   1.233  -0.004  0.00  0.00     0.169 HD
ENDROOT
BRANCH  10  15
ATOM     15  S   UNL d   1       4.240   0.059   0.003  0.00  0.00    -0.109 SA
ATOM     16  C   UNL d   1       4.522   1.839   0.000  0.00  0.00     0.097 C 
ENDBRANCH  10  15
TORSDOF 1
