REMARK  4 active torsions:
REMARK  status: ('A' for Active; 'I' for Inactive)
REMARK    1  A    between atoms: N_2  and  C_1 
REMARK    2  A    between atoms: N_5  and  C_3 
REMARK       I    between atoms: C_4  and  N_5 
REMARK    3  A    between atoms: C_9  and  C_4 
REMARK    4  A    between atoms: C_11  and  C_7 
ROOT
ATOM      1  C   UNL d   1       1.285  -0.025  -0.179  0.00  0.00     0.130 C 
ATOM      2  C   UNL d   1       0.599  -1.243  -0.058  0.00  0.00     0.068 C 
ATOM      3  C   UNL d   1       0.596   1.196  -0.275  0.00  0.00     0.046 C 
ATOM      4  C   UNL d   1      -0.794   1.263  -0.090  0.00  0.00    -0.048 C 
ATOM      5  C   UNL d   1      -0.800  -1.182   0.010  0.00  0.00     0.032 C 
ATOM      6  C   UNL d   1      -1.484   0.045   0.004  0.00  0.00     0.010 C 
ENDROOT
BRANCH   2   7
ATOM      7  N   UNL d   1       1.165  -2.537   0.035  0.00  0.00    -0.321 N 
ATOM      8  C   UNL d   1       2.409  -2.920  -0.423  0.00  0.00     0.256 C 
ATOM      9  O   UNL d   1       3.157  -2.224  -1.098  0.00  0.00    -0.267 OA
ATOM     10  H   UNL d   1       0.529  -3.282   0.283  0.00  0.00     0.169 HD
BRANCH   8  11
ATOM     11  C   UNL d   1       2.785  -4.337  -0.152  0.00  0.00     0.032 A 
ATOM     12  C   UNL d   1       3.619  -4.988  -1.072  0.00  0.00     0.018 A 
ATOM     13  C   UNL d   1       3.939  -6.337  -0.898  0.00  0.00     0.025 A 
ATOM     14  C   UNL d   1       3.439  -7.029   0.203  0.00  0.00     0.034 A 
ATOM     15  C   UNL d   1       2.646  -6.376   1.148  0.00  0.00     0.025 A 
ATOM     16 CL   UNL d   1       3.800  -8.698   0.398  0.00  0.00    -0.084 Cl
ATOM     17  C   UNL d   1       2.323  -5.027   0.977  0.00  0.00     0.018 A 
ENDBRANCH   8  11
ENDBRANCH   2   7
BRANCH   1  18
ATOM     18  N   UNL d   1       2.688   0.107   0.158  0.00  0.00    -0.113 N 
ATOM     19  O   UNL d   1       3.036  -0.300   1.279  0.00  0.00    -0.532 OA
ATOM     20  O   UNL d   1       3.405   0.763  -0.622  0.00  0.00    -0.532 OA
ENDBRANCH   1  18
BRANCH   4  21
ATOM     21  C   UNL d   1      -1.444   2.629   0.191  0.00  0.00    -0.024 C 
ATOM     22  C   UNL d   1      -1.354   3.554  -1.037  0.00  0.00     0.019 C 
ATOM     23  C   UNL d   1      -2.926   2.543   0.614  0.00  0.00     0.019 C 
ATOM     24  C   UNL d   1      -0.683   3.279   1.376  0.00  0.00     0.019 C 
ENDBRANCH   4  21
TORSDOF 4
