REMARK  3 active torsions:
REMARK  status: ('A' for Active; 'I' for Inactive)
REMARK    1  A    between atoms: C_2  and  C_1 
REMARK       I    between atoms: N_8  and  C_2 
REMARK    2  A    between atoms: C_4  and  C_12 
REMARK    3  A    between atoms: C_12  and  N_8 
ROOT
ATOM      1  C   UNL d   1       0.248   3.491  -1.158  0.00  0.00     0.260 C 
ATOM      2  N   UNL d   1       1.030   3.473  -0.022  0.00  0.00    -0.352 N 
ATOM      3  O   UNL d   1       0.752   3.287  -2.262  0.00  0.00    -0.267 OA
ATOM      4  H   UNL d   1       0.624   3.728   0.867  0.00  0.00     0.163 HD
ENDROOT
BRANCH   2   5
ATOM      5  C   UNL d   1       2.440   3.173  -0.060  0.00  0.00     0.169 C 
BRANCH   5   6
ATOM      6  C   UNL d   1       3.328   4.391  -0.023  0.00  0.00     0.006 A 
ATOM      7  C   UNL d   1       4.721   4.391   0.002  0.00  0.00    -0.047 A 
ATOM      8  C   UNL d   1       5.245   5.726   0.005  0.00  0.00     0.015 A 
ATOM      9  C   UNL d   1       5.597   3.179   0.010  0.00  0.00     0.049 C 
ATOM     10  C   UNL d   1       4.260   6.682  -0.012  0.00  0.00     0.051 A 
ATOM     11  S   UNL d   1       2.703   5.990  -0.018  0.00  0.00    -0.104 SA
ENDBRANCH   5   6
ENDBRANCH   2   5
BRANCH   1  12
ATOM     12  C   UNL d   1      -1.176   3.735  -0.953  0.00  0.00     0.094 A 
ATOM     13  C   UNL d   1      -1.942   3.862   0.195  0.00  0.00     0.057 A 
ATOM     14  C   UNL d   1      -3.329   4.051  -0.084  0.00  0.00     0.032 A 
ATOM     15 CL   UNL d   1      -1.399   3.790   1.821  0.00  0.00    -0.083 Cl
ATOM     16  C   UNL d   1      -3.592   4.072  -1.433  0.00  0.00     0.052 A 
ATOM     17  S   UNL d   1      -2.174   3.870  -2.357  0.00  0.00    -0.095 SA
ENDBRANCH   1  12
TORSDOF 3
