REMARK  7 active torsions:
REMARK  status: ('A' for Active; 'I' for Inactive)
REMARK    1  A    between atoms: C_2  and  S_1 
REMARK    2  A    between atoms: O_5  and  S_1 
REMARK    3  A    between atoms: O_14  and  C_13 
REMARK    4  A    between atoms: C_16  and  C_13 
REMARK    5  A    between atoms: C_17  and  O_14 
REMARK    6  A    between atoms: N_18  and  C_16 
REMARK    7  A    between atoms: C_19  and  C_17 
ROOT
ATOM      1  C   UNL d   1       0.420   0.665   2.181  0.00  0.00     0.072 A 
ATOM      2  C   UNL d   1      -0.332   1.169   3.241  0.00  0.00     0.026 A 
ATOM      3  C   UNL d   1       0.763  -0.689   2.126  0.00  0.00     0.026 A 
ATOM      4  C   UNL d   1      -0.727   0.309   4.266  0.00  0.00     0.008 A 
ATOM      5  C   UNL d   1       0.362  -1.544   3.151  0.00  0.00     0.008 A 
ATOM      6  C   UNL d   1      -0.384  -1.051   4.229  0.00  0.00    -0.062 A 
ATOM      7  C   UNL d   1      -0.803  -1.955   5.352  0.00  0.00     0.048 C 
ENDROOT
BRANCH   1   8
ATOM      8  S   UNL d   1       0.952   1.741   0.876  0.00  0.00     0.129 S 
ATOM      9  O   UNL d   1       0.255   3.003   1.000  0.00  0.00    -0.598 OA
ATOM     10  O   UNL d   1       0.941   0.974  -0.349  0.00  0.00    -0.598 OA
BRANCH   8  11
ATOM     11  O   UNL d   1       2.509   1.990   1.222  0.00  0.00    -0.292 OA
ATOM     12  H   UNL d   1       3.045   1.333   0.731  0.00  0.00     0.232 HD
ENDBRANCH   8  11
ENDBRANCH   1   8
TORSDOF 7
