REMARK  4 active torsions:
REMARK  status: ('A' for Active; 'I' for Inactive)
REMARK    1  A    between atoms: N_6  and  C_1 
REMARK       I    between atoms: C_7  and  N_6 
REMARK       I    between atoms: N_10  and  C_7 
REMARK    2  A    between atoms: N_12  and  C_9 
REMARK    3  A    between atoms: C_11  and  N_10 
REMARK    4  A    between atoms: O_17  and  C_14 
ROOT
ATOM      1  C   UNL d   1      -0.619   1.652  -1.029  0.00  0.00     0.139 A 
ATOM      2  C   UNL d   1       0.528   0.979  -0.485  0.00  0.00     0.064 A 
ATOM      3  N   UNL d   1      -1.540   0.812  -1.507  0.00  0.00    -0.282 N 
ATOM      4  HN  UNL d   1      -2.387   1.031  -2.031  1.00  0.00     0.189 HD
ATOM      5  N   UNL d   1      -1.080  -0.393  -1.129  0.00  0.00    -0.294 N 
ATOM      6  C   UNL d   1       0.173  -0.369  -0.567  0.00  0.00     0.066 A 
ATOM      7  C   UNL d   1       1.832   1.354  -0.018  0.00  0.00     0.045 A 
ATOM      8  C   UNL d   1      -1.907  -1.563  -1.315  0.00  0.00     0.178 C 
ATOM      9  C   UNL d   1       1.008  -1.410  -0.145  0.00  0.00     0.032 A 
ATOM     10  C   UNL d   1       2.651   0.277   0.409  0.00  0.00     0.030 A 
ATOM     11  C   UNL d   1       2.255  -1.060   0.354  0.00  0.00     0.005 A 
ENDROOT
BRANCH   1  12
ATOM     12  N   UNL d   1      -0.801   3.004  -1.009  0.00  0.00    -0.293 N 
ATOM     13  C   UNL d   1      -1.427   3.821  -1.882  0.00  0.00     0.326 C 
ATOM     14  N   UNL d   1      -1.947   3.270  -3.005  0.00  0.00    -0.306 N 
ATOM     15  O   UNL d   1      -1.405   5.022  -1.623  0.00  0.00    -0.247 OA
ATOM     16  H   UNL d   1      -2.244   2.301  -2.926  0.00  0.00     0.171 HD
ATOM     17  H   UNL d   1      -0.278   3.515  -0.327  0.00  0.00     0.172 HD
BRANCH  14  18
ATOM     18  C   UNL d   1      -2.320   4.016  -4.143  0.00  0.00     0.069 A 
ATOM     19  C   UNL d   1      -3.366   3.590  -4.972  0.00  0.00     0.095 A 
ATOM     20  C   UNL d   1      -3.663   4.297  -6.142  0.00  0.00     0.039 A 
ATOM     21  C   UNL d   1      -2.939   5.440  -6.485  0.00  0.00     0.003 A 
ATOM     22  C   UNL d   1      -1.903   5.874  -5.664  0.00  0.00     0.002 A 
ATOM     23  C   UNL d   1      -1.599   5.166  -4.501  0.00  0.00     0.032 A 
BRANCH  19  24
ATOM     24  O   UNL d   1      -4.142   2.487  -4.720  0.00  0.00    -0.354 OA
ATOM     25  C   UNL d   1      -4.812   2.547  -3.458  0.00  0.00     0.210 C 
ENDBRANCH  19  24
ENDBRANCH  14  18
ENDBRANCH   1  12
BRANCH   7  26
ATOM     26  N   UNL d   1       2.375   2.642  -0.100  0.00  0.00    -0.389 N 
ATOM     27  C   UNL d   1       3.779   2.804  -0.470  0.00  0.00     0.149 C 
ATOM     28  C   UNL d   1       1.791   3.765   0.614  0.00  0.00     0.149 C 
ENDBRANCH   7  26
TORSDOF 4
