REMARK  6 active torsions:
REMARK  status: ('A' for Active; 'I' for Inactive)
REMARK    1  A    between atoms: C_16  and  N_1 
REMARK    2  A    between atoms: C_8  and  C_2 
REMARK    3  A    between atoms: S_9  and  C_5 
REMARK    4  A    between atoms: C_20  and  S_9 
REMARK    5  A    between atoms: C_18  and  C_16 
REMARK    6  A    between atoms: C_22  and  C_20 
ROOT
ATOM      1  N   UNL d   1      -0.287  -1.254  -0.007  0.00  0.00    -0.307 N 
ATOM      2  C   UNL d   1       0.961  -0.656  -0.134  0.00  0.00     0.135 A 
ATOM      3  N   UNL d   1       0.774   0.653  -0.220  0.00  0.00    -0.283 N 
ATOM      4  HN  UNL d   1       1.513   1.352  -0.293  1.00  0.00     0.188 HD
ATOM      5  C   UNL d   1      -1.195  -0.226  -0.070  0.00  0.00     0.163 A 
ATOM      6  N   UNL d   1      -0.569   0.917  -0.197  0.00  0.00    -0.278 N 
ATOM      7  HN  UNL d   1      -1.004   1.838  -0.266  1.00  0.00     0.189 HD
ENDROOT
BRANCH   2   8
ATOM      8  C   UNL d   1       2.289  -1.287  -0.104  0.00  0.00     0.011 A 
ATOM      9  C   UNL d   1       3.350  -0.606   0.516  0.00  0.00     0.029 A 
ATOM     10  C   UNL d   1       4.645  -1.162   0.584  0.00  0.00    -0.009 A 
ATOM     11  C   UNL d   1       5.716  -0.493   1.193  0.00  0.00     0.015 A 
ATOM     12  C   UNL d   1       4.898  -2.431   0.027  0.00  0.00     0.042 A 
ATOM     13  C   UNL d   1       6.969  -1.093   1.245  0.00  0.00     0.018 A 
ATOM     14  C   UNL d   1       7.109  -2.349   0.685  0.00  0.00     0.088 A 
ATOM     15  N   UNL d   1       6.105  -3.020   0.081  0.00  0.00    -0.365 N 
ATOM     16  HN  UNL d   1       6.258  -3.945  -0.322  1.00  0.00     0.165 HD
ATOM     17  C   UNL d   1       3.854  -3.080  -0.611  0.00  0.00     0.031 A 
ATOM     18  C   UNL d   1       2.573  -2.517  -0.699  0.00  0.00     0.017 A 
ENDBRANCH   2   8
BRANCH   1  19
ATOM     19  C   UNL d   1      -0.593  -2.670   0.109  0.00  0.00     0.159 C 
BRANCH  19  20
ATOM     20  C   UNL d   1      -0.040  -3.378   1.314  0.00  0.00    -0.017 C 
ATOM     21  C   UNL d   1       0.251  -2.844   2.509  0.00  0.00     0.008 C 
ENDBRANCH  19  20
ENDBRANCH   1  19
BRANCH   5  22
ATOM     22  S   UNL d   1      -2.912  -0.425   0.018  0.00  0.00    -0.088 SA
BRANCH  22  23
ATOM     23  C   UNL d   1      -3.472   1.139  -0.720  0.00  0.00     0.121 C 
BRANCH  23  24
ATOM     24  C   UNL d   1      -4.980   1.249  -0.691  0.00  0.00    -0.048 A 
ATOM     25  C   UNL d   1      -5.622   1.881   0.386  0.00  0.00     0.009 A 
ATOM     26  C   UNL d   1      -7.016   1.979   0.423  0.00  0.00     0.024 A 
ATOM     27  C   UNL d   1      -7.775   1.440  -0.611  0.00  0.00     0.034 A 
ATOM     28  C   UNL d   1      -7.155   0.802  -1.683  0.00  0.00     0.024 A 
ATOM     29 CL   UNL d   1      -9.492   1.563  -0.566  0.00  0.00    -0.084 Cl
ATOM     30  C   UNL d   1      -5.761   0.704  -1.722  0.00  0.00     0.009 A 
ENDBRANCH  23  24
ENDBRANCH  22  23
ENDBRANCH   5  22
TORSDOF 6
