REMARK  4 active torsions:
REMARK  status: ('A' for Active; 'I' for Inactive)
REMARK    1  A    between atoms: C_2  and  S_1 
REMARK    2  A    between atoms: N_3  and  S_1 
REMARK    3  A    between atoms: C_7  and  N_3 
REMARK    4  A    between atoms: O_15  and  C_9 
ROOT
ATOM      1  S   UNL d   1       1.062  -0.105  -0.013  0.00  0.00     0.264 S 
ATOM      2  O   UNL d   1       0.388   0.994   0.648  0.00  0.00    -0.200 OA
ATOM      3  O   UNL d   1       2.505  -0.214   0.051  0.00  0.00    -0.200 OA
ENDROOT
BRANCH   1   4
ATOM      4  C   UNL d   1       0.585  -0.073  -1.730  0.00  0.00     0.096 A 
ATOM      5  C   UNL d   1      -0.748  -0.064  -2.164  0.00  0.00     0.029 A 
ATOM      6  I   UNL d   1      -2.448  -0.080  -0.925  0.00  0.00    -0.043 I 
ATOM      7  C   UNL d   1      -1.020  -0.043  -3.543  0.00  0.00     0.020 A 
ATOM      8  C   UNL d   1       0.017   0.000  -4.477  0.00  0.00     0.001 A 
ATOM      9  C   UNL d   1       1.338   0.023  -4.045  0.00  0.00     0.002 A 
ATOM     10  C   UNL d   1       1.622  -0.018  -2.679  0.00  0.00     0.027 A 
ENDBRANCH   1   4
BRANCH   1  11
ATOM     11  N   UNL d   1       0.416  -1.527   0.598  0.00  0.00    -0.281 N 
ATOM     12  H   UNL d   1      -0.491  -1.437   1.053  0.00  0.00     0.179 HD
BRANCH  11  13
ATOM     13  C   UNL d   1       0.826  -2.787   0.099  0.00  0.00     0.042 A 
ATOM     14  C   UNL d   1       1.939  -3.415   0.655  0.00  0.00     0.033 A 
ATOM     15  C   UNL d   1       2.333  -4.681   0.203  0.00  0.00     0.039 A 
ATOM     16  C   UNL d   1       1.625  -5.309  -0.823  0.00  0.00     0.068 A 
ATOM     17  C   UNL d   1       0.513  -4.670  -1.373  0.00  0.00     0.039 A 
ATOM     18  C   UNL d   1       0.105  -3.417  -0.909  0.00  0.00     0.033 A 
BRANCH  16  19
ATOM     19  O   UNL d   1       1.904  -6.530  -1.370  0.00  0.00    -0.356 OA
ATOM     20  C   UNL d   1       3.050  -7.212  -0.879  0.00  0.00     0.210 C 
ENDBRANCH  16  19
ENDBRANCH  11  13
ENDBRANCH   1  11
TORSDOF 4
