REMARK  1 active torsions:
REMARK  status: ('A' for Active; 'I' for Inactive)
REMARK    1  A    between atoms: C_11  and  C_9 
ROOT
ATOM      1  N   UNL d   1      -1.119   1.558   0.208  0.00  0.00    -0.255 N 
ATOM      2  C   UNL d   1      -0.237   0.533   0.175  0.00  0.00     0.160 A 
ATOM      3  C   UNL d   1      -2.458   1.258   0.209  0.00  0.00     0.271 A 
ATOM      4  C   UNL d   1      -2.574  -0.229   0.099  0.00  0.00     0.077 A 
ATOM      5  N   UNL d   1       1.011   0.915   0.206  0.00  0.00    -0.334 N 
ATOM      6  HN  UNL d   1       1.850   0.336   0.206  1.00  0.00     0.168 HD
ATOM      7  S   UNL d   1      -1.004  -1.011   0.117  0.00  0.00    -0.048 SA
ATOM      8  C   UNL d   1      -0.409   2.728   0.233  0.00  0.00     0.071 A 
ATOM      9  C   UNL d   1      -3.733  -0.893  -0.038  0.00  0.00     0.038 C 
ATOM     10  C   UNL d   1       0.921   2.298   0.238  0.00  0.00     0.061 A 
ATOM     11  O   UNL d   1      -3.314   2.120   0.300  0.00  0.00    -0.266 OA
ATOM     12  C   UNL d   1      -0.789   4.074   0.241  0.00  0.00     0.032 A 
ATOM     13  C   UNL d   1       1.938   3.264   0.272  0.00  0.00     0.032 A 
ATOM     14  C   UNL d   1       0.242   5.016   0.264  0.00  0.00     0.002 A 
ATOM     15  C   UNL d   1       1.582   4.622   0.285  0.00  0.00     0.002 A 
ENDROOT
BRANCH   9  16
ATOM     16  C   UNL d   1      -5.033  -0.205  -0.117  0.00  0.00    -0.011 A 
ATOM     17  C   UNL d   1      -5.573   0.253  -1.337  0.00  0.00     0.066 A 
ATOM     18  C   UNL d   1      -6.724   1.055  -1.327  0.00  0.00     0.056 A 
ATOM     19 CL   UNL d   1      -4.796  -0.169  -2.833  0.00  0.00    -0.082 Cl
ATOM     20 CL   UNL d   1      -7.417   1.707  -2.772  0.00  0.00    -0.083 Cl
ATOM     21  C   UNL d   1      -7.346   1.377  -0.117  0.00  0.00     0.026 A 
ATOM     22  C   UNL d   1      -6.836   0.893   1.086  0.00  0.00     0.003 A 
ATOM     23  C   UNL d   1      -5.685   0.106   1.087  0.00  0.00     0.013 A 
ENDBRANCH   9  16
TORSDOF 1
