REMARK  8 active torsions:
REMARK  status: ('A' for Active; 'I' for Inactive)
REMARK    1  A    between atoms: N_3  and  C_1 
REMARK    2  A    between atoms: C_4  and  C_1 
REMARK    3  A    between atoms: C_7  and  C_1 
REMARK       I    between atoms: C_2  and  N_3 
REMARK    4  A    between atoms: O_5  and  C_2 
REMARK       I    between atoms: N_11  and  C_4 
REMARK    5  A    between atoms: C_10  and  O_5 
REMARK    6  A    between atoms: O_9  and  C_7 
REMARK    7  A    between atoms: C_12  and  O_9 
REMARK    8  A    between atoms: C_13  and  C_12 
ROOT
ATOM      1  C   UNL d   1       1.041  -0.461   0.070  0.00  0.00     0.207 C 
ENDROOT
BRANCH   1   2
ATOM      2  N   UNL d   1       0.213  -0.506  -1.148  0.00  0.00    -0.321 N 
ATOM      3  C   UNL d   1      -0.495   0.566  -1.617  0.00  0.00     0.362 C 
ATOM      4  O   UNL d   1      -0.424   1.689  -1.154  0.00  0.00    -0.238 OA
ATOM      5  H   UNL d   1       0.045  -1.404  -1.580  0.00  0.00     0.165 HD
BRANCH   3   6
ATOM      6  O   UNL d   1      -1.289   0.175  -2.642  0.00  0.00    -0.294 OA
BRANCH   6   7
ATOM      7  C   UNL d   1      -2.069   1.149  -3.401  0.00  0.00     0.061 C 
ATOM      8  C   UNL d   1      -1.143   2.128  -4.134  0.00  0.00     0.046 C 
ATOM      9  C   UNL d   1      -2.832   0.321  -4.448  0.00  0.00     0.046 C 
ATOM     10  C   UNL d   1      -3.101   1.892  -2.545  0.00  0.00     0.046 C 
ENDBRANCH   6   7
ENDBRANCH   3   6
ENDBRANCH   1   2
BRANCH   1  11
ATOM     11  C   UNL d   1       0.384  -1.300   1.183  0.00  0.00     0.240 C 
ATOM     12  O   UNL d   1       0.994  -1.864   2.087  0.00  0.00    -0.271 OA
ATOM     13  N   UNL d   1      -0.986  -1.241   1.231  0.00  0.00    -0.368 N 
ATOM     14  H   UNL d   1      -1.495  -0.554   0.690  0.00  0.00     0.159 HD
ATOM     15  H   UNL d   1      -1.440  -1.662   2.031  0.00  0.00     0.159 HD
ENDBRANCH   1  11
BRANCH   1  16
ATOM     16  C   UNL d   1       2.529  -0.859  -0.157  0.00  0.00     0.149 C 
ATOM     17  C   UNL d   1       3.184   0.157  -1.099  0.00  0.00     0.042 C 
BRANCH  16  18
ATOM     18  O   UNL d   1       2.605  -2.205  -0.654  0.00  0.00    -0.379 OA
BRANCH  18  19
ATOM     19  C   UNL d   1       3.916  -2.730  -0.899  0.00  0.00     0.206 C 
BRANCH  19  20
ATOM     20  C   UNL d   1       4.871  -2.862   0.273  0.00  0.00    -0.035 A 
ATOM     21  C   UNL d   1       4.447  -3.319   1.528  0.00  0.00     0.009 A 
ATOM     22  C   UNL d   1       5.374  -3.554   2.552  0.00  0.00     0.001 A 
ATOM     23  C   UNL d   1       6.736  -3.343   2.333  0.00  0.00     0.000 A 
ATOM     24  C   UNL d   1       7.172  -2.889   1.093  0.00  0.00     0.001 A 
ATOM     25  C   UNL d   1       6.248  -2.653   0.070  0.00  0.00     0.009 A 
ENDBRANCH  19  20
ENDBRANCH  18  19
ENDBRANCH  16  18
ENDBRANCH   1  16
TORSDOF 8
