REMARK  7 active torsions:
REMARK  status: ('A' for Active; 'I' for Inactive)
REMARK    1  A    between atoms: C_26  and  C_7 
REMARK    2  A    between atoms: C_10  and  O_17 
REMARK    3  A    between atoms: O_17  and  C_18 
REMARK    4  A    between atoms: C_18  and  C_28 
REMARK    5  A    between atoms: C_27  and  C_26 
REMARK    6  A    between atoms: C_28  and  C_27 
REMARK    7  A    between atoms: O_33  and  C_31 
ROOT
ATOM      1  C   UNL d   1      -6.923  -2.573  -1.462  0.00  0.00    -0.036 C 
ATOM      2  C   UNL d   1      -5.322  -0.687   2.198  0.00  0.00    -0.017 C 
ATOM      3  C   UNL d   1      -3.510  -0.172   1.801  0.00  0.00    -0.072 C 
ATOM      4  C   UNL d   1      -6.363  -1.439  -2.326  0.00  0.00    -0.001 C 
ATOM      5  C   UNL d   1      -6.537  -0.880   0.616  0.00  0.00     0.003 C 
ATOM      6  C   UNL d   1      -5.760  -0.405  -1.214  0.00  0.00    -0.001 C 
ATOM      7  C   UNL d   1      -5.536  -2.824  -0.676  0.00  0.00    -0.002 C 
ATOM      8  C   UNL d   1      -2.972   0.225   0.466  0.00  0.00    -0.023 C 
ATOM      9  C   UNL d   1      -8.120  -2.158  -0.615  0.00  0.00     0.010 C 
ATOM     10  C   UNL d   1      -3.898   0.294  -1.173  0.00  0.00     0.033 C 
ATOM     11  C   UNL d   1      -7.601  -1.972   0.769  0.00  0.00     0.007 C 
ATOM     12  C   UNL d   1      -5.190  -2.258  -3.062  0.00  0.00     0.006 C 
ATOM     13  C   UNL d   1      -5.597   0.396   3.336  0.00  0.00     0.016 C 
ATOM     14  C   UNL d   1      -4.631  -3.187  -1.922  0.00  0.00     0.006 C 
ATOM     15  C   UNL d   1      -2.607  -0.143   3.017  0.00  0.00     0.066 C 
ATOM     16  C   UNL d   1      -7.444  -3.797  -2.271  0.00  0.00     0.016 C 
ATOM     17  C   UNL d   1      -4.590   0.435   4.514  0.00  0.00     0.033 C 
ATOM     18  C   UNL d   1      -3.147   0.770   4.109  0.00  0.00     0.122 C 
ATOM     19  C   UNL d   1      -5.604  -1.992   3.032  0.00  0.00     0.020 C 
ENDROOT
BRANCH   7  20
ATOM     20  C   UNL d   1      -4.633  -1.433   0.274  0.00  0.00    -0.013 C 
ATOM     21  C   UNL d   1      -3.618  -2.537   1.124  0.00  0.00     0.010 C 
BRANCH  20  22
ATOM     22  C   UNL d   1      -5.202   0.633   0.535  0.00  0.00     0.014 C 
BRANCH  22  23
ATOM     23  C   UNL d   1      -6.638   1.601   0.979  0.00  0.00     0.111 C 
BRANCH  23  24
ATOM     24  C   UNL d   1      -6.497   3.069   1.433  0.00  0.00     0.259 C 
ATOM     25  O   UNL d   1      -6.322   3.436   2.586  0.00  0.00    -0.265 OA
BRANCH  24  26
ATOM     26  O   UNL d   1      -6.857   3.884   0.416  0.00  0.00    -0.315 OA
BRANCH  26  27
ATOM     27  C   UNL d   1      -7.480   5.147   0.697  0.00  0.00     0.140 C 
ATOM     28  C   UNL d   1      -8.840   5.106   1.472  0.00  0.00     0.038 C 
ATOM     29  C   UNL d   1      -9.882   5.730   0.567  0.00  0.00    -0.023 C 
ATOM     30  C   UNL d   1      -8.657   6.106   2.637  0.00  0.00     0.016 C 
ATOM     31  C   UNL d   1      -9.755   7.032   0.251  0.00  0.00    -0.030 C 
ATOM     32  C   UNL d   1      -8.634   7.878   0.839  0.00  0.00     0.031 C 
ATOM     33  C   UNL d   1      -7.792   7.166   1.948  0.00  0.00    -0.008 C 
ATOM     34  C   UNL d   1      -6.679   6.256   1.381  0.00  0.00     0.038 C 
ENDBRANCH  26  27
ENDBRANCH  24  26
ENDBRANCH  23  24
ENDBRANCH  22  23
ENDBRANCH  20  22
ENDBRANCH   7  20
BRANCH  18  35
ATOM     35  O   UNL d   1      -3.027   2.137   3.714  0.00  0.00    -0.395 OA
ATOM     36  H   UNL d   1      -3.345   2.217   2.797  0.00  0.00     0.210 HD
ENDBRANCH  18  35
TORSDOF 7
