REMARK  4 active torsions:
REMARK  status: ('A' for Active; 'I' for Inactive)
REMARK    1  A    between atoms: C_2  and  C_1 
REMARK    2  A    between atoms: C_4  and  C_2 
REMARK    3  A    between atoms: S_8  and  C_3 
REMARK    4  A    between atoms: C_9  and  S_8 
ROOT
ATOM      1  C   UNL d   1       1.040  -0.010   0.044  0.00  0.00     0.062 C 
ATOM      2  C   UNL d   1       2.361  -0.169  -0.098  0.00  0.00     0.054 C 
ENDROOT
BRANCH   1   3
ATOM      3  C   UNL d   1       0.351  -0.558   1.241  0.00  0.00     0.182 C 
ATOM      4  O   UNL d   1       0.869  -1.409   1.955  0.00  0.00    -0.288 OA
BRANCH   3   5
ATOM      5  C   UNL d   1      -1.020  -0.061   1.532  0.00  0.00     0.014 A 
ATOM      6  C   UNL d   1      -1.912  -0.909   2.203  0.00  0.00     0.017 A 
ATOM      7  C   UNL d   1      -3.200  -0.469   2.522  0.00  0.00     0.020 A 
ATOM      8  C   UNL d   1      -3.593   0.823   2.182  0.00  0.00     0.011 A 
ATOM      9  C   UNL d   1      -2.713   1.680   1.521  0.00  0.00     0.020 A 
ATOM     10 BR   UNL d   1      -5.324   1.431   2.637  0.00  0.00    -0.051 Br
ATOM     11  C   UNL d   1      -1.426   1.240   1.199  0.00  0.00     0.017 A 
ENDBRANCH   3   5
ENDBRANCH   1   3
BRANCH   2  12
ATOM     12  S   UNL d   1       3.193   0.482  -1.472  0.00  0.00    -0.102 SA
BRANCH  12  13
ATOM     13  C   UNL d   1       3.939  -1.024  -2.064  0.00  0.00     0.004 A 
ATOM     14  C   UNL d   1       3.245  -1.841  -2.964  0.00  0.00     0.020 A 
ATOM     15  C   UNL d   1       3.823  -3.025  -3.430  0.00  0.00     0.025 A 
ATOM     16  C   UNL d   1       5.097  -3.388  -3.000  0.00  0.00     0.034 A 
ATOM     17  C   UNL d   1       5.803  -2.573  -2.116  0.00  0.00     0.025 A 
ATOM     18 CL   UNL d   1       5.804  -4.852  -3.564  0.00  0.00    -0.084 Cl
ATOM     19  C   UNL d   1       5.225  -1.389  -1.651  0.00  0.00     0.020 A 
ENDBRANCH  12  13
ENDBRANCH   2  12
TORSDOF 4
