REMARK  6 active torsions:
REMARK  status: ('A' for Active; 'I' for Inactive)
REMARK    1  A    between atoms: C_20  and  N_1 
REMARK    2  A    between atoms: C_9  and  C_2 
REMARK    3  A    between atoms: S_10  and  C_5 
REMARK    4  A    between atoms: C_8  and  C_11 
REMARK    5  A    between atoms: C_11  and  S_10 
REMARK    6  A    between atoms: C_22  and  C_20 
ROOT
ATOM      1  N   UNL d   1      -0.284  -1.244  -0.043  0.00  0.00    -0.307 N 
ATOM      2  C   UNL d   1       0.963  -0.632  -0.119  0.00  0.00     0.135 A 
ATOM      3  N   UNL d   1       0.758   0.665  -0.304  0.00  0.00    -0.283 N 
ATOM      4  HN  UNL d   1       1.489   1.366  -0.427  1.00  0.00     0.188 HD
ATOM      5  C   UNL d   1      -1.203  -0.225  -0.133  0.00  0.00     0.163 A 
ATOM      6  N   UNL d   1      -0.586   0.917  -0.304  0.00  0.00    -0.278 N 
ATOM      7  HN  UNL d   1      -1.028   1.830  -0.416  1.00  0.00     0.189 HD
ENDROOT
BRANCH   2   8
ATOM      8  C   UNL d   1       2.311  -1.230  -0.077  0.00  0.00     0.011 A 
ATOM      9  C   UNL d   1       3.354  -0.581  -0.761  0.00  0.00     0.029 A 
ATOM     10  C   UNL d   1       4.682  -1.060  -0.728  0.00  0.00    -0.009 A 
ATOM     11  C   UNL d   1       5.732  -0.402  -1.383  0.00  0.00     0.015 A 
ATOM     12  C   UNL d   1       4.991  -2.228  -0.006  0.00  0.00     0.042 A 
ATOM     13  C   UNL d   1       7.025  -0.906  -1.302  0.00  0.00     0.018 A 
ATOM     14  C   UNL d   1       7.225  -2.061  -0.571  0.00  0.00     0.088 A 
ATOM     15  N   UNL d   1       6.238  -2.728   0.067  0.00  0.00    -0.365 N 
ATOM     16  HN  UNL d   1       6.432  -3.582   0.589  1.00  0.00     0.165 HD
ATOM     17  C   UNL d   1       3.960  -2.865   0.666  0.00  0.00     0.031 A 
ATOM     18  C   UNL d   1       2.644  -2.373   0.653  0.00  0.00     0.017 A 
ENDBRANCH   2   8
BRANCH   1  19
ATOM     19  C   UNL d   1      -0.581  -2.658   0.108  0.00  0.00     0.159 C 
BRANCH  19  20
ATOM     20  C   UNL d   1      -0.102  -3.557  -1.000  0.00  0.00    -0.017 C 
ATOM     21  C   UNL d   1       0.111  -3.227  -2.282  0.00  0.00     0.008 C 
ENDBRANCH  19  20
ENDBRANCH   1  19
BRANCH   5  22
ATOM     22  S   UNL d   1      -2.920  -0.422  -0.005  0.00  0.00    -0.087 SA
BRANCH  22  23
ATOM     23  C   UNL d   1      -3.502   1.121  -0.777  0.00  0.00     0.126 C 
BRANCH  23  24
ATOM     24  C   UNL d   1      -5.000   1.274  -0.688  0.00  0.00     0.012 A 
ATOM     25  C   UNL d   1      -5.807   0.725  -1.692  0.00  0.00     0.125 A 
ATOM     26  F   UNL d   1      -5.239   0.065  -2.714  0.00  0.00    -0.205 F 
ATOM     27  C   UNL d   1      -7.196   0.847  -1.678  0.00  0.00     0.043 A 
ATOM     28  C   UNL d   1      -7.817   1.530  -0.638  0.00  0.00     0.005 A 
ATOM     29  C   UNL d   1      -7.042   2.076   0.383  0.00  0.00     0.024 A 
ATOM     30  C   UNL d   1      -5.644   1.946   0.364  0.00  0.00     0.044 A 
ATOM     31 CL   UNL d   1      -4.769   2.648   1.675  0.00  0.00    -0.084 Cl
ENDBRANCH  23  24
ENDBRANCH  22  23
ENDBRANCH   5  22
TORSDOF 6
