REMARK  2 active torsions:
REMARK  status: ('A' for Active; 'I' for Inactive)
REMARK    1  A    between atoms: N_5  and  C_1 
REMARK    2  A    between atoms: C_8  and  C_4 
REMARK       I    between atoms: C_9  and  N_5 
ROOT
ATOM      1  C   UNL d   1       0.351  -1.166  -0.414  0.00  0.00     0.151 A 
ATOM      2  N   UNL d   1       1.480  -0.523  -0.515  0.00  0.00    -0.335 N 
ATOM      3  HN  UNL d   1       2.336  -0.904  -0.919  1.00  0.00     0.168 HD
ATOM      4  C   UNL d   1       1.348   0.752   0.004  0.00  0.00     0.051 A 
ATOM      5  S   UNL d   1      -0.959  -0.295   0.247  0.00  0.00    -0.063 SA
ATOM      6  C   UNL d   1       0.087   1.052   0.486  0.00  0.00     0.083 A 
ENDROOT
BRANCH   4   7
ATOM      7  C   UNL d   1       2.475   1.672  -0.013  0.00  0.00    -0.008 A 
ATOM      8  C   UNL d   1       2.673   2.632   0.989  0.00  0.00     0.026 A 
ATOM      9  C   UNL d   1       3.788   3.492   0.957  0.00  0.00    -0.025 A 
ATOM     10  C   UNL d   1       4.008   4.443   1.966  0.00  0.00     0.012 A 
ATOM     11  C   UNL d   1       4.714   3.391  -0.107  0.00  0.00    -0.026 A 
ATOM     12  C   UNL d   1       5.120   5.286   1.922  0.00  0.00     0.001 A 
ATOM     13  C   UNL d   1       6.026   5.191   0.869  0.00  0.00     0.001 A 
ATOM     14  C   UNL d   1       5.824   4.249  -0.140  0.00  0.00     0.012 A 
ATOM     15  C   UNL d   1       4.512   2.429  -1.105  0.00  0.00     0.013 A 
ATOM     16  C   UNL d   1       3.411   1.574  -1.052  0.00  0.00     0.014 A 
ENDBRANCH   4   7
BRANCH   1  17
ATOM     17  N   UNL d   1       0.059  -2.453  -0.772  0.00  0.00    -0.307 N 
ATOM     18  C   UNL d   1       1.043  -3.337  -1.154  0.00  0.00     0.219 C 
ATOM     19  O   UNL d   1       2.252  -3.135  -1.186  0.00  0.00    -0.274 OA
ATOM     20  C   UNL d   1       0.501  -4.692  -1.532  0.00  0.00     0.117 C 
ATOM     21  H   UNL d   1      -0.899  -2.747  -0.669  0.00  0.00     0.171 HD
ENDBRANCH   1  17
TORSDOF 2
