REMARK  3 active torsions:
REMARK  status: ('A' for Active; 'I' for Inactive)
REMARK    1  A    between atoms: C_4  and  C_1 
REMARK    2  A    between atoms: C_6  and  N_2 
REMARK    3  A    between atoms: O_19  and  C_8 
ROOT
ATOM      1  N   UNL d   1      -3.282  -2.571   0.067  0.00  0.00    -0.364 N 
ATOM      2  HN  UNL d   1      -3.821  -1.713   0.182  1.00  0.00     0.165 HD
ATOM      3  C   UNL d   1      -1.991  -2.517  -0.038  0.00  0.00     0.102 C 
ENDROOT
BRANCH   1   4
ATOM      4  C   UNL d   1      -3.942  -3.817   0.023  0.00  0.00     0.049 A 
ATOM      5  C   UNL d   1      -5.216  -3.925  -0.577  0.00  0.00     0.040 A 
ATOM      6  C   UNL d   1      -5.915  -5.137  -0.592  0.00  0.00     0.063 A 
ATOM      7 BR   UNL d   1      -6.054  -2.417  -1.380  0.00  0.00    -0.049 Br
ATOM      8  C   UNL d   1      -5.337  -6.256  -0.010  0.00  0.00     0.117 A 
ATOM      9  C   UNL d   1      -4.092  -6.183   0.600  0.00  0.00     0.044 A 
ATOM     10  F   UNL d   1      -5.998  -7.418  -0.023  0.00  0.00    -0.206 F 
ATOM     11  C   UNL d   1      -3.407  -4.966   0.629  0.00  0.00     0.034 A 
ENDBRANCH   1   4
BRANCH   3  12
ATOM     12  C   UNL d   1      -1.277  -1.223  -0.011  0.00  0.00     0.014 A 
ATOM     13  C   UNL d   1      -1.957   0.000   0.044  0.00  0.00     0.077 A 
ATOM     14  C   UNL d   1      -1.249   1.199   0.048  0.00  0.00     0.039 A 
ATOM     15  C   UNL d   1       0.145   1.183  -0.001  0.00  0.00     0.026 A 
ATOM     16  C   UNL d   1       0.823  -0.036  -0.051  0.00  0.00     0.035 A 
ATOM     17  C   UNL d   1       0.121  -1.241  -0.058  0.00  0.00     0.039 A 
ATOM     18 CL   UNL d   1       2.542  -0.053  -0.108  0.00  0.00    -0.084 Cl
BRANCH  13  19
ATOM     19  O   UNL d   1      -3.320   0.094   0.092  0.00  0.00    -0.360 OA
ATOM     20  H   UNL d   1      -3.682  -0.821   0.080  0.00  0.00     0.217 HD
ENDBRANCH  13  19
ENDBRANCH   3  12
TORSDOF 3
