REMARK  6 active torsions:
REMARK  status: ('A' for Active; 'I' for Inactive)
REMARK    1  A    between atoms: C_7  and  C_1 
REMARK    2  A    between atoms: O_15  and  C_7 
REMARK    3  A    between atoms: N_8  and  N_10 
REMARK    4  A    between atoms: C_11  and  C_14 
REMARK    5  A    between atoms: O_16  and  C_13 
REMARK    6  A    between atoms: C_20  and  O_15 
ROOT
ATOM      1  C   UNL d   1      -0.009   1.283  -0.060  0.00  0.00     0.109 A 
ATOM      2  C   UNL d   1      -0.174   2.655  -0.023  0.00  0.00     0.153 A 
ATOM      3  N   UNL d   1       2.066   2.264   0.046  0.00  0.00    -0.302 N 
ATOM      4  HN  UNL d   1       3.073   2.417   0.092  1.00  0.00     0.186 HD
ATOM      5  N   UNL d   1       1.087   3.181   0.001  0.00  0.00    -0.283 N 
ATOM      6  C   UNL d   1       1.404   1.101   0.016  0.00  0.00     0.042 A 
ATOM      7  N   UNL d   1      -1.252   3.471   0.040  0.00  0.00    -0.284 N 
ATOM      8  C   UNL d   1       2.150  -0.184   0.040  0.00  0.00     0.071 C 
ATOM      9  H   UNL d   1       1.319   4.168   0.006  0.00  0.00     0.188 HD
ATOM     10  H   UNL d   1      -2.190   3.071  -0.101  0.00  0.00     0.188 HD
ENDROOT
BRANCH   1  11
ATOM     11  C   UNL d   1      -1.006   0.241  -0.155  0.00  0.00     0.299 C 
ATOM     12  O   UNL d   1      -0.774  -0.929   0.129  0.00  0.00    -0.259 OA
BRANCH  11  13
ATOM     13  O   UNL d   1      -2.177   0.674  -0.713  0.00  0.00    -0.318 OA
BRANCH  13  14
ATOM     14  C   UNL d   1      -3.011  -0.378  -1.221  0.00  0.00     0.174 C 
ATOM     15  C   UNL d   1      -2.491  -0.825  -2.579  0.00  0.00     0.034 C 
ENDBRANCH  13  14
ENDBRANCH  11  13
ENDBRANCH   1  11
BRANCH   7  16
ATOM     16  N   UNL d   1      -1.113   4.818   0.120  0.00  0.00    -0.309 N 
ATOM     17  C   UNL d   1      -2.054   5.539   0.658  0.00  0.00     0.121 C 
ATOM     18  HN  UNL d   1      -0.270   5.266  -0.241  1.00  0.00     0.186 HD
BRANCH  17  19
ATOM     19  C   UNL d   1      -3.265   5.122   1.397  0.00  0.00     0.014 A 
ATOM     20  C   UNL d   1      -3.319   4.009   2.239  0.00  0.00     0.077 A 
ATOM     21  C   UNL d   1      -4.494   3.701   2.924  0.00  0.00     0.037 A 
ATOM     22  C   UNL d   1      -5.610   4.530   2.804  0.00  0.00     0.003 A 
ATOM     23  C   UNL d   1      -5.548   5.670   2.004  0.00  0.00     0.001 A 
ATOM     24  C   UNL d   1      -4.377   5.969   1.303  0.00  0.00     0.015 A 
BRANCH  20  25
ATOM     25  O   UNL d   1      -2.253   3.194   2.493  0.00  0.00    -0.360 OA
ATOM     26  H   UNL d   1      -1.501   3.494   1.940  0.00  0.00     0.217 HD
ENDBRANCH  20  25
ENDBRANCH  17  19
ENDBRANCH   7  16
TORSDOF 6
