REMARK  4 active torsions:
REMARK  status: ('A' for Active; 'I' for Inactive)
REMARK    1  A    between atoms: C_2  and  N_1 
REMARK    2  A    between atoms: C_5  and  C_4 
REMARK    3  A    between atoms: O_13  and  C_5 
REMARK    4  A    between atoms: C_14  and  O_13 
ROOT
ATOM      1  C   UNL d   1       0.164  -1.073   0.700  0.00  0.00     0.125 A 
ATOM      2  C   UNL d   1      -0.860  -1.678  -0.043  0.00  0.00     0.055 A 
ATOM      3  C   UNL d   1      -1.555  -2.758   0.512  0.00  0.00     0.042 A 
ATOM      4  C   UNL d   1       0.498  -1.504   1.984  0.00  0.00     0.067 A 
ATOM      5  C   UNL d   1      -1.227  -3.201   1.802  0.00  0.00     0.019 A 
ATOM      6  C   UNL d   1      -0.209  -2.577   2.533  0.00  0.00     0.027 A 
ATOM      7 CL   UNL d   1       1.720  -0.768   2.952  0.00  0.00    -0.082 Cl
ENDROOT
BRANCH   3   8
ATOM      8  C   UNL d   1      -2.580  -3.525  -0.247  0.00  0.00     0.293 C 
ATOM      9  O   UNL d   1      -3.150  -4.504   0.199  0.00  0.00    -0.259 OA
BRANCH   8  10
ATOM     10  O   UNL d   1      -2.669  -3.043  -1.510  0.00  0.00    -0.318 OA
BRANCH  10  11
ATOM     11  C   UNL d   1      -3.256  -3.936  -2.467  0.00  0.00     0.174 C 
ATOM     12  C   UNL d   1      -2.145  -4.797  -3.041  0.00  0.00     0.034 C 
ENDBRANCH  10  11
ENDBRANCH   8  10
ENDBRANCH   3   8
BRANCH   1  13
ATOM     13  N   UNL d   1       0.893   0.007   0.075  0.00  0.00    -0.114 N 
ATOM     14  O   UNL d   1       0.245   1.022  -0.211  0.00  0.00    -0.532 OA
ATOM     15  O   UNL d   1       2.086  -0.190  -0.186  0.00  0.00    -0.532 OA
ENDBRANCH   1  13
TORSDOF 4
