REMARK  18 active torsions:
REMARK  status: ('A' for Active; 'I' for Inactive)
REMARK    1  A    between atoms: C_9  and  S_1 
REMARK    2  A    between atoms: N_18  and  S_1 
REMARK    3  A    between atoms: S_2  and  C_10 
REMARK    4  A    between atoms: N_19  and  S_2 
REMARK    5  A    between atoms: N_11  and  C_5 
REMARK    6  A    between atoms: N_12  and  C_6 
REMARK    7  A    between atoms: C_29  and  N_18 
REMARK    8  A    between atoms: C_30  and  N_18 
REMARK    9  A    between atoms: C_31  and  N_19 
REMARK   10  A    between atoms: C_32  and  N_19 
REMARK   11  A    between atoms: C_33  and  C_29 
REMARK   12  A    between atoms: C_34  and  C_30 
REMARK   13  A    between atoms: C_35  and  C_31 
REMARK   14  A    between atoms: C_36  and  C_32 
REMARK   15  A    between atoms: C_37  and  C_33 
REMARK   16  A    between atoms: C_38  and  C_34 
REMARK   17  A    between atoms: C_39  and  C_35 
REMARK   18  A    between atoms: C_40  and  C_36 
ROOT
ATOM      1  C   UNL d   1      -0.231   1.622   4.107  0.00  0.00     0.025 C 
ATOM      2  C   UNL d   1      -0.903   1.864   5.395  0.00  0.00     0.025 A 
ATOM      3  C   UNL d   1       0.669   2.323   3.302  0.00  0.00     0.116 C 
ATOM      4  C   UNL d   1      -1.239   2.987   6.153  0.00  0.00     0.116 A 
ATOM      5  C   UNL d   1      -1.426   0.634   5.855  0.00  0.00     0.030 A 
ATOM      6  C   UNL d   1      -0.556   0.313   3.682  0.00  0.00     0.030 C 
ATOM      7  C   UNL d   1       0.596   0.545   1.623  0.00  0.00     0.078 C 
ATOM      8  C   UNL d   1      -2.337   1.589   7.836  0.00  0.00     0.078 A 
ATOM      9  C   UNL d   1      -1.267  -0.370   4.782  0.00  0.00     0.194 C 
ATOM     10  C   UNL d   1      -1.935   2.849   7.372  0.00  0.00     0.061 A 
ATOM     11  C   UNL d   1       1.069   1.797   2.058  0.00  0.00     0.061 C 
ATOM     12  C   UNL d   1      -0.185  -0.244   2.462  0.00  0.00     0.041 C 
ATOM     13  C   UNL d   1      -2.110   0.457   7.054  0.00  0.00     0.041 A 
ATOM     14  O   UNL d   1      -1.660  -1.510   4.793  0.00  0.00    -0.287 OA
ENDROOT
BRANCH   7  15
ATOM     15  S   UNL d   1       1.188  -0.089   0.067  0.00  0.00     0.243 S 
ATOM     16  O   UNL d   1       1.151  -1.530   0.173  0.00  0.00    -0.206 OA
ATOM     17  O   UNL d   1       2.427   0.602  -0.223  0.00  0.00    -0.206 OA
BRANCH  15  18
ATOM     18  N   UNL d   1       0.013   0.437  -1.105  0.00  0.00    -0.206 NA
BRANCH  18  19
ATOM     19  C   UNL d   1      -0.243   1.924  -1.058  0.00  0.00     0.108 C 
BRANCH  19  20
ATOM     20  C   UNL d   1      -1.333   2.392  -2.030  0.00  0.00     0.019 C 
BRANCH  20  21
ATOM     21  C   UNL d   1      -1.704   3.879  -1.878  0.00  0.00    -0.022 C 
ATOM     22  C   UNL d   1      -0.496   4.798  -2.077  0.00  0.00     0.009 C 
ATOM     23  C   UNL d   1      -2.792   4.233  -2.896  0.00  0.00     0.009 C 
ENDBRANCH  20  21
ENDBRANCH  19  20
ENDBRANCH  18  19
BRANCH  18  24
ATOM     24  C   UNL d   1       0.402  -0.001  -2.500  0.00  0.00     0.108 C 
BRANCH  24  25
ATOM     25  C   UNL d   1       0.330  -1.507  -2.731  0.00  0.00     0.019 C 
BRANCH  25  26
ATOM     26  C   UNL d   1      -1.027  -2.144  -2.383  0.00  0.00    -0.022 C 
ATOM     27  C   UNL d   1      -2.171  -1.569  -3.221  0.00  0.00     0.009 C 
ATOM     28  C   UNL d   1      -0.945  -3.658  -2.582  0.00  0.00     0.009 C 
ENDBRANCH  25  26
ENDBRANCH  24  25
ENDBRANCH  18  24
ENDBRANCH  15  18
ENDBRANCH   7  15
BRANCH   3  29
ATOM     29  N   UNL d   1       1.380   3.516   3.762  0.00  0.00    -0.115 N 
ATOM     30  O   UNL d   1       1.590   3.604   4.976  0.00  0.00    -0.532 OA
ATOM     31  O   UNL d   1       1.766   4.318   2.904  0.00  0.00    -0.532 OA
ENDBRANCH   3  29
BRANCH   4  32
ATOM     32  N   UNL d   1      -1.133   4.353   5.641  0.00  0.00    -0.115 N 
ATOM     33  O   UNL d   1      -1.258   4.499   4.417  0.00  0.00    -0.532 OA
ATOM     34  O   UNL d   1      -1.012   5.270   6.461  0.00  0.00    -0.532 OA
ENDBRANCH   4  32
BRANCH   8  35
ATOM     35  S   UNL d   1      -3.412   1.479   9.264  0.00  0.00     0.243 S 
ATOM     36  O   UNL d   1      -4.478   2.438   9.036  0.00  0.00    -0.206 OA
ATOM     37  O   UNL d   1      -3.706   0.077   9.422  0.00  0.00    -0.206 OA
BRANCH  35  38
ATOM     38  N   UNL d   1      -2.427   2.048  10.600  0.00  0.00    -0.206 NA
BRANCH  38  39
ATOM     39  C   UNL d   1      -2.600   3.550  10.788  0.00  0.00     0.108 C 
BRANCH  39  40
ATOM     40  C   UNL d   1      -1.672   4.195  11.823  0.00  0.00     0.019 C 
BRANCH  40  41
ATOM     41  C   UNL d   1      -1.854   5.730  11.912  0.00  0.00    -0.022 C 
ATOM     42  C   UNL d   1      -3.296   6.136  12.237  0.00  0.00     0.009 C 
ATOM     43  C   UNL d   1      -0.917   6.302  12.978  0.00  0.00     0.009 C 
ENDBRANCH  40  41
ENDBRANCH  39  40
ENDBRANCH  38  39
BRANCH  38  44
ATOM     44  C   UNL d   1      -2.692   1.327  11.898  0.00  0.00     0.108 C 
BRANCH  44  45
ATOM     45  C   UNL d   1      -2.264  -0.139  11.944  0.00  0.00     0.019 C 
BRANCH  45  46
ATOM     46  C   UNL d   1      -0.813  -0.425  11.523  0.00  0.00    -0.022 C 
ATOM     47  C   UNL d   1       0.192   0.194  12.495  0.00  0.00     0.009 C 
ATOM     48  C   UNL d   1      -0.601  -1.940  11.448  0.00  0.00     0.009 C 
ENDBRANCH  45  46
ENDBRANCH  44  45
ENDBRANCH  38  44
ENDBRANCH  35  38
ENDBRANCH   8  35
TORSDOF 18
