REMARK  3 active torsions:
REMARK  status: ('A' for Active; 'I' for Inactive)
REMARK    1  A    between atoms: O_4  and  C_1 
REMARK    2  A    between atoms: C_3  and  O_4 
REMARK    3  A    between atoms: S_14  and  C_3 
ROOT
ATOM      1  C   UNL d   1       0.640   0.973   1.008  0.00  0.00     0.070 C 
ATOM      2  C   UNL d   1      -1.585   0.203   0.051  0.00  0.00    -0.041 C 
ATOM      3  C   UNL d   1       0.462   0.387  -1.444  0.00  0.00    -0.011 C 
ATOM      4  C   UNL d   1       0.319  -1.446   0.269  0.00  0.00    -0.011 C 
ATOM      5  C   UNL d   1      -0.894   1.101   1.102  0.00  0.00     0.048 C 
ATOM      6  C   UNL d   1       0.988  -0.514   1.294  0.00  0.00     0.043 C 
ATOM      7  C   UNL d   1       1.154   1.291  -0.412  0.00  0.00     0.043 C 
ATOM      8  C   UNL d   1      -1.062   0.590  -1.354  0.00  0.00     0.014 C 
ATOM      9  C   UNL d   1      -1.207  -1.267   0.337  0.00  0.00     0.014 C 
ATOM     10  C   UNL d   1       0.802  -1.079  -1.142  0.00  0.00     0.009 C 
ATOM     11  C   UNL d   1      -3.104   0.385   0.120  0.00  0.00     0.015 C 
ENDROOT
BRANCH   1  12
ATOM     12  O   UNL d   1       1.335   1.734   2.045  0.00  0.00    -0.324 OA
BRANCH  12  13
ATOM     13  C   UNL d   1       1.388   3.070   2.297  0.00  0.00     0.175 C 
ATOM     14  S   UNL d   1       0.614   4.229   1.377  0.00  0.00    -0.045 SA
BRANCH  13  15
ATOM     15  S   UNL d   1       2.337   3.579   3.697  0.00  0.00    -0.098 SA
ATOM     16  C   UNL d   1       3.063   2.019   4.223  0.00  0.00     0.098 C 
ENDBRANCH  13  15
ENDBRANCH  12  13
ENDBRANCH   1  12
TORSDOF 3
