REMARK  9 active torsions:
REMARK  status: ('A' for Active; 'I' for Inactive)
REMARK    1  A    between atoms: C_6  and  C_1 
REMARK    2  A    between atoms: C_9  and  C_3 
REMARK    3  A    between atoms: O_19  and  C_6 
REMARK    4  A    between atoms: C_7  and  C_9 
REMARK       I    between atoms: N_10  and  C_7 
REMARK    5  A    between atoms: C_8  and  C_11 
REMARK    6  A    between atoms: O_21  and  C_8 
REMARK    7  A    between atoms: C_18  and  N_10 
REMARK    8  A    between atoms: C_24  and  O_19 
REMARK    9  A    between atoms: C_25  and  O_21 
ROOT
ATOM      1  C   UNL d   1       2.803  -1.825   0.899  0.00  0.00     0.223 C 
ATOM      2  N   UNL d   1       3.553  -2.988   0.988  0.00  0.00    -0.327 N 
ATOM      3  O   UNL d   1       3.226  -0.706   0.644  0.00  0.00    -0.273 OA
ATOM      4  H   UNL d   1       3.043  -3.864   0.964  0.00  0.00     0.169 HD
ENDROOT
BRANCH   1   5
ATOM      5  C   UNL d   1       1.356  -2.061   1.292  0.00  0.00     0.122 C 
BRANCH   5   6
ATOM      6  C   UNL d   1       0.315  -1.263   0.520  0.00  0.00     0.128 C 
ATOM      7  C   UNL d   1       0.344   0.236   0.321  0.00  0.00     0.053 C 
ATOM      8  C   UNL d   1       0.063   0.554  -0.955  0.00  0.00     0.021 C 
ATOM      9  N   UNL d   1      -0.007  -0.594  -1.694  0.00  0.00    -0.330 N 
ATOM     10  C   UNL d   1      -0.153   1.862  -1.635  0.00  0.00     0.069 C 
ATOM     11  C   UNL d   1       0.261  -1.713  -0.934  0.00  0.00     0.231 C 
ATOM     12  H   UNL d   1      -0.103  -0.631  -2.701  0.00  0.00     0.168 HD
ATOM     13  O   UNL d   1       0.390  -2.852  -1.351  0.00  0.00    -0.272 OA
BRANCH   7  14
ATOM     14  C   UNL d   1       0.621   1.211   1.386  0.00  0.00     0.292 C 
ATOM     15  O   UNL d   1       0.803   2.404   1.206  0.00  0.00    -0.260 OA
BRANCH  14  16
ATOM     16  O   UNL d   1       0.691   0.575   2.581  0.00  0.00    -0.318 OA
BRANCH  16  17
ATOM     17  C   UNL d   1       1.264   1.348   3.646  0.00  0.00     0.174 C 
ATOM     18  C   UNL d   1       2.768   1.146   3.644  0.00  0.00     0.034 C 
ENDBRANCH  16  17
ENDBRANCH  14  16
ENDBRANCH   7  14
ENDBRANCH   5   6
ENDBRANCH   1   5
BRANCH   2  19
ATOM     19  C   UNL d   1       4.952  -3.101   1.111  0.00  0.00     0.034 A 
ATOM     20  C   UNL d   1       5.798  -2.015   1.339  0.00  0.00     0.030 A 
ATOM     21  C   UNL d   1       7.157  -2.218   1.604  0.00  0.00     0.020 A 
ATOM     22  C   UNL d   1       7.688  -3.514   1.641  0.00  0.00     0.039 A 
ATOM     23  C   UNL d   1       6.854  -4.599   1.352  0.00  0.00     0.020 A 
ATOM     24  C   UNL d   1       5.494  -4.393   1.096  0.00  0.00     0.030 A 
BRANCH  22  25
ATOM     25  C   UNL d   1       9.083  -3.796   2.076  0.00  0.00     0.293 C 
ATOM     26  O   UNL d   1       9.576  -4.913   2.077  0.00  0.00    -0.259 OA
BRANCH  25  27
ATOM     27  O   UNL d   1       9.644  -2.669   2.572  0.00  0.00    -0.318 OA
BRANCH  27  28
ATOM     28  C   UNL d   1      10.826  -2.849   3.367  0.00  0.00     0.174 C 
ATOM     29  C   UNL d   1      10.409  -2.936   4.823  0.00  0.00     0.034 C 
ENDBRANCH  27  28
ENDBRANCH  25  27
ENDBRANCH  22  25
ENDBRANCH   2  19
TORSDOF 9
