REMARK  2 active torsions:
REMARK  status: ('A' for Active; 'I' for Inactive)
REMARK    1  A    between atoms: C_12  and  N_4 
REMARK    2  A    between atoms: C_13  and  C_12 
ROOT
ATOM      1  N   UNL d   1       1.162  -0.121  -0.114  0.00  0.00    -0.305 N 
ATOM      2  HN  UNL d   1       2.163  -0.318  -0.118  1.00  0.00     0.186 HD
ATOM      3  C   UNL d   1       0.595   1.047  -0.013  0.00  0.00     0.044 C 
ATOM      4  N   UNL d   1       0.157  -1.020  -0.211  0.00  0.00    -0.323 N 
ATOM      5  C   UNL d   1       1.361   2.273   0.028  0.00  0.00     0.028 A 
ATOM      6  S   UNL d   1       0.589   3.795   0.186  0.00  0.00    -0.100 SA
ATOM      7  C   UNL d   1      -0.907   1.010   0.059  0.00  0.00     0.081 C 
ATOM      8  C   UNL d   1       2.733   2.420  -0.063  0.00  0.00     0.021 A 
ATOM      9  C   UNL d   1       2.074   4.637   0.137  0.00  0.00     0.050 A 
ATOM     10  C   UNL d   1      -1.169  -0.484   0.034  0.00  0.00     0.149 C 
ATOM     11  C   UNL d   1       3.145   3.784   0.000  0.00  0.00     0.008 A 
ENDROOT
BRANCH   4  12
ATOM     12  C   UNL d   1       0.357  -2.433   0.092  0.00  0.00     0.180 C 
BRANCH  12  13
ATOM     13  C   UNL d   1       0.612  -3.266  -1.145  0.00  0.00    -0.039 A 
ATOM     14  C   UNL d   1       1.716  -2.994  -1.968  0.00  0.00     0.009 A 
ATOM     15  C   UNL d   1       1.969  -3.769  -3.100  0.00  0.00     0.001 A 
ATOM     16  C   UNL d   1       1.125  -4.830  -3.421  0.00  0.00     0.000 A 
ATOM     17  C   UNL d   1       0.029  -5.117  -2.609  0.00  0.00     0.001 A 
ATOM     18  C   UNL d   1      -0.227  -4.340  -1.476  0.00  0.00     0.009 A 
ENDBRANCH  12  13
ENDBRANCH   4  12
TORSDOF 2
