REMARK  4 active torsions:
REMARK  status: ('A' for Active; 'I' for Inactive)
REMARK    1  A    between atoms: N_2  and  C_1 
REMARK       I    between atoms: C_6  and  N_2 
REMARK    2  A    between atoms: C_8  and  N_2 
REMARK    3  A    between atoms: C_13  and  C_6 
REMARK    4  A    between atoms: N_7  and  C_12 
ROOT
ATOM      1  N   UNL d   1      -3.344  -1.418  -0.106  0.00  0.00    -0.258 N 
ATOM      2  C   UNL d   1      -3.491  -2.813   0.022  0.00  0.00     0.264 C 
ATOM      3  O   UNL d   1      -4.467  -3.371   0.530  0.00  0.00    -0.267 OA
ENDROOT
BRANCH   1   4
ATOM      4  C   UNL d   1      -2.055  -0.900  -0.092  0.00  0.00     0.159 A 
ATOM      5  N   UNL d   1      -1.345  -0.582  -1.147  0.00  0.00    -0.335 N 
ATOM      6  C   UNL d   1      -0.085  -0.171  -0.750  0.00  0.00     0.051 A 
ATOM      7  HN  UNL d   1      -1.671  -0.630  -2.112  1.00  0.00     0.168 HD
ATOM      8  C   UNL d   1       0.986   0.144  -1.611  0.00  0.00     0.031 A 
ATOM      9  C   UNL d   1       0.105  -0.072   0.631  0.00  0.00     0.035 A 
ATOM     10  C   UNL d   1       2.200   0.583  -1.076  0.00  0.00     0.002 A 
ATOM     11  C   UNL d   1       2.352   0.729   0.299  0.00  0.00     0.002 A 
ATOM     12  C   UNL d   1       1.310   0.404   1.176  0.00  0.00     0.021 A 
ATOM     13  S   UNL d   1      -1.317  -0.636   1.431  0.00  0.00    -0.051 SA
ENDBRANCH   1   4
BRANCH   1  14
ATOM     14  C   UNL d   1      -4.433  -0.471   0.010  0.00  0.00     0.046 A 
ATOM     15  C   UNL d   1      -5.772  -0.892   0.105  0.00  0.00     0.054 A 
ATOM     16  C   UNL d   1      -6.822   0.026   0.220  0.00  0.00     0.036 A 
ATOM     17 CL   UNL d   1      -8.443  -0.541   0.351  0.00  0.00    -0.084 Cl
ATOM     18  C   UNL d   1      -6.574   1.393   0.222  0.00  0.00     0.024 A 
ATOM     19  C   UNL d   1      -5.266   1.842   0.095  0.00  0.00     0.004 A 
ATOM     20  C   UNL d   1      -4.213   0.923  -0.017  0.00  0.00     0.030 A 
ENDBRANCH   1  14
BRANCH   2  21
ATOM     21  C   UNL d   1      -2.436  -3.748  -0.486  0.00  0.00     0.033 A 
ATOM     22  C   UNL d   1      -2.271  -4.979   0.175  0.00  0.00     0.019 A 
ATOM     23  C   UNL d   1      -1.345  -5.923  -0.284  0.00  0.00     0.037 A 
ATOM     24  C   UNL d   1      -0.567  -5.634  -1.413  0.00  0.00     0.102 A 
ATOM     25  C   UNL d   1      -0.744  -4.427  -2.101  0.00  0.00     0.037 A 
ATOM     26  C   UNL d   1      -1.702  -3.510  -1.657  0.00  0.00     0.019 A 
BRANCH  24  27
ATOM     27  N   UNL d   1       0.421  -6.606  -1.895  0.00  0.00    -0.116 N 
ATOM     28  O   UNL d   1       0.491  -7.695  -1.302  0.00  0.00    -0.532 OA
ATOM     29  O   UNL d   1       1.128  -6.282  -2.859  0.00  0.00    -0.532 OA
ENDBRANCH  24  27
ENDBRANCH   2  21
TORSDOF 4
