REMARK  12 active torsions:
REMARK  status: ('A' for Active; 'I' for Inactive)
REMARK    1  A    between atoms: S_5  and  C_1 
REMARK    2  A    between atoms: S_6  and  C_2 
REMARK    3  A    between atoms: C_13  and  C_3 
REMARK    4  A    between atoms: C_14  and  C_4 
REMARK    5  A    between atoms: C_10  and  S_5 
REMARK    6  A    between atoms: C_9  and  S_6 
REMARK    7  A    between atoms: C_15  and  C_7 
REMARK    8  A    between atoms: C_16  and  C_8 
REMARK    9  A    between atoms: O_23  and  C_13 
REMARK   10  A    between atoms: O_24  and  C_14 
REMARK   11  A    between atoms: O_26  and  C_15 
REMARK   12  A    between atoms: O_25  and  C_16 
ROOT
ATOM      1  C   UNL d   1       1.326  -0.153   0.064  0.00  0.00     0.054 C 
ATOM      2  C   UNL d   1      -1.490   0.348   0.128  0.00  0.00     0.054 C 
ATOM      3  C   UNL d   1      -0.580   1.413   0.217  0.00  0.00     0.058 C 
ATOM      4  C   UNL d   1       0.423  -1.215  -0.094  0.00  0.00     0.058 C 
ATOM      5  C   UNL d   1      -0.957  -0.952  -0.009  0.00  0.00     0.042 C 
ATOM      6  C   UNL d   1       0.803   1.136   0.269  0.00  0.00     0.042 C 
ENDROOT
BRANCH   1   7
ATOM      7  S   UNL d   1       3.164  -0.340   0.027  0.00  0.00     0.087 S 
ATOM      8  O   UNL d   1       3.672   0.974   0.553  0.00  0.00    -0.247 OA
BRANCH   7   9
ATOM      9  C   UNL d   1       3.312  -0.177  -1.782  0.00  0.00     0.053 A 
ATOM     10  C   UNL d   1       3.981  -1.111  -2.593  0.00  0.00     0.057 A 
ATOM     11  C   UNL d   1       4.068  -0.868  -3.983  0.00  0.00     0.020 A 
ATOM     12  C   UNL d   1       3.521   0.279  -4.563  0.00  0.00     0.001 A 
ATOM     13  C   UNL d   1       2.907   1.224  -3.760  0.00  0.00     0.002 A 
ATOM     14  C   UNL d   1       2.825   1.005  -2.385  0.00  0.00     0.022 A 
BRANCH  10  15
ATOM     15  C   UNL d   1       4.802  -2.265  -2.125  0.00  0.00     0.177 C 
ATOM     16  O   UNL d   1       5.845  -2.549  -2.692  0.00  0.00    -0.646 OA
BRANCH  15  17
ATOM     17  O   UNL d   1       4.351  -2.996  -1.096  0.00  0.00    -0.773 OA
ATOM     18  H   UNL d   1       3.410  -2.934  -0.812  0.00  0.00     0.167 HD
ENDBRANCH  15  17
ENDBRANCH  10  15
ENDBRANCH   7   9
ENDBRANCH   1   7
BRANCH   4  19
ATOM     19  C   UNL d   1       0.884  -2.603  -0.355  0.00  0.00     0.177 C 
ATOM     20  O   UNL d   1       2.032  -2.958  -0.117  0.00  0.00    -0.646 OA
BRANCH  19  21
ATOM     21  O   UNL d   1       0.023  -3.428  -0.971  0.00  0.00    -0.773 OA
ATOM     22  H   UNL d   1      -0.866  -3.120  -1.223  0.00  0.00     0.167 HD
ENDBRANCH  19  21
ENDBRANCH   4  19
BRANCH   3  23
ATOM     23  C   UNL d   1      -0.932   2.852   0.308  0.00  0.00     0.177 C 
ATOM     24  O   UNL d   1      -1.671   3.319   1.145  0.00  0.00    -0.646 OA
BRANCH  23  25
ATOM     25  O   UNL d   1      -0.225   3.628  -0.547  0.00  0.00    -0.773 OA
ATOM     26  H   UNL d   1       0.351   3.177  -1.188  0.00  0.00     0.167 HD
ENDBRANCH  23  25
ENDBRANCH   3  23
BRANCH   2  27
ATOM     27  S   UNL d   1      -3.308   0.448  -0.051  0.00  0.00     0.087 S 
ATOM     28  O   UNL d   1      -3.577   1.814  -0.602  0.00  0.00    -0.247 OA
BRANCH  27  29
ATOM     29  C   UNL d   1      -3.707   0.484   1.723  0.00  0.00     0.053 C 
ATOM     30  C   UNL d   1      -3.999  -0.665   2.487  0.00  0.00     0.057 C 
ATOM     31  C   UNL d   1      -4.160  -0.552   3.885  0.00  0.00     0.020 C 
ATOM     32  C   UNL d   1      -4.120   0.694   4.507  0.00  0.00     0.001 C 
ATOM     33  C   UNL d   1      -3.958   1.837   3.740  0.00  0.00     0.002 C 
ATOM     34  C   UNL d   1      -3.782   1.728   2.362  0.00  0.00     0.022 C 
BRANCH  30  35
ATOM     35  C   UNL d   1      -4.174  -2.007   1.872  0.00  0.00     0.177 C 
ATOM     36  O   UNL d   1      -3.545  -2.399   0.900  0.00  0.00    -0.646 OA
BRANCH  35  37
ATOM     37  O   UNL d   1      -5.117  -2.771   2.463  0.00  0.00    -0.773 OA
ATOM     38  H   UNL d   1      -5.686  -2.330   3.122  0.00  0.00     0.167 HD
ENDBRANCH  35  37
ENDBRANCH  30  35
ENDBRANCH  27  29
ENDBRANCH   2  27
TORSDOF 12
