REMARK  4 active torsions:
REMARK  status: ('A' for Active; 'I' for Inactive)
REMARK    1  A    between atoms: C_5  and  C_1 
REMARK    2  A    between atoms: C_8  and  C_7 
REMARK    3  A    between atoms: O_17  and  C_10 
REMARK    4  A    between atoms: O_18  and  C_11 
ROOT
ATOM      1  C   UNL d   1       0.270  -0.915   0.850  0.00  0.00     0.134 A 
ATOM      2  C   UNL d   1      -0.577   0.136   1.124  0.00  0.00     0.067 A 
ATOM      3  N   UNL d   1       0.609   0.654  -0.737  0.00  0.00    -0.300 N 
ATOM      4  HN  UNL d   1       0.978   1.128  -1.561  1.00  0.00     0.187 HD
ATOM      5  N   UNL d   1       0.947  -0.558  -0.272  0.00  0.00    -0.296 N 
ATOM      6  C   UNL d   1      -0.321   1.110   0.121  0.00  0.00     0.060 A 
ATOM      7  H   UNL d   1       1.660  -1.080  -0.773  0.00  0.00     0.187 HD
ENDROOT
BRANCH   6   8
ATOM      8  C   UNL d   1      -0.913   2.447  -0.020  0.00  0.00    -0.005 A 
ATOM      9  C   UNL d   1      -0.565   3.265  -1.109  0.00  0.00     0.053 A 
ATOM     10  C   UNL d   1      -1.078   4.565  -1.258  0.00  0.00     0.102 A 
ATOM     11  C   UNL d   1      -1.955   5.062  -0.280  0.00  0.00     0.101 A 
ATOM     12  C   UNL d   1      -2.315   4.240   0.799  0.00  0.00     0.040 A 
ATOM     13  C   UNL d   1      -1.807   2.948   0.928  0.00  0.00     0.017 A 
BRANCH  10  14
ATOM     14  O   UNL d   1      -0.760   5.369  -2.320  0.00  0.00    -0.353 OA
ATOM     15  C   UNL d   1       0.136   4.867  -3.304  0.00  0.00     0.210 C 
ENDBRANCH  10  14
BRANCH  11  16
ATOM     16  O   UNL d   1      -2.547   6.295  -0.199  0.00  0.00    -0.353 OA
ATOM     17  C   UNL d   1      -2.263   7.258  -1.201  0.00  0.00     0.210 C 
ENDBRANCH  11  16
ENDBRANCH   6   8
BRANCH   1  18
ATOM     18  C   UNL d   1       0.529  -2.197   1.515  0.00  0.00     0.434 C 
ATOM     19  F   UNL d   1      -0.227  -2.362   2.625  0.00  0.00    -0.165 F 
ATOM     20  F   UNL d   1       0.274  -3.242   0.692  0.00  0.00    -0.165 F 
ATOM     21  F   UNL d   1       1.827  -2.302   1.892  0.00  0.00    -0.165 F 
ENDBRANCH   1  18
TORSDOF 4
