REMARK  5 active torsions:
REMARK  status: ('A' for Active; 'I' for Inactive)
REMARK    1  A    between atoms: C_2  and  S_1 
REMARK    2  A    between atoms: C_7  and  S_1 
REMARK    3  A    between atoms: C_10  and  C_2 
REMARK    4  A    between atoms: C_3  and  C_8 
REMARK       I    between atoms: N_15  and  C_3 
REMARK    5  A    between atoms: N_4  and  C_10 
ROOT
ATOM      1  N   UNL d   1       0.528  -0.685  -4.038  0.00  0.00     0.089 N 
ATOM      2  C   UNL d   1       1.152  -2.194  -6.511  0.00  0.00     0.081 C 
ATOM      3  C   UNL d   1       0.758  -0.718  -6.514  0.00  0.00     0.044 C 
ATOM      4  C   UNL d   1       0.539  -2.865  -5.279  0.00  0.00     0.044 C 
ATOM      5  C   UNL d   1       1.145  -0.033  -5.204  0.00  0.00     0.273 C 
ATOM      6  C   UNL d   1       0.883  -2.120  -3.983  0.00  0.00     0.273 C 
ENDROOT
BRANCH   1   7
ATOM      7  C   UNL d   1       0.953  -0.037  -2.769  0.00  0.00     0.287 C 
BRANCH   7   8
ATOM      8  C   UNL d   1       0.518   1.423  -2.652  0.00  0.00     0.176 C 
BRANCH   8   9
ATOM      9  S   UNL d   1       1.077   2.119  -1.114  0.00  0.00     0.177 S 
ATOM     10  O   UNL d   1       2.525   2.037  -1.070  0.00  0.00    -0.223 OA
ATOM     11  O   UNL d   1       0.270   1.574  -0.036  0.00  0.00    -0.223 OA
BRANCH   9  12
ATOM     12  C   UNL d   1       0.660   3.844  -1.269  0.00  0.00     0.059 A 
ATOM     13  C   UNL d   1      -0.594   4.293  -0.846  0.00  0.00     0.023 A 
ATOM     14  C   UNL d   1      -0.894   5.654  -0.918  0.00  0.00     0.002 A 
ATOM     15  C   UNL d   1       0.055   6.557  -1.402  0.00  0.00     0.000 A 
ATOM     16  C   UNL d   1       1.307   6.104  -1.819  0.00  0.00     0.002 A 
ATOM     17  C   UNL d   1       1.616   4.745  -1.751  0.00  0.00     0.023 A 
ENDBRANCH   9  12
ENDBRANCH   8   9
ENDBRANCH   7   8
ENDBRANCH   1   7
BRANCH   2  18
ATOM     18  C   UNL d   1       2.666  -2.386  -6.569  0.00  0.00     0.219 C 
ATOM     19  O   UNL d   1       3.314  -3.045  -5.765  0.00  0.00    -0.273 OA
ATOM     20  N   UNL d   1       3.296  -1.790  -7.622  0.00  0.00    -0.370 N 
ATOM     21  H   UNL d   1       2.797  -1.447  -8.431  0.00  0.00     0.159 HD
ATOM     22  H   UNL d   1       4.288  -1.969  -7.715  0.00  0.00     0.159 HD
ENDBRANCH   2  18
TORSDOF 5
