REMARK  3 active torsions:
REMARK  status: ('A' for Active; 'I' for Inactive)
REMARK    1  A    between atoms: C_6  and  C_1 
REMARK    2  A    between atoms: C_2  and  N_5 
REMARK       I    between atoms: N_5  and  C_6 
REMARK    3  A    between atoms: C_17  and  C_7 
ROOT
ATOM      1  N   UNL d   1      -3.567   1.512   0.145  0.00  0.00    -0.306 N 
ATOM      2  C   UNL d   1      -2.985   0.286   0.384  0.00  0.00     0.232 C 
ATOM      3  O   UNL d   1      -3.591  -0.716   0.764  0.00  0.00    -0.272 OA
ATOM      4  H   UNL d   1      -3.050   2.273  -0.265  0.00  0.00     0.171 HD
ENDROOT
BRANCH   1   5
ATOM      5  C   UNL d   1      -4.927   1.673   0.238  0.00  0.00     0.151 A 
ATOM      6  N   UNL d   1      -5.816   0.871   0.755  0.00  0.00    -0.335 N 
ATOM      7  C   UNL d   1      -7.097   1.340   0.507  0.00  0.00     0.051 A 
ATOM      8  HN  UNL d   1      -5.598   0.017   1.269  1.00  0.00     0.168 HD
ATOM      9  C   UNL d   1      -7.132   2.544  -0.172  0.00  0.00     0.083 A 
ATOM     10  S   UNL d   1      -5.529   3.104  -0.468  0.00  0.00    -0.063 SA
BRANCH   7  11
ATOM     11  C   UNL d   1      -8.264   0.559   0.923  0.00  0.00    -0.009 A 
ATOM     12  C   UNL d   1      -8.081  -0.540   1.780  0.00  0.00     0.014 A 
ATOM     13  C   UNL d   1      -9.158  -1.345   2.162  0.00  0.00     0.001 A 
ATOM     14  C   UNL d   1     -10.437  -1.064   1.692  0.00  0.00     0.000 A 
ATOM     15  C   UNL d   1     -10.640   0.027   0.849  0.00  0.00     0.001 A 
ATOM     16  C   UNL d   1      -9.562   0.835   0.468  0.00  0.00     0.014 A 
ENDBRANCH   7  11
ENDBRANCH   1   5
BRANCH   2  17
ATOM     17  C   UNL d   1      -1.457   0.228   0.162  0.00  0.00     0.042 C 
ATOM     18  C   UNL d   1      -0.722   1.045   1.249  0.00  0.00     0.024 C 
ATOM     19  C   UNL d   1       0.804   0.910   1.085  0.00  0.00    -0.013 C 
ATOM     20  C   UNL d   1       1.207  -0.570   1.198  0.00  0.00     0.009 C 
ATOM     21  C   UNL d   1       1.214   1.435  -0.301  0.00  0.00     0.009 C 
ATOM     22  C   UNL d   1       0.514  -1.389   0.098  0.00  0.00    -0.013 C 
ATOM     23  C   UNL d   1      -1.002  -1.258   0.272  0.00  0.00     0.024 C 
ATOM     24  C   UNL d   1       0.910  -0.847  -1.283  0.00  0.00     0.009 C 
ATOM     25  C   UNL d   1       0.502   0.629  -1.403  0.00  0.00    -0.013 C 
ATOM     26  C   UNL d   1      -1.025   0.755  -1.226  0.00  0.00     0.024 C 
ENDBRANCH   2  17
TORSDOF 3
