REMARK  2 active torsions:
REMARK  status: ('A' for Active; 'I' for Inactive)
REMARK    1  A    between atoms: O_8  and  N_1 
REMARK    2  A    between atoms: C_7  and  C_5 
ROOT
ATOM      1  N   UNL d   1      -0.651  -0.990  -0.102  0.00  0.00    -0.156 NA
ATOM      2  N   UNL d   1       0.169   1.093  -0.089  0.00  0.00    -0.360 N 
ATOM      3  C   UNL d   1       0.825  -1.163  -0.017  0.00  0.00     0.086 C 
ATOM      4  C   UNL d   1       1.285   0.287  -0.166  0.00  0.00     0.099 C 
ATOM      5  C   UNL d   1      -0.979   0.369   0.371  0.00  0.00     0.218 C 
ATOM      6  S   UNL d   1       2.823   0.881  -0.352  0.00  0.00    -0.063 SA
ATOM      7  C   UNL d   1       1.310  -1.785   1.301  0.00  0.00     0.042 C 
ATOM      8  C   UNL d   1       1.269  -2.021  -1.206  0.00  0.00     0.042 C 
ATOM      9  H   UNL d   1       0.230   2.101  -0.076  0.00  0.00     0.162 HD
ENDROOT
BRANCH   5  10
ATOM     10  C   UNL d   1      -1.234   0.578   1.861  0.00  0.00    -0.019 A 
ATOM     11  C   UNL d   1      -0.381   1.347   2.677  0.00  0.00     0.010 A 
ATOM     12  C   UNL d   1      -0.659   1.550   4.032  0.00  0.00     0.001 A 
ATOM     13  C   UNL d   1      -1.797   0.991   4.600  0.00  0.00     0.000 A 
ATOM     14  C   UNL d   1      -2.663   0.237   3.813  0.00  0.00     0.001 A 
ATOM     15  C   UNL d   1      -2.392   0.044   2.457  0.00  0.00     0.010 A 
ENDBRANCH   5  10
BRANCH   1  16
ATOM     16  O   UNL d   1      -1.336  -2.036   0.622  0.00  0.00    -0.310 OA
ATOM     17  H   UNL d   1      -1.764  -2.531  -0.101  0.00  0.00     0.237 HD
ENDBRANCH   1  16
TORSDOF 2
