REMARK  3 active torsions:
REMARK  status: ('A' for Active; 'I' for Inactive)
REMARK    1  A    between atoms: C_12  and  C_2 
REMARK    2  A    between atoms: C_13  and  C_9 
REMARK    3  A    between atoms: C_14  and  C_11 
ROOT
ATOM      1  N   UNL d   1       0.296   0.642   0.062  0.00  0.00    -0.235 N 
ATOM      2  C   UNL d   1      -0.830   1.456   0.057  0.00  0.00     0.144 A 
ATOM      3  C   UNL d   1       0.159  -0.752   0.027  0.00  0.00     0.130 A 
ATOM      4  N   UNL d   1       1.600   0.998   0.100  0.00  0.00    -0.289 N 
ATOM      5  HN  UNL d   1       1.981   1.941   0.181  1.00  0.00     0.188 HD
ATOM      6  N   UNL d   1      -1.057  -1.371   0.047  0.00  0.00    -0.340 N 
ATOM      7  HN  UNL d   1      -1.137  -2.388   0.056  1.00  0.00     0.167 HD
ATOM      8  C   UNL d   1       1.434  -1.264  -0.045  0.00  0.00     0.084 A 
ATOM      9  C   UNL d   1       2.281  -0.146   0.008  0.00  0.00     0.086 A 
ATOM     10  C   UNL d   1      -2.056   0.892   0.046  0.00  0.00     0.067 A 
ATOM     11  C   UNL d   1      -2.111  -0.605   0.054  0.00  0.00     0.046 A 
ENDROOT
BRANCH  11  12
ATOM     12  C   UNL d   1      -3.465  -1.232   0.110  0.00  0.00    -0.006 A 
ATOM     13  C   UNL d   1      -3.606  -2.442   0.809  0.00  0.00     0.053 A 
ATOM     14  C   UNL d   1      -4.863  -3.004   0.880  0.00  0.00     0.105 A 
ATOM     15  O   UNL d   1      -5.184  -4.155   1.529  0.00  0.00    -0.323 OA
ATOM     16  C   UNL d   1      -5.953  -2.421   0.279  0.00  0.00     0.105 A 
ATOM     17  C   UNL d   1      -6.606  -4.216   1.292  0.00  0.00     0.352 A 
ATOM     18  O   UNL d   1      -7.096  -3.132   0.473  0.00  0.00    -0.323 OA
ATOM     19  C   UNL d   1      -5.848  -1.247  -0.434  0.00  0.00     0.040 A 
ATOM     20  C   UNL d   1      -4.586  -0.647  -0.522  0.00  0.00     0.016 A 
ENDBRANCH  11  12
BRANCH   2  21
ATOM     21  C   UNL d   1      -0.659   2.929   0.050  0.00  0.00     0.434 C 
ATOM     22  F   UNL d   1       0.608   3.401   0.027  0.00  0.00    -0.165 F 
ATOM     23  F   UNL d   1      -1.285   3.473  -1.032  0.00  0.00    -0.165 F 
ATOM     24  F   UNL d   1      -1.258   3.488   1.137  0.00  0.00    -0.165 F 
ENDBRANCH   2  21
BRANCH   9  25
ATOM     25  C   UNL d   1       3.770  -0.182  -0.037  0.00  0.00     0.103 A 
ATOM     26  O   UNL d   1       4.520  -1.311  -0.218  0.00  0.00    -0.320 OA
ATOM     27  C   UNL d   1       5.824  -0.931  -0.228  0.00  0.00     0.142 A 
ATOM     28  C   UNL d   1       5.934   0.425  -0.038  0.00  0.00     0.027 A 
ATOM     29  C   UNL d   1       4.610   0.910   0.084  0.00  0.00     0.041 A 
ENDBRANCH   9  25
TORSDOF 3
