REMARK  4 active torsions:
REMARK  status: ('A' for Active; 'I' for Inactive)
REMARK    1  A    between atoms: C_3  and  S_1 
REMARK    2  A    between atoms: N_10  and  S_1 
REMARK       I    between atoms: C_2  and  N_5 
REMARK       I    between atoms: N_4  and  C_2 
REMARK    3  A    between atoms: C_7  and  N_4 
REMARK    4  A    between atoms: N_5  and  C_11 
ROOT
ATOM      1  C   UNL d   1      -3.151   2.578  -1.298  0.00  0.00     0.325 C 
ATOM      2  N   UNL d   1      -3.107   1.223  -1.474  0.00  0.00    -0.309 N 
ATOM      3  N   UNL d   1      -2.018   3.299  -1.196  0.00  0.00    -0.309 N 
ATOM      4  O   UNL d   1      -4.175   3.268  -1.325  0.00  0.00    -0.247 OA
ATOM      5  H   UNL d   1      -2.261   0.889  -1.908  0.00  0.00     0.170 HD
ATOM      6  H   UNL d   1      -2.305   4.269  -1.286  0.00  0.00     0.170 HD
ENDROOT
BRANCH   3   7
ATOM      7  C   UNL d   1      -0.669   3.123  -0.889  0.00  0.00     0.037 A 
ATOM      8  C   UNL d   1      -0.060   1.956  -0.441  0.00  0.00     0.054 A 
ATOM      9  C   UNL d   1       1.287   2.019  -0.033  0.00  0.00     0.076 A 
ATOM     10  C   UNL d   1       2.024   3.209  -0.089  0.00  0.00     0.025 A 
ATOM     11  C   UNL d   1       1.420   4.361  -0.563  0.00  0.00     0.004 A 
ATOM     12  C   UNL d   1       0.087   4.312  -0.957  0.00  0.00     0.029 A 
BRANCH   9  13
ATOM     13  S   UNL d   1       2.092   0.595   0.643  0.00  0.00     0.239 S 
ATOM     14  O   UNL d   1       1.321  -0.579   0.330  0.00  0.00    -0.206 OA
ATOM     15  O   UNL d   1       2.541   0.913   1.978  0.00  0.00    -0.206 OA
BRANCH  13  16
ATOM     16  N   UNL d   1       3.482   0.479  -0.299  0.00  0.00    -0.225 NA
ATOM     17  H   UNL d   1       3.478  -0.405  -0.807  0.00  0.00     0.136 HD
ATOM     18  H   UNL d   1       4.310   0.605   0.289  0.00  0.00     0.136 HD
ENDBRANCH  13  16
ENDBRANCH   9  13
ENDBRANCH   3   7
BRANCH   2  19
ATOM     19  C   UNL d   1      -4.315   0.554  -1.850  0.00  0.00     0.037 A 
ATOM     20  C   UNL d   1      -4.300  -0.312  -2.945  0.00  0.00     0.036 A 
ATOM     21  C   UNL d   1      -5.510  -0.712  -3.540  0.00  0.00    -0.059 A 
ATOM     22  C   UNL d   1      -5.521  -1.457  -4.843  0.00  0.00     0.048 C 
ATOM     23  C   UNL d   1      -6.729  -0.284  -2.990  0.00  0.00     0.013 A 
ATOM     24  C   UNL d   1      -6.755   0.504  -1.837  0.00  0.00    -0.059 A 
ATOM     25  C   UNL d   1      -5.541   0.894  -1.262  0.00  0.00     0.036 A 
ATOM     26  C   UNL d   1      -8.044   1.075  -1.324  0.00  0.00     0.048 C 
ENDBRANCH   2  19
TORSDOF 4
