REMARK  3 active torsions:
REMARK  status: ('A' for Active; 'I' for Inactive)
REMARK    1  A    between atoms: C_3  and  C_4 
REMARK    2  A    between atoms: C_11  and  C_5 
REMARK    3  A    between atoms: C_15  and  C_16 
ROOT
ATOM      1  N   UNL d   1       1.329  -0.549   0.036  0.00  0.00    -0.352 N 
ATOM      2  HN  UNL d   1       2.208  -1.064   0.065  1.00  0.00     0.166 HD
ATOM      3  C   UNL d   1       1.229   0.837   0.018  0.00  0.00     0.025 A 
ATOM      4  C   UNL d   1       0.134  -1.112   0.008  0.00  0.00     0.084 A 
ATOM      5  S   UNL d   1      -1.179   0.005   0.041  0.00  0.00    -0.081 SA
ATOM      6  C   UNL d   1      -0.073   1.305   0.026  0.00  0.00     0.077 A 
ENDROOT
BRANCH   3   7
ATOM      7  C   UNL d   1       2.487   1.687  -0.011  0.00  0.00     0.004 C 
ATOM      8  C   UNL d   1       3.777   0.819  -0.022  0.00  0.00     0.020 C 
ATOM      9  C   UNL d   1       5.038   1.700  -0.052  0.00  0.00    -0.013 C 
ATOM     10  C   UNL d   1       5.016   2.575  -1.316  0.00  0.00     0.009 C 
ATOM     11  C   UNL d   1       5.055   2.603   1.190  0.00  0.00     0.009 C 
ATOM     12  C   UNL d   1       3.766   3.467  -1.313  0.00  0.00    -0.013 C 
ATOM     13  C   UNL d   1       2.510   2.580  -1.284  0.00  0.00     0.020 C 
ATOM     14  C   UNL d   1       3.782   4.363  -0.064  0.00  0.00     0.009 C 
ATOM     15  C   UNL d   1       3.805   3.497   1.206  0.00  0.00    -0.013 C 
ATOM     16  C   UNL d   1       2.549   2.611   1.238  0.00  0.00     0.020 C 
ENDBRANCH   3   7
BRANCH   4  17
ATOM     17  C   UNL d   1      -0.107  -2.564  -0.016  0.00  0.00    -0.002 A 
ATOM     18  C   UNL d   1       0.804  -3.433   0.594  0.00  0.00     0.015 A 
ATOM     19  C   UNL d   1       0.604  -4.822   0.573  0.00  0.00     0.009 A 
ATOM     20  C   UNL d   1      -0.507  -5.396  -0.074  0.00  0.00    -0.051 A 
ATOM     21  C   UNL d   1      -1.410  -4.516  -0.688  0.00  0.00     0.009 A 
ATOM     22  C   UNL d   1      -1.214  -3.129  -0.661  0.00  0.00     0.015 A 
BRANCH  20  23
ATOM     23  C   UNL d   1      -0.690  -6.923  -0.108  0.00  0.00    -0.024 C 
ATOM     24  C   UNL d   1      -1.945  -7.382  -0.886  0.00  0.00     0.019 C 
ATOM     25  C   UNL d   1       0.531  -7.577  -0.790  0.00  0.00     0.019 C 
ATOM     26  C   UNL d   1      -0.821  -7.468   1.330  0.00  0.00     0.019 C 
ENDBRANCH  20  23
ENDBRANCH   4  17
TORSDOF 3
