REMARK  3 active torsions:
REMARK  status: ('A' for Active; 'I' for Inactive)
REMARK       I    between atoms: N_2  and  C_1 
REMARK       I    between atoms: N_4  and  C_1 
REMARK    1  A    between atoms: C_5  and  N_2 
REMARK    2  A    between atoms: O_11  and  C_6 
REMARK    3  A    between atoms: C_12  and  O_11 
ROOT
ATOM      1  C   UNL d   1       1.143  -0.195   2.518  0.00  0.00     0.036 A 
ATOM      2  C   UNL d   1       2.398  -0.206   5.045  0.00  0.00     0.068 A 
ATOM      3  C   UNL d   1       2.197   0.676   2.793  0.00  0.00     0.032 A 
ATOM      4  C   UNL d   1       0.709  -1.063   3.525  0.00  0.00     0.032 A 
ATOM      5  C   UNL d   1       2.822   0.670   4.047  0.00  0.00     0.039 A 
ATOM      6  C   UNL d   1       1.332  -1.066   4.778  0.00  0.00     0.039 A 
ENDROOT
BRANCH   1   7
ATOM      7  N   UNL d   1       0.482  -0.252   1.275  0.00  0.00    -0.314 N 
ATOM      8  C   UNL d   1       0.791   0.439   0.135  0.00  0.00     0.296 C 
ATOM      9  O   UNL d   1       1.711   1.219  -0.062  0.00  0.00    -0.254 OA
ATOM     10  N   UNL d   1      -0.078   0.160  -0.880  0.00  0.00    -0.254 NA
ATOM     11  H   UNL d   1      -1.054   0.066  -0.641  0.00  0.00     0.128 HD
ATOM     12  H   UNL d   1       0.093   0.735  -1.697  0.00  0.00     0.128 HD
ATOM     13  H   UNL d   1      -0.230  -0.958   1.171  0.00  0.00     0.170 HD
ENDBRANCH   1   7
BRANCH   2  14
ATOM     14  O   UNL d   1       2.934  -0.315   6.298  0.00  0.00    -0.352 OA
BRANCH  14  15
ATOM     15  C   UNL d   1       4.073   0.500   6.577  0.00  0.00     0.171 C 
ATOM     16  C   UNL d   1       4.555   0.185   7.982  0.00  0.00     0.034 C 
ENDBRANCH  14  15
ENDBRANCH   2  14
TORSDOF 3
