REMARK  3 active torsions:
REMARK  status: ('A' for Active; 'I' for Inactive)
REMARK    1  A    between atoms: C_8  and  C_3 
REMARK    2  A    between atoms: C_9  and  C_4 
REMARK    3  A    between atoms: C_10  and  C_5 
ROOT
ATOM      1  N   UNL d   1      -1.321  -0.020  -0.031  0.00  0.00    -0.355 N 
ATOM      2  HN  UNL d   1      -2.341  -0.048  -0.032  1.00  0.00     0.166 HD
ATOM      3  C   UNL d   1      -0.664   1.166  -0.038  0.00  0.00     0.043 A 
ATOM      4  C   UNL d   1      -0.599  -1.168  -0.024  0.00  0.00     0.043 A 
ATOM      5  C   UNL d   1       1.496   0.059  -0.028  0.00  0.00    -0.022 A 
ATOM      6  C   UNL d   1       0.729   1.229  -0.010  0.00  0.00     0.042 A 
ATOM      7  C   UNL d   1       0.795  -1.153  -0.058  0.00  0.00     0.042 A 
ENDROOT
BRANCH   3   8
ATOM      8  C   UNL d   1      -1.507   2.383  -0.045  0.00  0.00    -0.009 A 
ATOM      9  C   UNL d   1      -2.771   2.391   0.574  0.00  0.00     0.015 A 
ATOM     10  C   UNL d   1      -3.560   3.547   0.608  0.00  0.00     0.024 A 
ATOM     11  C   UNL d   1      -3.101   4.718   0.014  0.00  0.00     0.034 A 
ATOM     12  C   UNL d   1      -1.866   4.738  -0.626  0.00  0.00     0.024 A 
ATOM     13 CL   UNL d   1      -4.058   6.146   0.071  0.00  0.00    -0.084 Cl
ATOM     14  C   UNL d   1      -1.082   3.579  -0.659  0.00  0.00     0.015 A 
ENDBRANCH   3   8
BRANCH   4  15
ATOM     15  C   UNL d   1      -1.374  -2.429   0.042  0.00  0.00    -0.009 A 
ATOM     16  C   UNL d   1      -2.659  -2.523  -0.522  0.00  0.00     0.013 A 
ATOM     17  C   UNL d   1      -3.394  -3.713  -0.469  0.00  0.00     0.001 A 
ATOM     18  C   UNL d   1      -2.861  -4.837   0.155  0.00  0.00     0.000 A 
ATOM     19  C   UNL d   1      -1.599  -4.770   0.734  0.00  0.00     0.001 A 
ATOM     20  C   UNL d   1      -0.867  -3.579   0.681  0.00  0.00     0.013 A 
ENDBRANCH   4  15
BRANCH   5  21
ATOM     21  C   UNL d   1       2.975   0.102   0.011  0.00  0.00    -0.026 A 
ATOM     22  C   UNL d   1       3.699   1.115  -0.644  0.00  0.00     0.012 A 
ATOM     23  C   UNL d   1       5.095   1.174  -0.578  0.00  0.00     0.001 A 
ATOM     24  C   UNL d   1       5.801   0.210   0.135  0.00  0.00     0.000 A 
ATOM     25  C   UNL d   1       5.112  -0.810   0.782  0.00  0.00     0.001 A 
ATOM     26  C   UNL d   1       3.716  -0.859   0.725  0.00  0.00     0.012 A 
ENDBRANCH   5  21
TORSDOF 3
