REMARK  7 active torsions:
REMARK  status: ('A' for Active; 'I' for Inactive)
REMARK    1  A    between atoms: O_9  and  C_1 
REMARK    2  A    between atoms: O_8  and  N_2 
REMARK    3  A    between atoms: C_4  and  C_12 
REMARK    4  A    between atoms: N_17  and  C_4 
REMARK    5  A    between atoms: C_5  and  O_8 
REMARK    6  A    between atoms: C_14  and  C_5 
REMARK    7  A    between atoms: C_18  and  O_9 
ROOT
ATOM      1  C   UNL d   1      -5.778  -4.954  -1.153  0.00  0.00     0.004 A 
ATOM      2  C   UNL d   1      -6.865  -5.826  -1.289  0.00  0.00     0.017 A 
ATOM      3  C   UNL d   1      -5.615  -3.905  -2.063  0.00  0.00     0.017 A 
ATOM      4  C   UNL d   1      -7.666  -4.567  -3.194  0.00  0.00     0.076 A 
ATOM      5  C   UNL d   1      -7.783  -5.658  -2.331  0.00  0.00     0.038 A 
ATOM      6  C   UNL d   1      -6.562  -3.714  -3.077  0.00  0.00     0.038 A 
ENDROOT
BRANCH   1   7
ATOM      7  C   UNL d   1      -4.800  -5.173  -0.038  0.00  0.00     0.109 C 
ATOM      8  N   UNL d   1      -5.249  -5.723   1.049  0.00  0.00    -0.246 N 
ATOM      9  HN  UNL d   1      -6.223  -5.991   1.188  1.00  0.00     0.196 HD
BRANCH   8  10
ATOM     10  O   UNL d   1      -4.240  -5.909   2.018  0.00  0.00    -0.193 OA
BRANCH  10  11
ATOM     11  C   UNL d   1      -4.800  -6.375   3.177  0.00  0.00     0.315 C 
ATOM     12  O   UNL d   1      -5.988  -6.570   3.413  0.00  0.00    -0.257 OA
BRANCH  11  13
ATOM     13  C   UNL d   1      -3.749  -6.592   4.199  0.00  0.00     0.041 A 
ATOM     14  C   UNL d   1      -2.424  -6.902   3.862  0.00  0.00     0.017 A 
ATOM     15  C   UNL d   1      -1.479  -7.117   4.870  0.00  0.00     0.001 A 
ATOM     16  C   UNL d   1      -1.851  -7.025   6.212  0.00  0.00     0.000 A 
ATOM     17  C   UNL d   1      -3.169  -6.728   6.553  0.00  0.00     0.001 A 
ATOM     18  C   UNL d   1      -4.117  -6.517   5.550  0.00  0.00     0.017 A 
ENDBRANCH  11  13
ENDBRANCH  10  11
ENDBRANCH   8  10
BRANCH   7  19
ATOM     19  N   UNL d   1      -3.487  -4.814  -0.235  0.00  0.00    -0.286 NA
ATOM     20  H   UNL d   1      -2.868  -5.240   0.446  0.00  0.00     0.125 HD
ATOM     21  H   UNL d   1      -3.148  -4.919  -1.185  0.00  0.00     0.125 HD
ENDBRANCH   7  19
ENDBRANCH   1   7
BRANCH   4  22
ATOM     22  O   UNL d   1      -8.560  -4.232  -4.188  0.00  0.00    -0.307 OA
BRANCH  22  23
ATOM     23  C   UNL d   1      -9.857  -4.701  -4.162  0.00  0.00     0.122 A 
ATOM     24  C   UNL d   1     -10.730  -4.569  -3.074  0.00  0.00     0.085 A 
ATOM     25 CL   UNL d   1     -10.341  -3.740  -1.612  0.00  0.00    -0.080 Cl
ATOM     26  C   UNL d   1     -12.018  -5.078  -3.201  0.00  0.00     0.114 A 
ATOM     27  N   UNL d   1     -12.514  -5.631  -4.333  0.00  0.00    -0.372 N 
ATOM     28  C   UNL d   1     -11.679  -5.665  -5.396  0.00  0.00     0.114 A 
ATOM     29  HN  UNL d   1     -13.463  -6.001  -4.381  1.00  0.00     0.164 HD
ATOM     30  C   UNL d   1     -10.361  -5.226  -5.360  0.00  0.00     0.085 A 
ATOM     31 CL   UNL d   1      -9.416  -5.311  -6.800  0.00  0.00    -0.080 Cl
ENDBRANCH  22  23
ENDBRANCH   4  22
TORSDOF 7
