REMARK  13 active torsions:
REMARK  status: ('A' for Active; 'I' for Inactive)
REMARK    1  A    between atoms: C_14  and  C_5 
REMARK    2  A    between atoms: N_7  and  C_9 
REMARK    3  A    between atoms: N_8  and  C_13 
REMARK    4  A    between atoms: O_23  and  C_14 
REMARK    5  A    between atoms: C_24  and  O_23 
REMARK    6  A    between atoms: C_25  and  C_24 
REMARK    7  A    between atoms: C_31  and  C_25 
REMARK    8  A    between atoms: C_26  and  C_27 
REMARK    9  A    between atoms: C_27  and  C_30 
REMARK   10  A    between atoms: C_28  and  C_32 
REMARK   11  A    between atoms: C_29  and  C_28 
REMARK   12  A    between atoms: C_30  and  C_29 
REMARK   13  A    between atoms: C_32  and  C_31 
ROOT
ATOM      1  C   UNL d   1      -3.933   2.092  -2.479  0.00  0.00     0.006 A 
ATOM      2  C   UNL d   1      -4.253   0.721  -2.599  0.00  0.00     0.029 A 
ATOM      3  C   UNL d   1      -5.435   1.903  -4.268  0.00  0.00     0.028 A 
ATOM      4  C   UNL d   1      -4.690   2.821  -3.500  0.00  0.00    -0.010 A 
ATOM      5  C   UNL d   1      -3.031   2.459  -1.478  0.00  0.00     0.053 A 
ATOM      6  C   UNL d   1      -5.178   0.557  -3.733  0.00  0.00     0.194 A 
ATOM      7  C   UNL d   1      -2.906   0.110  -0.758  0.00  0.00     0.104 A 
ATOM      8  C   UNL d   1      -3.768  -0.283  -1.780  0.00  0.00     0.052 A 
ATOM      9  C   UNL d   1      -2.535   1.464  -0.604  0.00  0.00     0.054 A 
ATOM     10  C   UNL d   1      -6.280   2.246  -5.308  0.00  0.00     0.052 A 
ATOM     11  C   UNL d   1      -6.390   3.607  -5.595  0.00  0.00     0.103 A 
ATOM     12  C   UNL d   1      -4.827   4.170  -3.792  0.00  0.00     0.016 A 
ATOM     13  O   UNL d   1      -5.643  -0.485  -4.139  0.00  0.00    -0.287 OA
ATOM     14  C   UNL d   1      -5.670   4.564  -4.848  0.00  0.00     0.037 A 
ENDROOT
BRANCH   5  15
ATOM     15  C   UNL d   1      -2.486   3.829  -1.366  0.00  0.00     0.294 C 
ATOM     16  O   UNL d   1      -2.228   4.532  -2.327  0.00  0.00    -0.259 OA
BRANCH  15  17
ATOM     17  O   UNL d   1      -2.322   4.158  -0.063  0.00  0.00    -0.317 OA
BRANCH  17  18
ATOM     18  C   UNL d   1      -1.838   5.492   0.174  0.00  0.00     0.179 C 
BRANCH  18  19
ATOM     19  C   UNL d   1      -3.004   6.475   0.201  0.00  0.00     0.027 C 
BRANCH  19  20
ATOM     20  C   UNL d   1      -3.958   6.179   1.359  0.00  0.00     0.002 C 
BRANCH  20  21
ATOM     21  C   UNL d   1      -5.144   7.139   1.351  0.00  0.00     0.000 C 
BRANCH  21  22
ATOM     22  C   UNL d   1      -6.087   6.856   2.518  0.00  0.00     0.000 C 
BRANCH  22  23
ATOM     23  C   UNL d   1      -7.272   7.818   2.502  0.00  0.00     0.000 C 
BRANCH  23  24
ATOM     24  C   UNL d   1      -8.222   7.549   3.666  0.00  0.00     0.000 C 
BRANCH  24  25
ATOM     25  C   UNL d   1      -9.402   8.519   3.637  0.00  0.00    -0.000 C 
BRANCH  25  26
ATOM     26  C   UNL d   1     -10.361   8.262   4.797  0.00  0.00    -0.005 C 
ATOM     27  C   UNL d   1     -11.534   9.229   4.765  0.00  0.00     0.005 C 
ENDBRANCH  25  26
ENDBRANCH  24  25
ENDBRANCH  23  24
ENDBRANCH  22  23
ENDBRANCH  21  22
ENDBRANCH  20  21
ENDBRANCH  19  20
ENDBRANCH  18  19
ENDBRANCH  17  18
ENDBRANCH  15  17
ENDBRANCH   5  15
BRANCH   7  28
ATOM     28  N   UNL d   1      -2.358  -0.903   0.156  0.00  0.00    -0.116 N 
ATOM     29  O   UNL d   1      -2.682  -2.083  -0.034  0.00  0.00    -0.532 OA
ATOM     30  O   UNL d   1      -1.607  -0.512   1.057  0.00  0.00    -0.532 OA
ENDBRANCH   7  28
BRANCH  11  31
ATOM     31  N   UNL d   1      -7.284   4.052  -6.673  0.00  0.00    -0.116 N 
ATOM     32  O   UNL d   1      -7.936   3.187  -7.272  0.00  0.00    -0.532 OA
ATOM     33  O   UNL d   1      -7.337   5.266  -6.912  0.00  0.00    -0.532 OA
ENDBRANCH  11  31
TORSDOF 13
