REMARK  4 active torsions:
REMARK  status: ('A' for Active; 'I' for Inactive)
REMARK    1  A    between atoms: N_3  and  S_1 
REMARK    2  A    between atoms: C_4  and  S_1 
REMARK    3  A    between atoms: N_2  and  C_8 
REMARK    4  A    between atoms: C_13  and  N_3 
ROOT
ATOM      1  C   UNL d   1       1.565   4.164  -3.382  0.00  0.00     0.030 A 
ATOM      2  C   UNL d   1       0.882   1.750  -2.071  0.00  0.00     0.042 A 
ATOM      3  C   UNL d   1       2.499   3.466  -2.606  0.00  0.00     0.031 A 
ATOM      4  C   UNL d   1       0.270   3.624  -3.456  0.00  0.00     0.031 A 
ATOM      5  C   UNL d   1      -0.068   2.421  -2.827  0.00  0.00     0.032 A 
ATOM      6  C   UNL d   1       2.161   2.283  -1.939  0.00  0.00     0.032 A 
ENDROOT
BRANCH   2   7
ATOM      7  N   UNL d   1       0.555   0.499  -1.490  0.00  0.00    -0.281 N 
ATOM      8  H   UNL d   1       0.736   0.367  -0.498  0.00  0.00     0.179 HD
BRANCH   7   9
ATOM      9  S   UNL d   1       0.793  -0.910  -2.395  0.00  0.00     0.263 S 
ATOM     10  O   UNL d   1       0.056  -0.807  -3.639  0.00  0.00    -0.200 OA
ATOM     11  O   UNL d   1       0.594  -2.019  -1.488  0.00  0.00    -0.200 OA
BRANCH   9  12
ATOM     12  C   UNL d   1       2.533  -0.867  -2.772  0.00  0.00     0.080 A 
ATOM     13  C   UNL d   1       3.454  -1.002  -1.724  0.00  0.00     0.026 A 
ATOM     14  C   UNL d   1       4.818  -0.867  -1.987  0.00  0.00     0.020 A 
ATOM     15  C   UNL d   1       5.250  -0.632  -3.293  0.00  0.00     0.011 A 
ATOM     16  C   UNL d   1       4.334  -0.549  -4.343  0.00  0.00     0.020 A 
ATOM     17 BR   UNL d   1       7.095  -0.403  -3.639  0.00  0.00    -0.051 Br
ATOM     18  C   UNL d   1       2.967  -0.667  -4.085  0.00  0.00     0.026 A 
ENDBRANCH   9  12
ENDBRANCH   7   9
ENDBRANCH   2   7
BRANCH   1  19
ATOM     19  N   UNL d   1       1.891   5.285  -4.121  0.00  0.00    -0.378 N 
ATOM     20  C   UNL d   1       3.277   5.583  -4.513  0.00  0.00     0.153 C 
ATOM     21  C   UNL d   1       3.273   6.345  -5.862  0.00  0.00     0.291 C 
ATOM     22  N   UNL d   1       2.442   7.573  -5.838  0.00  0.00     0.087 N 
ATOM     23  C   UNL d   1       1.070   7.232  -5.391  0.00  0.00     0.291 C 
ATOM     24  C   UNL d   1       2.405   8.186  -7.165  0.00  0.00     0.310 C 
ATOM     25  C   UNL d   1       1.046   6.489  -4.034  0.00  0.00     0.153 C 
ENDBRANCH   1  19
TORSDOF 4
