REMARK  5 active torsions:
REMARK  status: ('A' for Active; 'I' for Inactive)
REMARK    1  A    between atoms: N_2  and  S_1 
REMARK    2  A    between atoms: C_3  and  S_1 
REMARK    3  A    between atoms: C_4  and  C_12 
REMARK    4  A    between atoms: O_19  and  C_4 
REMARK    5  A    between atoms: C_22  and  O_19 
ROOT
ATOM      1  S   UNL d   1       1.069  -0.061  -0.079  0.00  0.00     0.260 S 
ATOM      2  O   UNL d   1       0.010  -0.878   0.471  0.00  0.00    -0.200 OA
ATOM      3  O   UNL d   1       2.412  -0.120   0.456  0.00  0.00    -0.200 OA
ENDROOT
BRANCH   1   4
ATOM      4  N   UNL d   1       0.534   1.573  -0.026  0.00  0.00    -0.307 N 
ATOM      5  C   UNL d   1       1.586   2.601  -0.176  0.00  0.00     0.136 C 
ATOM      6  C   UNL d   1       1.036   3.983   0.167  0.00  0.00     0.035 C 
ATOM      7  C   UNL d   1      -0.170   4.329  -0.705  0.00  0.00     0.088 C 
ATOM      8  C   UNL d   1      -1.252   3.269  -0.474  0.00  0.00     0.035 C 
ATOM      9  C   UNL d   1      -0.750   1.846  -0.724  0.00  0.00     0.136 C 
BRANCH   7  10
ATOM     10  C   UNL d   1       0.208   4.435  -2.174  0.00  0.00     0.263 C 
ATOM     11  O   UNL d   1      -0.328   3.811  -3.080  0.00  0.00    -0.265 OA
BRANCH  10  12
ATOM     12  O   UNL d   1       1.228   5.324  -2.341  0.00  0.00    -0.322 OA
BRANCH  12  13
ATOM     13  C   UNL d   1       1.713   5.467  -3.686  0.00  0.00     0.174 C 
ATOM     14  C   UNL d   1       2.724   4.376  -3.990  0.00  0.00     0.034 C 
ENDBRANCH  12  13
ENDBRANCH  10  12
ENDBRANCH   7  10
ENDBRANCH   1   4
BRANCH   1  15
ATOM     15  C   UNL d   1       1.171  -0.446  -1.826  0.00  0.00     0.080 A 
ATOM     16  C   UNL d   1       0.106  -1.133  -2.429  0.00  0.00     0.035 A 
ATOM     17  C   UNL d   1       0.218  -1.461  -3.769  0.00  0.00    -0.021 A 
ATOM     18  C   UNL d   1      -0.743  -2.147  -4.661  0.00  0.00     0.068 C 
ATOM     19  C   UNL d   1       1.344  -1.102  -4.494  0.00  0.00     0.075 A 
ATOM     20  C   UNL d   1       0.177  -2.398  -5.859  0.00  0.00     0.180 C 
ATOM     21  O   UNL d   1       1.280  -1.462  -5.816  0.00  0.00    -0.350 OA
ATOM     22  C   UNL d   1       2.411  -0.446  -3.915  0.00  0.00     0.039 A 
ATOM     23  C   UNL d   1       2.336  -0.135  -2.552  0.00  0.00     0.028 A 
ENDBRANCH   1  15
TORSDOF 5
