REMARK  4 active torsions:
REMARK  status: ('A' for Active; 'I' for Inactive)
REMARK    1  A    between atoms: C_3  and  C_1 
REMARK    2  A    between atoms: C_10  and  N_4 
REMARK    3  A    between atoms: O_15  and  C_7 
REMARK    4  A    between atoms: C_20  and  C_13 
ROOT
ATOM      1  N   UNL d   1      -6.274  -9.254  -1.443  0.00  0.00    -0.197 NA
ATOM      2  C   UNL d   1      -6.620  -8.424  -0.711  0.00  0.00     0.063 C 
ATOM      3  C   UNL d   1      -7.088  -7.395   0.229  0.00  0.00     0.162 C 
ENDROOT
BRANCH   3   4
ATOM      4  C   UNL d   1      -6.277  -6.123   0.165  0.00  0.00    -0.045 A 
ATOM      5  C   UNL d   1      -6.633  -5.092  -0.715  0.00  0.00     0.010 A 
ATOM      6  C   UNL d   1      -5.874  -3.918  -0.777  0.00  0.00     0.030 A 
ATOM      7  C   UNL d   1      -4.747  -3.742   0.031  0.00  0.00     0.031 A 
ATOM      8  C   UNL d   1      -4.406  -4.767   0.922  0.00  0.00     0.030 A 
ATOM      9  C   UNL d   1      -5.149  -5.951   0.977  0.00  0.00     0.010 A 
BRANCH   7  10
ATOM     10  N   UNL d   1      -4.079  -2.505  -0.026  0.00  0.00    -0.365 N 
ATOM     11  C   UNL d   1      -2.808  -2.443   0.222  0.00  0.00     0.102 C 
ATOM     12  HN  UNL d   1      -4.594  -1.657  -0.263  1.00  0.00     0.165 HD
BRANCH  11  13
ATOM     13  C   UNL d   1      -2.098  -1.147   0.233  0.00  0.00     0.014 A 
ATOM     14  C   UNL d   1      -2.748   0.054  -0.077  0.00  0.00     0.077 A 
ATOM     15  C   UNL d   1      -2.056   1.261  -0.040  0.00  0.00     0.039 A 
ATOM     16  C   UNL d   1      -0.705   1.276   0.308  0.00  0.00     0.022 A 
ATOM     17  C   UNL d   1      -0.057   0.080   0.619  0.00  0.00     0.011 A 
ATOM     18  C   UNL d   1      -0.744  -1.135   0.587  0.00  0.00     0.034 A 
ATOM     19 BR   UNL d   1       1.774   0.106   1.092  0.00  0.00    -0.051 Br
BRANCH  14  20
ATOM     20  O   UNL d   1      -4.070   0.114  -0.423  0.00  0.00    -0.360 OA
ATOM     21  H   UNL d   1      -4.422  -0.805  -0.381  0.00  0.00     0.217 HD
ENDBRANCH  14  20
ENDBRANCH  11  13
ENDBRANCH   7  10
ENDBRANCH   3   4
TORSDOF 4
