REMARK  3 active torsions:
REMARK  status: ('A' for Active; 'I' for Inactive)
REMARK    1  A    between atoms: C_14  and  C_1 
REMARK    2  A    between atoms: O_20  and  C_14 
REMARK    3  A    between atoms: C_21  and  O_20 
ROOT
ATOM      1  C   UNL d   1       2.166  -0.709   0.088  0.00  0.00     0.198 A 
ATOM      2  N   UNL d   1       1.083  -1.515   0.144  0.00  0.00    -0.329 N 
ATOM      3  HN  UNL d   1       1.121  -2.533   0.196  1.00  0.00     0.168 HD
ATOM      4  C   UNL d   1      -0.051  -0.796   0.123  0.00  0.00     0.105 A 
ATOM      5  C   UNL d   1      -0.127   0.583   0.065  0.00  0.00     0.083 A 
ATOM      6  C   UNL d   1      -2.386  -0.006   0.065  0.00  0.00     0.026 A 
ATOM      7  S   UNL d   1      -1.578  -1.526   0.149  0.00  0.00    -0.069 SA
ATOM      8  C   UNL d   1      -1.474   1.037   0.028  0.00  0.00     0.054 A 
ATOM      9  N   UNL d   1       2.164   0.651   0.044  0.00  0.00    -0.280 N 
ATOM     10  HN  UNL d   1       3.047   1.160   0.013  1.00  0.00     0.188 HD
ATOM     11  N   UNL d   1       1.015   1.318   0.042  0.00  0.00    -0.296 N 
ATOM     12  HN  UNL d   1       0.992   2.338   0.024  1.00  0.00     0.187 HD
ATOM     13  C   UNL d   1      -3.828   0.064   0.026  0.00  0.00     0.022 A 
ATOM     14  S   UNL d   1      -4.650   1.369  -0.731  0.00  0.00    -0.101 SA
ATOM     15  C   UNL d   1      -4.732  -0.852   0.538  0.00  0.00     0.021 A 
ATOM     16  C   UNL d   1      -6.185   0.694  -0.400  0.00  0.00     0.050 A 
ATOM     17  C   UNL d   1      -6.089  -0.490   0.291  0.00  0.00     0.008 A 
ENDROOT
BRANCH   1  18
ATOM     18  C   UNL d   1       3.505  -1.360  -0.071  0.00  0.00     0.329 C 
ATOM     19  O   UNL d   1       4.563  -0.765  -0.212  0.00  0.00    -0.256 OA
BRANCH  18  20
ATOM     20  O   UNL d   1       3.344  -2.711  -0.138  0.00  0.00    -0.316 OA
BRANCH  20  21
ATOM     21  C   UNL d   1       4.440  -3.447  -0.694  0.00  0.00     0.175 C 
ATOM     22  C   UNL d   1       4.263  -3.494  -2.201  0.00  0.00     0.034 C 
ENDBRANCH  20  21
ENDBRANCH  18  20
ENDBRANCH   1  18
TORSDOF 3
