REMARK  4 active torsions:
REMARK  status: ('A' for Active; 'I' for Inactive)
REMARK    1  A    between atoms: N_2  and  S_1 
REMARK    2  A    between atoms: C_3  and  S_1 
REMARK    3  A    between atoms: C_15  and  N_5 
REMARK    4  A    between atoms: C_16  and  C_15 
ROOT
ATOM      1  N   UNL d   1       0.511  -0.976  -0.253  0.00  0.00    -0.203 NA
ATOM      2  N   UNL d   1      -0.844  -2.168   2.123  0.00  0.00     0.095 N 
ATOM      3  C   UNL d   1      -0.878  -0.584   0.117  0.00  0.00     0.138 C 
ATOM      4  C   UNL d   1       0.786  -2.381   0.160  0.00  0.00     0.138 C 
ATOM      5  C   UNL d   1      -1.164  -0.821   1.617  0.00  0.00     0.288 C 
ATOM      6  C   UNL d   1       0.486  -2.611   1.654  0.00  0.00     0.288 C 
ENDROOT
BRANCH   1   7
ATOM      7  S   UNL d   1       1.743   0.150   0.085  0.00  0.00     0.250 S 
ATOM      8  O   UNL d   1       3.021  -0.474  -0.176  0.00  0.00    -0.205 OA
ATOM      9  O   UNL d   1       1.471   0.789   1.356  0.00  0.00    -0.205 OA
BRANCH   7  10
ATOM     10  C   UNL d   1       1.687   1.494  -1.086  0.00  0.00     0.115 A 
ATOM     11  S   UNL d   1       0.934   1.185  -2.593  0.00  0.00    -0.089 SA
ATOM     12  C   UNL d   1       1.251   2.773  -3.149  0.00  0.00     0.051 A 
ATOM     13  C   UNL d   1       1.943   3.518  -2.220  0.00  0.00     0.009 A 
ATOM     14  C   UNL d   1       2.198   2.776  -1.032  0.00  0.00     0.033 A 
ENDBRANCH   7  10
ENDBRANCH   1   7
BRANCH   2  15
ATOM     15  C   UNL d   1      -1.921  -3.131   1.864  0.00  0.00     0.311 C 
BRANCH  15  16
ATOM     16  C   UNL d   1      -1.792  -4.397   2.688  0.00  0.00    -0.030 A 
ATOM     17  C   UNL d   1      -1.579  -4.330   4.075  0.00  0.00     0.009 A 
ATOM     18  C   UNL d   1      -1.445  -5.494   4.834  0.00  0.00     0.001 A 
ATOM     19  C   UNL d   1      -1.538  -6.739   4.217  0.00  0.00     0.000 A 
ATOM     20  C   UNL d   1      -1.775  -6.820   2.845  0.00  0.00     0.001 A 
ATOM     21  C   UNL d   1      -1.906  -5.656   2.085  0.00  0.00     0.009 A 
ENDBRANCH  15  16
ENDBRANCH   2  15
TORSDOF 4
