REMARK  4 active torsions:
REMARK  status: ('A' for Active; 'I' for Inactive)
REMARK    1  A    between atoms: C_11  and  C_9 
REMARK    2  A    between atoms: C_12  and  C_11 
REMARK    3  A    between atoms: O_15  and  C_12 
REMARK    4  A    between atoms: C_17  and  O_15 
ROOT
ATOM      1  N   UNL d   1      -0.355  -0.621   0.027  0.00  0.00    -0.204 N 
ATOM      2  C   UNL d   1      -0.273   0.758   0.050  0.00  0.00     0.133 A 
ATOM      3  C   UNL d   1       0.756  -1.477   0.008  0.00  0.00     0.270 A 
ATOM      4  N   UNL d   1      -1.644  -1.053   0.010  0.00  0.00    -0.294 N 
ATOM      5  HN  UNL d   1      -1.982  -2.015   0.004  1.00  0.00     0.187 HD
ATOM      6  C   UNL d   1      -1.555   1.236   0.018  0.00  0.00     0.076 A 
ATOM      7  C   UNL d   1       2.067  -0.768   0.017  0.00  0.00     0.101 A 
ATOM      8  N   UNL d   1       0.949   1.339   0.084  0.00  0.00    -0.344 N 
ATOM      9  C   UNL d   1       2.115   0.581   0.051  0.00  0.00     0.025 A 
ATOM     10  C   UNL d   1      -2.368   0.074   0.005  0.00  0.00     0.026 A 
ATOM     11  O   UNL d   1       0.654  -2.699  -0.017  0.00  0.00    -0.266 OA
ATOM     12  C   UNL d   1      -3.850   0.014  -0.009  0.00  0.00     0.070 C 
ATOM     13  H   UNL d   1       1.058   2.342  -0.089  0.00  0.00     0.167 HD
ENDROOT
BRANCH   9  14
ATOM     14  C   UNL d   1       3.442   1.310   0.082  0.00  0.00     0.168 C 
BRANCH  14  15
ATOM     15  C   UNL d   1       3.649   2.133  -1.175  0.00  0.00     0.264 C 
ATOM     16  O   UNL d   1       2.773   2.760  -1.756  0.00  0.00    -0.265 OA
BRANCH  15  17
ATOM     17  O   UNL d   1       4.957   2.074  -1.553  0.00  0.00    -0.322 OA
BRANCH  17  18
ATOM     18  C   UNL d   1       5.239   2.531  -2.883  0.00  0.00     0.174 C 
ATOM     19  C   UNL d   1       5.144   1.336  -3.813  0.00  0.00     0.034 C 
ENDBRANCH  17  18
ENDBRANCH  15  17
ENDBRANCH  14  15
ENDBRANCH   9  14
TORSDOF 4
