REMARK  18 active torsions:
REMARK  status: ('A' for Active; 'I' for Inactive)
REMARK    1  A    between atoms: C_9  and  S_1 
REMARK    2  A    between atoms: N_19  and  S_1 
REMARK    3  A    between atoms: S_2  and  C_10 
REMARK    4  A    between atoms: N_18  and  S_2 
REMARK    5  A    between atoms: N_11  and  C_5 
REMARK    6  A    between atoms: N_12  and  C_6 
REMARK    7  A    between atoms: C_31  and  N_18 
REMARK    8  A    between atoms: C_32  and  N_18 
REMARK    9  A    between atoms: C_29  and  N_19 
REMARK   10  A    between atoms: C_30  and  N_19 
REMARK   11  A    between atoms: C_34  and  C_29 
REMARK   12  A    between atoms: C_36  and  C_30 
REMARK   13  A    between atoms: C_33  and  C_31 
REMARK   14  A    between atoms: C_35  and  C_32 
REMARK   15  A    between atoms: C_38  and  C_33 
REMARK   16  A    between atoms: C_40  and  C_34 
REMARK   17  A    between atoms: C_37  and  C_35 
REMARK   18  A    between atoms: C_39  and  C_36 
ROOT
ATOM      1  C   UNL d   1      -0.641  -5.725  -1.476  0.00  0.00     0.025 A 
ATOM      2  C   UNL d   1      -0.489  -4.276  -1.267  0.00  0.00     0.025 A 
ATOM      3  C   UNL d   1      -1.237  -6.540  -2.431  0.00  0.00     0.116 A 
ATOM      4  C   UNL d   1      -1.083  -3.114  -1.754  0.00  0.00     0.116 A 
ATOM      5  C   UNL d   1       0.515  -4.084  -0.300  0.00  0.00     0.030 A 
ATOM      6  C   UNL d   1       0.142  -6.395  -0.508  0.00  0.00     0.030 A 
ATOM      7  C   UNL d   1       0.465  -1.727  -0.485  0.00  0.00     0.083 A 
ATOM      8  C   UNL d   1      -0.381  -8.546  -1.335  0.00  0.00     0.078 A 
ATOM      9  C   UNL d   1       0.897  -5.390   0.252  0.00  0.00     0.194 C 
ATOM     10  C   UNL d   1      -0.608  -1.837  -1.385  0.00  0.00     0.062 A 
ATOM     11  C   UNL d   1      -1.111  -7.942  -2.374  0.00  0.00     0.061 A 
ATOM     12  C   UNL d   1       1.036  -2.863   0.077  0.00  0.00     0.041 A 
ATOM     13  C   UNL d   1       0.280  -7.770  -0.390  0.00  0.00     0.041 A 
ATOM     14  O   UNL d   1       1.679  -5.590   1.155  0.00  0.00    -0.287 OA
ENDROOT
BRANCH   7  15
ATOM     15  S   UNL d   1       1.199  -0.136  -0.150  0.00  0.00     0.260 S 
ATOM     16  O   UNL d   1       0.454   0.822  -0.933  0.00  0.00    -0.200 OA
ATOM     17  O   UNL d   1       2.609  -0.328  -0.363  0.00  0.00    -0.200 OA
BRANCH  15  18
ATOM     18  N   UNL d   1       0.871   0.096   1.516  0.00  0.00    -0.307 N 
BRANCH  18  19
ATOM     19  C   UNL d   1       1.848  -0.466   2.511  0.00  0.00     0.135 C 
BRANCH  19  20
ATOM     20  C   UNL d   1       3.186   0.281   2.533  0.00  0.00     0.020 C 
BRANCH  20  21
ATOM     21  C   UNL d   1       4.181  -0.333   3.519  0.00  0.00    -0.003 C 
ATOM     22  C   UNL d   1       5.540   0.345   3.404  0.00  0.00     0.005 C 
ENDBRANCH  20  21
ENDBRANCH  19  20
ENDBRANCH  18  19
BRANCH  18  23
ATOM     23  C   UNL d   1       0.290   1.397   1.963  0.00  0.00     0.135 C 
BRANCH  23  24
ATOM     24  C   UNL d   1      -1.114   1.698   1.438  0.00  0.00     0.020 C 
BRANCH  24  25
ATOM     25  C   UNL d   1      -2.157   0.630   1.763  0.00  0.00    -0.003 C 
ATOM     26  C   UNL d   1      -3.493   0.968   1.113  0.00  0.00     0.005 C 
ENDBRANCH  24  25
ENDBRANCH  23  24
ENDBRANCH  18  23
ENDBRANCH  15  18
ENDBRANCH   7  15
BRANCH   4  27
ATOM     27  N   UNL d   1      -2.313  -3.152  -2.514  0.00  0.00    -0.115 N 
ATOM     28  O   UNL d   1      -3.250  -3.780  -2.002  0.00  0.00    -0.532 OA
ATOM     29  O   UNL d   1      -2.342  -2.542  -3.587  0.00  0.00    -0.532 OA
ENDBRANCH   4  27
BRANCH   3  30
ATOM     30  N   UNL d   1      -1.831  -6.015  -3.640  0.00  0.00    -0.115 N 
ATOM     31  O   UNL d   1      -1.107  -5.299  -4.340  0.00  0.00    -0.532 OA
ATOM     32  O   UNL d   1      -2.989  -6.365  -3.894  0.00  0.00    -0.532 OA
ENDBRANCH   3  30
BRANCH   8  33
ATOM     33  S   UNL d   1      -0.090 -10.302  -1.394  0.00  0.00     0.243 S 
ATOM     34  O   UNL d   1      -0.209 -10.696  -2.785  0.00  0.00    -0.206 OA
ATOM     35  O   UNL d   1       1.135 -10.534  -0.663  0.00  0.00    -0.206 OA
BRANCH  33  36
ATOM     36  N   UNL d   1      -1.425 -11.008  -0.538  0.00  0.00    -0.206 NA
BRANCH  36  37
ATOM     37  C   UNL d   1      -2.764 -10.525  -1.042  0.00  0.00     0.107 C 
BRANCH  37  38
ATOM     38  C   UNL d   1      -3.957 -11.054  -0.247  0.00  0.00     0.015 C 
BRANCH  38  39
ATOM     39  C   UNL d   1      -5.266 -10.444  -0.756  0.00  0.00    -0.003 C 
ATOM     40  C   UNL d   1      -6.466 -11.033  -0.034  0.00  0.00     0.005 C 
ENDBRANCH  38  39
ENDBRANCH  37  38
ENDBRANCH  36  37
BRANCH  36  41
ATOM     41  C   UNL d   1      -1.362 -12.520  -0.560  0.00  0.00     0.107 C 
BRANCH  41  42
ATOM     42  C   UNL d   1      -0.116 -13.133   0.075  0.00  0.00     0.015 C 
BRANCH  42  43
ATOM     43  C   UNL d   1       0.051 -12.748   1.545  0.00  0.00    -0.003 C 
ATOM     44  C   UNL d   1       1.307 -13.371   2.132  0.00  0.00     0.005 C 
ENDBRANCH  42  43
ENDBRANCH  41  42
ENDBRANCH  36  41
ENDBRANCH  33  36
ENDBRANCH   8  33
TORSDOF 18
