REMARK  7 active torsions:
REMARK  status: ('A' for Active; 'I' for Inactive)
REMARK    1  A    between atoms: C_7  and  C_1 
REMARK    2  A    between atoms: C_11  and  C_2 
REMARK    3  A    between atoms: C_9  and  C_16 
REMARK    4  A    between atoms: C_20  and  N_10 
REMARK    5  A    between atoms: N_14  and  N_12 
REMARK    6  A    between atoms: C_15  and  N_14 
REMARK    7  A    between atoms: C_16  and  C_20 
ROOT
ATOM      1  C   UNL d   1       8.917   3.559  -1.297  0.00  0.00     0.052 A 
ATOM      2  N   UNL d   1      10.943   2.405  -1.557  0.00  0.00    -0.356 N 
ATOM      3  HN  UNL d   1      11.565   1.599  -1.607  1.00  0.00     0.166 HD
ATOM      4  C   UNL d   1       9.572   2.334  -1.331  0.00  0.00     0.025 A 
ATOM      5  S   UNL d   1      10.078   4.814  -1.505  0.00  0.00    -0.073 SA
ATOM      6  C   UNL d   1      11.325   3.655  -1.695  0.00  0.00     0.053 A 
ATOM      7  C   UNL d   1       8.972   0.977  -1.202  0.00  0.00     0.070 C 
ENDROOT
BRANCH   1   8
ATOM      8  C   UNL d   1       7.502   3.857  -1.099  0.00  0.00     0.041 C 
ATOM      9  N   UNL d   1       6.779   3.014  -0.409  0.00  0.00    -0.303 N 
ATOM     10  HN  UNL d   1       7.190   2.179   0.008  1.00  0.00     0.186 HD
ATOM     11  C   UNL d   1       6.908   5.119  -1.703  0.00  0.00     0.071 C 
BRANCH   9  12
ATOM     12  N   UNL d   1       5.448   3.299  -0.269  0.00  0.00    -0.298 N 
ATOM     13  H   UNL d   1       4.925   3.565  -1.108  0.00  0.00     0.187 HD
BRANCH  12  14
ATOM     14  C   UNL d   1       4.669   2.430   0.535  0.00  0.00     0.086 A 
ATOM     15  C   UNL d   1       3.285   2.333   0.308  0.00  0.00     0.147 A 
ATOM     16  C   UNL d   1       2.464   1.527   1.089  0.00  0.00     0.086 A 
ATOM     17  F   UNL d   1       2.737   3.022  -0.708  0.00  0.00    -0.204 F 
ATOM     18  C   UNL d   1       3.031   0.824   2.141  0.00  0.00     0.119 A 
ATOM     19  C   UNL d   1       4.391   0.926   2.421  0.00  0.00     0.045 A 
ATOM     20  F   UNL d   1       2.257   0.041   2.904  0.00  0.00    -0.206 F 
ATOM     21  C   UNL d   1       5.207   1.733   1.623  0.00  0.00     0.037 A 
ENDBRANCH  12  14
ENDBRANCH   9  12
ENDBRANCH   1   8
BRANCH   6  22
ATOM     22  C   UNL d   1      12.735   4.090  -1.971  0.00  0.00     0.085 C 
BRANCH  22  23
ATOM     23  C   UNL d   1      13.482   3.042  -2.801  0.00  0.00     0.138 C 
BRANCH  23  24
ATOM     24  N   UNL d   1      14.883   3.399  -3.067  0.00  0.00    -0.324 N 
ATOM     25  C   UNL d   1      15.193   4.093  -4.244  0.00  0.00     0.262 A 
ATOM     26  C   UNL d   1      16.640   4.278  -4.531  0.00  0.00     0.115 A 
ATOM     27  O   UNL d   1      14.326   4.519  -5.003  0.00  0.00    -0.267 OA
ATOM     28  C   UNL d   1      17.546   3.889  -3.613  0.00  0.00     0.023 A 
ATOM     29  C   UNL d   1      17.142   3.284  -2.372  0.00  0.00     0.018 A 
ATOM     30  C   UNL d   1      15.849   3.039  -2.144  0.00  0.00     0.094 A 
BRANCH  26  31
ATOM     31  C   UNL d   1      17.037   4.848  -5.843  0.00  0.00     0.422 C 
ATOM     32  F   UNL d   1      16.040   5.118  -6.719  0.00  0.00    -0.166 F 
ATOM     33  F   UNL d   1      17.731   6.010  -5.681  0.00  0.00    -0.166 F 
ATOM     34  F   UNL d   1      17.888   4.004  -6.495  0.00  0.00    -0.166 F 
ENDBRANCH  26  31
ENDBRANCH  23  24
ENDBRANCH  22  23
ENDBRANCH   6  22
TORSDOF 7
