REMARK  6 active torsions:
REMARK  status: ('A' for Active; 'I' for Inactive)
REMARK    1  A    between atoms: O_2  and  C_1 
REMARK    2  A    between atoms: C_4  and  C_1 
REMARK    3  A    between atoms: C_6  and  O_2 
REMARK    4  A    between atoms: C_3  and  C_6 
REMARK    5  A    between atoms: C_8  and  C_3 
REMARK    6  A    between atoms: O_14  and  C_11 
ROOT
ATOM      1  C   UNL d   1       1.086   0.010   0.160  0.00  0.00     0.293 C 
ATOM      2  O   UNL d   1       2.285  -0.197   0.056  0.00  0.00    -0.259 OA
ENDROOT
BRANCH   1   3
ATOM      3  O   UNL d   1       0.267  -0.535   1.093  0.00  0.00    -0.310 OA
BRANCH   3   4
ATOM      4  C   UNL d   1       0.917  -1.381   2.044  0.00  0.00     0.263 C 
BRANCH   4   5
ATOM      5  C   UNL d   1       1.560  -0.613   3.197  0.00  0.00     0.183 C 
ATOM      6  O   UNL d   1       1.523   0.615   3.271  0.00  0.00    -0.290 OA
BRANCH   5   7
ATOM      7  C   UNL d   1       2.222  -1.393   4.290  0.00  0.00     0.012 A 
ATOM      8  C   UNL d   1       2.220  -2.795   4.324  0.00  0.00     0.015 A 
ATOM      9  C   UNL d   1       2.826  -3.474   5.386  0.00  0.00     0.001 A 
ATOM     10  C   UNL d   1       3.441  -2.763   6.415  0.00  0.00     0.000 A 
ATOM     11  C   UNL d   1       3.454  -1.370   6.386  0.00  0.00     0.001 A 
ATOM     12  C   UNL d   1       2.847  -0.688   5.329  0.00  0.00     0.015 A 
ENDBRANCH   5   7
ENDBRANCH   4   5
ENDBRANCH   3   4
ENDBRANCH   1   3
BRANCH   1  13
ATOM     13  C   UNL d   1       0.312   0.866  -0.783  0.00  0.00     0.039 A 
ATOM     14  C   UNL d   1       1.001   1.495  -1.829  0.00  0.00     0.020 A 
ATOM     15  C   UNL d   1       0.318   2.285  -2.764  0.00  0.00     0.038 A 
ATOM     16  C   UNL d   1      -1.062   2.456  -2.659  0.00  0.00     0.068 A 
ATOM     17  C   UNL d   1      -1.751   1.833  -1.615  0.00  0.00     0.038 A 
ATOM     18  C   UNL d   1      -1.072   1.043  -0.679  0.00  0.00     0.020 A 
BRANCH  16  19
ATOM     19  O   UNL d   1      -1.849   3.195  -3.499  0.00  0.00    -0.356 OA
ATOM     20  C   UNL d   1      -1.203   3.838  -4.591  0.00  0.00     0.210 C 
ENDBRANCH  16  19
ENDBRANCH   1  13
TORSDOF 6
