REMARK  1 active torsions:
REMARK  status: ('A' for Active; 'I' for Inactive)
REMARK    1  A    between atoms: C_13  and  C_4 
ROOT
ATOM      1  C   UNL d   1      -0.735  -0.771   0.022  0.00  0.00     0.058 C 
ATOM      2  C   UNL d   1      -0.915   0.741   0.015  0.00  0.00     0.174 C 
ATOM      3  N   UNL d   1       0.643  -1.108   0.062  0.00  0.00    -0.280 NA
ATOM      4  C   UNL d   1      -1.723  -1.675  -0.035  0.00  0.00     0.040 C 
ATOM      5  C   UNL d   1       0.445   1.437  -0.025  0.00  0.00     0.064 C 
ATOM      6  C   UNL d   1       1.376  -0.629  -1.150  0.00  0.00     0.096 C 
ATOM      7  C   UNL d   1       1.333  -0.547   1.265  0.00  0.00     0.096 C 
ATOM      8  O   UNL d   1      -1.980   1.336   0.061  0.00  0.00    -0.291 OA
ATOM      9  C   UNL d   1       1.181   0.899  -1.269  0.00  0.00     0.027 C 
ATOM     10  C   UNL d   1       1.196   0.992   1.244  0.00  0.00     0.027 C 
ENDROOT
BRANCH   4  11
ATOM     11  C   UNL d   1      -3.154  -1.394  -0.116  0.00  0.00    -0.019 A 
ATOM     12  C   UNL d   1      -3.792  -1.232  -1.343  0.00  0.00     0.099 A 
ATOM     13  N   UNL d   1      -5.121  -1.018  -1.490  0.00  0.00    -0.374 N 
ATOM     14  C   UNL d   1      -5.844  -0.937  -0.352  0.00  0.00     0.087 A 
ATOM     15  HN  UNL d   1      -5.553  -0.923  -2.409  1.00  0.00     0.164 HD
ATOM     16  C   UNL d   1      -5.304  -1.069   0.918  0.00  0.00     0.018 A 
ATOM     17  C   UNL d   1      -3.936  -1.304   1.035  0.00  0.00     0.014 A 
ENDBRANCH   4  11
TORSDOF 1
