REMARK  4 active torsions:
REMARK  status: ('A' for Active; 'I' for Inactive)
REMARK    1  A    between atoms: N_2  and  S_1 
REMARK    2  A    between atoms: C_4  and  S_1 
REMARK    3  A    between atoms: C_3  and  N_2 
REMARK    4  A    between atoms: N_5  and  C_6 
ROOT
ATOM      1  N   UNL d   1       0.405   1.190  -0.728  0.00  0.00    -0.278 N 
ATOM      2  H   UNL d   1       0.114   0.749  -1.598  0.00  0.00     0.179 HD
ENDROOT
BRANCH   1   3
ATOM      3  S   UNL d   1      -0.122   0.475   0.690  0.00  0.00     0.263 S 
ATOM      4  O   UNL d   1       0.738   0.856   1.792  0.00  0.00    -0.200 OA
ATOM      5  O   UNL d   1      -0.374  -0.915   0.373  0.00  0.00    -0.200 OA
BRANCH   3   6
ATOM      6  C   UNL d   1      -1.716   1.210   0.961  0.00  0.00     0.082 A 
ATOM      7  C   UNL d   1      -2.558   1.389  -0.140  0.00  0.00     0.062 A 
ATOM      8  C   UNL d   1      -3.780   1.974   0.085  0.00  0.00     0.076 A 
ATOM      9  O   UNL d   1      -4.671   2.273  -0.908  0.00  0.00    -0.350 OA
ATOM     10  C   UNL d   1      -4.205   2.328   1.355  0.00  0.00    -0.023 A 
ATOM     11  C   UNL d   1      -5.894   2.550  -0.190  0.00  0.00     0.180 C 
ATOM     12  C   UNL d   1      -5.562   2.913   1.261  0.00  0.00     0.068 C 
ATOM     13  C   UNL d   1      -3.384   2.150   2.457  0.00  0.00     0.011 A 
ATOM     14  C   UNL d   1      -2.116   1.589   2.254  0.00  0.00     0.026 A 
ENDBRANCH   3   6
ENDBRANCH   1   3
BRANCH   1  15
ATOM     15  C   UNL d   1       0.878   2.531  -0.746  0.00  0.00     0.069 A 
ATOM     16  C   UNL d   1       2.248   2.818  -0.532  0.00  0.00     0.058 A 
ATOM     17  C   UNL d   1       2.593   4.183  -0.486  0.00  0.00     0.031 A 
ATOM     18  C   UNL d   1       1.656   5.205  -0.676  0.00  0.00     0.002 A 
ATOM     19  C   UNL d   1       0.332   4.889  -0.937  0.00  0.00     0.002 A 
ATOM     20  C   UNL d   1      -0.053   3.554  -0.980  0.00  0.00     0.032 A 
BRANCH  16  21
ATOM     21  N   UNL d   1       3.240   1.858  -0.433  0.00  0.00    -0.375 N 
ATOM     22  C   UNL d   1       3.196   0.554  -1.111  0.00  0.00     0.149 C 
ATOM     23  C   UNL d   1       4.542   0.298  -1.817  0.00  0.00     0.187 C 
ATOM     24  O   UNL d   1       5.668   0.442  -0.937  0.00  0.00    -0.388 OA
ATOM     25  C   UNL d   1       5.678   1.754  -0.346  0.00  0.00     0.187 C 
ATOM     26  C   UNL d   1       4.396   2.004   0.463  0.00  0.00     0.149 C 
ENDBRANCH  16  21
ENDBRANCH   1  15
TORSDOF 4
