REMARK  10 active torsions:
REMARK  status: ('A' for Active; 'I' for Inactive)
REMARK    1  A    between atoms: S_3  and  C_1 
REMARK    2  A    between atoms: S_4  and  C_2 
REMARK    3  A    between atoms: C_18  and  S_3 
REMARK    4  A    between atoms: C_19  and  S_4 
REMARK    5  A    between atoms: C_8  and  C_5 
REMARK       I    between atoms: N_11  and  C_8 
REMARK    6  A    between atoms: C_9  and  C_10 
REMARK       I    between atoms: C_10  and  N_14 
REMARK    7  A    between atoms: N_14  and  N_11 
REMARK    8  A    between atoms: C_24  and  N_11 
REMARK    9  A    between atoms: C_17  and  O_27 
REMARK   10  A    between atoms: O_27  and  C_39 
ROOT
ATOM      1  C   UNL d   1       0.243  -2.328  -0.661  0.00  0.00     0.284 C 
ATOM      2  N   UNL d   1      -0.660  -3.277  -0.112  0.00  0.00    -0.217 N 
ATOM      3  O   UNL d   1       1.140  -2.666  -1.431  0.00  0.00    -0.265 OA
ENDROOT
BRANCH   2   4
ATOM      4  N   UNL d   1      -0.274  -4.665  -0.118  0.00  0.00    -0.255 N 
ATOM      5  C   UNL d   1       1.010  -5.128   0.188  0.00  0.00     0.278 C 
ATOM      6  O   UNL d   1       1.920  -4.388   0.544  0.00  0.00    -0.265 OA
ATOM      7  H   UNL d   1      -0.981  -5.327  -0.413  0.00  0.00     0.191 HD
BRANCH   5   8
ATOM      8  C   UNL d   1       1.185  -6.596   0.071  0.00  0.00     0.081 A 
ATOM      9  C   UNL d   1       2.366  -7.351   0.107  0.00  0.00    -0.017 A 
ATOM     10  C   UNL d   1       2.099  -8.758  -0.147  0.00  0.00     0.078 A 
ATOM     11  C   UNL d   1       3.721  -6.743   0.347  0.00  0.00     0.051 C 
ATOM     12  C   UNL d   1       0.745  -9.014  -0.233  0.00  0.00     0.075 A 
ATOM     13  S   UNL d   1      -0.196  -7.611  -0.086  0.00  0.00    -0.094 SA
BRANCH  10  14
ATOM     14  S   UNL d   1       3.251 -10.060  -0.360  0.00  0.00     0.207 S 
ATOM     15  O   UNL d   1       2.499 -11.137  -0.976  0.00  0.00    -0.217 OA
ATOM     16  O   UNL d   1       4.394  -9.456  -1.022  0.00  0.00    -0.217 OA
BRANCH  14  17
ATOM     17  C   UNL d   1       3.721 -10.593   1.262  0.00  0.00     0.064 A 
ATOM     18  C   UNL d   1       2.780 -11.242   2.073  0.00  0.00     0.025 A 
ATOM     19  C   UNL d   1       3.146 -11.656   3.357  0.00  0.00     0.025 A 
ATOM     20  C   UNL d   1       4.447 -11.440   3.811  0.00  0.00     0.034 A 
ATOM     21  C   UNL d   1       5.396 -10.837   2.983  0.00  0.00     0.025 A 
ATOM     22 CL   UNL d   1       4.886 -11.918   5.404  0.00  0.00    -0.084 Cl
ATOM     23  C   UNL d   1       5.036 -10.419   1.700  0.00  0.00     0.025 A 
ENDBRANCH  14  17
ENDBRANCH  10  14
ENDBRANCH   5   8
ENDBRANCH   2   4
BRANCH   2  24
ATOM     24  C   UNL d   1      -2.076  -3.061  -0.238  0.00  0.00     0.060 A 
ATOM     25  C   UNL d   1      -2.579  -2.210  -1.235  0.00  0.00     0.034 A 
ATOM     26  C   UNL d   1      -3.921  -1.835  -1.265  0.00  0.00     0.039 A 
ATOM     27  C   UNL d   1      -4.816  -2.391  -0.364  0.00  0.00     0.078 A 
ATOM     28  C   UNL d   1      -4.340  -3.303   0.589  0.00  0.00     0.039 A 
ATOM     29  C   UNL d   1      -2.980  -3.648   0.650  0.00  0.00     0.034 A 
BRANCH  27  30
ATOM     30  O   UNL d   1      -6.147  -2.118  -0.290  0.00  0.00    -0.255 OA
BRANCH  30  31
ATOM     31  C   UNL d   1      -6.826  -1.580  -1.419  0.00  0.00     0.530 C 
ATOM     32  F   UNL d   1      -6.171  -1.747  -2.587  0.00  0.00    -0.144 F 
ATOM     33  F   UNL d   1      -8.017  -2.210  -1.532  0.00  0.00    -0.144 F 
ATOM     34  F   UNL d   1      -7.060  -0.263  -1.231  0.00  0.00    -0.144 F 
ENDBRANCH  30  31
ENDBRANCH  27  30
ENDBRANCH   2  24
BRANCH   1  35
ATOM     35  C   UNL d   1      -0.005  -0.871  -0.376  0.00  0.00     0.082 A 
ATOM     36  C   UNL d   1       0.315   0.240  -1.167  0.00  0.00    -0.017 A 
ATOM     37  C   UNL d   1      -0.184   1.469  -0.580  0.00  0.00     0.078 A 
ATOM     38  C   UNL d   1       1.043   0.186  -2.476  0.00  0.00     0.051 C 
ATOM     39  C   UNL d   1      -0.801   1.254   0.634  0.00  0.00     0.075 A 
ATOM     40  S   UNL d   1      -0.730  -0.379   1.108  0.00  0.00    -0.094 SA
BRANCH  37  41
ATOM     41  S   UNL d   1      -0.006   3.080  -1.242  0.00  0.00     0.207 S 
ATOM     42  O   UNL d   1       0.130   2.920  -2.676  0.00  0.00    -0.217 OA
ATOM     43  O   UNL d   1      -1.086   3.850  -0.659  0.00  0.00    -0.217 OA
BRANCH  41  44
ATOM     44  C   UNL d   1       1.530   3.656  -0.571  0.00  0.00     0.064 A 
ATOM     45  C   UNL d   1       2.724   3.461  -1.274  0.00  0.00     0.025 A 
ATOM     46  C   UNL d   1       3.933   3.855  -0.695  0.00  0.00     0.025 A 
ATOM     47  C   UNL d   1       3.937   4.464   0.560  0.00  0.00     0.034 A 
ATOM     48  C   UNL d   1       2.740   4.704   1.236  0.00  0.00     0.025 A 
ATOM     49 CL   UNL d   1       5.429   4.918   1.285  0.00  0.00    -0.084 Cl
ATOM     50  C   UNL d   1       1.529   4.304   0.668  0.00  0.00     0.025 A 
ENDBRANCH  41  44
ENDBRANCH  37  41
ENDBRANCH   1  35
TORSDOF 10
