REMARK  0 active torsions:
REMARK  status: ('A' for Active; 'I' for Inactive)
ROOT
ATOM      1  C   UNL d   1       2.542  -0.560  -0.112  0.00  0.00     0.054 A 
ATOM      2  C   UNL d   1       1.140  -0.438   0.144  0.00  0.00    -0.009 A 
ATOM      3  C   UNL d   1       3.299  -1.836   0.055  0.00  0.00     0.165 C 
ATOM      4  C   UNL d   1       3.282   0.546  -0.563  0.00  0.00     0.083 A 
ATOM      5  O   UNL d   1       4.611   0.518  -0.899  0.00  0.00    -0.350 OA
ATOM      6  O   UNL d   1       2.844  -2.822   0.621  0.00  0.00    -0.292 OA
ATOM      7  C   UNL d   1       0.543   0.841  -0.028  0.00  0.00    -0.025 A 
ATOM      8  C   UNL d   1       2.666   1.781  -0.741  0.00  0.00     0.039 A 
ATOM      9  C   UNL d   1       1.313   1.930  -0.456  0.00  0.00     0.015 A 
ATOM     10  C   UNL d   1       4.677  -1.877  -0.543  0.00  0.00     0.110 C 
ATOM     11  C   UNL d   1       5.335  -0.545  -0.287  0.00  0.00     0.183 C 
ATOM     12  C   UNL d   1       0.273  -1.492   0.533  0.00  0.00     0.013 A 
ATOM     13  C   UNL d   1      -0.830   1.028   0.211  0.00  0.00     0.012 A 
ATOM     14  C   UNL d   1      -1.093  -1.295   0.752  0.00  0.00     0.001 A 
ATOM     15  C   UNL d   1      -1.645  -0.033   0.597  0.00  0.00     0.001 A 
ENDROOT
TORSDOF 0
