REMARK  4 active torsions:
REMARK  status: ('A' for Active; 'I' for Inactive)
REMARK    1  A    between atoms: C_2  and  C_1 
REMARK    2  A    between atoms: C_4  and  C_2 
REMARK    3  A    between atoms: N_7  and  C_3 
REMARK    4  A    between atoms: C_10  and  N_7 
ROOT
ATOM      1  C   UNL d   1       0.930   0.028  -0.135  0.00  0.00     0.072 C 
ATOM      2  C   UNL d   1       2.253  -0.060   0.045  0.00  0.00     0.092 C 
ENDROOT
BRANCH   1   3
ATOM      3  C   UNL d   1       0.231   1.294   0.212  0.00  0.00     0.183 C 
ATOM      4  O   UNL d   1       0.727   2.126   0.963  0.00  0.00    -0.288 OA
BRANCH   3   5
ATOM      5  C   UNL d   1      -1.117   1.526  -0.372  0.00  0.00     0.014 A 
ATOM      6  C   UNL d   1      -2.006   2.359   0.329  0.00  0.00     0.018 A 
ATOM      7  C   UNL d   1      -3.271   2.634  -0.196  0.00  0.00     0.043 A 
ATOM      8  C   UNL d   1      -3.639   2.089  -1.420  0.00  0.00     0.116 A 
ATOM      9  C   UNL d   1      -2.766   1.273  -2.132  0.00  0.00     0.043 A 
ATOM     10  F   UNL d   1      -4.846   2.362  -1.929  0.00  0.00    -0.206 F 
ATOM     11  C   UNL d   1      -1.500   0.992  -1.611  0.00  0.00     0.018 A 
ENDBRANCH   3   5
ENDBRANCH   1   3
BRANCH   2  12
ATOM     12  N   UNL d   1       3.053  -1.127  -0.278  0.00  0.00    -0.366 N 
ATOM     13  H   UNL d   1       2.612  -1.899  -0.765  0.00  0.00     0.165 HD
BRANCH  12  14
ATOM     14  C   UNL d   1       4.446  -1.228  -0.114  0.00  0.00     0.033 A 
ATOM     15  C   UNL d   1       5.153  -0.495   0.848  0.00  0.00     0.053 A 
ATOM     16  C   UNL d   1       6.545  -0.574   0.919  0.00  0.00     0.036 A 
ATOM     17 CL   UNL d   1       7.390   0.316   2.127  0.00  0.00    -0.084 Cl
ATOM     18  C   UNL d   1       7.258  -1.363   0.021  0.00  0.00     0.024 A 
ATOM     19  C   UNL d   1       6.572  -2.088  -0.949  0.00  0.00     0.004 A 
ATOM     20  C   UNL d   1       5.177  -2.021  -1.012  0.00  0.00     0.029 A 
ENDBRANCH  12  14
ENDBRANCH   2  12
TORSDOF 4
