REMARK  7 active torsions:
REMARK  status: ('A' for Active; 'I' for Inactive)
REMARK    1  A    between atoms: C_2  and  S_1 
REMARK    2  A    between atoms: C_7  and  S_1 
REMARK    3  A    between atoms: C_3  and  C_2 
REMARK    4  A    between atoms: N_15  and  C_3 
REMARK    5  A    between atoms: C_4  and  O_11 
REMARK       I    between atoms: N_10  and  C_4 
REMARK    6  A    between atoms: O_11  and  N_5 
REMARK    7  A    between atoms: C_16  and  N_10 
ROOT
ATOM      1  C   UNL d   1       1.117  -2.320  -1.410  0.00  0.00     0.110 C 
ATOM      2  N   UNL d   1       1.813  -1.636  -2.271  0.00  0.00    -0.243 N 
ATOM      3  HN  UNL d   1       2.276  -2.013  -3.098  1.00  0.00     0.196 HD
ENDROOT
BRANCH   1   4
ATOM      4  C   UNL d   1       0.917  -3.789  -1.667  0.00  0.00     0.223 C 
BRANCH   4   5
ATOM      5  S   UNL d   1      -0.602  -4.091  -2.512  0.00  0.00     0.182 S 
ATOM      6  O   UNL d   1      -1.657  -3.373  -1.816  0.00  0.00    -0.222 OA
ATOM      7  O   UNL d   1      -0.713  -5.527  -2.701  0.00  0.00    -0.222 OA
BRANCH   5   8
ATOM      8  C   UNL d   1      -0.436  -3.384  -4.137  0.00  0.00     0.059 A 
ATOM      9  C   UNL d   1       0.203  -4.125  -5.140  0.00  0.00     0.026 A 
ATOM     10  C   UNL d   1       0.221  -3.639  -6.448  0.00  0.00     0.044 A 
ATOM     11  C   UNL d   1      -0.405  -2.432  -6.742  0.00  0.00     0.116 A 
ATOM     12  C   UNL d   1      -1.042  -1.692  -5.750  0.00  0.00     0.044 A 
ATOM     13  F   UNL d   1      -0.413  -1.985  -8.005  0.00  0.00    -0.206 F 
ATOM     14  C   UNL d   1      -1.064  -2.170  -4.437  0.00  0.00     0.026 A 
ENDBRANCH   5   8
ENDBRANCH   4   5
ENDBRANCH   1   4
BRANCH   1  15
ATOM     15  N   UNL d   1       0.580  -1.788  -0.258  0.00  0.00    -0.387 N 
ATOM     16  H   UNL d   1      -0.274  -2.202   0.107  0.00  0.00     0.157 HD
ATOM     17  H   UNL d   1       0.567  -0.772  -0.229  0.00  0.00     0.157 HD
ENDBRANCH   1  15
BRANCH   2  18
ATOM     18  O   UNL d   1       1.821  -0.274  -1.864  0.00  0.00    -0.179 OA
BRANCH  18  19
ATOM     19  C   UNL d   1       2.722   0.520  -2.544  0.00  0.00     0.387 C 
ATOM     20  N   UNL d   1       3.548  -0.160  -3.406  0.00  0.00    -0.301 N 
ATOM     21  H   UNL d   1       3.363  -1.156  -3.415  0.00  0.00     0.171 HD
ATOM     22  O   UNL d   1       2.732   1.725  -2.317  0.00  0.00    -0.236 OA
BRANCH  20  23
ATOM     23  C   UNL d   1       4.585   0.365  -4.202  0.00  0.00     0.037 A 
ATOM     24  C   UNL d   1       4.894   1.730  -4.263  0.00  0.00     0.031 A 
ATOM     25  C   UNL d   1       5.939   2.194  -5.070  0.00  0.00     0.026 A 
ATOM     26  C   UNL d   1       6.685   1.293  -5.822  0.00  0.00     0.034 A 
ATOM     27  C   UNL d   1       6.391  -0.066  -5.774  0.00  0.00     0.026 A 
ATOM     28 CL   UNL d   1       7.970   1.866  -6.811  0.00  0.00    -0.084 Cl
ATOM     29  C   UNL d   1       5.343  -0.528  -4.967  0.00  0.00     0.031 A 
ENDBRANCH  20  23
ENDBRANCH  18  19
ENDBRANCH   2  18
TORSDOF 7
