REMARK  9 active torsions:
REMARK  status: ('A' for Active; 'I' for Inactive)
REMARK    1  A    between atoms: C_9  and  N_1 
REMARK    2  A    between atoms: C_10  and  C_2 
REMARK    3  A    between atoms: S_8  and  C_3 
REMARK    4  A    between atoms: C_16  and  S_8 
REMARK    5  A    between atoms: C_15  and  C_10 
REMARK    6  A    between atoms: O_26  and  C_11 
REMARK    7  A    between atoms: C_12  and  C_16 
REMARK    8  A    between atoms: C_18  and  C_12 
REMARK    9  A    between atoms: O_28  and  C_13 
ROOT
ATOM      1  N   UNL d   1      -0.455  -1.274   0.123  0.00  0.00    -0.279 N 
ATOM      2  C   UNL d   1       0.814  -0.674   0.072  0.00  0.00     0.109 A 
ATOM      3  C   UNL d   1      -1.321  -0.189  -0.025  0.00  0.00     0.168 A 
ATOM      4  N   UNL d   1       0.675   0.633  -0.078  0.00  0.00    -0.286 N 
ATOM      5  HN  UNL d   1       1.439   1.307  -0.137  1.00  0.00     0.188 HD
ATOM      6  N   UNL d   1      -0.647   0.934  -0.141  0.00  0.00    -0.278 N 
ATOM      7  HN  UNL d   1      -1.047   1.865  -0.257  1.00  0.00     0.189 HD
ENDROOT
BRANCH   2   8
ATOM      8  C   UNL d   1       2.157  -1.344   0.013  0.00  0.00     0.117 C 
BRANCH   8   9
ATOM      9  C   UNL d   1       2.811  -1.649   1.351  0.00  0.00    -0.048 A 
ATOM     10  C   UNL d   1       3.677  -2.757   1.454  0.00  0.00     0.047 A 
ATOM     11  C   UNL d   1       4.204  -3.174   2.691  0.00  0.00     0.102 A 
ATOM     12  C   UNL d   1       3.913  -2.425   3.841  0.00  0.00     0.101 A 
ATOM     13  C   UNL d   1       3.120  -1.275   3.724  0.00  0.00     0.040 A 
ATOM     14  C   UNL d   1       2.577  -0.885   2.497  0.00  0.00     0.010 A 
BRANCH  11  15
ATOM     15  O   UNL d   1       5.022  -4.266   2.798  0.00  0.00    -0.353 OA
ATOM     16  C   UNL d   1       4.830  -5.309   1.850  0.00  0.00     0.210 C 
ENDBRANCH  11  15
BRANCH  12  17
ATOM     17  O   UNL d   1       4.303  -2.657   5.134  0.00  0.00    -0.353 OA
ATOM     18  C   UNL d   1       4.923  -3.895   5.452  0.00  0.00     0.210 C 
ENDBRANCH  12  17
ENDBRANCH   8   9
ENDBRANCH   2   8
BRANCH   1  19
ATOM     19  C   UNL d   1      -0.781  -2.664   0.288  0.00  0.00     0.043 A 
ATOM     20  C   UNL d   1       0.053  -3.524   1.017  0.00  0.00     0.033 A 
ATOM     21  C   UNL d   1      -0.260  -4.878   1.187  0.00  0.00     0.044 A 
ATOM     22  C   UNL d   1      -1.439  -5.379   0.661  0.00  0.00     0.116 A 
ATOM     23  C   UNL d   1      -2.296  -4.553  -0.049  0.00  0.00     0.044 A 
ATOM     24  F   UNL d   1      -1.753  -6.666   0.846  0.00  0.00    -0.206 F 
ATOM     25  C   UNL d   1      -1.958  -3.208  -0.255  0.00  0.00     0.033 A 
ENDBRANCH   1  19
BRANCH   3  26
ATOM     26  S   UNL d   1      -3.050  -0.213   0.168  0.00  0.00    -0.084 SA
BRANCH  26  27
ATOM     27  C   UNL d   1      -3.575   1.155  -0.906  0.00  0.00     0.166 C 
BRANCH  27  28
ATOM     28  C   UNL d   1      -3.355   0.897  -2.390  0.00  0.00     0.169 C 
ATOM     29  O   UNL d   1      -2.774  -0.097  -2.831  0.00  0.00    -0.291 OA
BRANCH  28  30
ATOM     30  C   UNL d   1      -3.902   1.905  -3.364  0.00  0.00     0.010 A 
ATOM     31  C   UNL d   1      -4.724   2.968  -2.963  0.00  0.00     0.015 A 
ATOM     32  C   UNL d   1      -5.243   3.860  -3.910  0.00  0.00     0.001 A 
ATOM     33  C   UNL d   1      -4.928   3.709  -5.258  0.00  0.00     0.000 A 
ATOM     34  C   UNL d   1      -4.111   2.662  -5.668  0.00  0.00     0.001 A 
ATOM     35  C   UNL d   1      -3.598   1.763  -4.724  0.00  0.00     0.015 A 
ENDBRANCH  28  30
ENDBRANCH  27  28
ENDBRANCH  26  27
ENDBRANCH   3  26
TORSDOF 9
