REMARK  4 active torsions:
REMARK  status: ('A' for Active; 'I' for Inactive)
REMARK    1  A    between atoms: C_2  and  C_1 
REMARK       I    between atoms: N_6  and  C_1 
REMARK       I    between atoms: C_3  and  N_4 
REMARK    2  A    between atoms: C_9  and  C_3 
REMARK    3  A    between atoms: N_4  and  C_5 
REMARK    4  A    between atoms: C_10  and  N_6 
ROOT
ATOM      1  C   UNL d   1       0.249   0.958  -0.718  0.00  0.00     0.059 A 
ATOM      2  C   UNL d   1       0.742   1.058  -2.039  0.00  0.00     0.050 A 
ATOM      3  C   UNL d   1      -0.867   1.731  -0.342  0.00  0.00     0.019 A 
ATOM      4  C   UNL d   1       0.033   1.833  -2.970  0.00  0.00     0.030 A 
ATOM      5  C   UNL d   1      -1.542   2.517  -1.279  0.00  0.00     0.001 A 
ATOM      6  C   UNL d   1      -1.104   2.552  -2.596  0.00  0.00     0.002 A 
ENDROOT
BRANCH   1   7
ATOM      7  C   UNL d   1       0.950   0.109   0.303  0.00  0.00     0.258 C 
ATOM      8  N   UNL d   1       0.176  -0.301   1.376  0.00  0.00    -0.323 N 
ATOM      9  H   UNL d   1      -0.823  -0.165   1.308  0.00  0.00     0.169 HD
ATOM     10  O   UNL d   1       2.119  -0.214   0.104  0.00  0.00    -0.267 OA
BRANCH   8  11
ATOM     11  C   UNL d   1       0.602  -1.029   2.507  0.00  0.00     0.035 A 
ATOM     12  C   UNL d   1       1.938  -1.300   2.803  0.00  0.00     0.030 A 
ATOM     13  C   UNL d   1       2.273  -2.067   3.924  0.00  0.00     0.009 A 
ATOM     14  C   UNL d   1       1.279  -2.570   4.769  0.00  0.00    -0.062 A 
ATOM     15  C   UNL d   1      -0.057  -2.263   4.497  0.00  0.00     0.009 A 
ATOM     16  C   UNL d   1       1.651  -3.445   5.927  0.00  0.00     0.048 C 
ATOM     17  C   UNL d   1      -0.390  -1.494   3.378  0.00  0.00     0.030 A 
ENDBRANCH   8  11
ENDBRANCH   1   7
BRANCH   2  18
ATOM     18  N   UNL d   1       1.927   0.383  -2.428  0.00  0.00    -0.322 N 
ATOM     19  C   UNL d   1       2.811   0.856  -3.379  0.00  0.00     0.256 C 
ATOM     20  O   UNL d   1       2.729   1.921  -3.985  0.00  0.00    -0.267 OA
ATOM     21  H   UNL d   1       2.321  -0.254  -1.731  0.00  0.00     0.169 HD
BRANCH  19  22
ATOM     22  C   UNL d   1       3.999   0.007  -3.621  0.00  0.00     0.032 A 
ATOM     23  C   UNL d   1       3.861  -1.359  -3.887  0.00  0.00     0.017 A 
ATOM     24  C   UNL d   1       4.987  -2.112  -4.225  0.00  0.00     0.001 A 
ATOM     25  C   UNL d   1       6.244  -1.506  -4.283  0.00  0.00     0.000 A 
ATOM     26  C   UNL d   1       6.383  -0.146  -4.003  0.00  0.00     0.001 A 
ATOM     27  C   UNL d   1       5.259   0.614  -3.680  0.00  0.00     0.017 A 
ENDBRANCH  19  22
ENDBRANCH   2  18
TORSDOF 4
