REMARK  2 active torsions:
REMARK  status: ('A' for Active; 'I' for Inactive)
REMARK    1  A    between atoms: C_9  and  N_3 
REMARK    2  A    between atoms: C_12  and  C_9 
ROOT
ATOM      1  N   UNL d   1       0.565   0.701  -0.769  0.00  0.00    -0.274 N 
ATOM      2  C   UNL d   1      -0.053  -0.482  -1.083  0.00  0.00     0.329 A 
ATOM      3  N   UNL d   1      -0.647  -1.143  -0.014  0.00  0.00    -0.304 N 
ATOM      4  C   UNL d   1       0.002   0.526   1.571  0.00  0.00     0.128 A 
ATOM      5  C   UNL d   1       0.721   1.223   0.485  0.00  0.00     0.271 A 
ATOM      6  C   UNL d   1      -0.635  -0.615   1.267  0.00  0.00     0.124 A 
ATOM      7  C   UNL d   1       0.016   1.045   2.888  0.00  0.00     0.106 C 
ATOM      8  N   UNL d   1      -0.008   1.420   3.987  0.00  0.00    -0.191 NA
ATOM      9  O   UNL d   1      -0.048  -0.893  -2.238  0.00  0.00    -0.246 OA
ATOM     10  O   UNL d   1       1.429   2.204   0.689  0.00  0.00    -0.266 OA
ATOM     11  H   UNL d   1       1.045   1.167  -1.523  0.00  0.00     0.173 HD
ENDROOT
BRANCH   3  12
ATOM     12  C   UNL d   1      -1.319  -2.423  -0.262  0.00  0.00     0.171 C 
BRANCH  12  13
ATOM     13  C   UNL d   1      -2.818  -2.272  -0.398  0.00  0.00    -0.040 A 
ATOM     14  C   UNL d   1      -3.365  -1.599  -1.504  0.00  0.00     0.012 A 
ATOM     15  C   UNL d   1      -4.745  -1.423  -1.613  0.00  0.00     0.043 A 
ATOM     16  C   UNL d   1      -5.579  -1.927  -0.625  0.00  0.00     0.116 A 
ATOM     17  C   UNL d   1      -5.062  -2.618   0.465  0.00  0.00     0.043 A 
ATOM     18  F   UNL d   1      -6.903  -1.746  -0.723  0.00  0.00    -0.206 F 
ATOM     19  C   UNL d   1      -3.682  -2.792   0.580  0.00  0.00     0.012 A 
ENDBRANCH  12  13
ENDBRANCH   3  12
TORSDOF 2
