REMARK  2 active torsions:
REMARK  status: ('A' for Active; 'I' for Inactive)
REMARK       I    between atoms: C_3  and  N_1 
REMARK    1  A    between atoms: C_6  and  C_3 
REMARK    2  A    between atoms: C_10  and  N_8 
ROOT
ATOM      1  N   UNL d   1       0.980   0.449   0.181  0.00  0.00    -0.279 N 
ATOM      2  C   UNL d   1       0.549  -0.883   0.323  0.00  0.00     0.155 C 
ATOM      3  C   UNL d   1       2.223   0.819   0.713  0.00  0.00     0.267 C 
ATOM      4  S   UNL d   1      -1.212  -0.854   0.478  0.00  0.00    -0.057 SA
ATOM      5  C   UNL d   1       0.075   1.147  -0.798  0.00  0.00     0.068 C 
ATOM      6  C   UNL d   1      -1.318   0.643  -0.388  0.00  0.00     0.005 C 
ATOM      7  N   UNL d   1       1.315  -1.925   0.231  0.00  0.00    -0.336 N 
ATOM      8  HN  UNL d   1       2.323  -1.787   0.165  1.00  0.00     0.168 HD
ATOM      9  O   UNL d   1       2.970   0.044   1.320  0.00  0.00    -0.267 OA
ATOM     10  C   UNL d   1      -2.513   1.234  -0.532  0.00  0.00     0.029 C 
ATOM     11  C   UNL d   1       0.070   2.680  -0.907  0.00  0.00     0.044 C 
ATOM     12  C   UNL d   1       0.422   0.639  -2.224  0.00  0.00     0.044 C 
ENDROOT
BRANCH   7  13
ATOM     13  C   UNL d   1       0.806  -3.245   0.219  0.00  0.00     0.035 C 
ATOM     14  C   UNL d   1      -0.235  -3.659  -0.619  0.00  0.00     0.037 C 
ATOM     15  C   UNL d   1      -0.784  -4.948  -0.542  0.00  0.00    -0.053 C 
ATOM     16  C   UNL d   1      -2.030  -5.248  -1.332  0.00  0.00     0.049 C 
ATOM     17  C   UNL d   1      -0.180  -5.915   0.291  0.00  0.00    -0.050 C 
ATOM     18  C   UNL d   1       0.961  -5.554   1.043  0.00  0.00    -0.053 C 
ATOM     19  C   UNL d   1      -0.778  -7.298   0.368  0.00  0.00     0.049 C 
ATOM     20  C   UNL d   1       1.419  -4.217   1.012  0.00  0.00     0.037 C 
ATOM     21  C   UNL d   1       1.705  -6.552   1.885  0.00  0.00     0.049 C 
ENDBRANCH   7  13
BRANCH   3  22
ATOM     22  C   UNL d   1       2.673   2.209   0.737  0.00  0.00     0.109 C 
ATOM     23  C   UNL d   1       1.921   3.197   1.364  0.00  0.00     0.135 C 
ATOM     24  F   UNL d   1       0.750   2.900   1.946  0.00  0.00    -0.205 F 
ATOM     25  C   UNL d   1       2.337   4.532   1.362  0.00  0.00     0.043 C 
ATOM     26  C   UNL d   1       3.583   4.867   0.834  0.00  0.00     0.006 C 
ATOM     27  C   UNL d   1       4.405   3.860   0.328  0.00  0.00     0.043 C 
ATOM     28  C   UNL d   1       3.945   2.541   0.276  0.00  0.00     0.135 C 
ATOM     29  F   UNL d   1       4.763   1.608  -0.231  0.00  0.00    -0.205 F 
ENDBRANCH   3  22
TORSDOF 2
