REMARK  7 active torsions:
REMARK  status: ('A' for Active; 'I' for Inactive)
REMARK    1  A    between atoms: C_16  and  N_1 
REMARK    2  A    between atoms: S_10  and  C_2 
REMARK    3  A    between atoms: N_6  and  C_3 
REMARK    4  A    between atoms: C_5  and  S_10 
REMARK    5  A    between atoms: O_19  and  C_7 
REMARK    6  A    between atoms: C_20  and  C_16 
REMARK    7  A    between atoms: C_21  and  C_20 
ROOT
ATOM      1  N   UNL d   1       0.016  -1.188  -0.330  0.00  0.00    -0.290 N 
ATOM      2  C   UNL d   1       1.203  -0.720  -0.849  0.00  0.00     0.171 A 
ATOM      3  C   UNL d   1      -0.770  -0.064  -0.211  0.00  0.00     0.240 A 
ATOM      4  N   UNL d   1       1.159   0.591  -0.938  0.00  0.00    -0.276 N 
ATOM      5  HN  UNL d   1       1.911   1.194  -1.272  1.00  0.00     0.189 HD
ATOM      6  N   UNL d   1      -0.074   1.006  -0.501  0.00  0.00    -0.263 N 
ATOM      7  HN  UNL d   1      -0.391   1.972  -0.418  1.00  0.00     0.190 HD
ENDROOT
BRANCH   2   8
ATOM      8  S   UNL d   1       2.462  -1.726  -1.461  0.00  0.00    -0.027 SA
BRANCH   8   9
ATOM      9  C   UNL d   1       3.929  -0.866  -1.007  0.00  0.00     0.121 A 
ATOM     10  S   UNL d   1       4.111   0.336   0.216  0.00  0.00    -0.039 SA
ATOM     11  C   UNL d   1       5.787   0.342  -0.056  0.00  0.00     0.161 A 
ATOM     12  C   UNL d   1       6.129  -0.558  -1.033  0.00  0.00     0.133 A 
ATOM     13  N   UNL d   1       5.059  -1.249  -1.575  0.00  0.00    -0.352 N 
ATOM     14  HN  UNL d   1       5.133  -1.954  -2.308  1.00  0.00     0.166 HD
BRANCH  11  15
ATOM     15  N   UNL d   1       6.683   1.161   0.696  0.00  0.00    -0.107 N 
ATOM     16  O   UNL d   1       7.887   0.903   0.582  0.00  0.00    -0.531 OA
ATOM     17  O   UNL d   1       6.204   2.058   1.401  0.00  0.00    -0.531 OA
ENDBRANCH  11  15
ENDBRANCH   8   9
ENDBRANCH   2   8
BRANCH   1  18
ATOM     18  C   UNL d   1      -0.423  -2.535  -0.035  0.00  0.00     0.139 C 
BRANCH  18  19
ATOM     19  C   UNL d   1       0.525  -3.492   0.720  0.00  0.00    -0.000 C 
ATOM     20  C   UNL d   1      -0.195  -4.824   0.975  0.00  0.00     0.011 C 
BRANCH  19  21
ATOM     21  C   UNL d   1       1.125  -2.915   2.016  0.00  0.00     0.001 C 
ATOM     22  C   UNL d   1       0.124  -2.563   3.107  0.00  0.00     0.005 C 
ENDBRANCH  19  21
ENDBRANCH  18  19
ENDBRANCH   1  18
BRANCH   3  23
ATOM     23  O   UNL d   1      -2.052  -0.030   0.118  0.00  0.00    -0.331 OA
ATOM     24  H   UNL d   1      -2.477  -0.852  -0.167  0.00  0.00     0.221 HD
ENDBRANCH   3  23
TORSDOF 7
