REMARK  4 active torsions:
REMARK  status: ('A' for Active; 'I' for Inactive)
REMARK    1  A    between atoms: S_2  and  C_1 
REMARK    2  A    between atoms: C_6  and  S_2 
REMARK       I    between atoms: C_3  and  N_4 
REMARK    3  A    between atoms: C_5  and  C_3 
REMARK    4  A    between atoms: N_4  and  C_9 
ROOT
ATOM      1  C   UNL d   1      -1.777  -2.634   0.522  0.00  0.00     0.032 A 
ATOM      2  C   UNL d   1      -2.301  -2.594  -0.789  0.00  0.00     0.052 A 
ATOM      3  C   UNL d   1      -2.339  -3.531   1.444  0.00  0.00     0.021 A 
ATOM      4  C   UNL d   1      -3.453  -3.324  -1.105  0.00  0.00     0.031 A 
ATOM      5  C   UNL d   1      -4.006  -4.201  -0.173  0.00  0.00     0.002 A 
ATOM      6  C   UNL d   1      -3.434  -4.324   1.090  0.00  0.00     0.002 A 
ENDROOT
BRANCH   1   7
ATOM      7  S   UNL d   1      -0.478  -1.530   1.095  0.00  0.00    -0.085 SA
BRANCH   7   8
ATOM      8  C   UNL d   1      -1.392  -0.310   2.060  0.00  0.00     0.051 A 
ATOM      9  C   UNL d   1      -1.321  -0.317   3.466  0.00  0.00     0.068 A 
ATOM     10 CL   UNL d   1      -0.437  -1.490   4.376  0.00  0.00    -0.081 Cl
ATOM     11  C   UNL d   1      -1.981   0.679   4.182  0.00  0.00     0.113 A 
ATOM     12  N   UNL d   1      -2.704   1.673   3.614  0.00  0.00    -0.372 N 
ATOM     13  C   UNL d   1      -2.749   1.674   2.268  0.00  0.00     0.113 A 
ATOM     14  HN  UNL d   1      -3.185   2.379   4.172  1.00  0.00     0.164 HD
ATOM     15  C   UNL d   1      -2.118   0.733   1.456  0.00  0.00     0.068 A 
ATOM     16 CL   UNL d   1      -2.250   0.969  -0.246  0.00  0.00    -0.081 Cl
ENDBRANCH   7   8
ENDBRANCH   1   7
BRANCH   2  17
ATOM     17  N   UNL d   1      -1.726  -1.835  -1.830  0.00  0.00    -0.321 N 
ATOM     18  C   UNL d   1      -0.391  -1.952  -2.193  0.00  0.00     0.263 C 
ATOM     19  O   UNL d   1       0.359  -2.809  -1.728  0.00  0.00    -0.267 OA
ATOM     20  H   UNL d   1      -2.333  -1.487  -2.560  0.00  0.00     0.169 HD
BRANCH  18  21
ATOM     21  C   UNL d   1       0.053  -1.038  -3.241  0.00  0.00     0.072 A 
ATOM     22  S   UNL d   1      -0.879   0.305  -3.755  0.00  0.00    -0.097 SA
ATOM     23  C   UNL d   1       0.352   0.847  -4.809  0.00  0.00     0.050 A 
ATOM     24  C   UNL d   1       1.434  -0.003  -4.817  0.00  0.00     0.009 A 
ATOM     25  C   UNL d   1       1.259  -1.093  -3.918  0.00  0.00     0.025 A 
ENDBRANCH  18  21
ENDBRANCH   2  17
TORSDOF 4
