REMARK  6 active torsions:
REMARK  status: ('A' for Active; 'I' for Inactive)
REMARK    1  A    between atoms: C_15  and  N_3 
REMARK    2  A    between atoms: C_11  and  N_19 
REMARK    3  A    between atoms: N_14  and  C_11 
REMARK    4  A    between atoms: C_13  and  C_15 
REMARK       I    between atoms: N_20  and  C_13 
REMARK    5  A    between atoms: C_16  and  N_14 
REMARK    6  A    between atoms: N_19  and  N_20 
ROOT
ATOM      1  C   UNL d   1      -2.550  -3.135  -1.330  0.00  0.00     0.255 C 
ATOM      2  N   UNL d   1      -3.616  -2.479  -0.747  0.00  0.00    -0.266 N 
ATOM      3  O   UNL d   1      -2.714  -4.145  -2.026  0.00  0.00    -0.270 OA
ATOM      4  H   UNL d   1      -3.510  -1.478  -0.588  0.00  0.00     0.190 HD
ENDROOT
BRANCH   1   5
ATOM      5  C   UNL d   1      -1.134  -2.703  -0.950  0.00  0.00     0.252 C 
BRANCH   5   6
ATOM      6  N   UNL d   1      -0.705  -1.279  -0.865  0.00  0.00    -0.176 N 
ATOM      7  C   UNL d   1      -1.501  -0.258  -1.294  0.00  0.00     0.710 A 
ATOM      8  N   UNL d   1      -1.085   1.051  -1.108  0.00  0.00    -0.047 N 
ATOM      9  N   UNL d   1      -2.678  -0.249  -1.882  0.00  0.00    -0.184 N 
ATOM     10  C   UNL d   1       0.120   1.444  -0.531  0.00  0.00     0.284 C 
ATOM     11  N   UNL d   1      -2.012   1.921  -1.587  0.00  0.00    -0.272 N 
ATOM     12  O   UNL d   1       0.412   2.611  -0.326  0.00  0.00    -0.266 OA
ATOM     13  C   UNL d   1       1.033   0.306  -0.266  0.00  0.00     0.102 C 
ATOM     14  C   UNL d   1       0.620  -0.961  -0.468  0.00  0.00     0.031 C 
ATOM     15  C   UNL d   1       1.645  -2.069  -0.352  0.00  0.00     0.069 C 
ATOM     16  C   UNL d   1      -2.926   1.085  -2.077  0.00  0.00     0.216 A 
ATOM     17  HN  UNL d   1      -2.009   2.941  -1.575  1.00  0.00     0.189 HD
ATOM     18  HN  UNL d   1      -3.266  -1.045  -2.133  1.00  0.00     0.185 HD
ENDBRANCH   5   6
ENDBRANCH   1   5
BRANCH   2  19
ATOM     19  N   UNL d   1      -4.910  -2.873  -1.165  0.00  0.00    -0.273 N 
ATOM     20  H   UNL d   1      -5.127  -2.714  -2.142  0.00  0.00     0.189 HD
BRANCH  19  21
ATOM     21  C   UNL d   1      -5.705  -3.692  -0.397  0.00  0.00     0.191 C 
ATOM     22  S   UNL d   1      -5.489  -3.975   1.240  0.00  0.00    -0.039 SA
BRANCH  21  23
ATOM     23  N   UNL d   1      -6.826  -4.198  -0.998  0.00  0.00    -0.331 N 
ATOM     24  H   UNL d   1      -7.564  -4.453  -0.344  0.00  0.00     0.168 HD
BRANCH  23  25
ATOM     25  C   UNL d   1      -7.072  -4.561  -2.345  0.00  0.00     0.056 A 
ATOM     26  C   UNL d   1      -8.399  -4.786  -2.761  0.00  0.00     0.062 A 
ATOM     27  C   UNL d   1      -8.687  -5.197  -4.065  0.00  0.00     0.050 A 
ATOM     28 CL   UNL d   1      -9.728  -4.541  -1.678  0.00  0.00    -0.082 Cl
ATOM     29  C   UNL d   1      -7.644  -5.416  -4.959  0.00  0.00     0.035 A 
ATOM     30  C   UNL d   1      -6.324  -5.229  -4.558  0.00  0.00     0.026 A 
ATOM     31 CL   UNL d   1      -7.984  -5.944  -6.559  0.00  0.00    -0.084 Cl
ATOM     32  C   UNL d   1      -6.038  -4.806  -3.255  0.00  0.00     0.033 A 
ENDBRANCH  23  25
ENDBRANCH  21  23
ENDBRANCH  19  21
ENDBRANCH   2  19
TORSDOF 6
