REMARK  4 active torsions:
REMARK  status: ('A' for Active; 'I' for Inactive)
REMARK    1  A    between atoms: C_15  and  C_1 
REMARK    2  A    between atoms: C_2  and  C_14 
REMARK       I    between atoms: C_3  and  N_8 
REMARK       I    between atoms: N_9  and  C_3 
REMARK    3  A    between atoms: N_4  and  N_9 
REMARK    4  A    between atoms: N_8  and  N_6 
ROOT
ATOM      1  C   UNL d   1      -2.457   4.923   0.086  0.00  0.00     0.353 C 
ATOM      2  N   UNL d   1      -1.322   4.130  -0.116  0.00  0.00    -0.251 N 
ATOM      3  N   UNL d   1      -3.611   4.143   0.136  0.00  0.00    -0.251 N 
ATOM      4  O   UNL d   1      -2.442   6.147   0.194  0.00  0.00    -0.244 OA
ATOM      5  H   UNL d   1      -1.370   3.215   0.316  0.00  0.00     0.191 HD
ATOM      6  H   UNL d   1      -3.576   3.171  -0.144  0.00  0.00     0.191 HD
ENDROOT
BRANCH   2   7
ATOM      7  N   UNL d   1      -0.041   4.633  -0.107  0.00  0.00    -0.307 N 
ATOM      8  C   UNL d   1       0.173   5.741  -0.747  0.00  0.00     0.122 C 
ATOM      9  HN  UNL d   1       0.712   4.152   0.385  1.00  0.00     0.186 HD
BRANCH   8  10
ATOM     10  C   UNL d   1       1.493   6.412  -0.709  0.00  0.00     0.024 A 
ATOM     11  C   UNL d   1       2.697   5.691  -0.658  0.00  0.00     0.047 A 
ATOM     12 CL   UNL d   1       2.797   3.971  -0.828  0.00  0.00    -0.083 Cl
ATOM     13  C   UNL d   1       3.920   6.366  -0.532  0.00  0.00     0.025 A 
ATOM     14  C   UNL d   1       3.958   7.756  -0.475  0.00  0.00     0.003 A 
ATOM     15  C   UNL d   1       2.773   8.480  -0.567  0.00  0.00     0.025 A 
ATOM     16  C   UNL d   1       1.545   7.817  -0.689  0.00  0.00     0.047 A 
ATOM     17 CL   UNL d   1       0.137   8.817  -0.784  0.00  0.00    -0.083 Cl
ENDBRANCH   8  10
ENDBRANCH   2   7
BRANCH   3  18
ATOM     18  N   UNL d   1      -4.814   4.767   0.248  0.00  0.00    -0.307 N 
ATOM     19  C   UNL d   1      -5.877   4.042   0.146  0.00  0.00     0.122 C 
ATOM     20  HN  UNL d   1      -4.875   5.773   0.407  1.00  0.00     0.186 HD
BRANCH  19  21
ATOM     21  C   UNL d   1      -7.211   4.669   0.246  0.00  0.00     0.024 A 
ATOM     22  C   UNL d   1      -7.492   5.900  -0.372  0.00  0.00     0.047 A 
ATOM     23 CL   UNL d   1      -6.415   6.681  -1.478  0.00  0.00    -0.083 Cl
ATOM     24  C   UNL d   1      -8.729   6.521  -0.168  0.00  0.00     0.025 A 
ATOM     25  C   UNL d   1      -9.699   5.918   0.629  0.00  0.00     0.003 A 
ATOM     26  C   UNL d   1      -9.442   4.677   1.208  0.00  0.00     0.025 A 
ATOM     27  C   UNL d   1      -8.205   4.050   1.017  0.00  0.00     0.047 A 
ATOM     28 CL   UNL d   1      -7.968   2.521   1.791  0.00  0.00    -0.083 Cl
ENDBRANCH  19  21
ENDBRANCH   3  18
TORSDOF 4
