REMARK  7 active torsions:
REMARK  status: ('A' for Active; 'I' for Inactive)
REMARK    1  A    between atoms: C_2  and  C_1 
REMARK       I    between atoms: N_10  and  C_2 
REMARK    2  A    between atoms: C_3  and  C_4 
REMARK    3  A    between atoms: O_18  and  C_5 
REMARK    4  A    between atoms: C_9  and  C_20 
REMARK    5  A    between atoms: N_13  and  N_10 
REMARK       I    between atoms: C_11  and  N_13 
REMARK    6  A    between atoms: C_25  and  C_11 
REMARK    7  A    between atoms: C_20  and  O_18 
ROOT
ATOM      1  C   UNL d   1       0.050   1.313  -0.011  0.00  0.00     0.107 A 
ATOM      2  C   UNL d   1       1.322   0.764  -0.079  0.00  0.00     0.092 A 
ATOM      3  S   UNL d   1      -1.144   0.066   0.073  0.00  0.00    -0.094 SA
ATOM      4  C   UNL d   1       1.300  -0.665   0.041  0.00  0.00     0.045 A 
ATOM      5  C   UNL d   1       0.022  -1.171   0.089  0.00  0.00     0.053 A 
ENDROOT
BRANCH   2   6
ATOM      6  O   UNL d   1       2.426   1.548  -0.239  0.00  0.00    -0.344 OA
BRANCH   6   7
ATOM      7  C   UNL d   1       3.587   0.806  -0.657  0.00  0.00     0.234 C 
BRANCH   7   8
ATOM      8  C   UNL d   1       4.706   1.669  -1.205  0.00  0.00     0.055 A 
ATOM      9  N   UNL d   1       4.585   3.019  -1.103  0.00  0.00    -0.365 N 
ATOM     10  C   UNL d   1       5.578   3.786  -1.611  0.00  0.00     0.104 A 
ATOM     11  HN  UNL d   1       3.770   3.441  -0.657  1.00  0.00     0.165 HD
ATOM     12  C   UNL d   1       6.710   3.276  -2.231  0.00  0.00     0.064 A 
ATOM     13  C   UNL d   1       6.828   1.886  -2.319  0.00  0.00     0.043 A 
ATOM     14  C   UNL d   1       5.824   1.072  -1.799  0.00  0.00     0.059 A 
ATOM     15 CL   UNL d   1       6.015  -0.638  -1.922  0.00  0.00    -0.082 Cl
BRANCH  12  16
ATOM     16  C   UNL d   1       7.748   4.205  -2.777  0.00  0.00     0.418 C 
ATOM     17  F   UNL d   1       8.798   3.558  -3.357  0.00  0.00    -0.166 F 
ATOM     18  F   UNL d   1       7.252   5.037  -3.733  0.00  0.00    -0.166 F 
ATOM     19  F   UNL d   1       8.289   5.007  -1.821  0.00  0.00    -0.166 F 
ENDBRANCH  12  16
ENDBRANCH   7   8
ENDBRANCH   6   7
ENDBRANCH   2   6
BRANCH   1  20
ATOM     20  C   UNL d   1      -0.433   2.689  -0.019  0.00  0.00     0.279 C 
ATOM     21  N   UNL d   1       0.519   3.693  -0.015  0.00  0.00    -0.263 N 
ATOM     22  H   UNL d   1       1.526   3.523  -0.033  0.00  0.00     0.190 HD
ATOM     23  O   UNL d   1      -1.631   3.001  -0.018  0.00  0.00    -0.265 OA
BRANCH  21  24
ATOM     24  N   UNL d   1       0.066   5.026  -0.003  0.00  0.00    -0.267 N 
ATOM     25  C   UNL d   1       0.980   6.057   0.026  0.00  0.00     0.239 C 
ATOM     26  O   UNL d   1       2.194   5.858   0.051  0.00  0.00    -0.271 OA
ATOM     27  H   UNL d   1      -0.943   5.156  -0.026  0.00  0.00     0.190 HD
BRANCH  25  28
ATOM     28  C   UNL d   1       0.360   7.454  -0.020  0.00  0.00     0.071 C 
ATOM     29  C   UNL d   1      -0.539   7.721   1.186  0.00  0.00     0.019 C 
ATOM     30  C   UNL d   1       1.453   8.521  -0.098  0.00  0.00     0.019 C 
ENDBRANCH  25  28
ENDBRANCH  21  24
ENDBRANCH   1  20
TORSDOF 7
