REMARK  5 active torsions:
REMARK  status: ('A' for Active; 'I' for Inactive)
REMARK    1  A    between atoms: C_3  and  C_1 
REMARK    2  A    between atoms: C_4  and  CA_2 
REMARK       I    between atoms: N_7  and  C_3 
REMARK    3  A    between atoms: OXT_19  and  C_4 
REMARK    4  A    between atoms: C_5  and  N_10 
REMARK    5  A    between atoms: N_10  and  N_7 
ROOT
ATOM      1  C   UNL d   1       0.285  -5.414  -1.174  0.00  0.00     0.119 A 
ATOM      2  C   UNL d   1       1.340  -5.974  -1.904  0.00  0.00     0.084 A 
ATOM      3  C   UNL d   1       2.352  -5.160  -2.498  0.00  0.00     0.103 C 
ATOM      4  N   UNL d   1       3.186  -4.499  -2.969  0.00  0.00    -0.191 NA
ATOM      5  N   UNL d   1      -0.685  -6.195  -0.624  0.00  0.00    -0.354 N 
ATOM      6  HN  UNL d   1      -1.453  -5.781  -0.096  1.00  0.00     0.166 HD
ATOM      7  C   UNL d   1       1.399  -7.367  -2.058  0.00  0.00     0.027 A 
ATOM      8  C   UNL d   1      -0.604  -7.536  -0.795  0.00  0.00     0.089 A 
ATOM      9  C   UNL d   1       0.408  -8.161  -1.496  0.00  0.00     0.019 A 
ENDROOT
BRANCH   1  10
ATOM     10  N   UNL d   1       0.154  -4.002  -1.063  0.00  0.00    -0.186 NA
ATOM     11  H   UNL d   1       1.032  -3.566  -0.764  0.00  0.00     0.154 HD
BRANCH  10  12
ATOM     12  N   UNL d   1      -0.893  -3.629  -0.202  0.00  0.00    -0.280 N 
ATOM     13  C   UNL d   1      -1.437  -2.356  -0.188  0.00  0.00     0.285 C 
ATOM     14  O   UNL d   1      -2.411  -2.106   0.521  0.00  0.00    -0.265 OA
ATOM     15  H   UNL d   1      -1.434  -4.399   0.198  0.00  0.00     0.184 HD
BRANCH  13  16
ATOM     16  C   UNL d   1      -0.795  -1.258  -0.967  0.00  0.00     0.135 A 
ATOM     17  CA  UNL d   1      -1.541  -0.207  -1.491  0.00  0.00     0.139 A 
ATOM     18  N   UNL d   1      -0.944   0.889  -2.063  0.00  0.00    -0.357 N 
ATOM     19  C   UNL d   1       0.404   0.866  -2.123  0.00  0.00     0.105 A 
ATOM     20  HN  UNL d   1      -1.487   1.674  -2.422  1.00  0.00     0.165 HD
ATOM     21  C   UNL d   1       1.146  -0.198  -1.642  0.00  0.00     0.105 A 
ATOM     22  N   UNL d   1       0.580  -1.266  -1.030  0.00  0.00    -0.358 N 
ATOM     23  HN  UNL d   1       1.137  -2.028  -0.642  1.00  0.00     0.165 HD
BRANCH  17  24
ATOM     24  C   UNL d   1      -3.018  -0.285  -1.656  0.00  0.00     0.196 C 
ATOM     25  O   UNL d   1      -3.670  -1.293  -1.859  0.00  0.00    -0.645 OA
BRANCH  24  26
ATOM     26  OXT UNL d   1      -3.591   0.936  -1.710  0.00  0.00    -0.772 OA
ATOM     27  HXT UNL d   1      -4.519   0.758  -1.960  0.00  0.00     0.167 HD
ENDBRANCH  24  26
ENDBRANCH  17  24
ENDBRANCH  13  16
ENDBRANCH  10  12
ENDBRANCH   1  10
TORSDOF 5
