REMARK  6 active torsions:
REMARK  status: ('A' for Active; 'I' for Inactive)
REMARK    1  A    between atoms: N_7  and  C_1 
REMARK    2  A    between atoms: N_8  and  C_2 
REMARK    3  A    between atoms: C_9  and  N_7 
REMARK    4  A    between atoms: C_10  and  N_8 
REMARK    5  A    between atoms: C_11  and  C_9 
REMARK    6  A    between atoms: C_12  and  C_10 
ROOT
ATOM      1  C   UNL d   1       0.684  -1.452   0.009  0.00  0.00     0.114 C 
ATOM      2  C   UNL d   1      -0.691  -1.466  -0.019  0.00  0.00     0.114 C 
ATOM      3  C   UNL d   1       0.717   0.034   0.052  0.00  0.00     0.252 C 
ATOM      4  C   UNL d   1      -0.755   0.014  -0.121  0.00  0.00     0.252 C 
ATOM      5  O   UNL d   1       1.534   0.917   0.125  0.00  0.00    -0.281 OA
ATOM      6  O   UNL d   1      -1.587   0.880  -0.214  0.00  0.00    -0.281 OA
ENDROOT
BRANCH   1   7
ATOM      7  N   UNL d   1       1.703  -2.292   0.027  0.00  0.00    -0.385 N 
ATOM      8  H   UNL d   1       2.631  -1.904   0.218  0.00  0.00     0.159 HD
BRANCH   7   9
ATOM      9  C   UNL d   1       1.800  -3.357  -0.979  0.00  0.00     0.119 C 
BRANCH   9  10
ATOM     10  C   UNL d   1       2.650  -2.857  -2.152  0.00  0.00     0.015 C 
ATOM     11  C   UNL d   1       2.799  -3.897  -3.248  0.00  0.00     0.006 C 
ENDBRANCH   9  10
ENDBRANCH   7   9
ENDBRANCH   1   7
BRANCH   2  12
ATOM     12  N   UNL d   1      -1.690  -2.333   0.012  0.00  0.00    -0.385 N 
ATOM     13  H   UNL d   1      -2.637  -1.968  -0.123  0.00  0.00     0.159 HD
BRANCH  12  14
ATOM     14  C   UNL d   1      -1.693  -3.394   1.024  0.00  0.00     0.119 C 
BRANCH  14  15
ATOM     15  C   UNL d   1      -2.411  -4.639   0.516  0.00  0.00     0.015 C 
ATOM     16  C   UNL d   1      -1.606  -5.377  -0.542  0.00  0.00     0.006 C 
ENDBRANCH  14  15
ENDBRANCH  12  14
ENDBRANCH   2  12
TORSDOF 6
