REMARK  4 active torsions:
REMARK  status: ('A' for Active; 'I' for Inactive)
REMARK    1  A    between atoms: N_7  and  C_1 
REMARK    2  A    between atoms: C_4  and  O_10 
REMARK    3  A    between atoms: C_11  and  N_7 
REMARK    4  A    between atoms: O_10  and  C_15 
ROOT
ATOM      1  N   UNL d   1      -0.457   3.075  -0.090  0.00  0.00    -0.355 N 
ATOM      2  H   UNL d   1       0.312   3.401  -0.663  0.00  0.00     0.166 HD
ENDROOT
BRANCH   1   3
ATOM      3  C   UNL d   1      -0.624   1.670  -0.102  0.00  0.00     0.047 A 
ATOM      4  C   UNL d   1       0.492   0.795  -0.059  0.00  0.00     0.017 A 
ATOM      5  C   UNL d   1       0.226  -0.594  -0.021  0.00  0.00     0.044 A 
ATOM      6  C   UNL d   1       1.841   1.226  -0.034  0.00  0.00     0.016 A 
ATOM      7  C   UNL d   1       1.291  -1.484   0.024  0.00  0.00     0.030 A 
ATOM      8  N   UNL d   1      -1.013  -1.104  -0.014  0.00  0.00    -0.359 N 
ATOM      9  C   UNL d   1       2.619  -1.050   0.035  0.00  0.00     0.002 A 
ATOM     10  C   UNL d   1       2.896   0.308   0.008  0.00  0.00     0.001 A 
ATOM     11  C   UNL d   1      -2.063  -0.260  -0.045  0.00  0.00     0.007 A 
ATOM     12  HN  UNL d   1      -1.159  -2.113   0.013  1.00  0.00     0.166 HD
ATOM     13  C   UNL d   1      -1.910   1.116  -0.093  0.00  0.00     0.055 A 
ATOM     14  C   UNL d   1      -3.438  -0.856  -0.012  0.00  0.00     0.068 C 
ENDBRANCH   1   3
BRANCH   1  15
ATOM     15  C   UNL d   1      -1.334   4.081   0.350  0.00  0.00     0.032 A 
ATOM     16  C   UNL d   1      -2.171   3.904   1.461  0.00  0.00     0.032 A 
ATOM     17  C   UNL d   1      -3.068   4.900   1.868  0.00  0.00     0.039 A 
ATOM     18  C   UNL d   1      -3.124   6.107   1.179  0.00  0.00     0.078 A 
ATOM     19  C   UNL d   1      -2.330   6.273   0.041  0.00  0.00     0.039 A 
ATOM     20  C   UNL d   1      -1.441   5.274  -0.367  0.00  0.00     0.032 A 
BRANCH  18  21
ATOM     21  O   UNL d   1      -3.898   7.184   1.486  0.00  0.00    -0.255 OA
BRANCH  21  22
ATOM     22  C   UNL d   1      -4.403   7.318   2.805  0.00  0.00     0.530 C 
ATOM     23  F   UNL d   1      -3.614   6.749   3.741  0.00  0.00    -0.144 F 
ATOM     24  F   UNL d   1      -4.491   8.637   3.093  0.00  0.00    -0.144 F 
ATOM     25  F   UNL d   1      -5.641   6.786   2.882  0.00  0.00    -0.144 F 
ENDBRANCH  21  22
ENDBRANCH  18  21
ENDBRANCH   1  15
TORSDOF 4
