REMARK  3 active torsions:
REMARK  status: ('A' for Active; 'I' for Inactive)
REMARK    1  A    between atoms: S_6  and  C_1 
REMARK    2  A    between atoms: C_11  and  S_6 
REMARK    3  A    between atoms: N_13  and  C_12 
ROOT
ATOM      1  C   UNL d   1       2.386  -0.511  -0.173  0.00  0.00     0.096 C 
ATOM      2  C   UNL d   1       2.350   0.882  -0.259  0.00  0.00     0.085 C 
ATOM      3  N   UNL d   1       1.268  -1.261  -0.013  0.00  0.00    -0.349 N 
ATOM      4  HN  UNL d   1       1.333  -2.275   0.078  1.00  0.00     0.166 HD
ATOM      5  C   UNL d   1       1.113   1.537  -0.077  0.00  0.00    -0.026 C 
ATOM      6  C   UNL d   1      -0.068   0.755   0.006  0.00  0.00    -0.002 A 
ATOM      7  C   UNL d   1       3.531   1.617  -0.590  0.00  0.00     0.103 C 
ATOM      8  C   UNL d   1       0.074  -0.650   0.025  0.00  0.00     0.043 A 
ATOM      9  N   UNL d   1       4.469   2.232  -0.905  0.00  0.00    -0.191 NA
ATOM     10  C   UNL d   1       1.029   3.044   0.015  0.00  0.00     0.050 C 
ATOM     11  C   UNL d   1      -1.370   1.308   0.028  0.00  0.00     0.014 A 
ATOM     12  C   UNL d   1      -1.069  -1.438   0.065  0.00  0.00     0.030 A 
ATOM     13  C   UNL d   1      -2.502   0.495   0.022  0.00  0.00     0.001 A 
ATOM     14  C   UNL d   1      -2.351  -0.883   0.042  0.00  0.00     0.002 A 
ENDROOT
BRANCH   1  15
ATOM     15  S   UNL d   1       3.921  -1.425  -0.063  0.00  0.00    -0.069 SA
BRANCH  15  16
ATOM     16  C   UNL d   1       4.206  -1.987  -1.742  0.00  0.00     0.028 A 
ATOM     17  C   UNL d   1       5.411  -1.665  -2.408  0.00  0.00     0.023 A 
ATOM     18  C   UNL d   1       5.685  -2.267  -3.645  0.00  0.00     0.024 A 
ATOM     19  C   UNL d   1       4.757  -3.115  -4.251  0.00  0.00     0.002 A 
ATOM     20  C   UNL d   1       3.551  -3.393  -3.614  0.00  0.00     0.001 A 
ATOM     21  C   UNL d   1       3.278  -2.836  -2.363  0.00  0.00     0.021 A 
BRANCH  17  22
ATOM     22  N   UNL d   1       6.450  -0.959  -1.768  0.00  0.00    -0.302 NA
ATOM     23  H   UNL d   1       6.109  -0.339  -1.036  0.00  0.00     0.124 HD
ATOM     24  H   UNL d   1       7.082  -0.486  -2.405  0.00  0.00     0.124 HD
ENDBRANCH  17  22
ENDBRANCH  15  16
ENDBRANCH   1  15
TORSDOF 3
