REMARK  1 active torsions:
REMARK  status: ('A' for Active; 'I' for Inactive)
REMARK    1  A    between atoms: C_2  and  C_1 
ROOT
ATOM      1  C   UNL d   1       0.592  -1.562   0.473  0.00  0.00     0.153 C 
ATOM      2  N   UNL d   1       1.837  -1.002  -0.019  0.00  0.00    -0.348 N 
ATOM      3  C   UNL d   1      -0.593  -0.667   0.170  0.00  0.00    -0.024 A 
ATOM      4  C   UNL d   1       2.105   0.324  -0.154  0.00  0.00     0.222 C 
ATOM      5  C   UNL d   1      -0.412   0.714  -0.009  0.00  0.00    -0.041 A 
ATOM      6  C   UNL d   1       0.970   1.315   0.001  0.00  0.00     0.142 C 
ATOM      7  O   UNL d   1       3.260   0.692  -0.377  0.00  0.00    -0.273 OA
ATOM      8  C   UNL d   1      -1.889  -1.204   0.090  0.00  0.00     0.010 A 
ATOM      9  C   UNL d   1      -1.528   1.544  -0.188  0.00  0.00     0.008 A 
ATOM     10  C   UNL d   1      -2.989  -0.374  -0.127  0.00  0.00     0.001 A 
ATOM     11  C   UNL d   1      -2.810   1.001  -0.246  0.00  0.00     0.001 A 
ATOM     12  H   UNL d   1       2.644  -1.608  -0.087  0.00  0.00     0.163 HD
ENDROOT
BRANCH   1  13
ATOM     13  C   UNL d   1       0.707  -1.926   1.952  0.00  0.00    -0.009 A 
ATOM     14  C   UNL d   1       0.453  -3.224   2.435  0.00  0.00     0.044 A 
ATOM     15  C   UNL d   1       0.579  -3.526   3.797  0.00  0.00     0.048 A 
ATOM     16 CL   UNL d   1      -0.024  -4.523   1.397  0.00  0.00    -0.084 Cl
ATOM     17  C   UNL d   1       0.949  -2.534   4.699  0.00  0.00     0.035 A 
ATOM     18  C   UNL d   1       1.191  -1.241   4.255  0.00  0.00     0.024 A 
ATOM     19 CL   UNL d   1       1.109  -2.909   6.370  0.00  0.00    -0.084 Cl
ATOM     20  C   UNL d   1       1.068  -0.940   2.896  0.00  0.00     0.013 A 
ENDBRANCH   1  13
TORSDOF 1
