REMARK  4 active torsions:
REMARK  status: ('A' for Active; 'I' for Inactive)
REMARK    1  A    between atoms: N_5  and  C_1 
REMARK    2  A    between atoms: C_4  and  C_10 
REMARK    3  A    between atoms: C_6  and  C_15 
REMARK       I    between atoms: N_7  and  C_6 
REMARK    4  A    between atoms: C_11  and  N_7 
ROOT
ATOM      1  N   UNL d   1       0.430   2.735  -0.191  0.00  0.00    -0.255 NA
ATOM      2  C   UNL d   1      -0.017   5.588   0.132  0.00  0.00     0.080 C 
ATOM      3  C   UNL d   1       0.064   3.243   1.134  0.00  0.00     0.099 C 
ATOM      4  C   UNL d   1      -0.074   3.502  -1.328  0.00  0.00     0.099 C 
ATOM      5  C   UNL d   1       0.367   4.963  -1.214  0.00  0.00     0.029 C 
ATOM      6  C   UNL d   1       0.517   4.701   1.269  0.00  0.00     0.029 C 
ENDROOT
BRANCH   2   7
ATOM      7  C   UNL d   1      -1.525   5.839   0.282  0.00  0.00     0.227 C 
ATOM      8  N   UNL d   1      -2.048   6.653  -0.707  0.00  0.00    -0.313 N 
ATOM      9  H   UNL d   1      -1.418   7.057  -1.381  0.00  0.00     0.170 HD
ATOM     10  O   UNL d   1      -2.146   5.370   1.232  0.00  0.00    -0.273 OA
BRANCH   8  11
ATOM     11  C   UNL d   1      -3.415   6.939  -0.867  0.00  0.00     0.108 A 
ATOM     12  N   UNL d   1      -4.323   6.420  -0.025  0.00  0.00    -0.342 N 
ATOM     13  C   UNL d   1      -5.631   6.618  -0.254  0.00  0.00     0.043 A 
ATOM     14  HN  UNL d   1      -4.021   5.878   0.784  1.00  0.00     0.167 HD
ATOM     15  C   UNL d   1      -6.565   6.054   0.605  0.00  0.00     0.030 A 
ATOM     16  C   UNL d   1      -6.098   7.361  -1.353  0.00  0.00    -0.009 A 
ATOM     17  C   UNL d   1      -7.939   6.176   0.378  0.00  0.00     0.002 A 
ATOM     18  C   UNL d   1      -8.397   6.888  -0.724  0.00  0.00     0.001 A 
ATOM     19  C   UNL d   1      -7.480   7.492  -1.584  0.00  0.00     0.013 A 
ATOM     20  C   UNL d   1      -5.142   7.937  -2.196  0.00  0.00     0.017 A 
ATOM     21  C   UNL d   1      -3.786   7.724  -1.951  0.00  0.00     0.049 A 
ENDBRANCH   8  11
ENDBRANCH   2   7
BRANCH   1  22
ATOM     22  C   UNL d   1       0.259   1.351  -0.325  0.00  0.00     0.159 A 
ATOM     23  N   UNL d   1       0.042   0.842  -1.549  0.00  0.00    -0.329 N 
ATOM     24  C   UNL d   1      -0.088  -0.502  -1.693  0.00  0.00     0.120 A 
ATOM     25  HN  UNL d   1      -0.024   1.457  -2.359  1.00  0.00     0.168 HD
ATOM     26  C   UNL d   1       0.008  -1.359  -0.617  0.00  0.00     0.051 A 
ATOM     27  C   UNL d   1       0.236  -0.764   0.595  0.00  0.00     0.093 A 
ATOM     28  N   UNL d   1       0.362   0.564   0.757  0.00  0.00    -0.343 N 
ATOM     29  HN  UNL d   1       0.533   0.964   1.679  1.00  0.00     0.167 HD
BRANCH  24  30
ATOM     30  C   UNL d   1      -0.337  -1.071  -3.076  0.00  0.00     0.432 C 
ATOM     31  F   UNL d   1      -0.446  -0.135  -4.061  0.00  0.00    -0.165 F 
ATOM     32  F   UNL d   1       0.655  -1.919  -3.478  0.00  0.00    -0.165 F 
ATOM     33  F   UNL d   1      -1.487  -1.806  -3.136  0.00  0.00    -0.165 F 
ENDBRANCH  24  30
ENDBRANCH   1  22
TORSDOF 4
