REMARK  11 active torsions:
REMARK  status: ('A' for Active; 'I' for Inactive)
REMARK    1  A    between atoms: O_11  and  C_1 
REMARK    2  A    between atoms: C_2  and  O_10 
REMARK       I    between atoms: C_3  and  N_5 
REMARK       I    between atoms: N_6  and  C_3 
REMARK    3  A    between atoms: C_4  and  C_26 
REMARK       I    between atoms: N_8  and  C_4 
REMARK    4  A    between atoms: N_5  and  N_8 
REMARK    5  A    between atoms: C_22  and  N_6 
REMARK       I    between atoms: C_7  and  N_9 
REMARK    6  A    between atoms: C_35  and  C_7 
REMARK    7  A    between atoms: N_9  and  C_23 
REMARK    8  A    between atoms: O_10  and  C_24 
REMARK    9  A    between atoms: C_25  and  O_11 
REMARK   10  A    between atoms: S_21  and  C_35 
REMARK   11  A    between atoms: C_26  and  S_21 
ROOT
ATOM      1  C   UNL d   1       7.573  -9.694  -2.575  0.00  0.00     0.245 C 
ATOM      2  N   UNL d   1       8.394  -8.853  -1.867  0.00  0.00    -0.265 N 
ATOM      3  O   UNL d   1       7.990 -10.501  -3.402  0.00  0.00    -0.271 OA
ATOM      4  H   UNL d   1       8.045  -8.182  -1.179  0.00  0.00     0.190 HD
ENDROOT
BRANCH   1   5
ATOM      5  C   UNL d   1       6.097  -9.598  -2.220  0.00  0.00     0.178 C 
BRANCH   5   6
ATOM      6  S   UNL d   1       5.567  -7.853  -2.203  0.00  0.00    -0.150 SA
BRANCH   6   7
ATOM      7  C   UNL d   1       3.779  -8.090  -1.916  0.00  0.00     0.177 C 
BRANCH   7   8
ATOM      8  C   UNL d   1       3.114  -6.734  -1.708  0.00  0.00     0.231 C 
ATOM      9  N   UNL d   1       3.364  -5.848  -2.744  0.00  0.00    -0.327 N 
ATOM     10  H   UNL d   1       3.908  -6.215  -3.517  0.00  0.00     0.169 HD
ATOM     11  O   UNL d   1       2.401  -6.526  -0.728  0.00  0.00    -0.272 OA
BRANCH   9  12
ATOM     12  C   UNL d   1       3.048  -4.478  -2.801  0.00  0.00     0.034 A 
ATOM     13  C   UNL d   1       2.508  -3.756  -1.738  0.00  0.00     0.032 A 
ATOM     14  C   UNL d   1       2.240  -2.386  -1.865  0.00  0.00     0.039 A 
ATOM     15  C   UNL d   1       2.469  -1.736  -3.078  0.00  0.00     0.078 A 
ATOM     16  C   UNL d   1       3.051  -2.448  -4.126  0.00  0.00     0.039 A 
ATOM     17  C   UNL d   1       3.339  -3.808  -3.994  0.00  0.00     0.032 A 
BRANCH  15  18
ATOM     18  O   UNL d   1       2.199  -0.434  -3.364  0.00  0.00    -0.255 OA
BRANCH  18  19
ATOM     19  C   UNL d   1       1.213   0.247  -2.603  0.00  0.00     0.530 C 
ATOM     20  F   UNL d   1       0.278  -0.573  -2.078  0.00  0.00    -0.144 F 
ATOM     21  F   UNL d   1       0.577   1.119  -3.419  0.00  0.00    -0.144 F 
ATOM     22  F   UNL d   1       1.800   0.949  -1.611  0.00  0.00    -0.144 F 
ENDBRANCH  18  19
ENDBRANCH  15  18
ENDBRANCH   9  12
ENDBRANCH   7   8
ENDBRANCH   6   7
ENDBRANCH   5   6
ENDBRANCH   1   5
BRANCH   2  23
ATOM     23  N   UNL d   1       9.782  -8.908  -2.031  0.00  0.00    -0.249 N 
ATOM     24  C   UNL d   1      10.547  -8.190  -1.130  0.00  0.00     0.339 C 
ATOM     25  N   UNL d   1      11.887  -8.235  -1.437  0.00  0.00    -0.308 N 
ATOM     26  O   UNL d   1      10.022  -7.621  -0.178  0.00  0.00    -0.245 OA
ATOM     27  H   UNL d   1      12.141  -8.827  -2.210  0.00  0.00     0.170 HD
ATOM     28  H   UNL d   1      10.098  -9.040  -2.991  0.00  0.00     0.192 HD
BRANCH  25  29
ATOM     29  C   UNL d   1      12.947  -7.620  -0.737  0.00  0.00     0.036 A 
ATOM     30  C   UNL d   1      12.783  -6.825   0.399  0.00  0.00     0.032 A 
ATOM     31  C   UNL d   1      13.892  -6.259   1.051  0.00  0.00     0.039 A 
ATOM     32  C   UNL d   1      15.180  -6.499   0.582  0.00  0.00     0.078 A 
ATOM     33  C   UNL d   1      15.343  -7.268  -0.572  0.00  0.00     0.039 A 
ATOM     34  C   UNL d   1      14.239  -7.827  -1.224  0.00  0.00     0.032 A 
BRANCH  32  35
ATOM     35  O   UNL d   1      16.350  -6.072   1.134  0.00  0.00    -0.255 OA
BRANCH  35  36
ATOM     36  C   UNL d   1      16.325  -5.465   2.416  0.00  0.00     0.530 C 
ATOM     37  F   UNL d   1      15.508  -6.108   3.276  0.00  0.00    -0.144 F 
ATOM     38  F   UNL d   1      17.575  -5.506   2.928  0.00  0.00    -0.144 F 
ATOM     39  F   UNL d   1      15.951  -4.173   2.317  0.00  0.00    -0.144 F 
ENDBRANCH  35  36
ENDBRANCH  32  35
ENDBRANCH  25  29
ENDBRANCH   2  23
TORSDOF 11
