REMARK  4 active torsions:
REMARK  status: ('A' for Active; 'I' for Inactive)
REMARK    1  A    between atoms: C_7  and  C_1 
REMARK    2  A    between atoms: C_13  and  C_7 
REMARK       I    between atoms: C_8  and  N_10 
REMARK    3  A    between atoms: C_9  and  C_8 
REMARK    4  A    between atoms: N_10  and  C_21 
ROOT
ATOM      1  C   UNL d   1      -3.843   1.337   0.115  0.00  0.00     0.015 A 
ATOM      2  C   UNL d   1      -4.972   1.812  -0.573  0.00  0.00     0.018 A 
ATOM      3  C   UNL d   1      -4.037   0.531   1.237  0.00  0.00     0.018 A 
ATOM      4  C   UNL d   1      -6.461   0.641   0.953  0.00  0.00     0.035 A 
ATOM      5  C   UNL d   1      -6.265   1.475  -0.154  0.00  0.00     0.030 A 
ATOM      6  C   UNL d   1      -5.334   0.172   1.639  0.00  0.00     0.030 A 
ENDROOT
BRANCH   1   7
ATOM      7  C   UNL d   1      -2.497   1.714  -0.411  0.00  0.00     0.193 C 
ATOM      8  O   UNL d   1      -2.430   2.713  -1.129  0.00  0.00    -0.287 OA
BRANCH   7   9
ATOM      9  C   UNL d   1      -1.233   0.937  -0.154  0.00  0.00     0.028 C 
ATOM     10  C   UNL d   1      -0.043   1.663   0.142  0.00  0.00    -0.041 C 
ATOM     11  C   UNL d   1       1.209   0.992   0.147  0.00  0.00    -0.049 C 
ATOM     12  C   UNL d   1      -0.070   3.153   0.408  0.00  0.00     0.050 C 
ATOM     13  C   UNL d   1       2.517   1.754   0.235  0.00  0.00     0.049 C 
ATOM     14  C   UNL d   1       1.256  -0.420   0.037  0.00  0.00    -0.049 C 
ATOM     15  C   UNL d   1       0.058  -1.155  -0.132  0.00  0.00    -0.049 C 
ATOM     16  C   UNL d   1       2.606  -1.111   0.055  0.00  0.00     0.049 C 
ATOM     17  C   UNL d   1      -1.172  -0.470  -0.343  0.00  0.00    -0.041 C 
ATOM     18  C   UNL d   1       0.115  -2.668  -0.139  0.00  0.00     0.049 C 
ATOM     19  C   UNL d   1      -2.366  -1.276  -0.804  0.00  0.00     0.050 C 
ENDBRANCH   7   9
ENDBRANCH   1   7
BRANCH   4  20
ATOM     20  N   UNL d   1      -7.795   0.358   1.321  0.00  0.00    -0.323 N 
ATOM     21  C   UNL d   1      -8.220  -0.457   2.359  0.00  0.00     0.256 C 
ATOM     22  O   UNL d   1      -7.515  -1.139   3.081  0.00  0.00    -0.267 OA
ATOM     23  H   UNL d   1      -8.501   0.872   0.810  0.00  0.00     0.169 HD
BRANCH  21  24
ATOM     24  C   UNL d   1      -9.685  -0.433   2.645  0.00  0.00     0.034 A 
ATOM     25  C   UNL d   1     -10.644  -0.293   1.636  0.00  0.00     0.042 A 
ATOM     26  C   UNL d   1     -11.999  -0.181   1.974  0.00  0.00     0.056 A 
ATOM     27 CL   UNL d   1     -13.126   0.042   0.682  0.00  0.00    -0.083 Cl
ATOM     28  C   UNL d   1     -12.400  -0.234   3.315  0.00  0.00     0.055 A 
ATOM     29  C   UNL d   1     -11.446  -0.433   4.316  0.00  0.00     0.026 A 
ATOM     30 CL   UNL d   1     -14.048  -0.045   3.800  0.00  0.00    -0.083 Cl
ATOM     31  C   UNL d   1     -10.094  -0.537   3.981  0.00  0.00     0.019 A 
ENDBRANCH  21  24
ENDBRANCH   4  20
TORSDOF 4
