REMARK  8 active torsions:
REMARK  status: ('A' for Active; 'I' for Inactive)
REMARK    1  A    between atoms: C_5  and  C_1 
REMARK    2  A    between atoms: N_4  and  C_13 
REMARK    3  A    between atoms: O_12  and  C_5 
REMARK    4  A    between atoms: C_19  and  C_8 
REMARK    5  A    between atoms: N_20  and  C_8 
REMARK    6  A    between atoms: N_9  and  O_12 
REMARK    7  A    between atoms: O_21  and  C_19 
REMARK    8  A    between atoms: C_22  and  O_21 
ROOT
ATOM      1  C   UNL d   1      -5.097   1.027  -0.002  0.00  0.00     0.100 C 
ATOM      2  N   UNL d   1      -3.969   0.391   0.094  0.00  0.00    -0.248 N 
ATOM      3  HN  UNL d   1      -3.899  -0.622   0.193  1.00  0.00     0.196 HD
ENDROOT
BRANCH   1   4
ATOM      4  C   UNL d   1      -6.389   0.186   0.027  0.00  0.00     0.247 C 
BRANCH   4   5
ATOM      5  O   UNL d   1      -6.829   0.038   1.376  0.00  0.00    -0.344 OA
BRANCH   5   6
ATOM      6  C   UNL d   1      -7.912  -0.780   1.565  0.00  0.00     0.069 A 
ATOM      7  C   UNL d   1      -7.963  -1.440   2.799  0.00  0.00     0.039 A 
ATOM      8  C   UNL d   1      -9.043  -2.268   3.128  0.00  0.00     0.039 A 
ATOM      9  C   UNL d   1     -10.092  -2.423   2.215  0.00  0.00     0.103 A 
ATOM     10  C   UNL d   1     -10.057  -1.760   0.982  0.00  0.00     0.039 A 
ATOM     11  C   UNL d   1      -8.966  -0.941   0.660  0.00  0.00     0.039 A 
BRANCH   9  12
ATOM     12  N   UNL d   1     -11.240  -3.274   2.556  0.00  0.00    -0.116 N 
ATOM     13  O   UNL d   1     -11.226  -3.852   3.652  0.00  0.00    -0.532 OA
ATOM     14  O   UNL d   1     -12.158  -3.362   1.728  0.00  0.00    -0.532 OA
ENDBRANCH   9  12
ENDBRANCH   5   6
ENDBRANCH   4   5
ENDBRANCH   1   4
BRANCH   1  15
ATOM     15  N   UNL d   1      -5.221   2.392  -0.121  0.00  0.00    -0.289 NA
ATOM     16  H   UNL d   1      -4.382   2.905   0.131  0.00  0.00     0.125 HD
ATOM     17  H   UNL d   1      -6.072   2.802   0.247  0.00  0.00     0.125 HD
ENDBRANCH   1  15
BRANCH   2  18
ATOM     18  O   UNL d   1      -2.845   1.258   0.045  0.00  0.00    -0.193 OA
BRANCH  18  19
ATOM     19  C   UNL d   1      -1.690   0.500   0.090  0.00  0.00     0.333 C 
ATOM     20  O   UNL d   1      -1.659  -0.730   0.161  0.00  0.00    -0.256 OA
BRANCH  19  21
ATOM     21  C   UNL d   1      -0.450   1.276   0.048  0.00  0.00     0.134 A 
ATOM     22  N   UNL d   1      -0.395   2.617  -0.041  0.00  0.00    -0.255 N 
ATOM     23  O   UNL d   1       0.958   2.943  -0.053  0.00  0.00    -0.242 OA
ATOM     24  HN  UNL d   1      -1.183   3.263  -0.089  1.00  0.00     0.195 HD
ATOM     25  C   UNL d   1       1.704   1.808   0.032  0.00  0.00     0.075 A 
ATOM     26  C   UNL d   1       0.862   0.729   0.096  0.00  0.00     0.072 A 
ATOM     27  C   UNL d   1       3.172   1.957   0.038  0.00  0.00     0.079 C 
ENDBRANCH  19  21
ENDBRANCH  18  19
ENDBRANCH   2  18
TORSDOF 8
