REMARK  7 active torsions:
REMARK  status: ('A' for Active; 'I' for Inactive)
REMARK    1  A    between atoms: N_2  and  C_1 
REMARK    2  A    between atoms: N_6  and  C_1 
REMARK    3  A    between atoms: C_8  and  N_2 
REMARK    4  A    between atoms: C_14  and  N_6 
REMARK    5  A    between atoms: C_15  and  N_6 
REMARK    6  A    between atoms: C_12  and  C_14 
REMARK    7  A    between atoms: C_18  and  C_15 
ROOT
ATOM      1  N   UNL d   1       3.508   3.451  -1.295  0.00  0.00    -0.197 NA
ATOM      2  C   UNL d   1       3.249   2.402  -1.730  0.00  0.00     0.060 C 
ATOM      3  C   UNL d   1       2.884   1.083  -2.259  0.00  0.00     0.143 C 
ENDROOT
BRANCH   3   4
ATOM      4  C   UNL d   1       2.851  -0.000  -1.174  0.00  0.00     0.139 C 
BRANCH   4   5
ATOM      5  N   UNL d   1       1.979   0.339  -0.030  0.00  0.00    -0.357 N 
BRANCH   5   6
ATOM      6  C   UNL d   1       0.579   0.345  -0.197  0.00  0.00     0.174 C 
ATOM      7  S   UNL d   1      -0.205  -0.897  -1.026  0.00  0.00    -0.041 SA
BRANCH   6   8
ATOM      8  N   UNL d   1      -0.011   1.508   0.297  0.00  0.00    -0.333 N 
ATOM      9  H   UNL d   1       0.608   2.309   0.253  0.00  0.00     0.168 HD
BRANCH   8  10
ATOM     10  C   UNL d   1      -1.387   1.841   0.351  0.00  0.00     0.034 A 
ATOM     11  C   UNL d   1      -2.382   0.907   0.637  0.00  0.00     0.036 A 
ATOM     12  C   UNL d   1      -3.746   1.238   0.550  0.00  0.00    -0.054 A 
ATOM     13  C   UNL d   1      -4.765   0.151   0.758  0.00  0.00     0.049 C 
ATOM     14  C   UNL d   1      -4.118   2.565   0.268  0.00  0.00    -0.056 A 
ATOM     15  C   UNL d   1      -3.113   3.523   0.068  0.00  0.00     0.009 A 
ATOM     16  C   UNL d   1      -5.563   2.964   0.146  0.00  0.00     0.049 C 
ATOM     17  C   UNL d   1      -1.760   3.165   0.113  0.00  0.00     0.030 A 
ENDBRANCH   8  10
ENDBRANCH   6   8
ENDBRANCH   5   6
BRANCH   5  18
ATOM     18  C   UNL d   1       2.647   0.939   1.140  0.00  0.00     0.125 C 
BRANCH  18  19
ATOM     19  C   UNL d   1       2.227   0.327   2.479  0.00  0.00     0.015 C 
ATOM     20  C   UNL d   1       2.470  -1.173   2.564  0.00  0.00     0.006 C 
ENDBRANCH  18  19
ENDBRANCH   5  18
ENDBRANCH   4   5
ENDBRANCH   3   4
TORSDOF 7
