REMARK  5 active torsions:
REMARK  status: ('A' for Active; 'I' for Inactive)
REMARK    1  A    between atoms: C_2  and  S_1 
REMARK    2  A    between atoms: N_3  and  S_1 
REMARK    3  A    between atoms: C_7  and  C_4 
REMARK    4  A    between atoms: C_5  and  N_6 
REMARK    5  A    between atoms: O_19  and  C_7 
ROOT
ATOM      1  N   UNL d   1       0.419   0.800  -1.436  0.00  0.00    -0.304 N 
ATOM      2  N   UNL d   1      -1.722   2.693  -1.061  0.00  0.00    -0.214 N 
ATOM      3  C   UNL d   1       0.593   2.250  -1.727  0.00  0.00     0.155 C 
ATOM      4  C   UNL d   1      -1.021   0.382  -1.492  0.00  0.00     0.155 C 
ATOM      5  C   UNL d   1      -0.338   3.149  -0.903  0.00  0.00     0.161 C 
ATOM      6  C   UNL d   1      -1.941   1.300  -0.659  0.00  0.00     0.161 C 
ENDROOT
BRANCH   1   7
ATOM      7  S   UNL d   1       1.327   0.086  -0.213  0.00  0.00     0.262 S 
ATOM      8  O   UNL d   1       0.900   0.712   1.021  0.00  0.00    -0.200 OA
ATOM      9  O   UNL d   1       1.252  -1.353  -0.359  0.00  0.00    -0.200 OA
BRANCH   7  10
ATOM     10  C   UNL d   1       3.016   0.556  -0.498  0.00  0.00     0.096 A 
ATOM     11  C   UNL d   1       3.767   0.095  -1.585  0.00  0.00     0.062 A 
ATOM     12  C   UNL d   1       5.134   0.427  -1.654  0.00  0.00     0.019 A 
ATOM     13  C   UNL d   1       5.742   1.198  -0.659  0.00  0.00     0.001 A 
ATOM     14  C   UNL d   1       4.992   1.648   0.421  0.00  0.00     0.002 A 
ATOM     15  C   UNL d   1       3.637   1.329   0.504  0.00  0.00     0.026 A 
BRANCH  11  16
ATOM     16  C   UNL d   1       3.276  -0.758  -2.696  0.00  0.00     0.294 C 
ATOM     17  O   UNL d   1       3.946  -1.643  -3.202  0.00  0.00    -0.259 OA
BRANCH  16  18
ATOM     18  O   UNL d   1       2.094  -0.300  -3.148  0.00  0.00    -0.322 OA
ATOM     19  C   UNL d   1       1.513  -1.050  -4.216  0.00  0.00     0.213 C 
ENDBRANCH  16  18
ENDBRANCH  11  16
ENDBRANCH   7  10
ENDBRANCH   1   7
BRANCH   2  20
ATOM     20  C   UNL d   1      -2.680   3.625  -0.703  0.00  0.00     0.679 A 
ATOM     21  N   UNL d   1      -3.806   3.223  -0.092  0.00  0.00    -0.202 N 
ATOM     22  C   UNL d   1      -4.737   4.160   0.175  0.00  0.00     0.107 A 
ATOM     23  HN  UNL d   1      -3.951   2.246   0.160  1.00  0.00     0.183 HD
ATOM     24  C   UNL d   1      -4.607   5.481  -0.165  0.00  0.00     0.035 A 
ATOM     25  C   UNL d   1      -3.435   5.803  -0.794  0.00  0.00     0.107 A 
ATOM     26  N   UNL d   1      -2.468   4.905  -1.058  0.00  0.00    -0.202 N 
ATOM     27  HN  UNL d   1      -1.600   5.187  -1.513  1.00  0.00     0.183 HD
ENDBRANCH   2  20
TORSDOF 5
