REMARK  2 active torsions:
REMARK  status: ('A' for Active; 'I' for Inactive)
REMARK    1  A    between atoms: C_13  and  C_16 
REMARK    2  A    between atoms: O_17  and  C_16 
ROOT
ATOM      1  N   UNL d   1      -0.401  -0.457  -0.196  0.00  0.00    -0.295 N 
ATOM      2  C   UNL d   1      -0.621   0.671   0.565  0.00  0.00     0.231 A 
ATOM      3  N   UNL d   1      -1.681   0.926   1.256  0.00  0.00    -0.288 N 
ATOM      4  HN  UNL d   1      -1.750   1.782   1.807  1.00  0.00     0.172 HD
ATOM      5  C   UNL d   1       0.794  -0.533  -1.021  0.00  0.00     0.234 C 
ATOM      6  C   UNL d   1      -1.435  -1.360  -0.299  0.00  0.00     0.109 A 
ATOM      7  C   UNL d   1      -2.718   0.017   1.235  0.00  0.00     0.255 A 
ATOM      8  C   UNL d   1      -2.598  -1.178   0.337  0.00  0.00     0.022 A 
ATOM      9  O   UNL d   1       0.342   1.639   0.539  0.00  0.00    -0.313 OA
ATOM     10  O   UNL d   1       1.948  -0.793  -0.200  0.00  0.00    -0.356 OA
ATOM     11  C   UNL d   1       1.014   0.837  -1.633  0.00  0.00     0.089 C 
ATOM     12  C   UNL d   1       1.471   1.511  -0.361  0.00  0.00     0.167 C 
ATOM     13  C   UNL d   1       2.467   0.505   0.207  0.00  0.00     0.177 C 
ATOM     14  O   UNL d   1      -3.741   0.168   1.894  0.00  0.00    -0.268 OA
ATOM     15  C   UNL d   1      -3.791  -2.062   0.196  0.00  0.00     0.056 C 
ENDROOT
BRANCH  13  16
ATOM     16  C   UNL d   1       3.869   0.664  -0.391  0.00  0.00     0.198 C 
BRANCH  16  17
ATOM     17  O   UNL d   1       4.761  -0.287   0.184  0.00  0.00    -0.398 OA
ATOM     18  H   UNL d   1       4.300  -1.147   0.166  0.00  0.00     0.209 HD
ENDBRANCH  16  17
ENDBRANCH  13  16
TORSDOF 2
