REMARK  1 active torsions:
REMARK  status: ('A' for Active; 'I' for Inactive)
REMARK    1  A    between atoms: C_9  and  C_5 
ROOT
ATOM      1  N   UNL d   1      -0.490   1.079  -0.902  0.00  0.00    -0.316 N 
ATOM      2  N   UNL d   1      -1.260  -0.385   0.594  0.00  0.00    -0.340 N 
ATOM      3  HN  UNL d   1      -1.307  -1.091   1.329  1.00  0.00     0.167 HD
ATOM      4  C   UNL d   1      -0.189   0.231   0.154  0.00  0.00     0.111 A 
ATOM      5  C   UNL d   1      -2.310   0.120  -0.142  0.00  0.00     0.060 A 
ATOM      6  C   UNL d   1      -1.850   0.978  -1.118  0.00  0.00     0.128 A 
ATOM      7  C   UNL d   1       0.454   1.892  -1.524  0.00  0.00     0.104 A 
ATOM      8  C   UNL d   1       1.151   0.210   0.619  0.00  0.00     0.050 A 
ATOM      9  C   UNL d   1       1.728   1.886  -1.079  0.00  0.00    -0.046 A 
ATOM     10  C   UNL d   1       2.071   1.008   0.041  0.00  0.00     0.012 A 
ATOM     11  C   UNL d   1       2.817   2.744  -1.641  0.00  0.00     0.049 C 
ENDROOT
BRANCH   5  12
ATOM     12  C   UNL d   1      -3.689  -0.134   0.246  0.00  0.00    -0.005 A 
ATOM     13  C   UNL d   1      -3.928  -1.112   1.221  0.00  0.00     0.053 A 
ATOM     14  C   UNL d   1      -5.152  -1.165   1.877  0.00  0.00     0.103 A 
ATOM     15  O   UNL d   1      -5.248  -2.034   2.933  0.00  0.00    -0.346 OA
ATOM     16  C   UNL d   1      -6.185  -0.299   1.515  0.00  0.00     0.102 A 
ATOM     17  C   UNL d   1      -6.125  -1.472   3.910  0.00  0.00     0.202 C 
ATOM     18  C   UNL d   1      -7.472  -1.152   3.278  0.00  0.00     0.202 C 
ATOM     19  O   UNL d   1      -7.372  -0.219   2.194  0.00  0.00    -0.346 OA
ATOM     20  C   UNL d   1      -5.998   0.595   0.463  0.00  0.00     0.040 A 
ATOM     21  C   UNL d   1      -4.750   0.686  -0.167  0.00  0.00     0.017 A 
ENDBRANCH   5  12
TORSDOF 1
