REMARK  11 active torsions:
REMARK  status: ('A' for Active; 'I' for Inactive)
REMARK    1  A    between atoms: N_4  and  C_1 
REMARK    2  A    between atoms: N_10  and  C_1 
REMARK    3  A    between atoms: C_2  and  C_6 
REMARK    4  A    between atoms: O_16  and  C_2 
REMARK    5  A    between atoms: O_20  and  C_3 
REMARK    6  A    between atoms: C_14  and  N_4 
REMARK    7  A    between atoms: O_21  and  C_7 
REMARK    8  A    between atoms: C_22  and  N_10 
REMARK    9  A    between atoms: C_15  and  C_23 
REMARK   10  A    between atoms: C_24  and  O_16 
REMARK   11  A    between atoms: C_23  and  C_22 
ROOT
ATOM      1  C   UNL d   1       1.051  -0.091  -0.012  0.00  0.00     0.172 C 
ATOM      2  S   UNL d   1       0.276   0.413   1.378  0.00  0.00    -0.041 SA
ENDROOT
BRANCH   1   3
ATOM      3  N   UNL d   1       0.466  -0.482  -1.189  0.00  0.00    -0.333 N 
ATOM      4  H   UNL d   1       0.834  -1.343  -1.573  0.00  0.00     0.168 HD
BRANCH   3   5
ATOM      5  C   UNL d   1      -0.686   0.044  -1.805  0.00  0.00     0.034 A 
ATOM      6  C   UNL d   1      -1.065   1.382  -1.644  0.00  0.00     0.030 A 
ATOM      7  C   UNL d   1      -2.134   1.907  -2.372  0.00  0.00     0.020 A 
ATOM      8  C   UNL d   1      -2.822   1.100  -3.281  0.00  0.00     0.039 A 
ATOM      9  C   UNL d   1      -2.469  -0.248  -3.423  0.00  0.00     0.020 A 
ATOM     10  C   UNL d   1      -1.395  -0.769  -2.695  0.00  0.00     0.030 A 
BRANCH   8  11
ATOM     11  C   UNL d   1      -3.946   1.698  -4.042  0.00  0.00     0.293 C 
ATOM     12  O   UNL d   1      -4.616   2.629  -3.640  0.00  0.00    -0.259 OA
BRANCH  11  13
ATOM     13  O   UNL d   1      -4.101   1.022  -5.207  0.00  0.00    -0.318 OA
BRANCH  13  14
ATOM     14  C   UNL d   1      -5.349   1.244  -5.875  0.00  0.00     0.174 C 
ATOM     15  C   UNL d   1      -6.335   0.223  -5.338  0.00  0.00     0.034 C 
ENDBRANCH  13  14
ENDBRANCH  11  13
ENDBRANCH   8  11
ENDBRANCH   3   5
ENDBRANCH   1   3
BRANCH   1  16
ATOM     16  N   UNL d   1       2.421  -0.178   0.013  0.00  0.00    -0.367 N 
ATOM     17  H   UNL d   1       2.792   0.167   0.893  0.00  0.00     0.161 HD
BRANCH  16  18
ATOM     18  C   UNL d   1       3.250   0.047  -1.165  0.00  0.00     0.126 C 
BRANCH  18  19
ATOM     19  C   UNL d   1       4.742   0.106  -0.833  0.00  0.00     0.058 C 
BRANCH  19  20
ATOM     20  C   UNL d   1       5.558   0.393  -2.070  0.00  0.00    -0.054 A 
ATOM     21  C   UNL d   1       6.016  -0.661  -2.878  0.00  0.00     0.046 A 
ATOM     22  C   UNL d   1       6.714  -0.421  -4.075  0.00  0.00     0.102 A 
ATOM     23  C   UNL d   1       6.945   0.907  -4.470  0.00  0.00     0.101 A 
ATOM     24  C   UNL d   1       6.499   1.955  -3.651  0.00  0.00     0.040 A 
ATOM     25  C   UNL d   1       5.812   1.706  -2.462  0.00  0.00     0.010 A 
BRANCH  22  26
ATOM     26  O   UNL d   1       7.178  -1.430  -4.877  0.00  0.00    -0.353 OA
ATOM     27  C   UNL d   1       6.889  -2.773  -4.515  0.00  0.00     0.210 C 
ENDBRANCH  22  26
BRANCH  23  28
ATOM     28  O   UNL d   1       7.564   1.375  -5.601  0.00  0.00    -0.353 OA
ATOM     29  C   UNL d   1       8.061   0.449  -6.553  0.00  0.00     0.210 C 
ENDBRANCH  23  28
ENDBRANCH  19  20
ENDBRANCH  18  19
ENDBRANCH  16  18
ENDBRANCH   1  16
TORSDOF 11
