REMARK  3 active torsions:
REMARK  status: ('A' for Active; 'I' for Inactive)
REMARK    1  A    between atoms: C_2  and  S_1 
REMARK    2  A    between atoms: N_3  and  S_1 
REMARK    3  A    between atoms: C_11  and  N_3 
ROOT
ATOM      1  S   UNL d   1       1.115  -0.281  -0.084  0.00  0.00     0.264 S 
ATOM      2  O   UNL d   1       0.638   1.085  -0.189  0.00  0.00    -0.200 OA
ATOM      3  O   UNL d   1       2.519  -0.524   0.144  0.00  0.00    -0.200 OA
ENDROOT
BRANCH   1   4
ATOM      4  C   UNL d   1       0.524  -1.153  -1.525  0.00  0.00     0.096 A 
ATOM      5  C   UNL d   1       1.121  -2.293  -2.079  0.00  0.00     0.031 A 
ATOM      6  C   UNL d   1       0.530  -2.899  -3.204  0.00  0.00     0.043 A 
ATOM      7  I   UNL d   1       2.847  -3.280  -1.401  0.00  0.00    -0.043 I 
ATOM      8  C   UNL d   1      -0.625  -2.369  -3.776  0.00  0.00     0.035 A 
ATOM      9  C   UNL d   1      -1.208  -1.227  -3.246  0.00  0.00     0.025 A 
ATOM     10 CL   UNL d   1      -1.332  -3.136  -5.143  0.00  0.00    -0.084 Cl
ATOM     11  C   UNL d   1      -0.636  -0.620  -2.127  0.00  0.00     0.028 A 
ENDBRANCH   1   4
BRANCH   1  12
ATOM     12  N   UNL d   1       0.202  -0.967   1.153  0.00  0.00    -0.281 N 
ATOM     13  H   UNL d   1      -0.098  -0.294   1.857  0.00  0.00     0.179 HD
BRANCH  12  14
ATOM     14  C   UNL d   1       0.453  -2.301   1.558  0.00  0.00     0.042 A 
ATOM     15  C   UNL d   1       1.552  -2.624   2.350  0.00  0.00     0.030 A 
ATOM     16  C   UNL d   1       1.763  -3.952   2.726  0.00  0.00     0.002 A 
ATOM     17  C   UNL d   1       0.872  -4.946   2.320  0.00  0.00     0.000 A 
ATOM     18  C   UNL d   1      -0.236  -4.615   1.541  0.00  0.00     0.002 A 
ATOM     19  C   UNL d   1      -0.449  -3.289   1.164  0.00  0.00     0.030 A 
ENDBRANCH  12  14
ENDBRANCH   1  12
TORSDOF 3
