REMARK  4 active torsions:
REMARK  status: ('A' for Active; 'I' for Inactive)
REMARK       I    between atoms: N_3  and  C_1 
REMARK       I    between atoms: N_4  and  C_1 
REMARK    1  A    between atoms: C_2  and  N_5 
REMARK    2  A    between atoms: C_9  and  N_4 
REMARK    3  A    between atoms: O_19  and  C_15 
REMARK    4  A    between atoms: C_24  and  O_19 
ROOT
ATOM      1  C   UNL d   1      -3.061   2.794   3.366  0.00  0.00     0.124 A 
ATOM      2  C   UNL d   1      -2.596   3.861   4.163  0.00  0.00     0.088 A 
ATOM      3  C   UNL d   1      -1.303   4.443   3.978  0.00  0.00     0.103 C 
ATOM      4  N   UNL d   1      -0.274   4.974   3.891  0.00  0.00    -0.191 NA
ATOM      5  N   UNL d   1      -4.254   2.214   3.646  0.00  0.00    -0.351 N 
ATOM      6  HN  UNL d   1      -4.596   1.437   3.080  1.00  0.00     0.166 HD
ATOM      7  C   UNL d   1      -3.373   4.319   5.226  0.00  0.00     0.028 A 
ATOM      8  C   UNL d   1      -4.987   2.677   4.686  0.00  0.00     0.090 A 
ATOM      9  C   UNL d   1      -4.594   3.722   5.497  0.00  0.00     0.019 A 
ENDROOT
BRANCH   1  10
ATOM     10  N   UNL d   1      -2.305   2.257   2.329  0.00  0.00    -0.364 N 
ATOM     11  C   UNL d   1      -2.533   0.847   1.964  0.00  0.00     0.144 C 
ATOM     12  C   UNL d   1      -1.200   0.075   1.928  0.00  0.00     0.147 C 
ATOM     13  N   UNL d   1      -0.109   0.683   1.139  0.00  0.00    -0.337 N 
ATOM     14  C   UNL d   1       0.811  -0.213   0.593  0.00  0.00     0.301 C 
ATOM     15  C   UNL d   1       0.330   2.017   1.563  0.00  0.00     0.129 C 
ATOM     16  N   UNL d   1       1.796   0.369  -0.194  0.00  0.00    -0.208 NA
ATOM     17  O   UNL d   1       0.719  -1.429   0.774  0.00  0.00    -0.254 OA
ATOM     18  H   UNL d   1       1.384   0.909  -0.945  0.00  0.00     0.138 HD
ATOM     19  C   UNL d   1      -0.470   3.152   0.934  0.00  0.00     0.040 C 
ATOM     20  C   UNL d   1      -1.976   3.116   1.188  0.00  0.00     0.126 C 
BRANCH  16  21
ATOM     21  C   UNL d   1       2.870  -0.463  -0.601  0.00  0.00     0.050 C 
ATOM     22  C   UNL d   1       3.062  -0.798  -1.949  0.00  0.00     0.090 C 
ATOM     23  C   UNL d   1       3.961  -1.831  -2.250  0.00  0.00     0.038 C 
ATOM     24  C   UNL d   1       4.753  -2.409  -1.254  0.00  0.00     0.003 C 
ATOM     25  C   UNL d   1       4.655  -1.965   0.059  0.00  0.00     0.002 C 
ATOM     26  C   UNL d   1       3.698  -1.010   0.390  0.00  0.00     0.027 C 
BRANCH  22  27
ATOM     27  O   UNL d   1       2.316  -0.128  -2.894  0.00  0.00    -0.350 OA
BRANCH  27  28
ATOM     28  C   UNL d   1       2.792  -0.282  -4.238  0.00  0.00     0.171 C 
ATOM     29  C   UNL d   1       2.196   0.783  -5.137  0.00  0.00     0.034 C 
ENDBRANCH  27  28
ENDBRANCH  22  27
ENDBRANCH  16  21
ENDBRANCH   1  10
TORSDOF 4
