REMARK  3 active torsions:
REMARK  status: ('A' for Active; 'I' for Inactive)
REMARK    1  A    between atoms: C_7  and  N_1 
REMARK    2  A    between atoms: C_12  and  C_2 
REMARK    3  A    between atoms: C_8  and  C_9 
ROOT
ATOM      1  N   UNL d   1       0.948  -0.693   0.016  0.00  0.00    -0.271 N 
ATOM      2  C   UNL d   1       0.918   0.690   0.006  0.00  0.00     0.139 A 
ATOM      3  N   UNL d   1      -0.280   1.203   0.022  0.00  0.00    -0.282 N 
ATOM      4  HN  UNL d   1      -0.536   2.190   0.036  1.00  0.00     0.188 HD
ATOM      5  C   UNL d   1      -0.394  -1.058   0.029  0.00  0.00     0.199 A 
ATOM      6  N   UNL d   1      -1.114   0.131   0.016  0.00  0.00    -0.274 N 
ATOM      7  S   UNL d   1      -1.173  -2.522   0.142  0.00  0.00    -0.039 SA
ATOM      8  H   UNL d   1      -2.119   0.226   0.071  0.00  0.00     0.189 HD
ENDROOT
BRANCH   1   9
ATOM      9  C   UNL d   1       2.068  -1.563   0.126  0.00  0.00     0.044 A 
ATOM     10  C   UNL d   1       3.197  -1.206   0.882  0.00  0.00     0.046 A 
ATOM     11  C   UNL d   1       4.364  -1.992   0.892  0.00  0.00     0.050 A 
ATOM     12  C   UNL d   1       4.365  -3.210   0.204  0.00  0.00     0.016 A 
ATOM     13  C   UNL d   1       3.236  -3.613  -0.502  0.00  0.00     0.003 A 
ATOM     14  C   UNL d   1       2.108  -2.789  -0.554  0.00  0.00     0.030 A 
BRANCH  11  15
ATOM     15  C   UNL d   1       5.610  -1.524   1.604  0.00  0.00     0.417 C 
ATOM     16  F   UNL d   1       5.499  -0.270   2.121  0.00  0.00    -0.166 F 
ATOM     17  F   UNL d   1       5.957  -2.332   2.642  0.00  0.00    -0.166 F 
ATOM     18  F   UNL d   1       6.691  -1.488   0.775  0.00  0.00    -0.166 F 
ENDBRANCH  11  15
ENDBRANCH   1   9
BRANCH   2  19
ATOM     19  C   UNL d   1       2.104   1.573  -0.061  0.00  0.00     0.013 A 
ATOM     20  C   UNL d   1       3.212   1.281  -0.853  0.00  0.00     0.032 A 
ATOM     21  C   UNL d   1       4.308   2.121  -0.769  0.00  0.00     0.088 A 
ATOM     22  N   UNL d   1       4.336   3.241  -0.015  0.00  0.00    -0.375 N 
ATOM     23  C   UNL d   1       3.219   3.545   0.679  0.00  0.00     0.088 A 
ATOM     24  HN  UNL d   1       5.166   3.832   0.028  1.00  0.00     0.164 HD
ATOM     25  C   UNL d   1       2.087   2.751   0.690  0.00  0.00     0.032 A 
ENDBRANCH   2  19
TORSDOF 3
