REMARK  4 active torsions:
REMARK  status: ('A' for Active; 'I' for Inactive)
REMARK    1  A    between atoms: C_3  and  C_1 
REMARK    2  A    between atoms: O_12  and  C_3 
REMARK    3  A    between atoms: C_5  and  C_6 
REMARK    4  A    between atoms: O_13  and  C_5 
ROOT
ATOM      1  C   UNL d   1       0.222  -1.314  -0.249  0.00  0.00     0.156 C 
ATOM      2  C   UNL d   1      -1.205  -1.246   0.316  0.00  0.00     0.037 C 
ATOM      3  C   UNL d   1       0.970  -0.024   0.011  0.00  0.00     0.140 C 
ATOM      4  C   UNL d   1      -1.958   0.015  -0.120  0.00  0.00     0.087 C 
ATOM      5  C   UNL d   1       0.238   1.257  -0.328  0.00  0.00     0.080 C 
ATOM      6  O   UNL d   1       2.153   0.004   0.345  0.00  0.00    -0.297 OA
ATOM      7  C   UNL d   1      -1.155   1.262   0.276  0.00  0.00     0.022 C 
ENDROOT
BRANCH   1   8
ATOM      8  C   UNL d   1       0.937  -2.515   0.327  0.00  0.00     0.269 C 
ATOM      9  O   UNL d   1       0.723  -2.982   1.440  0.00  0.00    -0.264 OA
BRANCH   8  10
ATOM     10  O   UNL d   1       1.819  -3.029  -0.575  0.00  0.00    -0.326 OA
ATOM     11  C   UNL d   1       2.534  -4.171  -0.097  0.00  0.00     0.213 C 
ENDBRANCH   8  10
ENDBRANCH   1   8
BRANCH   4  12
ATOM     12  C   UNL d   1      -3.342   0.066   0.511  0.00  0.00     0.262 C 
ATOM     13  O   UNL d   1      -3.733   0.952   1.261  0.00  0.00    -0.265 OA
BRANCH  12  14
ATOM     14  O   UNL d   1      -4.098  -0.987   0.094  0.00  0.00    -0.326 OA
ATOM     15  C   UNL d   1      -5.423  -0.988   0.631  0.00  0.00     0.213 C 
ENDBRANCH  12  14
ENDBRANCH   4  12
TORSDOF 4
