REMARK  3 active torsions:
REMARK  status: ('A' for Active; 'I' for Inactive)
REMARK    1  A    between atoms: C_2  and  C_1 
REMARK    2  A    between atoms: N_8  and  C_6 
REMARK       I    between atoms: C_11  and  N_8 
REMARK    3  A    between atoms: C_14  and  C_11 
ROOT
ATOM      1  C   UNL d   1       3.922   0.368   0.032  0.00  0.00     0.058 A 
ATOM      2  N   UNL d   1       4.791  -0.410  -0.730  0.00  0.00    -0.335 N 
ATOM      3  HN  UNL d   1       4.504  -1.155  -1.364  1.00  0.00     0.168 HD
ATOM      4  C   UNL d   1       6.037  -0.042  -0.511  0.00  0.00     0.151 A 
ATOM      5  S   UNL d   1       6.243   1.272   0.553  0.00  0.00    -0.063 SA
ATOM      6  C   UNL d   1       4.558   1.334   0.792  0.00  0.00     0.084 A 
ENDROOT
BRANCH   1   7
ATOM      7  C   UNL d   1       2.413   0.201   0.048  0.00  0.00     0.039 A 
ATOM      8  S   UNL d   1       1.435   1.182   1.063  0.00  0.00    -0.087 SA
ATOM      9  C   UNL d   1      -0.021   0.477   0.531  0.00  0.00     0.016 A 
ATOM     10  C   UNL d   1      -1.321   0.821   0.957  0.00  0.00     0.021 A 
ATOM     11  C   UNL d   1       0.215  -0.519  -0.415  0.00  0.00    -0.010 A 
ATOM     12  C   UNL d   1      -2.413   0.149   0.408  0.00  0.00     0.025 A 
ATOM     13  C   UNL d   1      -2.211  -0.843  -0.538  0.00  0.00     0.035 A 
ATOM     14  C   UNL d   1      -0.919  -1.186  -0.953  0.00  0.00     0.037 A 
ATOM     15 CL   UNL d   1      -3.567  -1.660  -1.215  0.00  0.00    -0.084 Cl
ATOM     16  C   UNL d   1       1.643  -0.693  -0.686  0.00  0.00    -0.031 A 
ATOM     17  C   UNL d   1       2.122  -1.722  -1.665  0.00  0.00     0.050 C 
ENDBRANCH   1   7
BRANCH   4  18
ATOM     18  N   UNL d   1       7.109  -0.670  -1.111  0.00  0.00    -0.303 N 
ATOM     19  C   UNL d   1       8.439  -0.424  -0.841  0.00  0.00     0.257 C 
ATOM     20  O   UNL d   1       8.903   0.380  -0.041  0.00  0.00    -0.267 OA
ATOM     21  H   UNL d   1       6.840  -1.435  -1.712  0.00  0.00     0.171 HD
BRANCH  19  22
ATOM     22  C   UNL d   1       9.420  -1.269  -1.575  0.00  0.00     0.032 A 
ATOM     23  C   UNL d   1       9.247  -1.630  -2.916  0.00  0.00     0.018 A 
ATOM     24  C   UNL d   1      10.235  -2.383  -3.563  0.00  0.00     0.025 A 
ATOM     25  C   UNL d   1      11.386  -2.770  -2.873  0.00  0.00     0.034 A 
ATOM     26  C   UNL d   1      11.568  -2.407  -1.541  0.00  0.00     0.025 A 
ATOM     27 CL   UNL d   1      12.598  -3.688  -3.678  0.00  0.00    -0.084 Cl
ATOM     28  C   UNL d   1      10.588  -1.651  -0.895  0.00  0.00     0.018 A 
ENDBRANCH  19  22
ENDBRANCH   4  18
TORSDOF 3
