REMARK  8 active torsions:
REMARK  status: ('A' for Active; 'I' for Inactive)
REMARK    1  A    between atoms: C_8  and  S_1 
REMARK    2  A    between atoms: N_12  and  S_1 
REMARK    3  A    between atoms: S_2  and  C_9 
REMARK    4  A    between atoms: N_13  and  S_2 
REMARK    5  A    between atoms: C_23  and  N_12 
REMARK    6  A    between atoms: C_24  and  N_13 
REMARK    7  A    between atoms: C_25  and  C_23 
REMARK    8  A    between atoms: C_26  and  C_24 
ROOT
ATOM      1  C   UNL d   1      -1.446   3.265  -0.538  0.00  0.00     0.027 A 
ATOM      2  C   UNL d   1      -2.619   5.284  -0.926  0.00  0.00     0.027 A 
ATOM      3  C   UNL d   1      -2.742   3.813  -0.985  0.00  0.00     0.194 A 
ATOM      4  C   UNL d   1      -1.329   5.582  -0.448  0.00  0.00    -0.011 A 
ATOM      5  C   UNL d   1      -0.615   4.346  -0.199  0.00  0.00    -0.011 A 
ATOM      6  C   UNL d   1       0.247   1.699  -0.030  0.00  0.00     0.080 A 
ATOM      7  C   UNL d   1      -3.130   7.574  -1.191  0.00  0.00     0.075 A 
ATOM      8  C   UNL d   1      -1.048   1.945  -0.485  0.00  0.00     0.041 A 
ATOM      9  C   UNL d   1      -3.539   6.244  -1.297  0.00  0.00     0.041 A 
ATOM     10  C   UNL d   1      -0.930   6.902  -0.341  0.00  0.00     0.015 A 
ATOM     11  C   UNL d   1       0.673   4.100   0.241  0.00  0.00     0.015 A 
ATOM     12  O   UNL d   1      -3.714   3.173  -1.321  0.00  0.00    -0.287 OA
ATOM     13  C   UNL d   1      -1.832   7.902  -0.734  0.00  0.00     0.026 A 
ATOM     14  C   UNL d   1       1.103   2.766   0.331  0.00  0.00     0.026 A 
ENDROOT
BRANCH   6  15
ATOM     15  S   UNL d   1       0.877   0.029  -0.006  0.00  0.00     0.259 S 
ATOM     16  O   UNL d   1       2.187   0.090   0.605  0.00  0.00    -0.201 OA
ATOM     17  O   UNL d   1       0.669  -0.524  -1.324  0.00  0.00    -0.201 OA
BRANCH  15  18
ATOM     18  N   UNL d   1      -0.111  -0.769   1.090  0.00  0.00    -0.311 N 
ATOM     19  H   UNL d   1      -0.209  -0.295   1.986  0.00  0.00     0.172 HD
BRANCH  18  20
ATOM     20  C   UNL d   1      -1.333  -1.401   0.580  0.00  0.00     0.170 C 
BRANCH  20  21
ATOM     21  C   UNL d   1      -2.140  -2.025   1.693  0.00  0.00    -0.040 A 
ATOM     22  C   UNL d   1      -3.459  -1.617   1.936  0.00  0.00     0.009 A 
ATOM     23  C   UNL d   1      -4.205  -2.206   2.958  0.00  0.00     0.001 A 
ATOM     24  C   UNL d   1      -3.640  -3.210   3.743  0.00  0.00     0.000 A 
ATOM     25  C   UNL d   1      -2.332  -3.627   3.507  0.00  0.00     0.001 A 
ATOM     26  C   UNL d   1      -1.584  -3.038   2.487  0.00  0.00     0.009 A 
ENDBRANCH  20  21
ENDBRANCH  18  20
ENDBRANCH  15  18
ENDBRANCH   6  15
BRANCH   7  27
ATOM     27  S   UNL d   1      -4.233   8.869  -1.740  0.00  0.00     0.241 S 
ATOM     28  O   UNL d   1      -3.498   9.677  -2.683  0.00  0.00    -0.206 OA
ATOM     29  O   UNL d   1      -5.490   8.236  -2.073  0.00  0.00    -0.206 OA
BRANCH  27  30
ATOM     30  N   UNL d   1      -4.508   9.765  -0.335  0.00  0.00    -0.211 NA
ATOM     31  H   UNL d   1      -4.628   9.181   0.493  0.00  0.00     0.140 HD
BRANCH  30  32
ATOM     32  C   UNL d   1      -3.631  10.925  -0.127  0.00  0.00     0.143 C 
BRANCH  32  33
ATOM     33  C   UNL d   1      -3.939  11.666   1.150  0.00  0.00    -0.044 A 
ATOM     34  C   UNL d   1      -2.974  11.772   2.162  0.00  0.00     0.008 A 
ATOM     35  C   UNL d   1      -3.220  12.545   3.298  0.00  0.00     0.001 A 
ATOM     36  C   UNL d   1      -4.434  13.214   3.435  0.00  0.00     0.000 A 
ATOM     37  C   UNL d   1      -5.412  13.094   2.448  0.00  0.00     0.001 A 
ATOM     38  C   UNL d   1      -5.169  12.318   1.314  0.00  0.00     0.008 A 
ENDBRANCH  32  33
ENDBRANCH  30  32
ENDBRANCH  27  30
ENDBRANCH   7  27
TORSDOF 8
