REMARK  4 active torsions:
REMARK  status: ('A' for Active; 'I' for Inactive)
REMARK    1  A    between atoms: N_2  and  S_1 
REMARK    2  A    between atoms: C_7  and  S_1 
REMARK    3  A    between atoms: S_4  and  N_2 
REMARK    4  A    between atoms: C_8  and  S_4 
ROOT
ATOM      1  N   UNL d   1       0.588  -1.119  -1.459  0.00  0.00    -0.260 N 
ATOM      2  HN  UNL d   1       1.227  -0.957  -0.681  1.00  0.00     0.186 HD
ENDROOT
BRANCH   1   3
ATOM      3  S   UNL d   1      -0.560  -2.373  -1.346  0.00  0.00     0.267 S 
ATOM      4  O   UNL d   1       0.066  -3.610  -1.776  0.00  0.00    -0.200 OA
ATOM      5  O   UNL d   1      -1.831  -1.955  -1.908  0.00  0.00    -0.200 OA
BRANCH   3   6
ATOM      6  C   UNL d   1      -0.786  -2.480   0.418  0.00  0.00     0.080 A 
ATOM      7  C   UNL d   1      -1.835  -1.774   1.017  0.00  0.00     0.025 A 
ATOM      8  C   UNL d   1      -2.086  -1.936   2.379  0.00  0.00     0.002 A 
ATOM      9  C   UNL d   1      -1.296  -2.803   3.136  0.00  0.00     0.000 A 
ATOM     10  C   UNL d   1      -0.249  -3.506   2.535  0.00  0.00     0.002 A 
ATOM     11  C   UNL d   1       0.008  -3.350   1.172  0.00  0.00     0.025 A 
ENDBRANCH   3   6
ENDBRANCH   1   3
BRANCH   1  12
ATOM     12  S   UNL d   1       0.688  -0.186  -2.762  0.00  0.00    -0.086 SA
ATOM     13  C   UNL d   1       0.222  -1.286  -4.123  0.00  0.00     0.108 C 
BRANCH  12  14
ATOM     14  C   UNL d   1       2.485  -0.365  -2.862  0.00  0.00     0.010 A 
ATOM     15  C   UNL d   1       3.115  -1.613  -2.953  0.00  0.00     0.019 A 
ATOM     16  C   UNL d   1       4.506  -1.701  -3.024  0.00  0.00     0.001 A 
ATOM     17  C   UNL d   1       5.277  -0.542  -2.996  0.00  0.00     0.000 A 
ATOM     18  C   UNL d   1       4.661   0.703  -2.903  0.00  0.00     0.001 A 
ATOM     19  C   UNL d   1       3.268   0.793  -2.839  0.00  0.00     0.019 A 
ENDBRANCH  12  14
ENDBRANCH   1  12
TORSDOF 4
