REMARK  3 active torsions:
REMARK  status: ('A' for Active; 'I' for Inactive)
REMARK    1  A    between atoms: N_6  and  C_1 
REMARK       I    between atoms: C_8  and  N_7 
REMARK    2  A    between atoms: O_14  and  C_8 
REMARK    3  A    between atoms: C_19  and  O_14 
ROOT
ATOM      1  C   UNL d   1      -0.055   1.770  -0.180  0.00  0.00     0.290 C 
ATOM      2  C   UNL d   1      -1.100   0.665  -0.316  0.00  0.00    -0.009 C 
ATOM      3  C   UNL d   1       1.240   0.949  -0.234  0.00  0.00    -0.009 A 
ATOM      4  C   UNL d   1      -0.493  -0.601  -0.172  0.00  0.00    -0.017 C 
ATOM      5  C   UNL d   1       0.943  -0.431  -0.181  0.00  0.00    -0.017 A 
ATOM      6  C   UNL d   1      -2.465   0.765  -0.530  0.00  0.00     0.010 C 
ATOM      7  C   UNL d   1       2.550   1.405  -0.252  0.00  0.00     0.010 A 
ATOM      8  C   UNL d   1      -1.267  -1.740  -0.027  0.00  0.00     0.013 C 
ATOM      9  C   UNL d   1       1.959  -1.370  -0.159  0.00  0.00     0.013 A 
ATOM     10  C   UNL d   1       3.574   0.457  -0.218  0.00  0.00     0.001 A 
ATOM     11  C   UNL d   1      -3.252  -0.371  -0.337  0.00  0.00     0.001 C 
ATOM     12  C   UNL d   1       3.282  -0.917  -0.174  0.00  0.00     0.001 A 
ATOM     13  C   UNL d   1      -2.658  -1.609  -0.054  0.00  0.00     0.001 C 
ENDROOT
BRANCH   1  14
ATOM     14  N   UNL d   1      -0.094   2.592   1.052  0.00  0.00     0.105 N 
ATOM     15  C   UNL d   1       0.086   1.888   2.338  0.00  0.00     0.293 C 
ATOM     16  C   UNL d   1      -1.178   1.220   2.899  0.00  0.00     0.158 C 
ATOM     17  N   UNL d   1      -2.294   2.150   2.961  0.00  0.00    -0.325 N 
ATOM     18  C   UNL d   1      -2.510   3.019   1.811  0.00  0.00     0.158 C 
ATOM     19  C   UNL d   1      -3.361   1.969   3.820  0.00  0.00     0.362 C 
ATOM     20  C   UNL d   1      -1.213   3.538   1.164  0.00  0.00     0.293 C 
ATOM     21  O   UNL d   1      -4.342   2.697   3.845  0.00  0.00    -0.238 OA
BRANCH  19  22
ATOM     22  O   UNL d   1      -3.159   0.935   4.676  0.00  0.00    -0.304 OA
BRANCH  22  23
ATOM     23  C   UNL d   1      -3.826   1.092   5.931  0.00  0.00     0.176 C 
ATOM     24  C   UNL d   1      -2.920   1.938   6.808  0.00  0.00     0.034 C 
ENDBRANCH  22  23
ENDBRANCH  19  22
ENDBRANCH   1  14
TORSDOF 3
