REMARK  7 active torsions:
REMARK  status: ('A' for Active; 'I' for Inactive)
REMARK    1  A    between atoms: C_2  and  C_1 
REMARK       I    between atoms: N_6  and  C_1 
REMARK    2  A    between atoms: O_13  and  C_3 
REMARK    3  A    between atoms: O_14  and  C_4 
REMARK    4  A    between atoms: O_15  and  C_5 
REMARK    5  A    between atoms: C_11  and  N_6 
REMARK    6  A    between atoms: C_16  and  C_11 
REMARK    7  A    between atoms: C_17  and  C_11 
ROOT
ATOM      1  C   UNL d   1       1.326  -1.359  -3.645  0.00  0.00    -0.086 C 
ATOM      2  C   UNL d   1       1.220  -2.200  -4.502  0.00  0.00     0.015 C 
ATOM      3  C   UNL d   1       1.506  -0.354  -2.563  0.00  0.00     0.095 C 
ENDROOT
BRANCH   3   4
ATOM      4  N   UNL d   1       0.997  -0.966  -1.327  0.00  0.00    -0.337 N 
ATOM      5  C   UNL d   1       1.034  -0.364  -0.088  0.00  0.00     0.253 C 
ATOM      6  O   UNL d   1       1.568   0.717   0.128  0.00  0.00    -0.268 OA
ATOM      7  H   UNL d   1       0.666  -1.919  -1.394  0.00  0.00     0.164 HD
BRANCH   5   8
ATOM      8  C   UNL d   1       0.378  -1.077   1.048  0.00  0.00     0.037 A 
ATOM      9  C   UNL d   1       0.841  -0.815   2.347  0.00  0.00     0.057 A 
ATOM     10  C   UNL d   1       0.200  -1.346   3.479  0.00  0.00     0.105 A 
ATOM     11  C   UNL d   1      -0.951  -2.143   3.308  0.00  0.00     0.135 A 
ATOM     12  C   UNL d   1      -1.415  -2.391   1.996  0.00  0.00     0.105 A 
ATOM     13  C   UNL d   1      -0.739  -1.891   0.875  0.00  0.00     0.057 A 
BRANCH  10  14
ATOM     14  O   UNL d   1       0.640  -1.115   4.755  0.00  0.00    -0.353 OA
ATOM     15  C   UNL d   1       1.840  -0.377   4.946  0.00  0.00     0.210 C 
ENDBRANCH  10  14
BRANCH  11  16
ATOM     16  O   UNL d   1      -1.667  -2.764   4.303  0.00  0.00    -0.351 OA
ATOM     17  C   UNL d   1      -1.538  -2.318   5.645  0.00  0.00     0.210 C 
ENDBRANCH  11  16
BRANCH  12  18
ATOM     18  O   UNL d   1      -2.528  -3.140   1.687  0.00  0.00    -0.353 OA
ATOM     19  C   UNL d   1      -3.696  -2.780   2.427  0.00  0.00     0.210 C 
ENDBRANCH  12  18
ENDBRANCH   5   8
ENDBRANCH   3   4
BRANCH   3  20
ATOM     20  C   UNL d   1       0.736   0.950  -2.931  0.00  0.00     0.040 C 
ATOM     21  C   UNL d   1      -0.765   0.804  -3.157  0.00  0.00     0.009 C 
ENDBRANCH   3  20
BRANCH   3  22
ATOM     22  C   UNL d   1       3.017   0.014  -2.482  0.00  0.00     0.040 C 
ATOM     23  C   UNL d   1       3.959  -1.140  -2.157  0.00  0.00     0.009 C 
ENDBRANCH   3  22
TORSDOF 7
