REMARK  5 active torsions:
REMARK  status: ('A' for Active; 'I' for Inactive)
REMARK    1  A    between atoms: C_5  and  N_1 
REMARK    2  A    between atoms: S_2  and  C_7 
REMARK    3  A    between atoms: N_10  and  S_2 
REMARK    4  A    between atoms: C_20  and  N_10 
REMARK    5  A    between atoms: C_21  and  C_20 
ROOT
ATOM      1  C   UNL d   1       2.839  -1.619   0.119  0.00  0.00     0.067 A 
ATOM      2  C   UNL d   1       5.045  -3.334   0.341  0.00  0.00     0.076 A 
ATOM      3  C   UNL d   1       3.076  -2.602  -0.856  0.00  0.00     0.062 A 
ATOM      4  C   UNL d   1       4.192  -3.437  -0.759  0.00  0.00     0.051 A 
ATOM      5  C   UNL d   1       3.734  -1.488   1.191  0.00  0.00     0.033 A 
ATOM      6  C   UNL d   1       4.822  -2.358   1.316  0.00  0.00     0.027 A 
ATOM      7 CL   UNL d   1       2.104  -2.740  -2.282  0.00  0.00    -0.082 Cl
ENDROOT
BRANCH   2   8
ATOM      8  S   UNL d   1       6.482  -4.378   0.455  0.00  0.00     0.241 S 
ATOM      9  O   UNL d   1       7.224  -4.212  -0.775  0.00  0.00    -0.206 OA
ATOM     10  O   UNL d   1       7.077  -4.131   1.748  0.00  0.00    -0.206 OA
BRANCH   8  11
ATOM     11  N   UNL d   1       5.857  -5.935   0.509  0.00  0.00    -0.210 NA
ATOM     12  H   UNL d   1       5.018  -6.034   1.085  0.00  0.00     0.140 HD
BRANCH  11  13
ATOM     13  C   UNL d   1       5.714  -6.634  -0.783  0.00  0.00     0.161 C 
BRANCH  13  14
ATOM     14  C   UNL d   1       5.141  -8.023  -0.614  0.00  0.00     0.022 A 
ATOM     15  N   UNL d   1       3.915  -8.118  -0.031  0.00  0.00    -0.368 N 
ATOM     16  C   UNL d   1       3.388  -9.357   0.089  0.00  0.00     0.088 A 
ATOM     17  HN  UNL d   1       3.417  -7.292   0.299  1.00  0.00     0.165 HD
ATOM     18  C   UNL d   1       4.024 -10.512  -0.339  0.00  0.00     0.017 A 
ATOM     19  C   UNL d   1       5.276 -10.394  -0.929  0.00  0.00     0.003 A 
ATOM     20  C   UNL d   1       5.845  -9.134  -1.072  0.00  0.00     0.026 A 
ENDBRANCH  13  14
ENDBRANCH  11  13
ENDBRANCH   8  11
ENDBRANCH   2   8
BRANCH   1  21
ATOM     21  N   UNL d   1       1.734  -0.749   0.037  0.00  0.00    -0.250 N 
ATOM     22  C   UNL d   1       1.844   0.615  -0.003  0.00  0.00     0.232 C 
ATOM     23  C   UNL d   1       0.470   1.207  -0.141  0.00  0.00     0.123 C 
ATOM     24  O   UNL d   1       2.868   1.283   0.014  0.00  0.00    -0.273 OA
ATOM     25  C   UNL d   1      -0.476   0.022   0.064  0.00  0.00     0.050 C 
ATOM     26  C   UNL d   1       0.434  -1.186   0.103  0.00  0.00     0.240 C 
ATOM     27  C   UNL d   1      -1.545  -0.116  -1.018  0.00  0.00     0.020 C 
ATOM     28  C   UNL d   1      -1.300   0.144   1.349  0.00  0.00     0.020 C 
ATOM     29  O   UNL d   1       0.048  -2.336   0.266  0.00  0.00    -0.272 OA
ATOM     30  C   UNL d   1      -2.695   0.773  -0.560  0.00  0.00     0.001 C 
ATOM     31  C   UNL d   1      -2.546   0.929   0.951  0.00  0.00     0.001 C 
ENDBRANCH   1  21
TORSDOF 5
