REMARK  5 active torsions:
REMARK  status: ('A' for Active; 'I' for Inactive)
REMARK    1  A    between atoms: C_8  and  N_2 
REMARK    2  A    between atoms: C_11  and  N_3 
REMARK    3  A    between atoms: N_16  and  C_4 
REMARK    4  A    between atoms: N_7  and  C_10 
REMARK    5  A    between atoms: C_17  and  C_11 
ROOT
ATOM      1  C   UNL d   1      -0.751   1.144  -0.225  0.00  0.00     0.338 A 
ATOM      2  N   UNL d   1      -1.404  -0.097  -0.067  0.00  0.00    -0.254 N 
ATOM      3  N   UNL d   1       0.632   1.139  -0.064  0.00  0.00    -0.262 N 
ATOM      4  C   UNL d   1      -0.704  -1.286   0.142  0.00  0.00     0.094 A 
ATOM      5  C   UNL d   1       1.380  -0.001   0.106  0.00  0.00     0.254 A 
ATOM      6  C   UNL d   1       0.633  -1.256   0.203  0.00  0.00     0.117 A 
ATOM      7  O   UNL d   1      -1.361   2.193  -0.466  0.00  0.00    -0.246 OA
ATOM      8  O   UNL d   1       2.606  -0.043   0.166  0.00  0.00    -0.268 OA
ENDROOT
BRANCH   2   9
ATOM      9  C   UNL d   1      -2.840  -0.068  -0.047  0.00  0.00     0.047 A 
ATOM     10  C   UNL d   1      -3.562   0.417  -1.145  0.00  0.00     0.066 A 
ATOM     11  C   UNL d   1      -4.964   0.424  -1.101  0.00  0.00     0.105 A 
ATOM     12  C   UNL d   1      -5.650  -0.021   0.037  0.00  0.00     0.036 A 
ATOM     13  C   UNL d   1      -4.928  -0.492   1.132  0.00  0.00     0.005 A 
ATOM     14  C   UNL d   1      -3.533  -0.528   1.085  0.00  0.00     0.030 A 
BRANCH  11  15
ATOM     15  N   UNL d   1      -5.726   0.876  -2.272  0.00  0.00    -0.116 N 
ATOM     16  O   UNL d   1      -5.092   1.159  -3.297  0.00  0.00    -0.532 OA
ATOM     17  O   UNL d   1      -6.961   0.927  -2.172  0.00  0.00    -0.532 OA
ENDBRANCH  11  15
ENDBRANCH   2   9
BRANCH   4  18
ATOM     18  N   UNL d   1      -1.345  -2.515   0.231  0.00  0.00    -0.288 NA
ATOM     19  H   UNL d   1      -2.220  -2.535  -0.287  0.00  0.00     0.125 HD
ATOM     20  H   UNL d   1      -0.757  -3.312   0.004  0.00  0.00     0.125 HD
ENDBRANCH   4  18
BRANCH   3  21
ATOM     21  C   UNL d   1       1.334   2.417  -0.064  0.00  0.00     0.175 C 
BRANCH  21  22
ATOM     22  C   UNL d   1       1.386   3.037   1.320  0.00  0.00    -0.040 A 
ATOM     23  C   UNL d   1       2.433   2.735   2.203  0.00  0.00     0.009 A 
ATOM     24  C   UNL d   1       2.459   3.285   3.487  0.00  0.00     0.001 A 
ATOM     25  C   UNL d   1       1.438   4.136   3.905  0.00  0.00     0.000 A 
ATOM     26  C   UNL d   1       0.392   4.443   3.038  0.00  0.00     0.001 A 
ATOM     27  C   UNL d   1       0.366   3.898   1.753  0.00  0.00     0.009 A 
ENDBRANCH  21  22
ENDBRANCH   3  21
TORSDOF 5
