REMARK  2 active torsions:
REMARK  status: ('A' for Active; 'I' for Inactive)
REMARK    1  A    between atoms: C_7  and  C_1 
REMARK    2  A    between atoms: C_8  and  C_2 
ROOT
ATOM      1  C   UNL d   1       0.650  -1.328   0.025  0.00  0.00     0.003 A 
ATOM      2  C   UNL d   1      -0.661   1.329   0.008  0.00  0.00     0.003 A 
ATOM      3  C   UNL d   1       0.677   1.218   0.023  0.00  0.00     0.067 A 
ATOM      4  C   UNL d   1      -0.689  -1.220   0.013  0.00  0.00     0.067 A 
ATOM      5  C   UNL d   1      -1.435   0.054   0.016  0.00  0.00     0.179 A 
ATOM      6  C   UNL d   1       1.423  -0.055   0.043  0.00  0.00     0.179 A 
ATOM      7  O   UNL d   1      -2.661   0.014   0.018  0.00  0.00    -0.288 OA
ATOM      8  O   UNL d   1       2.646  -0.011   0.067  0.00  0.00    -0.288 OA
ENDROOT
BRANCH   1   9
ATOM      9  C   UNL d   1       1.422  -2.658   0.027  0.00  0.00    -0.020 C 
ATOM     10  C   UNL d   1       0.477  -3.885   0.003  0.00  0.00     0.019 C 
ATOM     11  C   UNL d   1       2.328  -2.768  -1.218  0.00  0.00     0.019 C 
ATOM     12  C   UNL d   1       2.282  -2.787   1.302  0.00  0.00     0.019 C 
ENDBRANCH   1   9
BRANCH   2  13
ATOM     13  C   UNL d   1      -1.420   2.666  -0.025  0.00  0.00    -0.020 C 
ATOM     14  C   UNL d   1      -0.461   3.883  -0.025  0.00  0.00     0.019 C 
ATOM     15  C   UNL d   1      -2.274   2.770  -1.306  0.00  0.00     0.019 C 
ATOM     16  C   UNL d   1      -2.329   2.820   1.212  0.00  0.00     0.019 C 
ENDBRANCH   2  13
TORSDOF 2
