REMARK  8 active torsions:
REMARK  status: ('A' for Active; 'I' for Inactive)
REMARK    1  A    between atoms: N_2  and  C_1 
REMARK    2  A    between atoms: N_10  and  C_1 
REMARK    3  A    between atoms: C_3  and  N_2 
REMARK    4  A    between atoms: O_18  and  C_6 
REMARK    5  A    between atoms: O_20  and  C_8 
REMARK    6  A    between atoms: C_21  and  N_10 
REMARK    7  A    between atoms: C_15  and  C_22 
REMARK    8  A    between atoms: C_22  and  C_21 
ROOT
ATOM      1  N   UNL d   1       2.406  -0.341  -0.004  0.00  0.00    -0.367 N 
ATOM      2  H   UNL d   1       2.899  -0.639  -0.839  0.00  0.00     0.161 HD
ENDROOT
BRANCH   1   3
ATOM      3  C   UNL d   1       1.107  -0.770   0.043  0.00  0.00     0.172 C 
ATOM      4  S   UNL d   1       0.518  -1.586  -1.291  0.00  0.00    -0.041 SA
BRANCH   3   5
ATOM      5  N   UNL d   1       0.422  -0.447   1.184  0.00  0.00    -0.332 N 
ATOM      6  H   UNL d   1       0.530   0.515   1.487  0.00  0.00     0.168 HD
BRANCH   5   7
ATOM      7  C   UNL d   1      -0.613  -1.171   1.823  0.00  0.00     0.056 A 
ATOM      8  C   UNL d   1      -1.531  -0.498   2.650  0.00  0.00     0.062 A 
ATOM      9  C   UNL d   1      -2.513  -1.204   3.353  0.00  0.00     0.050 A 
ATOM     10 CL   UNL d   1      -1.488   1.223   2.814  0.00  0.00    -0.082 Cl
ATOM     11  C   UNL d   1      -2.564  -2.592   3.248  0.00  0.00     0.035 A 
ATOM     12  C   UNL d   1      -1.654  -3.275   2.448  0.00  0.00     0.026 A 
ATOM     13 CL   UNL d   1      -3.745  -3.474   4.136  0.00  0.00    -0.084 Cl
ATOM     14  C   UNL d   1      -0.681  -2.565   1.738  0.00  0.00     0.033 A 
ENDBRANCH   5   7
ENDBRANCH   3   5
ENDBRANCH   1   3
BRANCH   1  15
ATOM     15  C   UNL d   1       3.191   0.103   1.137  0.00  0.00     0.126 C 
BRANCH  15  16
ATOM     16  C   UNL d   1       4.681   0.221   0.806  0.00  0.00     0.058 C 
BRANCH  16  17
ATOM     17  C   UNL d   1       5.454   0.707   2.005  0.00  0.00    -0.054 A 
ATOM     18  C   UNL d   1       6.030  -0.204   2.906  0.00  0.00     0.046 A 
ATOM     19  C   UNL d   1       6.659   0.230   4.086  0.00  0.00     0.102 A 
ATOM     20  C   UNL d   1       6.719   1.611   4.350  0.00  0.00     0.101 A 
ATOM     21  C   UNL d   1       6.151   2.514   3.443  0.00  0.00     0.040 A 
ATOM     22  C   UNL d   1       5.529   2.074   2.278  0.00  0.00     0.010 A 
BRANCH  19  23
ATOM     23  O   UNL d   1       7.181  -0.627   5.016  0.00  0.00    -0.353 OA
ATOM     24  C   UNL d   1       7.117  -2.024   4.761  0.00  0.00     0.210 C 
ENDBRANCH  19  23
BRANCH  20  25
ATOM     25  O   UNL d   1       7.236   2.237   5.454  0.00  0.00    -0.353 OA
ATOM     26  C   UNL d   1       8.251   1.563   6.184  0.00  0.00     0.210 C 
ENDBRANCH  20  25
ENDBRANCH  16  17
ENDBRANCH  15  16
ENDBRANCH   1  15
TORSDOF 8
