REMARK  6 active torsions:
REMARK  status: ('A' for Active; 'I' for Inactive)
REMARK       I    between atoms: N_5  and  C_1 
REMARK    1  A    between atoms: C_10  and  C_1 
REMARK    2  A    between atoms: C_2  and  C_11 
REMARK       I    between atoms: N_3  and  C_2 
REMARK    3  A    between atoms: C_9  and  N_3 
REMARK    4  A    between atoms: N_8  and  N_5 
REMARK    5  A    between atoms: S_7  and  C_10 
REMARK    6  A    between atoms: C_11  and  S_7 
ROOT
ATOM      1  C   UNL d   1       5.341  -1.434  -2.691  0.00  0.00     0.231 C 
ATOM      2  N   UNL d   1       4.486  -1.538  -3.772  0.00  0.00    -0.327 N 
ATOM      3  O   UNL d   1       6.511  -1.815  -2.661  0.00  0.00    -0.272 OA
ATOM      4  H   UNL d   1       3.552  -1.166  -3.632  0.00  0.00     0.169 HD
ENDROOT
BRANCH   1   5
ATOM      5  C   UNL d   1       4.778  -0.667  -1.500  0.00  0.00     0.177 C 
BRANCH   5   6
ATOM      6  S   UNL d   1       3.011  -1.009  -1.191  0.00  0.00    -0.150 SA
BRANCH   6   7
ATOM      7  C   UNL d   1       2.900  -0.339   0.500  0.00  0.00     0.178 C 
BRANCH   7   8
ATOM      8  C   UNL d   1       3.026   1.171   0.496  0.00  0.00     0.240 C 
ATOM      9  O   UNL d   1       4.101   1.754   0.635  0.00  0.00    -0.271 OA
ATOM     10  N   UNL d   1       1.817   1.838   0.310  0.00  0.00    -0.293 N 
ATOM     11  H   UNL d   1       1.020   1.323  -0.062  0.00  0.00     0.183 HD
BRANCH  10  12
ATOM     12  N   UNL d   1       1.818   3.245   0.186  0.00  0.00    -0.247 NA
ATOM     13  H   UNL d   1       2.803   3.544   0.117  0.00  0.00     0.143 HD
ATOM     14  H   UNL d   1       1.504   3.642   1.076  0.00  0.00     0.143 HD
ENDBRANCH  10  12
ENDBRANCH   7   8
ENDBRANCH   6   7
ENDBRANCH   5   6
ENDBRANCH   1   5
BRANCH   2  15
ATOM     15  C   UNL d   1       4.774  -2.071  -5.047  0.00  0.00     0.034 A 
ATOM     16  C   UNL d   1       5.972  -2.714  -5.368  0.00  0.00     0.029 A 
ATOM     17  C   UNL d   1       6.212  -3.171  -6.668  0.00  0.00     0.002 A 
ATOM     18  C   UNL d   1       5.254  -2.989  -7.661  0.00  0.00     0.000 A 
ATOM     19  C   UNL d   1       4.047  -2.369  -7.349  0.00  0.00     0.002 A 
ATOM     20  C   UNL d   1       3.804  -1.921  -6.046  0.00  0.00     0.029 A 
ENDBRANCH   2  15
TORSDOF 6
