REMARK  4 active torsions:
REMARK  status: ('A' for Active; 'I' for Inactive)
REMARK    1  A    between atoms: S_6  and  C_1 
REMARK    2  A    between atoms: C_3  and  S_6 
REMARK    3  A    between atoms: C_21  and  N_4 
REMARK    4  A    between atoms: C_22  and  C_8 
ROOT
ATOM      1  C   UNL d   1       2.074   3.702  -0.199  0.00  0.00     0.174 A 
ATOM      2  N   UNL d   1       2.865   3.378  -1.293  0.00  0.00    -0.275 N 
ATOM      3  C   UNL d   1       4.120   3.925  -0.978  0.00  0.00     0.139 A 
ATOM      4  N   UNL d   1       4.017   4.567   0.177  0.00  0.00    -0.282 N 
ATOM      5  HN  UNL d   1       4.764   5.097   0.627  1.00  0.00     0.188 HD
ATOM      6  N   UNL d   1       2.757   4.409   0.668  0.00  0.00    -0.277 N 
ATOM      7  HN  UNL d   1       2.407   4.775   1.553  1.00  0.00     0.189 HD
ENDROOT
BRANCH   1   8
ATOM      8  S   UNL d   1       0.410   3.284   0.049  0.00  0.00    -0.031 SA
BRANCH   8   9
ATOM      9  C   UNL d   1      -0.392   4.636  -0.700  0.00  0.00     0.127 A 
ATOM     10  N   UNL d   1      -1.216   4.378  -1.812  0.00  0.00    -0.078 N 
ATOM     11  C   UNL d   1      -1.986   5.404  -2.406  0.00  0.00     0.705 A 
ATOM     12  N   UNL d   1      -1.431   3.221  -2.501  0.00  0.00    -0.274 N 
ATOM     13  N   UNL d   1      -2.633   4.916  -3.439  0.00  0.00    -0.185 N 
ATOM     14  N   UNL d   1      -2.020   6.669  -1.893  0.00  0.00    -0.193 N 
ATOM     15  C   UNL d   1      -2.270   3.611  -3.457  0.00  0.00     0.215 A 
ATOM     16  HN  UNL d   1      -3.261   5.404  -4.077  1.00  0.00     0.185 HD
ATOM     17  C   UNL d   1      -1.260   6.872  -0.865  0.00  0.00     0.035 A 
ATOM     18  HN  UNL d   1      -2.604   7.404  -2.292  1.00  0.00     0.184 HD
ATOM     19  C   UNL d   1      -0.348   5.891  -0.221  0.00  0.00     0.002 A 
ATOM     20  C   UNL d   1      -1.249   8.180  -0.136  0.00  0.00     0.058 C 
ATOM     21  C   UNL d   1       0.362   6.571   0.895  0.00  0.00     0.044 C 
ATOM     22  C   UNL d   1      -0.328   7.931   1.058  0.00  0.00     0.011 C 
ATOM     23  HN  UNL d   1      -1.047   2.292  -2.327  1.00  0.00     0.189 HD
ENDBRANCH   8   9
ENDBRANCH   1   8
BRANCH   2  24
ATOM     24  C   UNL d   1       2.498   2.670  -2.471  0.00  0.00     0.043 A 
ATOM     25  C   UNL d   1       2.939   3.119  -3.724  0.00  0.00     0.030 A 
ATOM     26  C   UNL d   1       2.709   2.349  -4.866  0.00  0.00     0.002 A 
ATOM     27  C   UNL d   1       2.008   1.150  -4.768  0.00  0.00     0.000 A 
ATOM     28  C   UNL d   1       1.524   0.725  -3.533  0.00  0.00     0.002 A 
ATOM     29  C   UNL d   1       1.768   1.478  -2.382  0.00  0.00     0.030 A 
ENDBRANCH   2  24
BRANCH   3  30
ATOM     30  C   UNL d   1       5.386   3.841  -1.732  0.00  0.00     0.010 A 
ATOM     31  C   UNL d   1       6.302   4.901  -1.622  0.00  0.00     0.015 A 
ATOM     32  C   UNL d   1       7.467   4.936  -2.393  0.00  0.00     0.001 A 
ATOM     33  C   UNL d   1       7.738   3.907  -3.289  0.00  0.00     0.000 A 
ATOM     34  C   UNL d   1       6.881   2.813  -3.361  0.00  0.00     0.001 A 
ATOM     35  C   UNL d   1       5.736   2.763  -2.557  0.00  0.00     0.015 A 
ENDBRANCH   3  30
TORSDOF 4
