REMARK  2 active torsions:
REMARK  status: ('A' for Active; 'I' for Inactive)
REMARK       I    between atoms: N_2  and  C_1 
REMARK    1  A    between atoms: S_3  and  C_1 
REMARK    2  A    between atoms: C_6  and  S_3 
ROOT
ATOM      1  C   UNL d   1       0.875   0.188  -0.014  0.00  0.00     0.286 C 
ATOM      2  N   UNL d   1       0.251   0.492   1.185  0.00  0.00    -0.339 N 
ATOM      3  O   UNL d   1       1.945   0.683  -0.355  0.00  0.00    -0.260 OA
ATOM      4  O   UNL d   1      -0.546   0.751   3.912  0.00  0.00    -0.388 OA
ATOM      5  C   UNL d   1       0.879   1.481   2.066  0.00  0.00     0.152 C 
ATOM      6  C   UNL d   1      -1.099   0.099   1.612  0.00  0.00     0.152 C 
ATOM      7  C   UNL d   1       0.810   1.026   3.526  0.00  0.00     0.187 C 
ATOM      8  C   UNL d   1      -1.103  -0.291   3.096  0.00  0.00     0.187 C 
ENDROOT
BRANCH   1   9
ATOM      9  S   UNL d   1       0.124  -1.015  -1.047  0.00  0.00    -0.030 SA
BRANCH   9  10
ATOM     10  C   UNL d   1      -0.826  -0.028  -2.189  0.00  0.00     0.010 A 
ATOM     11  C   UNL d   1      -0.463   1.260  -2.594  0.00  0.00     0.019 A 
ATOM     12  C   UNL d   1      -1.287   1.992  -3.457  0.00  0.00     0.008 A 
ATOM     13  C   UNL d   1      -2.479   1.443  -3.942  0.00  0.00    -0.062 A 
ATOM     14  C   UNL d   1      -2.815   0.135  -3.582  0.00  0.00     0.008 A 
ATOM     15  C   UNL d   1      -3.384   2.256  -4.819  0.00  0.00     0.048 C 
ATOM     16  C   UNL d   1      -1.993  -0.593  -2.716  0.00  0.00     0.019 A 
ENDBRANCH   9  10
ENDBRANCH   1   9
TORSDOF 2
