REMARK  3 active torsions:
REMARK  status: ('A' for Active; 'I' for Inactive)
REMARK       I    between atoms: C_4  and  N_2 
REMARK    1  A    between atoms: N_3  and  C_5 
REMARK    2  A    between atoms: C_11  and  C_4 
REMARK    3  A    between atoms: C_21  and  C_11 
ROOT
ATOM      1  N   UNL d   1      -3.570  -5.304  -0.510  0.00  0.00    -0.349 N 
ATOM      2  N   UNL d   1      -2.590  -2.652  -0.080  0.00  0.00    -0.377 N 
ATOM      3  C   UNL d   1      -4.343  -6.451  -0.465  0.00  0.00     0.224 C 
ATOM      4  C   UNL d   1      -3.532  -4.339  -1.617  0.00  0.00     0.145 C 
ATOM      5  C   UNL d   1      -2.585  -5.039   0.552  0.00  0.00     0.145 C 
ATOM      6  C   UNL d   1      -3.637  -2.896  -1.099  0.00  0.00     0.143 C 
ATOM      7  C   UNL d   1      -2.709  -3.585   1.072  0.00  0.00     0.143 C 
ATOM      8  O   UNL d   1      -4.162  -7.321   0.391  0.00  0.00    -0.273 OA
ENDROOT
BRANCH   2   9
ATOM      9  C   UNL d   1      -2.235  -1.317   0.189  0.00  0.00     0.044 A 
ATOM     10  C   UNL d   1      -0.933  -0.969   0.667  0.00  0.00     0.017 A 
ATOM     11  C   UNL d   1      -0.628   0.410   0.814  0.00  0.00     0.046 A 
ATOM     12  C   UNL d   1       0.091  -1.903   0.961  0.00  0.00     0.018 A 
ATOM     13  C   UNL d   1       0.627   0.791   1.260  0.00  0.00     0.054 A 
ATOM     14  N   UNL d   1      -1.491   1.389   0.521  0.00  0.00    -0.365 N 
ATOM     15  C   UNL d   1       1.600  -0.148   1.581  0.00  0.00     0.036 A 
ATOM     16  C   UNL d   1       1.339  -1.500   1.436  0.00  0.00     0.025 A 
ATOM     17 CL   UNL d   1       3.142   0.370   2.142  0.00  0.00    -0.084 Cl
ATOM     18  C   UNL d   1      -2.708   1.040   0.073  0.00  0.00     0.090 A 
ATOM     19  HN  UNL d   1      -1.233   2.369   0.635  1.00  0.00     0.165 HD
ATOM     20  C   UNL d   1      -3.119  -0.269  -0.095  0.00  0.00     0.047 A 
ENDBRANCH   2   9
BRANCH   3  21
ATOM     21  C   UNL d   1      -5.498  -6.583  -1.447  0.00  0.00     0.141 C 
BRANCH  21  22
ATOM     22  C   UNL d   1      -5.159  -7.018  -2.854  0.00  0.00    -0.050 A 
ATOM     23  C   UNL d   1      -4.017  -7.771  -3.160  0.00  0.00     0.007 A 
ATOM     24  C   UNL d   1      -3.772  -8.179  -4.473  0.00  0.00     0.001 A 
ATOM     25  C   UNL d   1      -4.664  -7.857  -5.489  0.00  0.00     0.000 A 
ATOM     26  C   UNL d   1      -5.817  -7.128  -5.199  0.00  0.00     0.001 A 
ATOM     27  C   UNL d   1      -6.062  -6.716  -3.887  0.00  0.00     0.007 A 
ENDBRANCH  21  22
ENDBRANCH   3  21
TORSDOF 3
