REMARK  8 active torsions:
REMARK  status: ('A' for Active; 'I' for Inactive)
REMARK    1  A    between atoms: C_2  and  S_1 
REMARK    2  A    between atoms: N_4  and  S_1 
REMARK    3  A    between atoms: C_11  and  N_4 
REMARK    4  A    between atoms: C_18  and  N_4 
REMARK    5  A    between atoms: C_15  and  C_11 
REMARK    6  A    between atoms: C_16  and  C_18 
REMARK    7  A    between atoms: C_17  and  C_16 
REMARK    8  A    between atoms: O_26  and  C_17 
ROOT
ATOM      1  S   UNL d   1       1.144  -0.110   0.077  0.00  0.00     0.263 S 
ATOM      2  O   UNL d   1       2.575   0.018  -0.104  0.00  0.00    -0.200 OA
ATOM      3  O   UNL d   1       0.640  -1.192   0.895  0.00  0.00    -0.200 OA
ENDROOT
BRANCH   1   4
ATOM      4  C   UNL d   1       0.448  -0.267  -1.524  0.00  0.00     0.109 A 
ATOM      5  C   UNL d   1       0.717   0.645  -2.569  0.00  0.00     0.090 A 
ATOM      6  N   UNL d   1       1.439   1.776  -2.518  0.00  0.00    -0.309 N 
ATOM      7  C   UNL d   1       0.146   0.391  -3.948  0.00  0.00     0.068 A 
ATOM      8  S   UNL d   1       1.440   2.423  -4.045  0.00  0.00     0.068 SA
ATOM      9  HN  UNL d   1       1.901   2.164  -1.695  1.00  0.00     0.176 HD
ATOM     10  N   UNL d   1       0.485   1.328  -4.845  0.00  0.00    -0.310 N 
ATOM     11  HN  UNL d   1       0.209   1.362  -5.827  1.00  0.00     0.176 HD
ATOM     12  C   UNL d   1      -0.659  -0.744  -4.210  0.00  0.00     0.032 A 
ATOM     13  C   UNL d   1      -0.888  -1.610  -3.129  0.00  0.00     0.004 A 
ATOM     14  C   UNL d   1      -0.356  -1.385  -1.841  0.00  0.00     0.028 A 
ENDBRANCH   1   4
BRANCH   1  15
ATOM     15  N   UNL d   1       0.545   1.346   0.739  0.00  0.00    -0.300 N 
BRANCH  15  16
ATOM     16  C   UNL d   1      -0.917   1.613   0.599  0.00  0.00     0.200 C 
BRANCH  16  17
ATOM     17  C   UNL d   1      -1.803   0.587   1.212  0.00  0.00     0.071 A 
ATOM     18  O   UNL d   1      -2.621  -0.089   0.352  0.00  0.00    -0.325 OA
ATOM     19  C   UNL d   1      -3.369  -0.943   1.097  0.00  0.00     0.142 A 
ATOM     20  C   UNL d   1      -3.044  -0.830   2.428  0.00  0.00     0.027 A 
ATOM     21  C   UNL d   1      -2.040   0.165   2.506  0.00  0.00     0.036 A 
ENDBRANCH  16  17
ENDBRANCH  15  16
BRANCH  15  22
ATOM     22  C   UNL d   1       1.051   1.679   2.114  0.00  0.00     0.146 C 
BRANCH  22  23
ATOM     23  C   UNL d   1       2.540   1.998   2.135  0.00  0.00     0.130 C 
BRANCH  23  24
ATOM     24  C   UNL d   1       2.974   2.370   3.527  0.00  0.00     0.141 C 
ATOM     25  O   UNL d   1       2.250   2.880   4.368  0.00  0.00    -0.650 OA
BRANCH  24  26
ATOM     26  O   UNL d   1       4.280   2.104   3.762  0.00  0.00    -0.776 OA
ATOM     27  H   UNL d   1       4.745   1.689   3.008  0.00  0.00     0.167 HD
ENDBRANCH  24  26
ENDBRANCH  23  24
ENDBRANCH  22  23
ENDBRANCH  15  22
ENDBRANCH   1  15
TORSDOF 8
