REMARK  2 active torsions:
REMARK  status: ('A' for Active; 'I' for Inactive)
REMARK    1  A    between atoms: C_8  and  C_3 
REMARK    2  A    between atoms: O_9  and  C_4 
ROOT
ATOM      1  N   UNL d   1       0.692   0.486   0.900  0.00  0.00    -0.305 N 
ATOM      2  HN  UNL d   1       1.232   0.785   1.712  1.00  0.00     0.171 HD
ATOM      3  C   UNL d   1       0.995  -0.496  -0.025  0.00  0.00     0.133 A 
ATOM      4  C   UNL d   1      -0.458   0.936   0.476  0.00  0.00     0.239 A 
ATOM      5  N   UNL d   1       0.063  -0.659  -0.982  0.00  0.00    -0.280 N 
ATOM      6  HN  UNL d   1       0.052  -1.313  -1.764  1.00  0.00     0.189 HD
ATOM      7  N   UNL d   1      -0.851   0.268  -0.638  0.00  0.00    -0.259 N 
ATOM      8  C   UNL d   1      -2.041   0.448  -1.423  0.00  0.00     0.181 C 
ENDROOT
BRANCH   3   9
ATOM      9  C   UNL d   1       2.243  -1.256   0.024  0.00  0.00     0.009 A 
ATOM     10  C   UNL d   1       3.151  -1.067   1.076  0.00  0.00     0.017 A 
ATOM     11  C   UNL d   1       4.366  -1.760   1.099  0.00  0.00     0.025 A 
ATOM     12  C   UNL d   1       4.679  -2.645   0.070  0.00  0.00     0.034 A 
ATOM     13  C   UNL d   1       3.782  -2.857  -0.974  0.00  0.00     0.025 A 
ATOM     14 CL   UNL d   1       6.186  -3.475   0.083  0.00  0.00    -0.084 Cl
ATOM     15  C   UNL d   1       2.567  -2.167  -0.994  0.00  0.00     0.017 A 
ENDBRANCH   3   9
BRANCH   4  16
ATOM     16  O   UNL d   1      -1.117   1.913   1.065  0.00  0.00    -0.331 OA
ATOM     17  H   UNL d   1      -0.523   2.141   1.803  0.00  0.00     0.221 HD
ENDBRANCH   4  16
TORSDOF 2
