REMARK  5 active torsions:
REMARK  status: ('A' for Active; 'I' for Inactive)
REMARK    1  A    between atoms: C_2  and  S_1 
REMARK    2  A    between atoms: N_3  and  S_1 
REMARK    3  A    between atoms: C_8  and  N_3 
REMARK    4  A    between atoms: O_15  and  C_7 
REMARK    5  A    between atoms: O_16  and  C_11 
ROOT
ATOM      1  S   UNL d   1       0.774  -0.112   0.090  0.00  0.00     0.266 S 
ATOM      2  O   UNL d   1      -0.413  -0.942   0.113  0.00  0.00    -0.200 OA
ATOM      3  O   UNL d   1       1.483   0.167   1.320  0.00  0.00    -0.200 OA
ENDROOT
BRANCH   1   4
ATOM      4  C   UNL d   1       0.351   1.412  -0.733  0.00  0.00     0.115 A 
ATOM      5  C   UNL d   1      -0.735   1.362  -1.629  0.00  0.00     0.065 A 
ATOM      6  C   UNL d   1      -1.157   2.511  -2.291  0.00  0.00     0.069 A 
ATOM      7  C   UNL d   1      -0.492   3.710  -2.054  0.00  0.00     0.039 A 
ATOM      8  C   UNL d   1       0.578   3.769  -1.157  0.00  0.00     0.041 A 
ATOM      9  C   UNL d   1       1.002   2.624  -0.470  0.00  0.00     0.091 A 
BRANCH   6  10
ATOM     10  O   UNL d   1      -2.189   2.593  -3.182  0.00  0.00    -0.356 OA
ATOM     11  C   UNL d   1      -2.928   1.401  -3.421  0.00  0.00     0.210 C 
ENDBRANCH   6  10
BRANCH   9  12
ATOM     12  O   UNL d   1       2.061   2.643   0.393  0.00  0.00    -0.354 OA
ATOM     13  C   UNL d   1       2.319   3.883   1.049  0.00  0.00     0.210 C 
ENDBRANCH   9  12
ENDBRANCH   1   4
BRANCH   1  14
ATOM     14  N   UNL d   1       1.887  -0.811  -0.950  0.00  0.00    -0.280 N 
ATOM     15  H   UNL d   1       2.839  -0.914  -0.607  0.00  0.00     0.179 HD
BRANCH  14  16
ATOM     16  C   UNL d   1       1.508  -1.304  -2.221  0.00  0.00     0.044 A 
ATOM     17  C   UNL d   1       1.804  -0.556  -3.358  0.00  0.00     0.054 A 
ATOM     18  C   UNL d   1       1.463  -1.053  -4.614  0.00  0.00     0.036 A 
ATOM     19 CL   UNL d   1       1.807  -0.123  -6.021  0.00  0.00    -0.084 Cl
ATOM     20  C   UNL d   1       0.848  -2.298  -4.744  0.00  0.00     0.024 A 
ATOM     21  C   UNL d   1       0.567  -3.051  -3.603  0.00  0.00     0.004 A 
ATOM     22  C   UNL d   1       0.897  -2.553  -2.340  0.00  0.00     0.030 A 
ENDBRANCH  14  16
ENDBRANCH   1  14
TORSDOF 5
