REMARK  0 active torsions:
REMARK  status: ('A' for Active; 'I' for Inactive)
ROOT
ATOM      1  N   UNL d   1       0.033   1.387   0.014  0.00  0.00    -0.356 N 
ATOM      2  HN  UNL d   1       0.031   2.407   0.032  1.00  0.00     0.166 HD
ATOM      3  N   UNL d   1       0.035  -1.425  -0.019  0.00  0.00    -0.356 N 
ATOM      4  HN  UNL d   1       0.035  -2.445  -0.036  1.00  0.00     0.166 HD
ATOM      5  C   UNL d   1       1.183  -0.722  -0.017  0.00  0.00     0.060 A 
ATOM      6  C   UNL d   1       1.186   0.686   0.006  0.00  0.00     0.060 A 
ATOM      7  C   UNL d   1      -1.119  -0.718   0.000  0.00  0.00     0.032 A 
ATOM      8  C   UNL d   1      -1.122   0.676  -0.004  0.00  0.00     0.032 A 
ATOM      9  C   UNL d   1       2.409   1.347   0.021  0.00  0.00     0.039 A 
ATOM     10  C   UNL d   1       2.394  -1.398  -0.039  0.00  0.00     0.039 A 
ATOM     11  C   UNL d   1       3.637  -0.734  -0.034  0.00  0.00    -0.054 A 
ATOM     12  C   UNL d   1       3.646   0.667   0.005  0.00  0.00    -0.054 A 
ATOM     13  C   UNL d   1      -2.405   1.461   0.040  0.00  0.00     0.059 C 
ATOM     14  C   UNL d   1      -2.393  -1.515  -0.045  0.00  0.00     0.059 C 
ATOM     15  C   UNL d   1       4.861  -1.606  -0.072  0.00  0.00     0.049 C 
ATOM     16  C   UNL d   1       4.888   1.514   0.031  0.00  0.00     0.049 C 
ATOM     17  C   UNL d   1      -3.622  -0.705   0.360  0.00  0.00     0.006 C 
ATOM     18  C   UNL d   1      -3.628   0.637  -0.363  0.00  0.00     0.006 C 
ENDROOT
TORSDOF 0
