REMARK  5 active torsions:
REMARK  status: ('A' for Active; 'I' for Inactive)
REMARK    1  A    between atoms: C_2  and  C_1 
REMARK    2  A    between atoms: O_8  and  C_1 
REMARK    3  A    between atoms: O_6  and  C_7 
REMARK    4  A    between atoms: C_9  and  O_6 
REMARK    5  A    between atoms: C_12  and  C_9 
ROOT
ATOM      1  C   UNL d   1       0.698  -0.768   1.246  0.00  0.00     0.037 A 
ATOM      2  C   UNL d   1      -0.203  -1.724   0.761  0.00  0.00     0.021 A 
ATOM      3  C   UNL d   1       0.671  -0.415   2.599  0.00  0.00     0.021 A 
ATOM      4  C   UNL d   1      -1.036  -2.080   3.012  0.00  0.00     0.069 A 
ATOM      5  C   UNL d   1      -1.063  -2.380   1.647  0.00  0.00     0.038 A 
ATOM      6  C   UNL d   1      -0.200  -1.061   3.474  0.00  0.00     0.038 A 
ENDROOT
BRANCH   4   7
ATOM      7  O   UNL d   1      -1.854  -2.845   3.803  0.00  0.00    -0.347 OA
BRANCH   7   8
ATOM      8  C   UNL d   1      -1.493  -2.865   5.188  0.00  0.00     0.214 C 
BRANCH   8   9
ATOM      9  C   UNL d   1      -2.040  -4.088   5.878  0.00  0.00    -0.034 A 
ATOM     10  C   UNL d   1      -1.793  -5.369   5.359  0.00  0.00     0.009 A 
ATOM     11  C   UNL d   1      -2.182  -6.506   6.068  0.00  0.00     0.001 A 
ATOM     12  C   UNL d   1      -2.819  -6.376   7.301  0.00  0.00     0.000 A 
ATOM     13  C   UNL d   1      -3.079  -5.110   7.820  0.00  0.00     0.001 A 
ATOM     14  C   UNL d   1      -2.690  -3.971   7.114  0.00  0.00     0.009 A 
ENDBRANCH   8   9
ENDBRANCH   7   8
ENDBRANCH   4   7
BRANCH   1  15
ATOM     15  C   UNL d   1       1.684  -0.079   0.372  0.00  0.00     0.176 C 
ATOM     16  O   UNL d   1       2.090   1.046   0.600  0.00  0.00    -0.646 OA
BRANCH  15  17
ATOM     17  O   UNL d   1       2.135  -0.836  -0.648  0.00  0.00    -0.773 OA
ATOM     18  H   UNL d   1       1.884  -1.776  -0.608  0.00  0.00     0.167 HD
ENDBRANCH  15  17
ENDBRANCH   1  15
TORSDOF 5
