REMARK  11 active torsions:
REMARK  status: ('A' for Active; 'I' for Inactive)
REMARK    1  A    between atoms: O_10  and  C_1 
REMARK    2  A    between atoms: C_2  and  N_4 
REMARK    3  A    between atoms: N_5  and  C_2 
REMARK    4  A    between atoms: C_3  and  C_21 
REMARK       I    between atoms: N_7  and  C_3 
REMARK    5  A    between atoms: N_4  and  N_7 
REMARK    6  A    between atoms: C_17  and  N_5 
REMARK       I    between atoms: C_6  and  N_9 
REMARK    7  A    between atoms: C_31  and  C_6 
REMARK    8  A    between atoms: N_9  and  C_18 
REMARK    9  A    between atoms: C_19  and  O_10 
REMARK   10  A    between atoms: S_16  and  C_31 
REMARK   11  A    between atoms: C_21  and  S_16 
ROOT
ATOM      1  C   UNL d   1       6.190  -8.094   5.323  0.00  0.00     0.178 C 
ENDROOT
BRANCH   1   2
ATOM      2  C   UNL d   1       7.701  -8.219   5.301  0.00  0.00     0.245 C 
ATOM      3  N   UNL d   1       8.360  -7.232   6.009  0.00  0.00    -0.267 N 
ATOM      4  H   UNL d   1       7.907  -6.380   6.330  0.00  0.00     0.190 HD
ATOM      5  O   UNL d   1       8.284  -9.167   4.772  0.00  0.00    -0.271 OA
BRANCH   3   6
ATOM      6  N   UNL d   1       9.727  -7.372   6.251  0.00  0.00    -0.274 N 
ATOM      7  H   UNL d   1      10.101  -8.309   6.086  0.00  0.00     0.189 HD
BRANCH   6   8
ATOM      8  C   UNL d   1      10.615  -6.337   6.054  0.00  0.00     0.191 C 
ATOM      9  S   UNL d   1      10.225  -4.831   5.429  0.00  0.00    -0.039 SA
BRANCH   8  10
ATOM     10  N   UNL d   1      11.923  -6.606   6.384  0.00  0.00    -0.332 N 
ATOM     11  H   UNL d   1      12.604  -5.989   5.949  0.00  0.00     0.168 HD
BRANCH  10  12
ATOM     12  C   UNL d   1      12.387  -7.331   7.503  0.00  0.00     0.034 A 
ATOM     13  C   UNL d   1      13.756  -7.617   7.576  0.00  0.00     0.031 A 
ATOM     14  C   UNL d   1      14.290  -8.243   8.708  0.00  0.00     0.026 A 
ATOM     15  C   UNL d   1      13.460  -8.574   9.776  0.00  0.00     0.034 A 
ATOM     16  C   UNL d   1      12.100  -8.290   9.720  0.00  0.00     0.026 A 
ATOM     17 CL   UNL d   1      14.120  -9.309  11.186  0.00  0.00    -0.084 Cl
ATOM     18  C   UNL d   1      11.564  -7.678   8.583  0.00  0.00     0.031 A 
ENDBRANCH  10  12
ENDBRANCH   8  10
ENDBRANCH   6   8
ENDBRANCH   3   6
ENDBRANCH   1   2
BRANCH   1  19
ATOM     19  S   UNL d   1       5.602  -6.963   4.035  0.00  0.00    -0.150 SA
BRANCH  19  20
ATOM     20  C   UNL d   1       3.809  -7.148   4.329  0.00  0.00     0.177 C 
BRANCH  20  21
ATOM     21  C   UNL d   1       3.011  -6.176   3.469  0.00  0.00     0.231 C 
ATOM     22  N   UNL d   1       3.222  -6.353   2.112  0.00  0.00    -0.327 N 
ATOM     23  H   UNL d   1       3.873  -7.087   1.856  0.00  0.00     0.169 HD
ATOM     24  O   UNL d   1       2.223  -5.389   3.986  0.00  0.00    -0.272 OA
BRANCH  22  25
ATOM     25  C   UNL d   1       2.684  -5.601   1.051  0.00  0.00     0.034 A 
ATOM     26  C   UNL d   1       1.907  -4.452   1.217  0.00  0.00     0.032 A 
ATOM     27  C   UNL d   1       1.407  -3.755   0.108  0.00  0.00     0.039 A 
ATOM     28  C   UNL d   1       1.651  -4.222  -1.184  0.00  0.00     0.078 A 
ATOM     29  C   UNL d   1       2.457  -5.351  -1.352  0.00  0.00     0.039 A 
ATOM     30  C   UNL d   1       2.970  -6.034  -0.247  0.00  0.00     0.032 A 
BRANCH  28  31
ATOM     31  O   UNL d   1       1.178  -3.693  -2.348  0.00  0.00    -0.255 OA
BRANCH  31  32
ATOM     32  C   UNL d   1       0.117  -2.756  -2.282  0.00  0.00     0.530 C 
ATOM     33  F   UNL d   1      -0.815  -3.090  -1.363  0.00  0.00    -0.144 F 
ATOM     34  F   UNL d   1      -0.493  -2.720  -3.489  0.00  0.00    -0.144 F 
ATOM     35  F   UNL d   1       0.593  -1.523  -2.013  0.00  0.00    -0.144 F 
ENDBRANCH  31  32
ENDBRANCH  28  31
ENDBRANCH  22  25
ENDBRANCH  20  21
ENDBRANCH  19  20
ENDBRANCH   1  19
TORSDOF 11
