REMARK  4 active torsions:
REMARK  status: ('A' for Active; 'I' for Inactive)
REMARK    1  A    between atoms: C_12  and  C_1 
REMARK    2  A    between atoms: C_2  and  C_4 
REMARK    3  A    between atoms: C_7  and  N_3 
REMARK    4  A    between atoms: N_11  and  C_12 
ROOT
ATOM      1  N   UNL d   1       0.962  -1.607   0.399  0.00  0.00    -0.266 NA
ATOM      2  N   UNL d   1      -1.576  -3.146   0.293  0.00  0.00     0.095 N 
ATOM      3  C   UNL d   1       0.589  -2.380  -0.808  0.00  0.00     0.127 C 
ATOM      4  C   UNL d   1      -0.021  -1.536   1.508  0.00  0.00     0.127 C 
ATOM      5  C   UNL d   1      -0.430  -3.513  -0.561  0.00  0.00     0.287 C 
ATOM      6  C   UNL d   1      -0.986  -2.733   1.589  0.00  0.00     0.287 C 
ENDROOT
BRANCH   1   7
ATOM      7  C   UNL d   1       1.506  -0.331   0.105  0.00  0.00     0.082 A 
ATOM      8  N   UNL d   1       1.150   0.737   0.857  0.00  0.00    -0.356 N 
ATOM      9  C   UNL d   1       1.564   1.976   0.500  0.00  0.00     0.105 A 
ATOM     10  HN  UNL d   1       0.573   0.609   1.689  1.00  0.00     0.166 HD
ATOM     11  C   UNL d   1       2.356   2.237  -0.600  0.00  0.00     0.063 A 
ATOM     12  C   UNL d   1       2.787   1.136  -1.336  0.00  0.00     0.021 A 
ATOM     13  C   UNL d   1       2.374  -0.148  -0.974  0.00  0.00     0.043 A 
BRANCH  11  14
ATOM     14  C   UNL d   1       2.729   3.636  -0.969  0.00  0.00     0.418 C 
ATOM     15  F   UNL d   1       2.061   4.587  -0.259  0.00  0.00    -0.166 F 
ATOM     16  F   UNL d   1       4.052   3.891  -0.781  0.00  0.00    -0.166 F 
ATOM     17  F   UNL d   1       2.482   3.911  -2.280  0.00  0.00    -0.166 F 
ENDBRANCH  11  14
ENDBRANCH   1   7
BRANCH   2  18
ATOM     18  C   UNL d   1      -2.392  -2.087  -0.351  0.00  0.00     0.313 C 
BRANCH  18  19
ATOM     19  C   UNL d   1      -3.551  -1.715   0.521  0.00  0.00    -0.002 C 
ATOM     20  C   UNL d   1      -4.685  -2.474   0.751  0.00  0.00     0.098 C 
ATOM     21  N   UNL d   1      -5.408  -1.872   1.744  0.00  0.00    -0.365 N 
ATOM     22  C   UNL d   1      -4.777  -0.726   2.165  0.00  0.00     0.043 A 
ATOM     23  H   UNL d   1      -6.258  -2.238   2.147  0.00  0.00     0.165 HD
ATOM     24  C   UNL d   1      -3.675  -0.536   1.332  0.00  0.00    -0.000 A 
ATOM     25  C   UNL d   1      -5.083   0.141   3.223  0.00  0.00     0.030 A 
ATOM     26  C   UNL d   1      -2.910   0.639   1.496  0.00  0.00     0.014 A 
ATOM     27  C   UNL d   1      -3.195   1.511   2.551  0.00  0.00     0.001 A 
ATOM     28  C   UNL d   1      -4.252   1.248   3.417  0.00  0.00     0.002 A 
ENDBRANCH  18  19
ENDBRANCH   2  18
TORSDOF 4
