REMARK  7 active torsions:
REMARK  status: ('A' for Active; 'I' for Inactive)
REMARK    1  A    between atoms: O_18  and  C_1 
REMARK    2  A    between atoms: O_20  and  C_2 
REMARK    3  A    between atoms: O_19  and  C_3 
REMARK    4  A    between atoms: C_4  and  C_14 
REMARK    5  A    between atoms: N_5  and  N_7 
REMARK    6  A    between atoms: O_23  and  C_9 
REMARK    7  A    between atoms: C_16  and  C_13 
ROOT
ATOM      1  N   UNL d   1      -3.322   1.628  -0.325  0.00  0.00    -0.311 N 
ATOM      2  HN  UNL d   1      -2.759   2.471  -0.443  1.00  0.00     0.186 HD
ATOM      3  C   UNL d   1      -2.836   0.436  -0.184  0.00  0.00     0.118 C 
ENDROOT
BRANCH   1   4
ATOM      4  N   UNL d   1      -4.710   1.610  -0.295  0.00  0.00    -0.311 N 
ATOM      5  C   UNL d   1      -5.176   2.813  -0.434  0.00  0.00     0.121 C 
ATOM      6  HN  UNL d   1      -5.281   0.773  -0.181  1.00  0.00     0.186 HD
BRANCH   5   7
ATOM      7  C   UNL d   1      -6.624   3.086  -0.390  0.00  0.00     0.015 A 
ATOM      8  C   UNL d   1      -7.571   2.074  -0.183  0.00  0.00     0.077 A 
ATOM      9  C   UNL d   1      -8.927   2.385  -0.115  0.00  0.00     0.039 A 
ATOM     10  C   UNL d   1      -9.344   3.709  -0.256  0.00  0.00     0.022 A 
ATOM     11  C   UNL d   1      -8.401   4.714  -0.470  0.00  0.00     0.011 A 
ATOM     12  C   UNL d   1      -7.041   4.412  -0.538  0.00  0.00     0.034 A 
ATOM     13 BR   UNL d   1      -8.970   6.507  -0.661  0.00  0.00    -0.051 Br
BRANCH   8  14
ATOM     14  O   UNL d   1      -7.238   0.756  -0.034  0.00  0.00    -0.360 OA
ATOM     15  H   UNL d   1      -6.260   0.692  -0.096  0.00  0.00     0.217 HD
ENDBRANCH   8  14
ENDBRANCH   5   7
ENDBRANCH   1   4
BRANCH   3  16
ATOM     16  C   UNL d   1      -1.390   0.176  -0.148  0.00  0.00    -0.014 A 
ATOM     17  C   UNL d   1      -0.465   1.217  -0.193  0.00  0.00     0.052 A 
ATOM     18  C   UNL d   1       0.912   0.957  -0.163  0.00  0.00     0.105 A 
ATOM     19  C   UNL d   1       1.357  -0.376  -0.076  0.00  0.00     0.135 A 
ATOM     20  C   UNL d   1       0.411  -1.422   0.054  0.00  0.00     0.105 A 
ATOM     21  C   UNL d   1      -0.957  -1.142  -0.034  0.00  0.00     0.052 A 
BRANCH  18  22
ATOM     22  O   UNL d   1       1.640   2.115  -0.226  0.00  0.00    -0.353 OA
ATOM     23  C   UNL d   1       3.055   2.058  -0.202  0.00  0.00     0.210 C 
ENDBRANCH  18  22
BRANCH  19  24
ATOM     24  O   UNL d   1       2.704  -0.630   0.011  0.00  0.00    -0.351 OA
ATOM     25  C   UNL d   1       3.204  -1.556  -0.959  0.00  0.00     0.210 C 
ENDBRANCH  19  24
BRANCH  20  26
ATOM     26  O   UNL d   1       0.895  -2.689   0.282  0.00  0.00    -0.353 OA
ATOM     27  C   UNL d   1      -0.022  -3.643   0.810  0.00  0.00     0.210 C 
ENDBRANCH  20  26
ENDBRANCH   3  16
TORSDOF 7
