REMARK  8 active torsions:
REMARK  status: ('A' for Active; 'I' for Inactive)
REMARK    1  A    between atoms: S_10  and  C_3 
REMARK    2  A    between atoms: C_9  and  C_4 
REMARK    3  A    between atoms: C_5  and  C_11 
REMARK    4  A    between atoms: C_6  and  C_5 
REMARK    5  A    between atoms: O_19  and  C_6 
REMARK    6  A    between atoms: C_17  and  S_10 
REMARK    7  A    between atoms: C_11  and  C_17 
REMARK    8  A    between atoms: C_23  and  O_19 
ROOT
ATOM      1  N   UNL d   1      -0.999   1.097  -0.923  0.00  0.00    -0.336 N 
ATOM      2  HN  UNL d   1      -1.737   1.771  -1.126  1.00  0.00     0.168 HD
ATOM      3  C   UNL d   1      -0.156   1.276   0.108  0.00  0.00     0.144 A 
ATOM      4  C   UNL d   1      -0.832  -0.012  -1.683  0.00  0.00     0.047 A 
ATOM      5  N   UNL d   1       0.832   0.433   0.440  0.00  0.00    -0.347 N 
ATOM      6  HN  UNL d   1       1.440   0.607   1.240  1.00  0.00     0.167 HD
ATOM      7  C   UNL d   1       0.176  -0.921  -1.415  0.00  0.00     0.047 A 
ATOM      8  C   UNL d   1       0.980  -0.650  -0.335  0.00  0.00     0.092 A 
ENDROOT
BRANCH   3   9
ATOM      9  S   UNL d   1      -0.270   2.750   1.087  0.00  0.00    -0.086 SA
BRANCH   9  10
ATOM     10  C   UNL d   1      -1.565   3.655   0.183  0.00  0.00     0.161 C 
BRANCH  10  11
ATOM     11  C   UNL d   1      -1.752   5.066   0.728  0.00  0.00     0.145 C 
ATOM     12  O   UNL d   1      -1.141   5.495   1.713  0.00  0.00    -0.297 OA
BRANCH  11  13
ATOM     13  C   UNL d   1      -2.630   6.032  -0.032  0.00  0.00     0.190 C 
BRANCH  13  14
ATOM     14  C   UNL d   1      -3.878   5.479  -0.654  0.00  0.00     0.265 C 
ATOM     15  O   UNL d   1      -4.120   4.298  -0.830  0.00  0.00    -0.265 OA
BRANCH  14  16
ATOM     16  O   UNL d   1      -4.691   6.506  -1.038  0.00  0.00    -0.322 OA
BRANCH  16  17
ATOM     17  C   UNL d   1      -5.918   6.121  -1.680  0.00  0.00     0.174 C 
ATOM     18  C   UNL d   1      -6.981   5.811  -0.643  0.00  0.00     0.034 C 
ENDBRANCH  16  17
ENDBRANCH  14  16
ENDBRANCH  13  14
ENDBRANCH  11  13
ENDBRANCH  10  11
ENDBRANCH   9  10
ENDBRANCH   3   9
BRANCH   4  19
ATOM     19  C   UNL d   1      -1.745  -0.151  -2.835  0.00  0.00     0.006 A 
ATOM     20  C   UNL d   1      -2.377   0.958  -3.402  0.00  0.00     0.101 A 
ATOM     21  N   UNL d   1      -3.174   0.934  -4.501  0.00  0.00    -0.374 N 
ATOM     22  C   UNL d   1      -3.381  -0.269  -5.071  0.00  0.00     0.087 A 
ATOM     23  HN  UNL d   1      -3.594   1.784  -4.877  1.00  0.00     0.164 HD
ATOM     24  C   UNL d   1      -2.840  -1.444  -4.585  0.00  0.00     0.018 A 
ATOM     25  C   UNL d   1      -2.022  -1.382  -3.455  0.00  0.00     0.016 A 
ENDBRANCH   4  19
TORSDOF 8
