REMARK  3 active torsions:
REMARK  status: ('A' for Active; 'I' for Inactive)
REMARK    1  A    between atoms: C_2  and  C_1 
REMARK       I    between atoms: N_3  and  C_1 
REMARK    2  A    between atoms: N_5  and  N_3 
REMARK    3  A    between atoms: C_10  and  N_5 
ROOT
ATOM      1  C   UNL d   1       0.610   0.878  -0.133  0.00  0.00     0.273 C 
ATOM      2  N   UNL d   1       0.247   0.569   1.175  0.00  0.00    -0.282 N 
ATOM      3  O   UNL d   1      -0.196   0.752  -1.056  0.00  0.00    -0.266 OA
ATOM      4  H   UNL d   1       0.972   0.348   1.848  0.00  0.00     0.184 HD
ENDROOT
BRANCH   2   5
ATOM      5  N   UNL d   1      -1.011  -0.042   1.362  0.00  0.00    -0.203 NA
ATOM      6  H   UNL d   1      -1.572   0.053   0.504  0.00  0.00     0.153 HD
BRANCH   5   7
ATOM      7  C   UNL d   1      -1.724   0.432   2.493  0.00  0.00     0.027 A 
ATOM      8  C   UNL d   1      -3.127   0.447   2.452  0.00  0.00     0.027 A 
ATOM      9  C   UNL d   1      -3.882   0.782   3.582  0.00  0.00     0.026 A 
ATOM     10  C   UNL d   1      -3.237   1.080   4.778  0.00  0.00     0.034 A 
ATOM     11  C   UNL d   1      -1.848   1.053   4.849  0.00  0.00     0.026 A 
ATOM     12 CL   UNL d   1      -4.161   1.455   6.180  0.00  0.00    -0.084 Cl
ATOM     13  C   UNL d   1      -1.097   0.721   3.715  0.00  0.00     0.027 A 
ENDBRANCH   5   7
ENDBRANCH   2   5
BRANCH   1  14
ATOM     14  C   UNL d   1       1.978   1.339  -0.330  0.00  0.00     0.073 A 
ATOM     15  S   UNL d   1       3.013   1.738   0.978  0.00  0.00    -0.097 SA
ATOM     16  C   UNL d   1       4.262   2.249  -0.073  0.00  0.00     0.050 A 
ATOM     17  C   UNL d   1       3.921   2.086  -1.397  0.00  0.00     0.009 A 
ATOM     18  C   UNL d   1       2.607   1.556  -1.544  0.00  0.00     0.025 A 
ENDBRANCH   1  14
TORSDOF 3
