REMARK  3 active torsions:
REMARK  status: ('A' for Active; 'I' for Inactive)
REMARK    1  A    between atoms: C_8  and  C_12 
REMARK    2  A    between atoms: O_18  and  C_8 
REMARK    3  A    between atoms: C_21  and  O_18 
ROOT
ATOM      1  C   UNL d   1      -3.165   0.198   0.090  0.00  0.00     0.147 A 
ATOM      2  N   UNL d   1      -2.445   1.119  -0.516  0.00  0.00    -0.336 N 
ATOM      3  HN  UNL d   1      -2.834   1.912  -1.027  1.00  0.00     0.168 HD
ATOM      4  S   UNL d   1      -2.220  -1.069   0.798  0.00  0.00    -0.052 SA
ATOM      5  N   UNL d   1      -4.529   0.219   0.127  0.00  0.00    -0.361 N 
ATOM      6  C   UNL d   1      -0.769  -0.299   0.306  0.00  0.00     0.036 A 
ATOM      7  C   UNL d   1      -1.093   0.873  -0.371  0.00  0.00     0.051 A 
ATOM      8  C   UNL d   1       0.560  -0.702   0.513  0.00  0.00     0.045 A 
ATOM      9  C   UNL d   1      -5.301  -0.383   1.204  0.00  0.00     0.126 C 
ATOM     10  C   UNL d   1      -5.265   0.925  -0.916  0.00  0.00     0.126 C 
ATOM     11  C   UNL d   1      -7.076   1.383   0.802  0.00  0.00     0.088 C 
ATOM     12  C   UNL d   1      -0.048   1.695  -0.843  0.00  0.00     0.032 A 
ATOM     13  C   UNL d   1      -6.178   1.981  -0.293  0.00  0.00     0.034 C 
ATOM     14  C   UNL d   1      -6.186   0.689   1.847  0.00  0.00     0.034 C 
ATOM     15  C   UNL d   1       1.574   0.131   0.036  0.00  0.00     0.035 A 
ATOM     16  C   UNL d   1       1.283   1.318  -0.628  0.00  0.00     0.026 A 
ATOM     17 CL   UNL d   1       3.218  -0.321   0.282  0.00  0.00    -0.084 Cl
ENDROOT
BRANCH  11  18
ATOM     18  C   UNL d   1      -8.114   0.393   0.279  0.00  0.00     0.263 C 
ATOM     19  O   UNL d   1      -8.592  -0.509   0.956  0.00  0.00    -0.265 OA
BRANCH  18  20
ATOM     20  O   UNL d   1      -8.431   0.633  -1.021  0.00  0.00    -0.322 OA
BRANCH  20  21
ATOM     21  C   UNL d   1      -9.178  -0.392  -1.693  0.00  0.00     0.174 C 
ATOM     22  C   UNL d   1     -10.626   0.023  -1.854  0.00  0.00     0.034 C 
ENDBRANCH  20  21
ENDBRANCH  18  20
ENDBRANCH  11  18
TORSDOF 3
