REMARK  4 active torsions:
REMARK  status: ('A' for Active; 'I' for Inactive)
REMARK       I    between atoms: C_2  and  N_8 
REMARK    1  A    between atoms: C_4  and  C_2 
REMARK    2  A    between atoms: C_5  and  C_6 
REMARK    3  A    between atoms: O_17  and  C_5 
REMARK    4  A    between atoms: N_8  and  C_11 
ROOT
ATOM      1  C   UNL d   1       3.740  -2.528  -0.582  0.00  0.00     0.245 C 
ATOM      2  N   UNL d   1       3.387  -1.315  -0.026  0.00  0.00    -0.324 N 
ATOM      3  O   UNL d   1       2.988  -3.431  -0.927  0.00  0.00    -0.268 OA
ATOM      4  H   UNL d   1       4.135  -0.681   0.223  0.00  0.00     0.169 HD
ENDROOT
BRANCH   2   5
ATOM      5  C   UNL d   1       2.078  -0.799   0.119  0.00  0.00     0.037 A 
ATOM      6  C   UNL d   1       0.921  -1.519  -0.198  0.00  0.00     0.069 A 
ATOM      7  C   UNL d   1      -0.296  -0.873  -0.103  0.00  0.00     0.107 A 
ATOM      8  C   UNL d   1      -0.396   0.441   0.285  0.00  0.00     0.105 A 
ATOM      9  O   UNL d   1      -1.510  -1.422  -0.382  0.00  0.00    -0.323 OA
ATOM     10  O   UNL d   1      -1.679   0.889   0.279  0.00  0.00    -0.323 OA
ATOM     11  C   UNL d   1       0.715   1.174   0.634  0.00  0.00     0.042 A 
ATOM     12  C   UNL d   1      -2.385  -0.327  -0.043  0.00  0.00     0.352 A 
ATOM     13  C   UNL d   1       1.962   0.538   0.564  0.00  0.00     0.032 A 
ENDBRANCH   2   5
BRANCH   1  14
ATOM     14  C   UNL d   1       5.204  -2.658  -0.781  0.00  0.00     0.081 C 
ATOM     15  C   UNL d   1       5.676  -3.776  -1.354  0.00  0.00     0.086 C 
BRANCH  15  16
ATOM     16  C   UNL d   1       7.124  -3.892  -1.610  0.00  0.00     0.165 C 
ATOM     17  O   UNL d   1       7.932  -3.015  -1.361  0.00  0.00    -0.647 OA
BRANCH  16  18
ATOM     18  O   UNL d   1       7.451  -5.074  -2.158  0.00  0.00    -0.773 OA
ATOM     19  H   UNL d   1       6.713  -5.694  -2.308  0.00  0.00     0.167 HD
ENDBRANCH  16  18
ENDBRANCH  15  16
ENDBRANCH   1  14
TORSDOF 4
