REMARK  10 active torsions:
REMARK  status: ('A' for Active; 'I' for Inactive)
REMARK    1  A    between atoms: C_2  and  N_1 
REMARK    2  A    between atoms: C_3  and  C_6 
REMARK       I    between atoms: N_4  and  C_3 
REMARK    3  A    between atoms: C_9  and  N_4 
REMARK    4  A    between atoms: C_11  and  N_4 
REMARK    5  A    between atoms: S_12  and  C_7 
REMARK    6  A    between atoms: C_21  and  C_11 
REMARK    7  A    between atoms: C_28  and  S_12 
REMARK    8  A    between atoms: C_16  and  C_28 
REMARK    9  A    between atoms: O_33  and  C_16 
REMARK   10  A    between atoms: C_35  and  O_33 
ROOT
ATOM      1  C   UNL d   1       0.828  -4.732  -0.370  0.00  0.00     0.258 C 
ATOM      2  N   UNL d   1       0.244  -5.933  -0.836  0.00  0.00    -0.310 N 
ATOM      3  O   UNL d   1       1.788  -4.694   0.401  0.00  0.00    -0.267 OA
ENDROOT
BRANCH   1   4
ATOM      4  C   UNL d   1       0.312  -3.399  -0.806  0.00  0.00     0.035 A 
ATOM      5  C   UNL d   1       0.326  -2.341   0.111  0.00  0.00     0.054 A 
ATOM      6  C   UNL d   1      -0.101  -1.062  -0.287  0.00  0.00     0.120 A 
ATOM      7  C   UNL d   1      -0.548  -0.792  -1.587  0.00  0.00     0.034 A 
ATOM      8  C   UNL d   1      -0.541  -1.863  -2.491  0.00  0.00     0.022 A 
ATOM      9  C   UNL d   1      -0.085  -3.133  -2.119  0.00  0.00     0.018 A 
BRANCH   6  10
ATOM     10  N   UNL d   1      -0.040  -0.013   0.702  0.00  0.00    -0.114 N 
ATOM     11  O   UNL d   1       1.088   0.374   1.034  0.00  0.00    -0.532 OA
ATOM     12  O   UNL d   1      -1.112   0.415   1.149  0.00  0.00    -0.532 OA
ENDBRANCH   6  10
BRANCH   7  13
ATOM     13  S   UNL d   1      -1.146   0.765  -2.236  0.00  0.00    -0.118 SA
BRANCH  13  14
ATOM     14  C   UNL d   1       0.333   1.834  -2.169  0.00  0.00     0.190 C 
BRANCH  14  15
ATOM     15  C   UNL d   1       1.567   1.250  -2.824  0.00  0.00     0.268 C 
ATOM     16  O   UNL d   1       1.665   0.162  -3.371  0.00  0.00    -0.264 OA
BRANCH  15  17
ATOM     17  O   UNL d   1       2.602   2.123  -2.641  0.00  0.00    -0.321 OA
BRANCH  17  18
ATOM     18  C   UNL d   1       3.913   1.586  -2.865  0.00  0.00     0.174 C 
ATOM     19  C   UNL d   1       4.406   0.985  -1.562  0.00  0.00     0.034 C 
ENDBRANCH  17  18
ENDBRANCH  15  17
ENDBRANCH  14  15
ENDBRANCH  13  14
ENDBRANCH   7  13
ENDBRANCH   1   4
BRANCH   2  20
ATOM     20  C   UNL d   1       0.673  -7.167  -0.235  0.00  0.00     0.038 A 
ATOM     21  C   UNL d   1       0.676  -7.317   1.161  0.00  0.00     0.033 A 
ATOM     22  C   UNL d   1       0.911  -8.569   1.736  0.00  0.00     0.044 A 
ATOM     23  C   UNL d   1       1.167  -9.662   0.918  0.00  0.00     0.116 A 
ATOM     24  C   UNL d   1       1.197  -9.527  -0.465  0.00  0.00     0.044 A 
ATOM     25  F   UNL d   1       1.372 -10.865   1.469  0.00  0.00    -0.206 F 
ATOM     26  C   UNL d   1       0.935  -8.282  -1.043  0.00  0.00     0.033 A 
ENDBRANCH   2  20
BRANCH   2  27
ATOM     27  C   UNL d   1      -1.160  -5.996  -1.292  0.00  0.00     0.171 C 
BRANCH  27  28
ATOM     28  C   UNL d   1      -1.422  -6.219  -2.769  0.00  0.00    -0.037 A 
ATOM     29  C   UNL d   1      -2.771  -6.359  -3.153  0.00  0.00     0.048 A 
ATOM     30  C   UNL d   1      -3.064  -6.559  -4.482  0.00  0.00     0.105 A 
ATOM     31  O   UNL d   1      -4.309  -6.739  -4.999  0.00  0.00    -0.323 OA
ATOM     32  C   UNL d   1      -2.083  -6.601  -5.441  0.00  0.00     0.105 A 
ATOM     33  C   UNL d   1      -3.982  -7.030  -6.373  0.00  0.00     0.352 C 
ATOM     34  O   UNL d   1      -2.590  -6.811  -6.685  0.00  0.00    -0.323 OA
ATOM     35  C   UNL d   1      -0.753  -6.450  -5.117  0.00  0.00     0.040 A 
ATOM     36  C   UNL d   1      -0.421  -6.275  -3.765  0.00  0.00     0.012 A 
ENDBRANCH  27  28
ENDBRANCH   2  27
TORSDOF 10
