REMARK  7 active torsions:
REMARK  status: ('A' for Active; 'I' for Inactive)
REMARK    1  A    between atoms: C_2  and  S_1 
REMARK    2  A    between atoms: N_5  and  S_1 
REMARK    3  A    between atoms: C_14  and  N_5 
REMARK    4  A    between atoms: C_6  and  C_19 
REMARK    5  A    between atoms: C_20  and  C_14 
REMARK    6  A    between atoms: S_17  and  C_20 
REMARK    7  A    between atoms: C_19  and  S_17 
ROOT
ATOM      1  N   UNL d   1       2.707   0.015   0.178  0.00  0.00    -0.215 NA
ATOM      2  H   UNL d   1       3.164  -0.411  -0.633  0.00  0.00     0.140 HD
ENDROOT
BRANCH   1   3
ATOM      3  S   UNL d   1       1.032  -0.082   0.076  0.00  0.00     0.241 S 
ATOM      4  O   UNL d   1       0.708  -1.418  -0.360  0.00  0.00    -0.206 OA
ATOM      5  O   UNL d   1       0.484   0.492   1.284  0.00  0.00    -0.206 OA
BRANCH   3   6
ATOM      6  C   UNL d   1       0.653   1.010  -1.279  0.00  0.00     0.074 A 
ATOM      7  C   UNL d   1       1.095   0.678  -2.566  0.00  0.00     0.026 A 
ATOM      8  C   UNL d   1       0.782   1.517  -3.638  0.00  0.00     0.025 A 
ATOM      9  C   UNL d   1       0.027   2.670  -3.420  0.00  0.00     0.034 A 
ATOM     10  C   UNL d   1      -0.421   2.994  -2.138  0.00  0.00     0.025 A 
ATOM     11 CL   UNL d   1      -0.365   3.696  -4.744  0.00  0.00    -0.084 Cl
ATOM     12  C   UNL d   1      -0.108   2.162  -1.060  0.00  0.00     0.026 A 
ENDBRANCH   3   6
ENDBRANCH   1   3
BRANCH   1  13
ATOM     13  C   UNL d   1       3.308   1.295   0.605  0.00  0.00     0.114 C 
BRANCH  13  14
ATOM     14  C   UNL d   1       4.838   1.204   0.514  0.00  0.00     0.089 C 
BRANCH  14  15
ATOM     15  S   UNL d   1       5.299   0.829  -1.211  0.00  0.00    -0.161 SA
BRANCH  15  16
ATOM     16  C   UNL d   1       7.118   0.844  -1.059  0.00  0.00     0.139 C 
BRANCH  16  17
ATOM     17  C   UNL d   1       7.684   0.535  -2.395  0.00  0.00     0.061 A 
ATOM     18  O   UNL d   1       7.945   1.598  -3.210  0.00  0.00    -0.326 OA
ATOM     19  C   UNL d   1       8.326   1.091  -4.410  0.00  0.00     0.142 A 
ATOM     20  C   UNL d   1       8.339  -0.283  -4.371  0.00  0.00     0.027 A 
ATOM     21  C   UNL d   1       7.944  -0.646  -3.062  0.00  0.00     0.035 A 
ENDBRANCH  16  17
ENDBRANCH  15  16
ENDBRANCH  14  15
ENDBRANCH  13  14
ENDBRANCH   1  13
TORSDOF 7
