REMARK  3 active torsions:
REMARK  status: ('A' for Active; 'I' for Inactive)
REMARK    1  A    between atoms: C_12  and  C_3 
REMARK    2  A    between atoms: C_8  and  C_4 
REMARK    3  A    between atoms: C_6  and  C_11 
ROOT
ATOM      1  N   UNL d   1       1.433  -0.606  -0.021  0.00  0.00    -0.349 N 
ATOM      2  HN  UNL d   1       2.315  -1.118  -0.025  1.00  0.00     0.166 HD
ATOM      3  C   UNL d   1       0.237  -1.165  -0.000  0.00  0.00     0.084 A 
ATOM      4  C   UNL d   1       1.320   0.778  -0.036  0.00  0.00     0.050 A 
ATOM      5  S   UNL d   1      -1.080  -0.048  -0.032  0.00  0.00    -0.081 SA
ATOM      6  C   UNL d   1       0.024   1.252  -0.017  0.00  0.00     0.082 A 
ENDROOT
BRANCH   3   7
ATOM      7  C   UNL d   1      -0.016  -2.618   0.010  0.00  0.00    -0.002 A 
ATOM      8  C   UNL d   1      -1.171  -3.173   0.583  0.00  0.00     0.015 A 
ATOM      9  C   UNL d   1      -1.395  -4.552   0.569  0.00  0.00     0.017 A 
ATOM     10  C   UNL d   1      -0.464  -5.419  -0.014  0.00  0.00     0.048 A 
ATOM     11  C   UNL d   1       0.702  -4.876  -0.576  0.00  0.00     0.017 A 
ATOM     12  C   UNL d   1       0.923  -3.492  -0.558  0.00  0.00     0.015 A 
BRANCH  10  13
ATOM     13  C   UNL d   1      -0.704  -6.909  -0.041  0.00  0.00     0.417 C 
ATOM     14  F   UNL d   1      -1.880  -7.279   0.541  0.00  0.00    -0.166 F 
ATOM     15  F   UNL d   1      -0.745  -7.409  -1.307  0.00  0.00    -0.166 F 
ATOM     16  F   UNL d   1       0.267  -7.607   0.609  0.00  0.00    -0.166 F 
ENDBRANCH  10  13
ENDBRANCH   3   7
BRANCH   4  17
ATOM     17  C   UNL d   1       2.490   1.649  -0.050  0.00  0.00    -0.006 A 
ATOM     18  C   UNL d   1       2.429   2.929  -0.618  0.00  0.00     0.053 A 
ATOM     19  C   UNL d   1       3.549   3.759  -0.616  0.00  0.00     0.103 A 
ATOM     20  O   UNL d   1       3.396   4.988  -1.204  0.00  0.00    -0.346 OA
ATOM     21  C   UNL d   1       4.741   3.329  -0.028  0.00  0.00     0.102 A 
ATOM     22  C   UNL d   1       4.662   5.602  -1.459  0.00  0.00     0.202 C 
ATOM     23  C   UNL d   1       5.572   5.481  -0.248  0.00  0.00     0.202 C 
ATOM     24  O   UNL d   1       5.868   4.108   0.034  0.00  0.00    -0.346 OA
ATOM     25  C   UNL d   1       4.822   2.051   0.521  0.00  0.00     0.040 A 
ATOM     26  C   UNL d   1       3.701   1.213   0.508  0.00  0.00     0.017 A 
ENDBRANCH   4  17
TORSDOF 3
