REMARK  6 active torsions:
REMARK  status: ('A' for Active; 'I' for Inactive)
REMARK    1  A    between atoms: C_10  and  C_1 
REMARK    2  A    between atoms: C_13  and  C_5 
REMARK    3  A    between atoms: C_9  and  S_19 
REMARK    4  A    between atoms: C_21  and  C_10 
REMARK    5  A    between atoms: C_11  and  C_12 
REMARK    6  A    between atoms: S_19  and  C_21 
ROOT
ATOM      1  C   UNL d   1      -1.337   2.159  -0.050  0.00  0.00     0.194 C 
ATOM      2  O   UNL d   1      -0.873   1.216   0.593  0.00  0.00    -0.289 OA
ENDROOT
BRANCH   1   3
ATOM      3  C   UNL d   1      -2.669   2.071  -0.621  0.00  0.00     0.147 A 
ATOM      4  C   UNL d   1      -3.678   1.158  -0.432  0.00  0.00     0.075 A 
ATOM      5  C   UNL d   1      -4.743   1.592  -1.260  0.00  0.00     0.068 A 
ATOM      6  N   UNL d   1      -4.397   2.722  -1.899  0.00  0.00    -0.260 N 
ATOM      7  O   UNL d   1      -3.108   3.022  -1.494  0.00  0.00    -0.234 OA
ATOM      8  HN  UNL d   1      -4.971   3.254  -2.554  1.00  0.00     0.195 HD
BRANCH   5   9
ATOM      9  C   UNL d   1      -6.058   0.968  -1.426  0.00  0.00    -0.006 A 
ATOM     10  C   UNL d   1      -7.176   1.737  -1.780  0.00  0.00     0.039 A 
ATOM     11  C   UNL d   1      -8.444   1.149  -1.895  0.00  0.00     0.056 A 
ATOM     12 CL   UNL d   1      -9.771   2.173  -2.316  0.00  0.00    -0.083 Cl
ATOM     13  C   UNL d   1      -8.603  -0.221  -1.663  0.00  0.00     0.055 A 
ATOM     14  C   UNL d   1      -7.492  -0.999  -1.331  0.00  0.00     0.026 A 
ATOM     15 CL   UNL d   1     -10.137  -1.010  -1.763  0.00  0.00    -0.083 Cl
ATOM     16  C   UNL d   1      -6.228  -0.409  -1.214  0.00  0.00     0.015 A 
ENDBRANCH   5   9
ENDBRANCH   1   3
BRANCH   1  17
ATOM     17  C   UNL d   1      -0.630   3.495  -0.152  0.00  0.00     0.168 C 
BRANCH  17  18
ATOM     18  S   UNL d   1       1.176   3.369  -0.038  0.00  0.00    -0.086 SA
BRANCH  18  19
ATOM     19  C   UNL d   1       1.595   2.441  -1.494  0.00  0.00     0.144 A 
ATOM     20  N   UNL d   1       0.647   2.051  -2.365  0.00  0.00    -0.336 N 
ATOM     21  C   UNL d   1       1.082   1.326  -3.428  0.00  0.00     0.052 A 
ATOM     22  HN  UNL d   1      -0.337   2.285  -2.235  1.00  0.00     0.168 HD
ATOM     23  C   UNL d   1       2.417   1.041  -3.650  0.00  0.00     0.048 A 
ATOM     24  C   UNL d   1       3.295   1.499  -2.706  0.00  0.00     0.092 A 
ATOM     25  N   UNL d   1       2.910   2.196  -1.629  0.00  0.00    -0.347 N 
ATOM     26  HN  UNL d   1       3.586   2.526  -0.940  1.00  0.00     0.167 HD
BRANCH  21  27
ATOM     27  C   UNL d   1       0.022   0.831  -4.325  0.00  0.00     0.031 A 
ATOM     28  S   UNL d   1       0.243  -0.630  -5.218  0.00  0.00    -0.100 SA
ATOM     29  C   UNL d   1      -1.313  -0.543  -5.907  0.00  0.00     0.050 A 
ATOM     30  C   UNL d   1      -2.000   0.569  -5.483  0.00  0.00     0.008 A 
ATOM     31  C   UNL d   1      -1.233   1.360  -4.575  0.00  0.00     0.021 A 
ENDBRANCH  21  27
ENDBRANCH  18  19
ENDBRANCH  17  18
ENDBRANCH   1  17
TORSDOF 6
