REMARK  2 active torsions:
REMARK  status: ('A' for Active; 'I' for Inactive)
REMARK    1  A    between atoms: C_9  and  N_2 
REMARK       I    between atoms: C_6  and  N_7 
REMARK    2  A    between atoms: C_10  and  C_6 
ROOT
ATOM      1  C   UNL d   1       4.141  -5.841   1.030  0.00  0.00     0.253 C 
ATOM      2  N   UNL d   1       3.698  -4.598   0.559  0.00  0.00    -0.348 N 
ATOM      3  C   UNL d   1       2.491  -2.130  -0.288  0.00  0.00     0.109 C 
ATOM      4  C   UNL d   1       3.275  -2.234   1.026  0.00  0.00     0.047 C 
ATOM      5  C   UNL d   1       1.831  -3.474  -0.620  0.00  0.00     0.047 C 
ATOM      6  C   UNL d   1       2.882  -4.587  -0.659  0.00  0.00     0.128 C 
ATOM      7  C   UNL d   1       4.334  -3.319   0.883  0.00  0.00     0.128 C 
ATOM      8  O   UNL d   1       3.865  -6.902   0.472  0.00  0.00    -0.267 OA
ENDROOT
BRANCH   3   9
ATOM      9  N   UNL d   1       1.642  -0.952  -0.301  0.00  0.00    -0.269 N 
ATOM     10  N   UNL d   1       2.213   0.199  -0.726  0.00  0.00    -0.019 NA
ATOM     11  N   UNL d   1       1.325   1.170  -0.599  0.00  0.00    -0.282 N 
ATOM     12  C   UNL d   1       0.181   0.627  -0.090  0.00  0.00     0.074 A 
ATOM     13  HN  UNL d   1       1.469   2.150  -0.839  1.00  0.00     0.184 HD
ATOM     14  C   UNL d   1      -1.038   1.245   0.226  0.00  0.00     0.033 A 
ATOM     15  C   UNL d   1       0.352  -0.740   0.119  0.00  0.00     0.077 A 
ATOM     16  C   UNL d   1      -2.072   0.461   0.743  0.00  0.00     0.002 A 
ATOM     17  C   UNL d   1      -1.890  -0.907   0.947  0.00  0.00     0.002 A 
ATOM     18  C   UNL d   1      -0.673  -1.538   0.646  0.00  0.00     0.033 A 
ENDBRANCH   3   9
BRANCH   1  19
ATOM     19  C   UNL d   1       4.977  -5.917   2.257  0.00  0.00     0.032 A 
ATOM     20  C   UNL d   1       4.664  -5.188   3.412  0.00  0.00     0.018 A 
ATOM     21  C   UNL d   1       5.500  -5.256   4.531  0.00  0.00     0.025 A 
ATOM     22  C   UNL d   1       6.615  -6.093   4.513  0.00  0.00     0.034 A 
ATOM     23  C   UNL d   1       6.896  -6.872   3.392  0.00  0.00     0.025 A 
ATOM     24 CL   UNL d   1       7.648  -6.165   5.887  0.00  0.00    -0.084 Cl
ATOM     25  C   UNL d   1       6.075  -6.787   2.264  0.00  0.00     0.018 A 
ENDBRANCH   1  19
TORSDOF 2
