REMARK  3 active torsions:
REMARK  status: ('A' for Active; 'I' for Inactive)
REMARK    1  A    between atoms: C_10  and  C_3 
REMARK    2  A    between atoms: C_8  and  C_4 
REMARK    3  A    between atoms: O_13  and  C_11 
ROOT
ATOM      1  C   UNL d   1      -2.018   0.389   0.293  0.00  0.00     0.028 C 
ATOM      2  C   UNL d   1      -1.598   1.712   0.845  0.00  0.00     0.194 C 
ATOM      3  C   UNL d   1      -0.904  -0.628   0.170  0.00  0.00     0.199 C 
ATOM      4  C   UNL d   1      -3.274   0.126  -0.125  0.00  0.00     0.028 C 
ATOM      5  O   UNL d   1      -0.029  -0.612   1.320  0.00  0.00    -0.335 OA
ATOM      6  C   UNL d   1      -0.217   1.797   1.340  0.00  0.00     0.048 A 
ATOM      7  C   UNL d   1       0.498   0.625   1.565  0.00  0.00     0.084 A 
ATOM      8  O   UNL d   1      -2.324   2.696   0.905  0.00  0.00    -0.287 OA
ATOM      9  C   UNL d   1       0.363   3.042   1.598  0.00  0.00     0.018 A 
ATOM     10  C   UNL d   1       1.795   0.690   2.073  0.00  0.00     0.038 A 
ATOM     11  C   UNL d   1       1.673   3.108   2.071  0.00  0.00     0.001 A 
ATOM     12  C   UNL d   1       2.385   1.933   2.317  0.00  0.00     0.003 A 
ENDROOT
BRANCH   3  13
ATOM     13  C   UNL d   1      -0.085  -0.562  -1.123  0.00  0.00    -0.024 A 
ATOM     14  C   UNL d   1      -0.351   0.364  -2.148  0.00  0.00     0.010 A 
ATOM     15  C   UNL d   1       0.427   0.394  -3.307  0.00  0.00     0.001 A 
ATOM     16  C   UNL d   1       1.483  -0.500  -3.464  0.00  0.00     0.000 A 
ATOM     17  C   UNL d   1       1.761  -1.426  -2.463  0.00  0.00     0.001 A 
ATOM     18  C   UNL d   1       0.983  -1.461  -1.305  0.00  0.00     0.010 A 
ENDBRANCH   3  13
BRANCH   4  19
ATOM     19  C   UNL d   1      -4.375   1.093  -0.255  0.00  0.00    -0.002 A 
ATOM     20  C   UNL d   1      -5.349   1.401   0.708  0.00  0.00     0.078 A 
ATOM     21  C   UNL d   1      -6.342   2.345   0.387  0.00  0.00     0.037 A 
ATOM     22  C   UNL d   1      -6.379   2.981  -0.854  0.00  0.00     0.003 A 
ATOM     23  C   UNL d   1      -5.419   2.678  -1.807  0.00  0.00     0.001 A 
ATOM     24  C   UNL d   1      -4.430   1.741  -1.510  0.00  0.00     0.014 A 
BRANCH  20  25
ATOM     25  O   UNL d   1      -5.532   0.891   1.964  0.00  0.00    -0.355 OA
ATOM     26  C   UNL d   1      -4.504   0.135   2.575  0.00  0.00     0.210 C 
ENDBRANCH  20  25
ENDBRANCH   4  19
TORSDOF 3
