REMARK  5 active torsions:
REMARK  status: ('A' for Active; 'I' for Inactive)
REMARK    1  A    between atoms: O_12  and  C_6 
REMARK    2  A    between atoms: C_11  and  C_7 
REMARK    3  A    between atoms: C_10  and  N_8 
REMARK    4  A    between atoms: O_13  and  C_11 
REMARK    5  A    between atoms: C_16  and  O_13 
ROOT
ATOM      1  C   UNL d   1      -0.791   1.060  -0.078  0.00  0.00     0.111 C 
ATOM      2  N   UNL d   1       0.586   1.146  -0.088  0.00  0.00    -0.330 N 
ATOM      3  HN  UNL d   1       1.052   2.051  -0.162  1.00  0.00     0.168 HD
ATOM      4  C   UNL d   1      -1.379  -0.261  -0.455  0.00  0.00     0.104 C 
ATOM      5  N   UNL d   1       0.695  -1.200   0.104  0.00  0.00    -0.325 N 
ATOM      6  C   UNL d   1      -0.614  -1.333  -0.256  0.00  0.00     0.144 C 
ATOM      7  C   UNL d   1       1.277   0.048  -0.001  0.00  0.00     0.109 C 
ATOM      8  N   UNL d   1      -1.417   2.157   0.199  0.00  0.00    -0.342 N 
ATOM      9  HN  UNL d   1      -0.872   2.981   0.454  1.00  0.00     0.167 HD
ATOM     10  H   UNL d   1       1.290  -2.014   0.030  0.00  0.00     0.169 HD
ENDROOT
BRANCH   8  11
ATOM     11  C   UNL d   1      -2.812   2.259   0.163  0.00  0.00     0.033 A 
ATOM     12  C   UNL d   1      -3.675   1.395   0.850  0.00  0.00     0.031 A 
ATOM     13  C   UNL d   1      -5.061   1.509   0.706  0.00  0.00     0.026 A 
ATOM     14  C   UNL d   1      -5.593   2.531  -0.077  0.00  0.00     0.034 A 
ATOM     15  C   UNL d   1      -4.751   3.450  -0.699  0.00  0.00     0.026 A 
ATOM     16 CL   UNL d   1      -7.296   2.659  -0.276  0.00  0.00    -0.084 Cl
ATOM     17  C   UNL d   1      -3.367   3.309  -0.576  0.00  0.00     0.031 A 
ENDBRANCH   8  11
BRANCH   7  18
ATOM     18  C   UNL d   1       2.797   0.126  -0.123  0.00  0.00     0.252 C 
BRANCH  18  19
ATOM     19  O   UNL d   1       3.423  -0.097   1.131  0.00  0.00    -0.344 OA
BRANCH  19  20
ATOM     20  C   UNL d   1       4.793  -0.017   1.125  0.00  0.00     0.069 A 
ATOM     21  C   UNL d   1       5.608  -0.054  -0.010  0.00  0.00     0.037 A 
ATOM     22  C   UNL d   1       6.999   0.003   0.115  0.00  0.00     0.003 A 
ATOM     23  C   UNL d   1       7.585   0.102   1.375  0.00  0.00     0.000 A 
ATOM     24  C   UNL d   1       6.779   0.145   2.510  0.00  0.00     0.003 A 
ATOM     25  C   UNL d   1       5.389   0.082   2.385  0.00  0.00     0.037 A 
ENDBRANCH  19  20
ENDBRANCH  18  19
ENDBRANCH   7  18
BRANCH   6  26
ATOM     26  O   UNL d   1      -1.114  -2.594  -0.446  0.00  0.00    -0.346 OA
ATOM     27  H   UNL d   1      -0.606  -3.192   0.125  0.00  0.00     0.219 HD
ENDBRANCH   6  26
TORSDOF 5
