REMARK  5 active torsions:
REMARK  status: ('A' for Active; 'I' for Inactive)
REMARK    1  A    between atoms: C_9  and  C_14 
REMARK    2  A    between atoms: O_16  and  C_9 
REMARK    3  A    between atoms: O_13  and  C_12 
REMARK    4  A    between atoms: C_14  and  O_13 
REMARK    5  A    between atoms: C_19  and  O_16 
ROOT
ATOM      1  C   UNL d   1      -0.619   2.091  -0.006  0.00  0.00     0.299 A 
ATOM      2  O   UNL d   1       0.765   1.985  -0.014  0.00  0.00    -0.274 OA
ATOM      3  C   UNL d   1       1.437   0.748   0.000  0.00  0.00     0.093 A 
ATOM      4  C   UNL d   1       0.735  -0.458   0.007  0.00  0.00     0.009 A 
ATOM      5  C   UNL d   1      -0.733  -0.422  -0.001  0.00  0.00    -0.007 A 
ATOM      6  C   UNL d   1      -1.386   0.821  -0.002  0.00  0.00     0.051 A 
ATOM      7  C   UNL d   1       2.832   0.810   0.009  0.00  0.00     0.075 A 
ATOM      8  C   UNL d   1       1.503  -1.631   0.020  0.00  0.00     0.018 A 
ATOM      9  O   UNL d   1      -1.177   3.180  -0.002  0.00  0.00    -0.259 OA
ATOM     10  C   UNL d   1       3.571  -0.365   0.051  0.00  0.00     0.072 A 
ATOM     11  C   UNL d   1       2.905  -1.588   0.041  0.00  0.00     0.038 A 
ATOM     12  C   UNL d   1      -1.538  -1.577   0.000  0.00  0.00     0.013 A 
ATOM     13  C   UNL d   1      -2.789   0.902  -0.001  0.00  0.00     0.018 A 
ATOM     14  C   UNL d   1      -2.934  -1.496   0.001  0.00  0.00     0.001 A 
ATOM     15  C   UNL d   1      -3.563  -0.255   0.001  0.00  0.00     0.001 A 
ENDROOT
BRANCH  10  16
ATOM     16  O   UNL d   1       4.926  -0.198   0.049  0.00  0.00    -0.341 OA
BRANCH  16  17
ATOM     17  C   UNL d   1       5.688  -1.239   0.647  0.00  0.00     0.286 C 
BRANCH  17  18
ATOM     18  C   UNL d   1       7.172  -0.955   0.491  0.00  0.00     0.283 C 
ATOM     19  O   UNL d   1       7.668   0.002  -0.086  0.00  0.00    -0.263 OA
BRANCH  18  20
ATOM     20  O   UNL d   1       7.874  -2.009   1.008  0.00  0.00    -0.320 OA
BRANCH  20  21
ATOM     21  C   UNL d   1       9.223  -2.127   0.539  0.00  0.00     0.174 C 
ATOM     22  C   UNL d   1       9.201  -2.960  -0.731  0.00  0.00     0.034 C 
ENDBRANCH  20  21
ENDBRANCH  18  20
ENDBRANCH  17  18
ENDBRANCH  16  17
ENDBRANCH  10  16
TORSDOF 5
