REMARK  8 active torsions:
REMARK  status: ('A' for Active; 'I' for Inactive)
REMARK       I    between atoms: N_13  and  C1_1 
REMARK    1  A    between atoms: O3_3  and  C1_1 
REMARK    2  A    between atoms: C6_4  and  O3_3 
REMARK    3  A    between atoms: C7_5  and  C6_4 
REMARK    4  A    between atoms: CB_11  and  CA_12 
REMARK    5  A    between atoms: CG_15  and  CB_11 
REMARK    6  A    between atoms: CA_12  and  N_13 
REMARK    7  A    between atoms: C_14  and  CA_12 
REMARK    8  A    between atoms: OXT_19  and  C_14 
REMARK       I    between atoms: ND2_18  and  CG_15 
ROOT
ATOM      1  C1  <1> d   1       1.083   0.548  -0.103  0.00  0.00     0.361 C 
ATOM      2  O1  <1> d   1       0.511   0.470   0.975  0.00  0.00    -0.238 OA
ATOM      3  N   ASN d   1       0.385   0.381  -1.274  0.00  0.00    -0.322 N 
ATOM      4  H   ASN d   1      -0.507  -0.040  -1.035  0.00  0.00     0.165 HD
ENDROOT
BRANCH   3   5
ATOM      5  CA  ASN d   1       1.017  -0.113  -2.513  0.00  0.00     0.193 C 
BRANCH   5   6
ATOM      6  CB  ASN d   1      -0.003  -0.803  -3.428  0.00  0.00     0.138 C 
BRANCH   6   7
ATOM      7  CG  ASN d   1      -0.486  -2.111  -2.854  0.00  0.00     0.217 C 
ATOM      8  OD1 ASN d   1      -0.202  -2.518  -1.736  0.00  0.00    -0.274 OA
ATOM      9  ND2 ASN d   1      -1.334  -2.807  -3.664  0.00  0.00    -0.370 N 
ATOM     10 1HD2 ASN d   1      -1.533  -2.544  -4.620  0.00  0.00     0.159 HD
ATOM     11 2HD2 ASN d   1      -1.680  -3.699  -3.330  0.00  0.00     0.159 HD
ENDBRANCH   6   7
ENDBRANCH   5   6
BRANCH   5  12
ATOM     12  C   ASN d   1       1.636   1.029  -3.331  0.00  0.00     0.164 C 
ATOM     13  O   ASN d   1       2.261   0.862  -4.369  0.00  0.00    -0.648 OA
BRANCH  12  14
ATOM     14  OXT ASN d   1       1.346   2.263  -2.855  0.00  0.00    -0.775 OA
ATOM     15  HXT ASN d   1       0.850   2.189  -2.012  0.00  0.00     0.167 HD
ENDBRANCH  12  14
ENDBRANCH   5  12
ENDBRANCH   3   5
BRANCH   1  16
ATOM     16  O3  <1> d   1       2.388   0.837  -0.297  0.00  0.00    -0.299 OA
BRANCH  16  17
ATOM     17  C6  <1> d   1       3.158   0.992   0.906  0.00  0.00     0.219 C 
BRANCH  17  18
ATOM     18  C7  <1> d   1       3.143   2.424   1.382  0.00  0.00    -0.034 A 
ATOM     19  C8  <1> d   1       2.221   2.841   2.353  0.00  0.00     0.009 A 
ATOM     20  C11 <1> d   1       2.195   4.167   2.787  0.00  0.00     0.001 A 
ATOM     21  C12 <1> d   1       3.092   5.091   2.256  0.00  0.00     0.000 A 
ATOM     22  C10 <1> d   1       4.012   4.690   1.290  0.00  0.00     0.001 A 
ATOM     23  C9  <1> d   1       4.036   3.364   0.850  0.00  0.00     0.009 A 
ENDBRANCH  17  18
ENDBRANCH  16  17
ENDBRANCH   1  16
TORSDOF 8
