REMARK  4 active torsions:
REMARK  status: ('A' for Active; 'I' for Inactive)
REMARK       I    between atoms: N_2  and  C_1 
REMARK    1  A    between atoms: C_3  and  C_1 
REMARK    2  A    between atoms: C_4  and  N_2 
REMARK    3  A    between atoms: N_5  and  C_4 
REMARK    4  A    between atoms: C_10  and  N_5 
ROOT
ATOM      1  C   UNL d   1      -1.108   1.028  -0.687  0.00  0.00     0.262 C 
ATOM      2  N   UNL d   1       0.247   0.895  -0.986  0.00  0.00    -0.299 N 
ATOM      3  O   UNL d   1      -1.845   1.872  -1.183  0.00  0.00    -0.267 OA
ATOM      4  H   UNL d   1       0.767   0.200  -0.466  0.00  0.00     0.171 HD
ENDROOT
BRANCH   2   5
ATOM      5  C   UNL d   1       0.941   1.338  -2.101  0.00  0.00     0.179 C 
ATOM      6  S   UNL d   1       0.309   1.903  -3.539  0.00  0.00    -0.040 SA
BRANCH   5   7
ATOM      7  N   UNL d   1       2.307   1.195  -2.018  0.00  0.00    -0.333 N 
ATOM      8  H   UNL d   1       2.778   1.230  -2.918  0.00  0.00     0.168 HD
BRANCH   7   9
ATOM      9  C   UNL d   1       3.144   1.422  -0.905  0.00  0.00     0.034 A 
ATOM     10  C   UNL d   1       4.472   1.001  -0.999  0.00  0.00     0.031 A 
ATOM     11  C   UNL d   1       5.381   1.294   0.022  0.00  0.00     0.026 A 
ATOM     12  C   UNL d   1       4.966   2.038   1.124  0.00  0.00     0.034 A 
ATOM     13  C   UNL d   1       3.644   2.462   1.230  0.00  0.00     0.026 A 
ATOM     14 CL   UNL d   1       6.100   2.462   2.345  0.00  0.00    -0.084 Cl
ATOM     15  C   UNL d   1       2.728   2.147   0.220  0.00  0.00     0.031 A 
ENDBRANCH   7   9
ENDBRANCH   5   7
ENDBRANCH   2   5
BRANCH   1  16
ATOM     16  C   UNL d   1      -1.635   0.140   0.380  0.00  0.00     0.092 A 
ATOM     17  C   UNL d   1      -2.570   0.577   1.328  0.00  0.00     0.052 A 
ATOM     18 CL   UNL d   1      -3.107   2.214   1.460  0.00  0.00    -0.083 Cl
ATOM     19  C   UNL d   1      -3.079  -0.319   2.281  0.00  0.00     0.025 A 
ATOM     20  C   UNL d   1      -2.667  -1.651   2.297  0.00  0.00     0.005 A 
ATOM     21  C   UNL d   1      -1.735  -2.092   1.364  0.00  0.00     0.043 A 
ATOM     22  C   UNL d   1      -1.227  -1.201   0.419  0.00  0.00     0.133 A 
ATOM     23  F   UNL d   1      -0.328  -1.667  -0.462  0.00  0.00    -0.205 F 
ENDBRANCH   1  16
TORSDOF 4
