REMARK  3 active torsions:
REMARK  status: ('A' for Active; 'I' for Inactive)
REMARK    1  A    between atoms: C_3  and  N_1 
REMARK    2  A    between atoms: N_2  and  C_4 
REMARK    3  A    between atoms: C_8  and  C_7 
ROOT
ATOM      1  C   UNL d   1       0.749   1.365  -0.747  0.00  0.00     0.109 A 
ATOM      2  C   UNL d   1      -0.263   2.090  -0.090  0.00  0.00     0.048 A 
ATOM      3  C   UNL d   1      -1.294   2.705  -0.816  0.00  0.00    -0.024 A 
ATOM      4  C   UNL d   1       0.757   1.190  -2.137  0.00  0.00    -0.029 A 
ATOM      5  C   UNL d   1      -1.264   2.553  -2.216  0.00  0.00     0.013 A 
ATOM      6  C   UNL d   1      -0.269   1.805  -2.862  0.00  0.00     0.010 A 
ATOM      7  C   UNL d   1       1.785   0.399  -2.894  0.00  0.00     0.050 C 
ENDROOT
BRANCH   3   8
ATOM      8  C   UNL d   1      -2.362   3.486  -0.145  0.00  0.00    -0.024 A 
ATOM      9  C   UNL d   1      -3.670   3.533  -0.659  0.00  0.00     0.048 A 
ATOM     10  C   UNL d   1      -4.693   4.290  -0.044  0.00  0.00     0.109 A 
ATOM     11  C   UNL d   1      -4.429   5.011   1.137  0.00  0.00    -0.029 A 
ATOM     12  C   UNL d   1      -3.127   4.953   1.659  0.00  0.00     0.010 A 
ATOM     13  C   UNL d   1      -5.440   5.839   1.882  0.00  0.00     0.050 C 
ATOM     14  C   UNL d   1      -2.117   4.217   1.027  0.00  0.00     0.013 A 
BRANCH  10  15
ATOM     15  N   UNL d   1      -6.017   4.289  -0.706  0.00  0.00    -0.115 N 
ATOM     16  O   UNL d   1      -6.125   3.660  -1.769  0.00  0.00    -0.532 OA
ATOM     17  O   UNL d   1      -6.950   4.910  -0.183  0.00  0.00    -0.532 OA
ENDBRANCH  10  15
ENDBRANCH   3   8
BRANCH   1  18
ATOM     18  N   UNL d   1       1.807   0.817   0.085  0.00  0.00    -0.115 N 
ATOM     19  O   UNL d   1       1.470   0.024   0.974  0.00  0.00    -0.532 OA
ATOM     20  O   UNL d   1       2.961   1.211  -0.132  0.00  0.00    -0.532 OA
ENDBRANCH   1  18
TORSDOF 3
