REMARK  3 active torsions:
REMARK  status: ('A' for Active; 'I' for Inactive)
REMARK    1  A    between atoms: C_6  and  C_7 
REMARK    2  A    between atoms: O_8  and  C_6 
REMARK    3  A    between atoms: C_15  and  O_8 
ROOT
ATOM      1  C   UNL d   1      -0.567   0.434   0.169  0.00  0.00     0.006 A 
ATOM      2  C   UNL d   1      -1.117  -0.873   0.102  0.00  0.00     0.027 A 
ATOM      3  C   UNL d   1      -0.024  -1.858   0.152  0.00  0.00     0.194 A 
ATOM      4  C   UNL d   1       0.895   0.283   0.174  0.00  0.00    -0.010 A 
ATOM      5  C   UNL d   1       1.222  -1.089   0.191  0.00  0.00     0.026 A 
ATOM      6  C   UNL d   1      -1.468   1.500   0.225  0.00  0.00     0.051 A 
ATOM      7  O   UNL d   1      -0.139  -3.065   0.155  0.00  0.00    -0.287 OA
ATOM      8  C   UNL d   1      -2.464  -1.178   0.019  0.00  0.00     0.016 A 
ATOM      9  C   UNL d   1       1.946   1.181   0.093  0.00  0.00     0.013 A 
ATOM     10  C   UNL d   1       2.509  -1.599   0.178  0.00  0.00     0.016 A 
ATOM     11  C   UNL d   1      -2.856   1.197   0.102  0.00  0.00     0.018 A 
ATOM     12  C   UNL d   1      -3.345  -0.115  -0.006  0.00  0.00     0.002 A 
ATOM     13  C   UNL d   1       3.272   0.692   0.078  0.00  0.00     0.001 A 
ATOM     14  C   UNL d   1       3.551  -0.684   0.129  0.00  0.00     0.001 A 
ENDROOT
BRANCH   6  15
ATOM     15  C   UNL d   1      -1.087   2.915   0.552  0.00  0.00     0.294 C 
ATOM     16  O   UNL d   1       0.009   3.292   0.917  0.00  0.00    -0.259 OA
BRANCH  15  17
ATOM     17  O   UNL d   1      -2.204   3.685   0.512  0.00  0.00    -0.313 OA
BRANCH  17  18
ATOM     18  C   UNL d   1      -2.274   4.941   1.222  0.00  0.00     0.124 C 
ATOM     19  C   UNL d   1      -2.061   4.744   2.720  0.00  0.00     0.040 C 
ATOM     20  C   UNL d   1      -1.385   6.016   0.618  0.00  0.00     0.040 C 
ENDBRANCH  17  18
ENDBRANCH  15  17
ENDBRANCH   6  15
TORSDOF 3
