REMARK  4 active torsions:
REMARK  status: ('A' for Active; 'I' for Inactive)
REMARK    1  A    between atoms: C_6  and  N_1 
REMARK    2  A    between atoms: C_7  and  N_3 
REMARK    3  A    between atoms: C_33  and  N_28 
REMARK    4  A    between atoms: C_34  and  N_30 
ROOT
ATOM      1  O   UNL d   3       6.559   0.028   1.357  0.00  0.00    -0.299 OA
ATOM      2  C   UNL d   3       6.106  -1.047   0.963  0.00  0.00     0.119 C 
ATOM      3  C   UNL d   3       5.221  -1.890   1.846  0.00  0.00     0.090 C 
ATOM      4  C   UNL d   3       6.415  -1.566  -0.418  0.00  0.00     0.090 C 
ENDROOT
TORSDOF 4
