REMARK  8 active torsions:
REMARK  status: ('A' for Active; 'I' for Inactive)
REMARK    1  A    between atoms: O_8  and  N_1 
REMARK    2  A    between atoms: C_6  and  C_3 
REMARK    3  A    between atoms: N_15  and  C_3 
REMARK    4  A    between atoms: O_9  and  C_4 
REMARK    5  A    between atoms: C_5  and  O_8 
REMARK    6  A    between atoms: C_13  and  C_5 
REMARK    7  A    between atoms: C_16  and  O_9 
REMARK    8  A    between atoms: O_17  and  C_10 
ROOT
ATOM      1  N   UNL d   1       0.844   0.211  -0.125  0.00  0.00    -0.246 N 
ATOM      2  HN  UNL d   1       1.818   0.455  -0.306  1.00  0.00     0.196 HD
ATOM      3  C   UNL d   1       0.182   0.623   0.912  0.00  0.00     0.109 C 
ENDROOT
BRANCH   3   4
ATOM      4  C   UNL d   1       0.934   1.477   1.882  0.00  0.00     0.006 A 
ATOM      5  C   UNL d   1       1.996   2.258   1.407  0.00  0.00     0.054 A 
ATOM      6  C   UNL d   1       2.808   2.989   2.282  0.00  0.00     0.103 A 
ATOM      7  C   UNL d   1       2.499   2.981   3.654  0.00  0.00     0.101 A 
ATOM      8  C   UNL d   1       1.425   2.206   4.120  0.00  0.00     0.040 A 
ATOM      9  C   UNL d   1       0.642   1.455   3.243  0.00  0.00     0.018 A 
BRANCH   6  10
ATOM     10  O   UNL d   1       3.894   3.699   1.839  0.00  0.00    -0.343 OA
BRANCH  10  11
ATOM     11  C   UNL d   1       4.581   3.203   0.685  0.00  0.00     0.129 C 
ATOM     12  C   UNL d   1       5.232   1.839   0.915  0.00  0.00     0.032 C 
ATOM     13  C   UNL d   1       6.463   1.804   0.018  0.00  0.00     0.002 C 
ATOM     14  C   UNL d   1       6.725   3.242  -0.418  0.00  0.00     0.002 C 
ATOM     15  C   UNL d   1       5.778   4.107   0.399  0.00  0.00     0.032 C 
ENDBRANCH  10  11
ENDBRANCH   6  10
BRANCH   7  16
ATOM     16  O   UNL d   1       3.190   3.597   4.667  0.00  0.00    -0.353 OA
ATOM     17  C   UNL d   1       3.833   4.825   4.355  0.00  0.00     0.210 C 
ENDBRANCH   7  16
ENDBRANCH   3   4
BRANCH   3  18
ATOM     18  N   UNL d   1      -1.139   0.335   1.158  0.00  0.00    -0.286 NA
ATOM     19  H   UNL d   1      -1.621   0.007   0.329  0.00  0.00     0.125 HD
ATOM     20  H   UNL d   1      -1.659   1.056   1.647  0.00  0.00     0.125 HD
ENDBRANCH   3  18
BRANCH   1  21
ATOM     21  O   UNL d   1       0.076  -0.607  -0.975  0.00  0.00    -0.193 OA
BRANCH  21  22
ATOM     22  C   UNL d   1       0.835  -0.945  -2.062  0.00  0.00     0.315 C 
ATOM     23  O   UNL d   1       1.968  -0.581  -2.335  0.00  0.00    -0.257 OA
BRANCH  22  24
ATOM     24  C   UNL d   1       0.038  -1.800  -2.977  0.00  0.00     0.041 A 
ATOM     25  C   UNL d   1      -0.995  -2.629  -2.522  0.00  0.00     0.017 A 
ATOM     26  C   UNL d   1      -1.711  -3.411  -3.432  0.00  0.00     0.001 A 
ATOM     27  C   UNL d   1      -1.397  -3.368  -4.792  0.00  0.00     0.000 A 
ATOM     28  C   UNL d   1      -0.360  -2.554  -5.247  0.00  0.00     0.001 A 
ATOM     29  C   UNL d   1       0.360  -1.776  -4.341  0.00  0.00     0.017 A 
ENDBRANCH  22  24
ENDBRANCH  21  22
ENDBRANCH   1  21
TORSDOF 8
