REMARK  3 active torsions:
REMARK  status: ('A' for Active; 'I' for Inactive)
REMARK    1  A    between atoms: C_2  and  N_1 
REMARK    2  A    between atoms: N_4  and  C_3 
REMARK    3  A    between atoms: C_5  and  C_10 
ROOT
ATOM      1  C   UNL d   1       0.371  -1.361   0.639  0.00  0.00     0.146 A 
ATOM      2  C   UNL d   1      -0.938  -1.546   0.186  0.00  0.00     0.136 A 
ATOM      3  N   UNL d   1      -1.880  -1.928   1.089  0.00  0.00    -0.350 N 
ATOM      4  HN  UNL d   1      -2.851  -2.043   0.797  1.00  0.00     0.166 HD
ATOM      5  C   UNL d   1       0.733  -1.604   1.973  0.00  0.00     0.041 A 
ATOM      6  C   UNL d   1      -1.528  -2.156   2.379  0.00  0.00     0.090 A 
ATOM      7  C   UNL d   1      -0.242  -2.020   2.864  0.00  0.00     0.020 A 
ENDROOT
BRANCH   2   8
ATOM      8  N   UNL d   1      -1.375  -1.420  -1.115  0.00  0.00    -0.365 N 
ATOM      9  C   UNL d   1      -0.586  -1.815  -2.276  0.00  0.00     0.125 C 
ATOM     10  C   UNL d   1      -1.411  -2.741  -3.175  0.00  0.00     0.033 C 
ATOM     11  C   UNL d   1      -2.786  -2.156  -3.527  0.00  0.00     0.096 C 
ATOM     12  C   UNL d   1      -3.523  -1.763  -2.239  0.00  0.00     0.033 C 
ATOM     13  C   UNL d   1      -2.693  -0.835  -1.353  0.00  0.00     0.125 C 
BRANCH  11  14
ATOM     14  C   UNL d   1      -2.689  -1.010  -4.536  0.00  0.00     0.391 C 
ATOM     15  F   UNL d   1      -3.372   0.085  -4.143  0.00  0.00    -0.171 F 
ATOM     16  F   UNL d   1      -1.417  -0.632  -4.780  0.00  0.00    -0.171 F 
ATOM     17  F   UNL d   1      -3.216  -1.399  -5.723  0.00  0.00    -0.171 F 
ENDBRANCH  11  14
ENDBRANCH   2   8
BRANCH   1  18
ATOM     18  N   UNL d   1       1.394  -0.816  -0.215  0.00  0.00    -0.112 N 
ATOM     19  O   UNL d   1       1.221   0.326  -0.669  0.00  0.00    -0.532 OA
ATOM     20  O   UNL d   1       2.399  -1.514  -0.401  0.00  0.00    -0.532 OA
ENDBRANCH   1  18
TORSDOF 3
