REMARK  4 active torsions:
REMARK  status: ('A' for Active; 'I' for Inactive)
REMARK    1  A    between atoms: C_3  and  S_1 
REMARK    2  A    between atoms: N_9  and  S_1 
REMARK       I    between atoms: C_2  and  N_4 
REMARK    3  A    between atoms: C_11  and  C_2 
REMARK    4  A    between atoms: N_4  and  C_8 
ROOT
ATOM      1  C   UNL d   1       0.620   1.635   0.333  0.00  0.00     0.076 A 
ATOM      2  C   UNL d   1      -0.212   1.673   1.455  0.00  0.00     0.054 A 
ATOM      3  C   UNL d   1      -0.639   2.892   1.981  0.00  0.00     0.036 A 
ATOM      4  C   UNL d   1       1.045   2.808  -0.285  0.00  0.00     0.025 A 
ATOM      5  C   UNL d   1       0.630   4.033   0.238  0.00  0.00     0.004 A 
ATOM      6  C   UNL d   1      -0.205   4.074   1.364  0.00  0.00     0.029 A 
ENDROOT
BRANCH   3   7
ATOM      7  N   UNL d   1      -1.492   2.997   3.107  0.00  0.00    -0.323 N 
ATOM      8  C   UNL d   1      -2.044   1.936   3.812  0.00  0.00     0.256 C 
ATOM      9  O   UNL d   1      -1.867   0.745   3.577  0.00  0.00    -0.267 OA
ATOM     10  H   UNL d   1      -1.680   3.934   3.435  0.00  0.00     0.169 HD
BRANCH   8  11
ATOM     11  C   UNL d   1      -2.927   2.270   4.965  0.00  0.00     0.032 A 
ATOM     12  C   UNL d   1      -3.686   3.443   5.038  0.00  0.00     0.017 A 
ATOM     13  C   UNL d   1      -4.554   3.642   6.118  0.00  0.00     0.001 A 
ATOM     14  C   UNL d   1      -4.670   2.675   7.119  0.00  0.00     0.000 A 
ATOM     15  C   UNL d   1      -3.916   1.507   7.051  0.00  0.00     0.001 A 
ATOM     16  C   UNL d   1      -3.048   1.306   5.979  0.00  0.00     0.017 A 
ENDBRANCH   8  11
ENDBRANCH   3   7
BRANCH   1  17
ATOM     17  S   UNL d   1       1.125   0.054  -0.271  0.00  0.00     0.239 S 
ATOM     18  O   UNL d   1       1.729  -0.687   0.810  0.00  0.00    -0.206 OA
ATOM     19  O   UNL d   1       1.766   0.219  -1.554  0.00  0.00    -0.206 OA
BRANCH  17  20
ATOM     20  N   UNL d   1      -0.345  -0.690  -0.599  0.00  0.00    -0.225 NA
ATOM     21  H   UNL d   1      -0.503  -1.464   0.046  0.00  0.00     0.136 HD
ATOM     22  H   UNL d   1      -0.398  -0.944  -1.585  0.00  0.00     0.136 HD
ENDBRANCH  17  20
ENDBRANCH   1  17
TORSDOF 4
