REMARK  3 active torsions:
REMARK  status: ('A' for Active; 'I' for Inactive)
REMARK    1  A    between atoms: N_9  and  N_7 
REMARK    2  A    between atoms: C_16  and  N_9 
REMARK    3  A    between atoms: C_17  and  C_13 
ROOT
ATOM      1  C   UNL d   1      -1.352  -1.970   1.151  0.00  0.00     0.185 A 
ATOM      2  N   UNL d   1       0.598  -2.830   2.333  0.00  0.00    -0.273 N 
ATOM      3  N   UNL d   1       0.886  -1.058   0.858  0.00  0.00    -0.273 N 
ATOM      4  C   UNL d   1      -0.751  -2.968   2.124  0.00  0.00     0.283 A 
ATOM      5  C   UNL d   1      -0.431  -0.964   0.491  0.00  0.00     0.283 A 
ATOM      6  C   UNL d   1       1.435  -1.950   1.725  0.00  0.00     0.330 A 
ATOM      7  N   UNL d   1      -2.633  -2.049   0.937  0.00  0.00    -0.291 N 
ATOM      8  HN  UNL d   1      -3.197  -2.737   1.435  1.00  0.00     0.187 HD
ATOM      9  O   UNL d   1      -1.409  -3.839   2.668  0.00  0.00    -0.265 OA
ATOM     10  O   UNL d   1      -0.836  -0.128  -0.305  0.00  0.00    -0.265 OA
ATOM     11  O   UNL d   1       2.643  -1.965   1.942  0.00  0.00    -0.246 OA
ATOM     12  H   UNL d   1       1.022  -3.498   2.961  0.00  0.00     0.173 HD
ATOM     13  H   UNL d   1       1.525  -0.409   0.420  0.00  0.00     0.173 HD
ENDROOT
BRANCH   7  14
ATOM     14  N   UNL d   1      -3.211  -1.206   0.045  0.00  0.00    -0.300 N 
ATOM     15  H   UNL d   1      -2.699  -0.437  -0.398  0.00  0.00     0.187 HD
BRANCH  14  16
ATOM     16  C   UNL d   1      -4.611  -1.204  -0.082  0.00  0.00     0.048 A 
ATOM     17  C   UNL d   1      -5.414  -2.091   0.642  0.00  0.00     0.031 A 
ATOM     18  C   UNL d   1      -6.803  -2.094   0.498  0.00  0.00     0.010 A 
ATOM     19  C   UNL d   1      -7.435  -1.217  -0.390  0.00  0.00    -0.055 A 
ATOM     20  C   UNL d   1      -6.633  -0.352  -1.147  0.00  0.00     0.010 A 
ATOM     21  C   UNL d   1      -5.238  -0.350  -0.994  0.00  0.00     0.031 A 
BRANCH  19  22
ATOM     22  C   UNL d   1      -8.948  -1.197  -0.521  0.00  0.00     0.010 C 
ATOM     23  C   UNL d   1      -9.492  -2.548  -0.997  0.00  0.00     0.015 C 
ATOM     24  C   UNL d   1      -9.617  -0.796   0.799  0.00  0.00     0.015 C 
ENDBRANCH  19  22
ENDBRANCH  14  16
ENDBRANCH   7  14
TORSDOF 3
