REMARK  3 active torsions:
REMARK  status: ('A' for Active; 'I' for Inactive)
REMARK    1  A    between atoms: C_3  and  N_1 
REMARK    2  A    between atoms: C_2  and  O_6 
REMARK    3  A    between atoms: O_6  and  C_4 
ROOT
ATOM      1  C   UNL d   1       2.283   1.373  -1.530  0.00  0.00     0.163 A 
ATOM      2  C   UNL d   1       3.584   1.211  -1.049  0.00  0.00     0.042 A 
ATOM      3  C   UNL d   1       4.267   0.112  -1.584  0.00  0.00     0.049 A 
ATOM      4  N   UNL d   1       1.732   0.620  -2.503  0.00  0.00    -0.332 N 
ATOM      5  HN  UNL d   1       0.811   0.817  -2.893  1.00  0.00     0.168 HD
ATOM      6  N   UNL d   1       3.722  -0.698  -2.500  0.00  0.00    -0.351 N 
ATOM      7  HN  UNL d   1       4.227  -1.506  -2.864  1.00  0.00     0.166 HD
ATOM      8  C   UNL d   1       4.217   2.054  -0.103  0.00  0.00     0.020 A 
ATOM      9  C   UNL d   1       5.559  -0.142  -1.145  0.00  0.00     0.054 A 
ATOM     10  C   UNL d   1       2.483  -0.401  -2.920  0.00  0.00     0.182 A 
ATOM     11  C   UNL d   1       6.184   0.686  -0.212  0.00  0.00     0.036 A 
ATOM     12  C   UNL d   1       5.521   1.792   0.308  0.00  0.00     0.025 A 
ATOM     13 CL   UNL d   1       7.791   0.340   0.295  0.00  0.00    -0.084 Cl
ENDROOT
BRANCH   1  14
ATOM     14  O   UNL d   1       1.535   2.428  -1.028  0.00  0.00    -0.273 OA
BRANCH  14  15
ATOM     15  C   UNL d   1       0.202   2.159  -0.777  0.00  0.00     0.183 A 
ATOM     16  C   UNL d   1      -0.745   3.155  -0.954  0.00  0.00     0.154 A 
ATOM     17  C   UNL d   1      -2.098   2.872  -0.745  0.00  0.00     0.042 A 
ATOM     18  C   UNL d   1      -2.455   1.590  -0.336  0.00  0.00     0.020 A 
ATOM     19  C   UNL d   1      -1.446   0.660  -0.133  0.00  0.00     0.090 A 
ATOM     20  N   UNL d   1      -0.133   0.924  -0.317  0.00  0.00    -0.344 N 
ATOM     21  HN  UNL d   1       0.580   0.222  -0.119  1.00  0.00     0.167 HD
BRANCH  16  22
ATOM     22  N   UNL d   1      -0.348   4.487  -1.340  0.00  0.00    -0.111 N 
ATOM     23  O   UNL d   1       0.598   5.005  -0.736  0.00  0.00    -0.532 OA
ATOM     24  O   UNL d   1      -1.024   5.043  -2.217  0.00  0.00    -0.532 OA
ENDBRANCH  16  22
ENDBRANCH  14  15
ENDBRANCH   1  14
TORSDOF 3
