REMARK  3 active torsions:
REMARK  status: ('A' for Active; 'I' for Inactive)
REMARK    1  A    between atoms: N_2  and  C_1 
REMARK    2  A    between atoms: N_4  and  C_1 
REMARK    3  A    between atoms: C_3  and  N_2 
ROOT
ATOM      1  N   UNL d   1       0.439   1.109   0.335  0.00  0.00    -0.331 N 
ATOM      2  H   UNL d   1      -0.567   1.096   0.469  0.00  0.00     0.168 HD
ENDROOT
BRANCH   1   3
ATOM      3  C   UNL d   1       0.982  -0.166   0.363  0.00  0.00     0.174 C 
ATOM      4  S   UNL d   1       1.993  -0.692   1.604  0.00  0.00    -0.041 SA
BRANCH   3   5
ATOM      5  N   UNL d   1       0.535  -0.976  -0.690  0.00  0.00    -0.354 N 
ATOM      6  C   UNL d   1       1.056  -2.334  -0.949  0.00  0.00     0.151 C 
ATOM      7  C   UNL d   1       1.412  -2.502  -2.431  0.00  0.00     0.187 C 
ATOM      8  O   UNL d   1       0.280  -2.222  -3.267  0.00  0.00    -0.388 OA
ATOM      9  C   UNL d   1      -0.151  -0.867  -3.081  0.00  0.00     0.187 C 
ATOM     10  C   UNL d   1      -0.543  -0.599  -1.625  0.00  0.00     0.151 C 
ENDBRANCH   3   5
ENDBRANCH   1   3
BRANCH   1  11
ATOM     11  C   UNL d   1       1.046   2.320   0.773  0.00  0.00     0.062 A 
ATOM     12  C   UNL d   1       0.226   3.263   1.427  0.00  0.00     0.061 A 
ATOM     13 CL   UNL d   1      -1.467   2.968   1.656  0.00  0.00    -0.082 Cl
ATOM     14  C   UNL d   1       0.748   4.463   1.913  0.00  0.00     0.026 A 
ATOM     15  C   UNL d   1       2.098   4.747   1.743  0.00  0.00     0.002 A 
ATOM     16  C   UNL d   1       2.908   3.854   1.043  0.00  0.00     0.009 A 
ATOM     17  C   UNL d   1       2.390   2.655   0.512  0.00  0.00    -0.034 A 
ATOM     18  C   UNL d   1       3.320   1.850  -0.356  0.00  0.00     0.050 C 
ENDBRANCH   1  11
TORSDOF 3
