REMARK  7 active torsions:
REMARK  status: ('A' for Active; 'I' for Inactive)
REMARK    1  A    between atoms: C_14  and  C_5 
REMARK    2  A    between atoms: N_7  and  C_9 
REMARK    3  A    between atoms: N_8  and  C_13 
REMARK    4  A    between atoms: O_23  and  C_14 
REMARK    5  A    between atoms: C_24  and  O_23 
REMARK    6  A    between atoms: C_25  and  C_24 
REMARK    7  A    between atoms: C_26  and  C_25 
ROOT
ATOM      1  C   UNL d   1      -0.664   0.848  -0.017  0.00  0.00     0.006 A 
ATOM      2  C   UNL d   1      -1.138  -0.486  -0.066  0.00  0.00     0.029 A 
ATOM      3  C   UNL d   1       1.220  -0.546  -0.045  0.00  0.00     0.028 A 
ATOM      4  C   UNL d   1       0.800   0.801  -0.016  0.00  0.00    -0.010 A 
ATOM      5  C   UNL d   1      -1.615   1.867   0.015  0.00  0.00     0.053 A 
ATOM      6  C   UNL d   1       0.021  -1.394  -0.065  0.00  0.00     0.194 A 
ATOM      7  C   UNL d   1      -3.404   0.165  -0.096  0.00  0.00     0.104 A 
ATOM      8  C   UNL d   1      -2.469  -0.864  -0.100  0.00  0.00     0.052 A 
ATOM      9  C   UNL d   1      -2.989   1.511  -0.037  0.00  0.00     0.054 A 
ATOM     10  C   UNL d   1       2.539  -0.964  -0.086  0.00  0.00     0.052 A 
ATOM     11  C   UNL d   1       3.506   0.041  -0.102  0.00  0.00     0.103 A 
ATOM     12  C   UNL d   1       1.777   1.784  -0.034  0.00  0.00     0.016 A 
ATOM     13  O   UNL d   1      -0.013  -2.604  -0.083  0.00  0.00    -0.287 OA
ATOM     14  C   UNL d   1       3.133   1.405  -0.071  0.00  0.00     0.037 A 
ENDROOT
BRANCH   5  15
ATOM     15  C   UNL d   1      -1.288   3.293   0.279  0.00  0.00     0.294 C 
ATOM     16  O   UNL d   1      -0.388   3.663   1.010  0.00  0.00    -0.259 OA
BRANCH  15  17
ATOM     17  O   UNL d   1      -2.264   4.081  -0.241  0.00  0.00    -0.317 OA
BRANCH  17  18
ATOM     18  C   UNL d   1      -2.743   5.087   0.661  0.00  0.00     0.179 C 
BRANCH  18  19
ATOM     19  C   UNL d   1      -2.373   6.495   0.220  0.00  0.00     0.026 C 
BRANCH  19  20
ATOM     20  C   UNL d   1      -2.952   7.500   1.217  0.00  0.00    -0.002 C 
ATOM     21  C   UNL d   1      -2.637   8.938   0.851  0.00  0.00     0.005 C 
ENDBRANCH  19  20
ENDBRANCH  18  19
ENDBRANCH  17  18
ENDBRANCH  15  17
ENDBRANCH   5  15
BRANCH   7  22
ATOM     22  N   UNL d   1      -4.837  -0.147  -0.120  0.00  0.00    -0.116 N 
ATOM     23  O   UNL d   1      -5.168  -1.339  -0.169  0.00  0.00    -0.532 OA
ATOM     24  O   UNL d   1      -5.632   0.803  -0.088  0.00  0.00    -0.532 OA
ENDBRANCH   7  22
BRANCH  11  25
ATOM     25  N   UNL d   1       4.926  -0.324  -0.173  0.00  0.00    -0.116 N 
ATOM     26  O   UNL d   1       5.208  -1.526  -0.238  0.00  0.00    -0.532 OA
ATOM     27  O   UNL d   1       5.757   0.596  -0.172  0.00  0.00    -0.532 OA
ENDBRANCH  11  25
TORSDOF 7
