REMARK  2 active torsions:
REMARK  status: ('A' for Active; 'I' for Inactive)
REMARK       I    between atoms: C_2  and  N_3 
REMARK    1  A    between atoms: C_8  and  C_2 
REMARK    2  A    between atoms: N_4  and  C_5 
ROOT
ATOM      1  C   UNL d   1       1.953  -6.896   0.902  0.00  0.00     0.253 C 
ATOM      2  N   UNL d   1       1.849  -5.589   0.438  0.00  0.00    -0.345 N 
ATOM      3  N   UNL d   1       1.348  -2.787   0.083  0.00  0.00    -0.377 N 
ATOM      4  C   UNL d   1       1.030  -5.107  -0.693  0.00  0.00     0.146 C 
ATOM      5  C   UNL d   1       2.742  -4.576   1.024  0.00  0.00     0.146 C 
ATOM      6  C   UNL d   1       0.354  -3.744  -0.415  0.00  0.00     0.143 C 
ATOM      7  C   UNL d   1       2.007  -3.257   1.321  0.00  0.00     0.143 C 
ATOM      8  O   UNL d   1       2.656  -7.207   1.864  0.00  0.00    -0.267 OA
ENDROOT
BRANCH   3   9
ATOM      9  C   UNL d   1       1.068  -1.408   0.056  0.00  0.00     0.043 A 
ATOM     10  C   UNL d   1      -0.214  -0.783   0.004  0.00  0.00     0.018 A 
ATOM     11  C   UNL d   1      -0.293   0.614  -0.055  0.00  0.00     0.044 A 
ATOM     12  C   UNL d   1      -1.570  -1.242   0.021  0.00  0.00     0.033 A 
ATOM     13  N   UNL d   1      -1.626   0.963  -0.094  0.00  0.00    -0.365 N 
ATOM     14  C   UNL d   1       0.828   1.451  -0.071  0.00  0.00     0.030 A 
ATOM     15  C   UNL d   1      -2.409  -0.153  -0.048  0.00  0.00     0.089 A 
ATOM     16  H   UNL d   1      -1.965   1.914  -0.142  0.00  0.00     0.165 HD
ATOM     17  C   UNL d   1       2.078   0.849  -0.028  0.00  0.00     0.005 A 
ATOM     18  C   UNL d   1       2.189  -0.537   0.031  0.00  0.00     0.030 A 
ENDBRANCH   3   9
BRANCH   1  19
ATOM     19  C   UNL d   1       1.161  -7.986   0.280  0.00  0.00     0.032 A 
ATOM     20  C   UNL d   1       1.114  -8.188  -1.103  0.00  0.00     0.018 A 
ATOM     21  C   UNL d   1       0.321  -9.210  -1.632  0.00  0.00     0.025 A 
ATOM     22  C   UNL d   1      -0.379 -10.061  -0.775  0.00  0.00     0.034 A 
ATOM     23  C   UNL d   1      -0.281  -9.910   0.607  0.00  0.00     0.025 A 
ATOM     24 CL   UNL d   1      -1.363 -11.310  -1.430  0.00  0.00    -0.084 Cl
ATOM     25  C   UNL d   1       0.490  -8.873   1.135  0.00  0.00     0.018 A 
ENDBRANCH   1  19
TORSDOF 2
