REMARK  0 active torsions:
REMARK  status: ('A' for Active; 'I' for Inactive)
ROOT
ATOM      1  C   UNL d   1       2.349  -0.726  -0.065  0.00  0.00     0.027 A 
ATOM      2  C   UNL d   1       1.028  -0.410   0.392  0.00  0.00    -0.011 A 
ATOM      3  C   UNL d   1       3.136  -1.887   0.474  0.00  0.00     0.161 C 
ATOM      4  C   UNL d   1       2.969   0.054  -1.068  0.00  0.00    -0.043 A 
ATOM      5  C   UNL d   1       0.374   0.710  -0.186  0.00  0.00    -0.025 A 
ATOM      6  O   UNL d   1       2.592  -2.838   1.033  0.00  0.00    -0.292 OA
ATOM      7  C   UNL d   1       2.289   1.140  -1.621  0.00  0.00     0.009 A 
ATOM      8  C   UNL d   1       1.012   1.467  -1.176  0.00  0.00     0.013 A 
ATOM      9  C   UNL d   1       4.642  -1.916   0.282  0.00  0.00     0.084 C 
ATOM     10  C   UNL d   1       0.301  -1.116   1.389  0.00  0.00     0.013 A 
ATOM     11  C   UNL d   1       5.218  -0.694  -0.408  0.00  0.00     0.012 C 
ATOM     12  C   UNL d   1       4.342  -0.289  -1.579  0.00  0.00     0.040 C 
ATOM     13  C   UNL d   1      -0.920   1.076   0.222  0.00  0.00     0.012 A 
ATOM     14  C   UNL d   1      -0.991  -0.748   1.777  0.00  0.00     0.001 A 
ATOM     15  C   UNL d   1      -1.601   0.350   1.194  0.00  0.00     0.001 A 
ENDROOT
TORSDOF 0
