REMARK  3 active torsions:
REMARK  status: ('A' for Active; 'I' for Inactive)
REMARK    1  A    between atoms: C_2  and  S_1 
REMARK    2  A    between atoms: O_12  and  S_1 
REMARK    3  A    between atoms: O_13  and  C_5 
ROOT
ATOM      1  C   UNL d   1       0.357  -1.663  -0.707  0.00  0.00     0.086 A 
ATOM      2  C   UNL d   1       1.001  -2.845  -0.250  0.00  0.00     0.017 A 
ATOM      3  C   UNL d   1       0.600  -4.087  -0.799  0.00  0.00     0.078 A 
ATOM      4  C   UNL d   1      -0.428  -4.100  -1.754  0.00  0.00     0.109 A 
ATOM      5  C   UNL d   1      -0.672  -1.703  -1.653  0.00  0.00     0.047 A 
ATOM      6  C   UNL d   1      -1.063  -2.927  -2.177  0.00  0.00     0.043 A 
ATOM      7  N   UNL d   1       1.182  -5.248  -0.426  0.00  0.00    -0.363 N 
ATOM      8  HN  UNL d   1       0.882  -6.130  -0.842  1.00  0.00     0.165 HD
ATOM      9  I   UNL d   1      -2.593  -2.956  -3.599  0.00  0.00    -0.042 I 
ATOM     10  C   UNL d   1       2.026  -2.885   0.728  0.00  0.00     0.017 A 
ATOM     11  C   UNL d   1       2.162  -5.235   0.498  0.00  0.00     0.088 A 
ATOM     12  C   UNL d   1       2.612  -4.087   1.105  0.00  0.00     0.018 A 
ENDROOT
BRANCH   1  13
ATOM     13  S   UNL d   1       0.874  -0.073  -0.115  0.00  0.00     0.130 S 
ATOM     14  O   UNL d   1       2.265   0.101  -0.470  0.00  0.00    -0.598 OA
ATOM     15  O   UNL d   1       0.395   0.067   1.241  0.00  0.00    -0.598 OA
BRANCH  13  16
ATOM     16  O   UNL d   1       0.088   1.006  -1.023  0.00  0.00    -0.292 OA
ATOM     17  H   UNL d   1       0.764   1.574  -1.452  0.00  0.00     0.232 HD
ENDBRANCH  13  16
ENDBRANCH   1  13
BRANCH   4  18
ATOM     18  O   UNL d   1      -0.811  -5.318  -2.279  0.00  0.00    -0.357 OA
ATOM     19  H   UNL d   1      -1.540  -5.169  -2.904  0.00  0.00     0.217 HD
ENDBRANCH   4  18
TORSDOF 3
