REMARK  2 active torsions:
REMARK  status: ('A' for Active; 'I' for Inactive)
REMARK       I    between atoms: N_2  and  C_1 
REMARK    1  A    between atoms: C_8  and  C_1 
REMARK    2  A    between atoms: C_4  and  N_2 
ROOT
ATOM      1  C   UNL d   1      -0.558  -0.794   0.367  0.00  0.00     0.252 C 
ATOM      2  N   UNL d   1       0.525  -1.139  -0.402  0.00  0.00    -0.344 N 
ATOM      3  O   UNL d   1      -1.116  -1.570   1.133  0.00  0.00    -0.268 OA
ATOM      4  H   UNL d   1       0.919  -0.493  -1.078  0.00  0.00     0.163 HD
ENDROOT
BRANCH   2   5
ATOM      5  C   UNL d   1       1.133  -2.466  -0.342  0.00  0.00     0.177 C 
ATOM      6  C   UNL d   1       2.537  -2.335  -0.954  0.00  0.00     0.240 C 
ATOM      7  N   UNL d   1       3.378  -3.405  -0.853  0.00  0.00    -0.359 N 
ATOM      8  O   UNL d   1       2.911  -1.322  -1.550  0.00  0.00    -0.271 OA
ATOM      9  C   UNL d   1       3.075  -4.668  -0.221  0.00  0.00     0.122 C 
ATOM     10  H   UNL d   1       4.279  -3.275  -1.299  0.00  0.00     0.162 HD
ATOM     11  C   UNL d   1       2.007  -5.440  -0.986  0.00  0.00     0.020 C 
ATOM     12  C   UNL d   1       0.584  -4.946  -0.723  0.00  0.00     0.004 C 
ATOM     13  C   UNL d   1       0.304  -3.495  -1.121  0.00  0.00     0.035 C 
ENDBRANCH   2   5
BRANCH   1  14
ATOM     14  C   UNL d   1      -1.072   0.589   0.189  0.00  0.00     0.032 A 
ATOM     15  C   UNL d   1      -2.448   0.803   0.283  0.00  0.00     0.017 A 
ATOM     16  C   UNL d   1      -2.974   2.083   0.095  0.00  0.00     0.001 A 
ATOM     17  C   UNL d   1      -2.119   3.151  -0.174  0.00  0.00     0.000 A 
ATOM     18  C   UNL d   1      -0.742   2.947  -0.244  0.00  0.00     0.001 A 
ATOM     19  C   UNL d   1      -0.212   1.667  -0.063  0.00  0.00     0.017 A 
ENDBRANCH   1  14
TORSDOF 2
