REMARK  5 active torsions:
REMARK  status: ('A' for Active; 'I' for Inactive)
REMARK    1  A    between atoms: C_2  and  C_1 
REMARK    2  A    between atoms: C_3  and  C_1 
REMARK    3  A    between atoms: C_4  and  C_1 
REMARK    4  A    between atoms: O_7  and  C_1 
REMARK    5  A    between atoms: C_8  and  C_2 
ROOT
ATOM      1  C   UNL d   1       0.998   0.128   0.083  0.00  0.00     0.116 C 
ENDROOT
BRANCH   1   2
ATOM      2  C   UNL d   1       0.326   0.041  -1.335  0.00  0.00     0.088 C 
BRANCH   2   3
ATOM      3  C   UNL d   1      -1.163  -0.181  -1.490  0.00  0.00    -0.039 A 
ATOM      4  C   UNL d   1      -2.075  -0.245  -0.439  0.00  0.00     0.094 A 
ATOM      5  N   UNL d   1      -3.400  -0.475  -0.584  0.00  0.00    -0.375 N 
ATOM      6  C   UNL d   1      -3.854  -0.642  -1.839  0.00  0.00     0.087 A 
ATOM      7  HN  UNL d   1      -4.025  -0.519   0.221  1.00  0.00     0.164 HD
ATOM      8  C   UNL d   1      -3.050  -0.563  -2.960  0.00  0.00     0.018 A 
ATOM      9  C   UNL d   1      -1.688  -0.327  -2.781  0.00  0.00     0.010 A 
ENDBRANCH   2   3
ENDBRANCH   1   2
BRANCH   1  10
ATOM     10  C   UNL d   1       0.769  -1.193   0.865  0.00  0.00    -0.019 A 
ATOM     11  C   UNL d   1       1.203  -2.421   0.315  0.00  0.00     0.010 A 
ATOM     12  C   UNL d   1       0.983  -3.637   0.968  0.00  0.00     0.001 A 
ATOM     13  C   UNL d   1       0.321  -3.661   2.190  0.00  0.00     0.000 A 
ATOM     14  C   UNL d   1      -0.122  -2.471   2.755  0.00  0.00     0.001 A 
ATOM     15  C   UNL d   1       0.097  -1.254   2.100  0.00  0.00     0.010 A 
ENDBRANCH   1  10
BRANCH   1  16
ATOM     16  C   UNL d   1       0.715   1.448   0.834  0.00  0.00    -0.019 A 
ATOM     17  C   UNL d   1      -0.091   2.476   0.305  0.00  0.00     0.010 A 
ATOM     18  C   UNL d   1      -0.319   3.666   1.004  0.00  0.00     0.001 A 
ATOM     19  C   UNL d   1       0.260   3.866   2.250  0.00  0.00     0.000 A 
ATOM     20  C   UNL d   1       1.087   2.884   2.789  0.00  0.00     0.001 A 
ATOM     21  C   UNL d   1       1.325   1.702   2.080  0.00  0.00     0.010 A 
ENDBRANCH   1  16
BRANCH   1  22
ATOM     22  O   UNL d   1       2.417   0.225  -0.206  0.00  0.00    -0.380 OA
ATOM     23  H   UNL d   1       2.854  -0.570   0.137  0.00  0.00     0.211 HD
ENDBRANCH   1  22
TORSDOF 5
