REMARK  3 active torsions:
REMARK  status: ('A' for Active; 'I' for Inactive)
REMARK    1  A    between atoms: C_7  and  C_1 
REMARK    2  A    between atoms: C_10  and  C_4 
REMARK    3  A    between atoms: O_12  and  C_7 
ROOT
ATOM      1  C   UNL d   1       0.995  -1.553   0.118  0.00  0.00     0.079 A 
ATOM      2  N   UNL d   1       2.269   0.370  -0.368  0.00  0.00    -0.298 N 
ATOM      3  HN  UNL d   1       3.166   0.819  -0.552  1.00  0.00     0.187 HD
ATOM      4  C   UNL d   1       2.232  -0.956  -0.119  0.00  0.00     0.076 A 
ATOM      5  N   UNL d   1       1.119   1.131  -0.380  0.00  0.00    -0.299 N 
ATOM      6  HN  UNL d   1       1.183   2.131  -0.570  1.00  0.00     0.187 HD
ATOM      7  C   UNL d   1      -0.204  -0.788   0.113  0.00  0.00     0.011 A 
ATOM      8  C   UNL d   1      -0.076   0.583  -0.148  0.00  0.00     0.059 A 
ATOM      9  C   UNL d   1      -1.507  -1.302   0.361  0.00  0.00     0.015 A 
ATOM     10  C   UNL d   1      -1.209   1.391  -0.167  0.00  0.00     0.032 A 
ATOM     11  C   UNL d   1      -2.634  -0.481   0.317  0.00  0.00     0.001 A 
ATOM     12  C   UNL d   1      -2.485   0.872   0.054  0.00  0.00     0.002 A 
ENDROOT
BRANCH   4  13
ATOM     13  C   UNL d   1       3.561  -1.609  -0.153  0.00  0.00    -0.007 A 
ATOM     14  C   UNL d   1       4.685  -0.940   0.374  0.00  0.00     0.014 A 
ATOM     15  C   UNL d   1       5.960  -1.516   0.359  0.00  0.00     0.001 A 
ATOM     16  C   UNL d   1       6.143  -2.781  -0.187  0.00  0.00     0.000 A 
ATOM     17  C   UNL d   1       5.058  -3.458  -0.734  0.00  0.00     0.001 A 
ATOM     18  C   UNL d   1       3.785  -2.873  -0.728  0.00  0.00     0.014 A 
ENDBRANCH   4  13
BRANCH   1  19
ATOM     19  C   UNL d   1       0.927  -2.987   0.443  0.00  0.00     0.179 C 
ATOM     20  O   UNL d   1       1.433  -3.475   1.433  0.00  0.00    -0.646 OA
BRANCH  19  21
ATOM     21  O   UNL d   1       0.260  -3.696  -0.495  0.00  0.00    -0.773 OA
ATOM     22  H   UNL d   1      -0.101  -3.178  -1.240  0.00  0.00     0.167 HD
ENDBRANCH  19  21
ENDBRANCH   1  19
TORSDOF 3
