REMARK  6 active torsions:
REMARK  status: ('A' for Active; 'I' for Inactive)
REMARK    1  A    between atoms: C_6  and  N_1 
REMARK    2  A    between atoms: N_11  and  C_6 
REMARK    3  A    between atoms: C_15  and  N_11 
REMARK    4  A    between atoms: C_20  and  N_11 
REMARK    5  A    between atoms: C_14  and  C_15 
REMARK    6  A    between atoms: C_16  and  C_20 
ROOT
ATOM      1  N   UNL d   1       8.314   1.077  -2.034  0.00  0.00    -0.197 NA
ATOM      2  C   UNL d   1       7.159   1.014  -1.919  0.00  0.00     0.060 C 
ATOM      3  C   UNL d   1       5.697   0.926  -1.749  0.00  0.00     0.154 C 
ENDROOT
BRANCH   3   4
ATOM      4  C   UNL d   1       5.324   1.211  -0.285  0.00  0.00     0.289 C 
BRANCH   4   5
ATOM      5  N   UNL d   1       3.875   1.196   0.006  0.00  0.00     0.111 N 
BRANCH   5   6
ATOM      6  C   UNL d   1       3.346  -0.175   0.018  0.00  0.00     0.408 C 
BRANCH   6   7
ATOM      7  N   UNL d   1       1.903  -0.219  -0.064  0.00  0.00    -0.252 N 
ATOM      8  C   UNL d   1       1.137  -0.710   0.958  0.00  0.00     0.263 A 
ATOM      9  C   UNL d   1      -0.196  -0.946   0.421  0.00  0.00     0.048 A 
ATOM     10  O   UNL d   1       1.450  -1.012   2.092  0.00  0.00    -0.267 OA
ATOM     11  C   UNL d   1      -1.315  -1.465   1.043  0.00  0.00     0.018 A 
ATOM     12  C   UNL d   1      -0.155  -0.674  -0.932  0.00  0.00     0.048 A 
ATOM     13  C   UNL d   1      -2.429  -1.720   0.242  0.00  0.00     0.001 A 
ATOM     14  C   UNL d   1      -2.394  -1.454  -1.142  0.00  0.00     0.001 A 
ATOM     15  C   UNL d   1      -1.245  -0.924  -1.746  0.00  0.00     0.018 A 
ATOM     16  C   UNL d   1       1.211  -0.245  -1.249  0.00  0.00     0.263 A 
ATOM     17  O   UNL d   1       1.613  -0.068  -2.385  0.00  0.00    -0.267 OA
ENDBRANCH   6   7
ENDBRANCH   5   6
BRANCH   5  18
ATOM     18  C   UNL d   1       3.543   1.975   1.221  0.00  0.00     0.314 C 
BRANCH  18  19
ATOM     19  C   UNL d   1       4.010   1.476   2.572  0.00  0.00    -0.015 A 
ATOM     20  C   UNL d   1       5.352   1.409   2.936  0.00  0.00     0.096 A 
ATOM     21  N   UNL d   1       5.809   0.981   4.138  0.00  0.00    -0.375 N 
ATOM     22  C   UNL d   1       4.880   0.629   5.050  0.00  0.00     0.087 A 
ATOM     23  HN  UNL d   1       6.806   0.927   4.343  1.00  0.00     0.164 HD
ATOM     24  C   UNL d   1       3.520   0.703   4.819  0.00  0.00     0.018 A 
ATOM     25  C   UNL d   1       3.086   1.136   3.567  0.00  0.00     0.011 A 
ENDBRANCH  18  19
ENDBRANCH   5  18
ENDBRANCH   4   5
ENDBRANCH   3   4
TORSDOF 6
