REMARK  8 active torsions:
REMARK  status: ('A' for Active; 'I' for Inactive)
REMARK       I    between atoms: N_2  and  C_1 
REMARK    1  A    between atoms: C_5  and  C_1 
REMARK    2  A    between atoms: C_6  and  N_2 
REMARK    3  A    between atoms: C_18  and  C_17 
REMARK    4  A    between atoms: C_19  and  C_18 
REMARK    5  A    between atoms: C_22  and  C_19 
REMARK    6  A    between atoms: C_20  and  C_21 
REMARK    7  A    between atoms: C_21  and  C_23 
REMARK    8  A    between atoms: C_23  and  C_22 
ROOT
ATOM      1  C   UNL d   1       0.156   0.407   1.112  0.00  0.00     0.032 A 
ATOM      2  C   UNL d   1       0.568   1.601   1.714  0.00  0.00     0.017 A 
ATOM      3  C   UNL d   1      -1.054  -0.185   1.491  0.00  0.00     0.017 A 
ATOM      4  C   UNL d   1      -0.210   2.173   2.721  0.00  0.00     0.008 A 
ATOM      5  C   UNL d   1      -1.831   0.393   2.492  0.00  0.00     0.008 A 
ATOM      6  C   UNL d   1      -1.405   1.565   3.131  0.00  0.00    -0.058 A 
ENDROOT
BRANCH   1   7
ATOM      7  C   UNL d   1       0.952  -0.249   0.046  0.00  0.00     0.256 C 
ATOM      8  N   UNL d   1       2.326  -0.143   0.179  0.00  0.00    -0.323 N 
ATOM      9  H   UNL d   1       2.676   0.217   1.057  0.00  0.00     0.169 HD
ATOM     10  O   UNL d   1       0.352  -0.872  -0.824  0.00  0.00    -0.267 OA
BRANCH   8  11
ATOM     11  C   UNL d   1       3.286  -0.653  -0.720  0.00  0.00     0.036 A 
ATOM     12  C   UNL d   1       2.966  -1.094  -2.010  0.00  0.00     0.056 A 
ATOM     13  C   UNL d   1       3.958  -1.614  -2.841  0.00  0.00     0.074 A 
ATOM     14 CL   UNL d   1       3.537  -2.157  -4.422  0.00  0.00    -0.081 Cl
ATOM     15  C   UNL d   1       5.271  -1.692  -2.391  0.00  0.00     0.138 A 
ATOM     16  C   UNL d   1       5.608  -1.235  -1.122  0.00  0.00     0.046 A 
ATOM     17  F   UNL d   1       6.236  -2.201  -3.171  0.00  0.00    -0.204 F 
ATOM     18  C   UNL d   1       4.617  -0.707  -0.289  0.00  0.00     0.032 A 
ENDBRANCH   8  11
ENDBRANCH   1   7
BRANCH   6  19
ATOM     19  C   UNL d   1      -2.217   2.165   4.252  0.00  0.00     0.038 C 
BRANCH  19  20
ATOM     20  C   UNL d   1      -2.401   1.221   5.446  0.00  0.00     0.005 C 
BRANCH  20  21
ATOM     21  C   UNL d   1      -1.077   0.820   6.106  0.00  0.00     0.000 C 
BRANCH  21  22
ATOM     22  C   UNL d   1      -1.325  -0.114   7.290  0.00  0.00     0.000 C 
BRANCH  22  23
ATOM     23  C   UNL d   1      -0.015  -0.533   7.956  0.00  0.00    -0.000 C 
BRANCH  23  24
ATOM     24  C   UNL d   1      -0.277  -1.468   9.136  0.00  0.00    -0.005 C 
ATOM     25  C   UNL d   1       1.018  -1.887   9.811  0.00  0.00     0.005 C 
ENDBRANCH  23  24
ENDBRANCH  22  23
ENDBRANCH  21  22
ENDBRANCH  20  21
ENDBRANCH  19  20
ENDBRANCH   6  19
TORSDOF 8
