REMARK  2 active torsions:
REMARK  status: ('A' for Active; 'I' for Inactive)
REMARK    1  A    between atoms: C_5  and  C_2 
REMARK       I    between atoms: N_13  and  C_5 
REMARK    2  A    between atoms: C_15  and  N_13 
ROOT
ATOM      1  C   UNL d   1       0.189  -0.504   0.056  0.00  0.00     0.086 A 
ATOM      2  C   UNL d   1      -2.177  -0.641  -0.136  0.00  0.00     0.034 A 
ATOM      3  C   UNL d   1       0.121   0.947  -0.043  0.00  0.00     0.085 A 
ATOM      4  C   UNL d   1      -0.954  -1.331   0.007  0.00  0.00     0.051 A 
ATOM      5  O   UNL d   1       2.192   0.331   0.172  0.00  0.00    -0.156 OA
ATOM      6  N   UNL d   1       1.474  -0.854   0.187  0.00  0.00    -0.240 N 
ATOM      7  HN  UNL d   1       1.848  -1.798   0.279  1.00  0.00     0.197 HD
ATOM      8  N   UNL d   1       1.364   1.433   0.031  0.00  0.00    -0.240 N 
ATOM      9  HN  UNL d   1       1.646   2.413  -0.009  1.00  0.00     0.197 HD
ATOM     10  C   UNL d   1      -2.224   0.791  -0.236  0.00  0.00     0.019 A 
ATOM     11  C   UNL d   1      -1.093   1.631  -0.195  0.00  0.00     0.035 A 
ENDROOT
BRANCH   2  12
ATOM     12  C   UNL d   1      -3.495  -1.356  -0.251  0.00  0.00     0.256 C 
ATOM     13  N   UNL d   1      -3.521  -2.708   0.050  0.00  0.00    -0.323 N 
ATOM     14  H   UNL d   1      -2.695  -3.132   0.444  0.00  0.00     0.169 HD
ATOM     15  O   UNL d   1      -4.464  -0.689  -0.602  0.00  0.00    -0.267 OA
BRANCH  13  16
ATOM     16  C   UNL d   1      -4.620  -3.586  -0.118  0.00  0.00     0.035 A 
ATOM     17  C   UNL d   1      -5.850  -3.203  -0.661  0.00  0.00     0.031 A 
ATOM     18  C   UNL d   1      -6.881  -4.135  -0.832  0.00  0.00     0.026 A 
ATOM     19  C   UNL d   1      -6.687  -5.460  -0.460  0.00  0.00     0.034 A 
ATOM     20  C   UNL d   1      -5.473  -5.859   0.088  0.00  0.00     0.026 A 
ATOM     21 CL   UNL d   1      -7.949  -6.606  -0.688  0.00  0.00    -0.084 Cl
ATOM     22  C   UNL d   1      -4.444  -4.926   0.260  0.00  0.00     0.031 A 
ENDBRANCH  13  16
ENDBRANCH   2  12
TORSDOF 2
