REMARK  3 active torsions:
REMARK  status: ('A' for Active; 'I' for Inactive)
REMARK    1  A    between atoms: C_10  and  N_1 
REMARK    2  A    between atoms: C_15  and  N_4 
REMARK    3  A    between atoms: C_19  and  C_15 
ROOT
ATOM      1  N   UNL d   1       0.856   1.469   0.024  0.00  0.00    -0.246 N 
ATOM      2  C   UNL d   1       2.142   0.805   0.103  0.00  0.00     0.338 A 
ATOM      3  C   UNL d   1      -0.290   0.711  -0.015  0.00  0.00     0.150 A 
ATOM      4  N   UNL d   1       2.128  -0.587   0.034  0.00  0.00    -0.264 N 
ATOM      5  C   UNL d   1      -0.266  -0.652  -0.031  0.00  0.00     0.147 A 
ATOM      6  C   UNL d   1       0.979  -1.387  -0.034  0.00  0.00     0.282 A 
ATOM      7  N   UNL d   1      -1.608   1.072  -0.041  0.00  0.00    -0.336 N 
ATOM      8  N   UNL d   1      -1.550  -1.149  -0.035  0.00  0.00    -0.345 N 
ATOM      9  HN  UNL d   1      -1.834  -2.129  -0.039  1.00  0.00     0.167 HD
ATOM     10  C   UNL d   1      -2.332  -0.091  -0.034  0.00  0.00     0.182 A 
ATOM     11  O   UNL d   1       3.149   1.488   0.226  0.00  0.00    -0.246 OA
ATOM     12  O   UNL d   1       1.019  -2.612  -0.089  0.00  0.00    -0.265 OA
ATOM     13  H   UNL d   1      -1.985   2.010  -0.041  0.00  0.00     0.168 HD
ENDROOT
BRANCH   1  14
ATOM     14  C   UNL d   1       0.837   2.836  -0.023  0.00  0.00     0.051 A 
ATOM     15  C   UNL d   1       0.723   3.622   1.139  0.00  0.00    -0.035 A 
ATOM     16  C   UNL d   1       0.662   3.034   2.521  0.00  0.00     0.050 C 
ATOM     17  C   UNL d   1       0.666   5.021   1.015  0.00  0.00     0.009 A 
ATOM     18  C   UNL d   1       0.720   5.631  -0.238  0.00  0.00     0.001 A 
ATOM     19  C   UNL d   1       0.828   4.854  -1.387  0.00  0.00     0.002 A 
ATOM     20  C   UNL d   1       0.883   3.466  -1.279  0.00  0.00     0.031 A 
ENDBRANCH   1  14
BRANCH   4  21
ATOM     21  C   UNL d   1       3.419  -1.272   0.070  0.00  0.00     0.137 C 
BRANCH  21  22
ATOM     22  C   UNL d   1       4.013  -1.550  -1.318  0.00  0.00     0.016 C 
ATOM     23  C   UNL d   1       4.409  -0.298  -2.087  0.00  0.00     0.006 C 
ENDBRANCH  21  22
ENDBRANCH   4  21
TORSDOF 3
