REMARK  4 active torsions:
REMARK  status: ('A' for Active; 'I' for Inactive)
REMARK    1  A    between atoms: N_3  and  C_1 
REMARK    2  A    between atoms: C_2  and  N_3 
REMARK    3  A    between atoms: C_12  and  N_6 
REMARK    4  A    between atoms: C_16  and  C_12 
ROOT
ATOM      1  C   UNL d   1       1.128   0.115  -0.010  0.00  0.00     0.172 C 
ATOM      2  S   UNL d   1       0.306  -1.076   0.825  0.00  0.00    -0.041 SA
ATOM      3  N   UNL d   1       2.493   0.105   0.041  0.00  0.00    -0.363 N 
ATOM      4  H   UNL d   1       2.862  -0.610   0.659  0.00  0.00     0.162 HD
ENDROOT
BRANCH   1   5
ATOM      5  N   UNL d   1       0.571   1.085  -0.797  0.00  0.00    -0.332 N 
ATOM      6  H   UNL d   1       0.941   1.125  -1.742  0.00  0.00     0.168 HD
BRANCH   5   7
ATOM      7  C   UNL d   1      -0.647   1.780  -0.592  0.00  0.00     0.057 A 
ATOM      8  C   UNL d   1      -1.115   2.043   0.700  0.00  0.00     0.055 A 
ATOM      9  C   UNL d   1      -2.252   2.829   0.890  0.00  0.00     0.036 A 
ATOM     10 CL   UNL d   1      -2.774   3.199   2.487  0.00  0.00    -0.084 Cl
ATOM     11  C   UNL d   1      -2.946   3.345  -0.201  0.00  0.00     0.026 A 
ATOM     12  C   UNL d   1      -2.493   3.085  -1.496  0.00  0.00     0.028 A 
ATOM     13  C   UNL d   1      -1.340   2.320  -1.689  0.00  0.00     0.060 A 
ATOM     14 CL   UNL d   1      -0.798   2.045  -3.308  0.00  0.00    -0.082 Cl
ENDBRANCH   5   7
ENDBRANCH   1   5
BRANCH   3  15
ATOM     15  C   UNL d   1       3.382   1.221  -0.232  0.00  0.00     0.160 C 
BRANCH  15  16
ATOM     16  C   UNL d   1       3.708   1.987   1.026  0.00  0.00    -0.038 A 
ATOM     17  C   UNL d   1       4.980   1.925   1.599  0.00  0.00     0.025 A 
ATOM     18  C   UNL d   1       5.227   2.645   2.759  0.00  0.00     0.088 A 
ATOM     19  N   UNL d   1       4.303   3.408   3.381  0.00  0.00    -0.375 N 
ATOM     20  C   UNL d   1       3.078   3.451   2.820  0.00  0.00     0.088 A 
ATOM     21  HN  UNL d   1       4.521   3.926   4.233  1.00  0.00     0.164 HD
ATOM     22  C   UNL d   1       2.739   2.773   1.659  0.00  0.00     0.025 A 
ENDBRANCH  15  16
ENDBRANCH   3  15
TORSDOF 4
