REMARK  3 active torsions:
REMARK  status: ('A' for Active; 'I' for Inactive)
REMARK    1  A    between atoms: C_5  and  C_1 
REMARK    2  A    between atoms: C_11  and  C_2 
REMARK    3  A    between atoms: O_15  and  C_11 
ROOT
ATOM      1  C   UNL d   1       0.666  -1.312   0.043  0.00  0.00     0.005 A 
ATOM      2  C   UNL d   1      -0.771  -1.326   0.116  0.00  0.00     0.073 A 
ATOM      3  C   UNL d   1      -1.160   0.014   0.112  0.00  0.00     0.022 A 
ATOM      4  N   UNL d   1      -0.018   0.784   0.115  0.00  0.00    -0.362 N 
ATOM      5  C   UNL d   1       1.103  -0.003   0.082  0.00  0.00     0.017 A 
ATOM      6  C   UNL d   1      -2.482   0.697   0.056  0.00  0.00     0.069 C 
ATOM      7  C   UNL d   1       2.463   0.588   0.014  0.00  0.00     0.069 C 
ATOM      8  H   UNL d   1      -0.010   1.795   0.081  0.00  0.00     0.165 HD
ENDROOT
BRANCH   1   9
ATOM      9  C   UNL d   1       1.519  -2.444  -0.138  0.00  0.00     0.032 C 
ATOM     10  C   UNL d   1       1.913  -2.909  -1.338  0.00  0.00     0.045 A 
ATOM     11  C   UNL d   1       1.600  -2.263  -2.669  0.00  0.00     0.257 A 
ATOM     12  C   UNL d   1       2.676  -4.131  -1.625  0.00  0.00     0.006 A 
ATOM     13  N   UNL d   1       2.173  -3.100  -3.613  0.00  0.00    -0.322 N 
ATOM     14  O   UNL d   1       0.999  -1.236  -2.914  0.00  0.00    -0.267 OA
ATOM     15  C   UNL d   1       2.793  -4.189  -3.019  0.00  0.00     0.046 A 
ATOM     16  H   UNL d   1       2.108  -2.917  -4.600  0.00  0.00     0.169 HD
ATOM     17  C   UNL d   1       3.434  -5.219  -3.679  0.00  0.00     0.030 A 
ATOM     18  C   UNL d   1       3.972  -6.240  -2.898  0.00  0.00     0.002 A 
ATOM     19  C   UNL d   1       3.856  -6.206  -1.495  0.00  0.00     0.001 A 
ATOM     20  C   UNL d   1       3.203  -5.148  -0.846  0.00  0.00     0.015 A 
ENDBRANCH   1   9
BRANCH   2  21
ATOM     21  C   UNL d   1      -1.615  -2.528   0.125  0.00  0.00     0.295 C 
ATOM     22  O   UNL d   1      -1.165  -3.670   0.080  0.00  0.00    -0.259 OA
BRANCH  21  23
ATOM     23  O   UNL d   1      -2.951  -2.262   0.223  0.00  0.00    -0.322 OA
ATOM     24  C   UNL d   1      -3.778  -3.424   0.243  0.00  0.00     0.213 C 
ENDBRANCH  21  23
ENDBRANCH   2  21
TORSDOF 3
