REMARK  7 active torsions:
REMARK  status: ('A' for Active; 'I' for Inactive)
REMARK    1  A    between atoms: C_2  and  O_1 
REMARK    2  A    between atoms: C_5  and  O_1 
REMARK    3  A    between atoms: C_3  and  C_5 
REMARK    4  A    between atoms: O_11  and  C_3 
REMARK    5  A    between atoms: C_13  and  C_3 
REMARK    6  A    between atoms: O_12  and  C_4 
REMARK    7  A    between atoms: N_6  and  C_13 
ROOT
ATOM      1  O   UNL d   1       0.976  -0.021  -0.196  0.00  0.00    -0.349 OA
ENDROOT
BRANCH   1   2
ATOM      2  C   UNL d   1       0.382  -1.211  -0.518  0.00  0.00     0.069 A 
ATOM      3  C   UNL d   1       0.814  -2.473  -0.117  0.00  0.00     0.039 A 
ATOM      4  C   UNL d   1       0.124  -3.624  -0.519  0.00  0.00     0.039 A 
ATOM      5  C   UNL d   1      -1.004  -3.519  -1.332  0.00  0.00     0.068 A 
ATOM      6  C   UNL d   1      -1.452  -2.257  -1.714  0.00  0.00     0.039 A 
ATOM      7  C   UNL d   1      -0.758  -1.108  -1.318  0.00  0.00     0.039 A 
BRANCH   5   8
ATOM      8  O   UNL d   1      -1.754  -4.573  -1.774  0.00  0.00    -0.356 OA
ATOM      9  C   UNL d   1      -1.055  -5.805  -1.915  0.00  0.00     0.210 C 
ENDBRANCH   5   8
ENDBRANCH   1   2
BRANCH   1  10
ATOM     10  C   UNL d   1       2.130  -0.092   0.652  0.00  0.00     0.209 C 
BRANCH  10  11
ATOM     11  C   UNL d   1       2.640   1.328   0.930  0.00  0.00     0.170 C 
BRANCH  11  12
ATOM     12  O   UNL d   1       3.034   1.948  -0.307  0.00  0.00    -0.392 OA
ATOM     13  H   UNL d   1       2.291   1.816  -0.925  0.00  0.00     0.210 HD
ENDBRANCH  11  12
BRANCH  11  14
ATOM     14  C   UNL d   1       1.570   2.200   1.613  0.00  0.00     0.300 C 
BRANCH  14  15
ATOM     15  N   UNL d   1       2.111   3.522   1.945  0.00  0.00     0.080 N 
ATOM     16  H   UNL d   1       1.346   4.163   2.145  0.00  0.00     0.312 HD
ATOM     17  H   UNL d   1       2.586   3.884   1.114  0.00  0.00     0.312 HD
ENDBRANCH  14  15
ENDBRANCH  11  14
ENDBRANCH  10  11
ENDBRANCH   1  10
TORSDOF 7
