REMARK  4 active torsions:
REMARK  status: ('A' for Active; 'I' for Inactive)
REMARK    1  A    between atoms: C_4  and  C_1 
REMARK    2  A    between atoms: N_13  and  C_1 
REMARK    3  A    between atoms: N_6  and  N_2 
REMARK       I    between atoms: C_5  and  N_6 
REMARK       I    between atoms: N_7  and  C_5 
REMARK    4  A    between atoms: C_14  and  N_7 
ROOT
ATOM      1  C   UNL d   1       1.323   0.231   0.232  0.00  0.00     0.121 C 
ATOM      2  N   UNL d   1       0.541  -0.180   1.182  0.00  0.00    -0.284 N 
ATOM      3  HN  UNL d   1      -0.460   0.018   1.165  1.00  0.00     0.188 HD
ENDROOT
BRANCH   2   4
ATOM      4  N   UNL d   1       1.107  -0.891   2.210  0.00  0.00    -0.250 N 
ATOM      5  C   UNL d   1       0.240  -1.460   3.139  0.00  0.00     0.339 C 
ATOM      6  N   UNL d   1       0.889  -2.310   4.018  0.00  0.00    -0.308 N 
ATOM      7  O   UNL d   1      -0.961  -1.201   3.165  0.00  0.00    -0.245 OA
ATOM      8  H   UNL d   1       1.894  -2.236   4.052  0.00  0.00     0.170 HD
ATOM      9  H   UNL d   1       1.980  -1.357   1.988  0.00  0.00     0.192 HD
BRANCH   6  10
ATOM     10  C   UNL d   1       0.270  -3.135   4.987  0.00  0.00     0.036 A 
ATOM     11  C   UNL d   1      -1.104  -3.397   5.009  0.00  0.00     0.031 A 
ATOM     12  C   UNL d   1      -1.659  -4.248   5.970  0.00  0.00     0.026 A 
ATOM     13  C   UNL d   1      -0.840  -4.846   6.920  0.00  0.00     0.034 A 
ATOM     14  C   UNL d   1       0.529  -4.592   6.920  0.00  0.00     0.026 A 
ATOM     15 CL   UNL d   1      -1.519  -5.911   8.087  0.00  0.00    -0.084 Cl
ATOM     16  C   UNL d   1       1.084  -3.744   5.952  0.00  0.00     0.031 A 
ENDBRANCH   6  10
ENDBRANCH   2   4
BRANCH   1  17
ATOM     17  C   UNL d   1       0.685   0.864  -0.973  0.00  0.00     0.087 A 
ATOM     18  N   UNL d   1       1.547   1.346  -1.916  0.00  0.00    -0.361 N 
ATOM     19  C   UNL d   1       0.944   1.865  -3.013  0.00  0.00     0.105 A 
ATOM     20  HN  UNL d   1       2.560   1.318  -1.804  1.00  0.00     0.165 HD
ATOM     21  C   UNL d   1      -0.436   1.911  -3.164  0.00  0.00     0.104 A 
ATOM     22  N   UNL d   1      -1.286   1.451  -2.220  0.00  0.00    -0.372 N 
ATOM     23  C   UNL d   1      -0.696   0.923  -1.115  0.00  0.00     0.120 A 
ATOM     24  HN  UNL d   1      -2.299   1.496  -2.328  1.00  0.00     0.164 HD
ENDBRANCH   1  17
BRANCH   1  25
ATOM     25  N   UNL d   1       2.703   0.141   0.269  0.00  0.00    -0.286 NA
ATOM     26  H   UNL d   1       3.073   0.429   1.168  0.00  0.00     0.125 HD
ATOM     27  H   UNL d   1       3.121   0.698  -0.480  0.00  0.00     0.125 HD
ENDBRANCH   1  25
TORSDOF 4
