REMARK  4 active torsions:
REMARK  status: ('A' for Active; 'I' for Inactive)
REMARK    1  A    between atoms: C_3  and  C_1 
REMARK    2  A    between atoms: C_2  and  C_3 
REMARK    3  A    between atoms: N_7  and  C_4 
REMARK    4  A    between atoms: O_8  and  C_5 
ROOT
ATOM      1  C   UNL d   1       1.135   1.423  -2.094  0.00  0.00     0.047 A 
ATOM      2  C   UNL d   1       0.616   1.550  -3.389  0.00  0.00     0.079 A 
ATOM      3  C   UNL d   1       2.449   1.850  -1.843  0.00  0.00     0.018 A 
ATOM      4  C   UNL d   1       1.416   2.025  -4.428  0.00  0.00     0.037 A 
ATOM      5  C   UNL d   1       3.247   2.333  -2.881  0.00  0.00     0.001 A 
ATOM      6  C   UNL d   1       2.735   2.408  -4.175  0.00  0.00     0.003 A 
ENDROOT
BRANCH   1   7
ATOM      7  C   UNL d   1       0.299   0.839  -1.007  0.00  0.00     0.186 C 
ATOM      8  O   UNL d   1      -0.926   0.905  -1.070  0.00  0.00    -0.287 OA
BRANCH   7   9
ATOM      9  C   UNL d   1       1.024   0.129   0.080  0.00  0.00     0.072 C 
ATOM     10  C   UNL d   1       0.488  -0.054   1.291  0.00  0.00     0.088 C 
BRANCH  10  11
ATOM     11  N   UNL d   1       1.060  -0.637   2.416  0.00  0.00    -0.398 N 
ATOM     12  C   UNL d   1       2.422  -1.169   2.479  0.00  0.00     0.148 C 
ATOM     13  C   UNL d   1       0.324  -0.758   3.676  0.00  0.00     0.148 C 
ENDBRANCH  10  11
ENDBRANCH   7   9
ENDBRANCH   1   7
BRANCH   2  14
ATOM     14  O   UNL d   1      -0.672   1.217  -3.712  0.00  0.00    -0.360 OA
ATOM     15  H   UNL d   1      -1.163   1.063  -2.874  0.00  0.00     0.217 HD
ENDBRANCH   2  14
TORSDOF 4
