REMARK  6 active torsions:
REMARK  status: ('A' for Active; 'I' for Inactive)
REMARK    1  A    between atoms: C_8  and  C_2 
REMARK    2  A    between atoms: S_19  and  C_5 
REMARK    3  A    between atoms: C_25  and  S_19 
REMARK    4  A    between atoms: C_20  and  C_25 
REMARK       I    between atoms: N_21  and  C_20 
REMARK    5  A    between atoms: C_22  and  N_21 
REMARK    6  A    between atoms: S_28  and  C_27 
ROOT
ATOM      1  N   UNL d   1      -0.261  -0.070   1.627  0.00  0.00    -0.315 N 
ATOM      2  C   UNL d   1      -0.360   1.112   0.919  0.00  0.00     0.134 C 
ATOM      3  N   UNL d   1       0.590   1.116  -0.000  0.00  0.00    -0.283 N 
ATOM      4  HN  UNL d   1       0.811   1.893  -0.623  1.00  0.00     0.188 HD
ATOM      5  C   UNL d   1       0.688  -0.812   0.974  0.00  0.00     0.163 C 
ATOM      6  N   UNL d   1       1.230  -0.096   0.022  0.00  0.00    -0.278 N 
ATOM      7  HN  UNL d   1       1.990  -0.387  -0.592  1.00  0.00     0.189 HD
ATOM      8  C   UNL d   1      -0.935  -0.439   2.845  0.00  0.00     0.160 C 
ENDROOT
BRANCH   5   9
ATOM      9  S   UNL d   1       1.064  -2.464   1.343  0.00  0.00    -0.083 SA
BRANCH   9  10
ATOM     10  C   UNL d   1       2.338  -2.751   0.080  0.00  0.00     0.185 C 
BRANCH  10  11
ATOM     11  C   UNL d   1       2.857  -4.177  -0.018  0.00  0.00     0.231 C 
ATOM     12  N   UNL d   1       2.099  -5.161   0.592  0.00  0.00    -0.326 N 
ATOM     13  H   UNL d   1       1.232  -4.858   1.019  0.00  0.00     0.169 HD
ATOM     14  O   UNL d   1       3.871  -4.381  -0.686  0.00  0.00    -0.272 OA
BRANCH  12  15
ATOM     15  C   UNL d   1       2.361  -6.551   0.591  0.00  0.00     0.035 A 
ATOM     16  C   UNL d   1       3.562  -7.104   0.133  0.00  0.00     0.048 A 
ATOM     17  C   UNL d   1       3.757  -8.490   0.082  0.00  0.00     0.002 A 
ATOM     18  C   UNL d   1       2.742  -9.331   0.546  0.00  0.00     0.018 A 
ATOM     19  C   UNL d   1       1.553  -8.794   1.042  0.00  0.00     0.004 A 
ATOM     20  C   UNL d   1       1.364  -7.409   1.066  0.00  0.00     0.029 A 
BRANCH  17  21
ATOM     21  S   UNL d   1       5.263  -9.245  -0.525  0.00  0.00    -0.134 SA
ATOM     22  C   UNL d   1       5.869  -7.995  -1.698  0.00  0.00     0.095 C 
ENDBRANCH  17  21
ENDBRANCH  12  15
ENDBRANCH  10  11
ENDBRANCH   9  10
ENDBRANCH   5   9
BRANCH   2  23
ATOM     23  C   UNL d   1      -1.331   2.198   1.100  0.00  0.00     0.012 A 
ATOM     24  C   UNL d   1      -0.872   3.530   0.955  0.00  0.00     0.049 A 
ATOM     25  C   UNL d   1      -1.862   4.525   1.062  0.00  0.00     0.086 A 
ATOM     26  N   UNL d   1      -1.745   5.855   0.967  0.00  0.00    -0.240 N 
ATOM     27  C   UNL d   1      -3.261   4.209   1.307  0.00  0.00     0.085 A 
ATOM     28  O   UNL d   1      -3.023   6.360   1.142  0.00  0.00    -0.156 OA
ATOM     29  HN  UNL d   1      -0.891   6.387   0.801  1.00  0.00     0.197 HD
ATOM     30  N   UNL d   1      -3.951   5.352   1.359  0.00  0.00    -0.240 N 
ATOM     31  HN  UNL d   1      -4.952   5.461   1.524  1.00  0.00     0.197 HD
ATOM     32  C   UNL d   1      -3.719   2.886   1.443  0.00  0.00     0.035 A 
ATOM     33  C   UNL d   1      -2.713   1.904   1.319  0.00  0.00     0.018 A 
ENDBRANCH   2  23
TORSDOF 6
