REMARK  7 active torsions:
REMARK  status: ('A' for Active; 'I' for Inactive)
REMARK    1  A    between atoms: N_6  and  C_1 
REMARK    2  A    between atoms: N_9  and  C_1 
REMARK    3  A    between atoms: N_2  and  N_6 
REMARK    4  A    between atoms: C_4  and  C_8 
REMARK    5  A    between atoms: C_11  and  N_9 
REMARK    6  A    between atoms: C_14  and  C_11 
REMARK    7  A    between atoms: C_12  and  C_14 
ROOT
ATOM      1  C   UNL d   1       0.987  -0.034  -0.061  0.00  0.00     0.186 C 
ATOM      2  S   UNL d   1       0.202   0.169   1.401  0.00  0.00    -0.040 SA
ENDROOT
BRANCH   1   3
ATOM      3  N   UNL d   1       0.398  -0.066  -1.306  0.00  0.00    -0.277 N 
ATOM      4  H   UNL d   1       0.911  -0.442  -2.092  0.00  0.00     0.189 HD
BRANCH   3   5
ATOM      5  N   UNL d   1      -0.831   0.472  -1.513  0.00  0.00    -0.309 N 
ATOM      6  C   UNL d   1      -1.302   0.391  -2.719  0.00  0.00     0.120 C 
ATOM      7  HN  UNL d   1      -1.357   0.915  -0.760  1.00  0.00     0.186 HD
BRANCH   6   8
ATOM      8  C   UNL d   1      -2.575   1.065  -3.061  0.00  0.00     0.002 A 
ATOM      9  C   UNL d   1      -3.161   0.953  -4.328  0.00  0.00     0.045 A 
ATOM     10 CL   UNL d   1      -2.500  -0.027  -5.587  0.00  0.00    -0.083 Cl
ATOM     11  C   UNL d   1      -4.336   1.662  -4.612  0.00  0.00     0.024 A 
ATOM     12  C   UNL d   1      -4.923   2.477  -3.643  0.00  0.00     0.002 A 
ATOM     13  C   UNL d   1      -4.345   2.586  -2.382  0.00  0.00     0.001 A 
ATOM     14  C   UNL d   1      -3.178   1.880  -2.091  0.00  0.00     0.014 A 
ENDBRANCH   6   8
ENDBRANCH   3   5
ENDBRANCH   1   3
BRANCH   1  15
ATOM     15  N   UNL d   1       2.358  -0.131  -0.047  0.00  0.00    -0.366 N 
ATOM     16  H   UNL d   1       2.716  -0.009   0.895  0.00  0.00     0.161 HD
BRANCH  15  17
ATOM     17  C   UNL d   1       3.195   0.382  -1.124  0.00  0.00     0.126 C 
BRANCH  17  18
ATOM     18  C   UNL d   1       4.687   0.268  -0.822  0.00  0.00     0.058 C 
BRANCH  18  19
ATOM     19  C   UNL d   1       5.503   0.756  -1.993  0.00  0.00    -0.057 A 
ATOM     20  C   UNL d   1       5.875   2.103  -2.094  0.00  0.00     0.007 A 
ATOM     21  C   UNL d   1       6.588   2.558  -3.205  0.00  0.00     0.001 A 
ATOM     22  C   UNL d   1       6.929   1.673  -4.226  0.00  0.00     0.000 A 
ATOM     23  C   UNL d   1       6.557   0.333  -4.138  0.00  0.00     0.001 A 
ATOM     24  C   UNL d   1       5.846  -0.124  -3.029  0.00  0.00     0.007 A 
ENDBRANCH  18  19
ENDBRANCH  17  18
ENDBRANCH  15  17
ENDBRANCH   1  15
TORSDOF 7
