REMARK  5 active torsions:
REMARK  status: ('A' for Active; 'I' for Inactive)
REMARK    1  A    between atoms: C_5  and  C_1 
REMARK    2  A    between atoms: N_2  and  C_3 
REMARK    3  A    between atoms: C_7  and  N_4 
REMARK    4  A    between atoms: C_17  and  C_7 
REMARK    5  A    between atoms: C_18  and  C_7 
ROOT
ATOM      1  N   UNL d   1       1.175   5.110   0.139  0.00  0.00    -0.364 N 
ATOM      2  N   UNL d   1       3.414   6.473  -1.274  0.00  0.00     0.105 N 
ATOM      3  C   UNL d   1       1.192   5.203  -1.328  0.00  0.00     0.154 C 
ATOM      4  C   UNL d   1       2.104   5.980   0.882  0.00  0.00     0.154 C 
ATOM      5  C   UNL d   1       2.612   5.382  -1.896  0.00  0.00     0.293 C 
ATOM      6  C   UNL d   1       3.474   6.138   0.175  0.00  0.00     0.293 C 
ENDROOT
BRANCH   2   7
ATOM      7  C   UNL d   1       2.833   7.834  -1.496  0.00  0.00     0.289 C 
BRANCH   7   8
ATOM      8  C   UNL d   1       3.676   8.944  -0.849  0.00  0.00    -0.021 A 
ATOM      9  C   UNL d   1       5.025   9.130  -1.197  0.00  0.00     0.010 A 
ATOM     10  C   UNL d   1       5.764  10.183  -0.656  0.00  0.00     0.001 A 
ATOM     11  C   UNL d   1       5.170  11.057   0.252  0.00  0.00     0.000 A 
ATOM     12  C   UNL d   1       3.841  10.874   0.627  0.00  0.00     0.001 A 
ATOM     13  C   UNL d   1       3.097   9.826   0.080  0.00  0.00     0.010 A 
ENDBRANCH   7   8
BRANCH   7  14
ATOM     14  C   UNL d   1       2.570   8.201  -2.965  0.00  0.00    -0.021 A 
ATOM     15  C   UNL d   1       1.464   9.008  -3.284  0.00  0.00     0.010 A 
ATOM     16  C   UNL d   1       1.210   9.391  -4.603  0.00  0.00     0.001 A 
ATOM     17  C   UNL d   1       2.062   8.974  -5.623  0.00  0.00     0.000 A 
ATOM     18  C   UNL d   1       3.174   8.190  -5.324  0.00  0.00     0.001 A 
ATOM     19  C   UNL d   1       3.433   7.815  -4.004  0.00  0.00     0.010 A 
ENDBRANCH   7  14
ENDBRANCH   2   7
BRANCH   1  20
ATOM     20  C   UNL d   1       0.871   3.876   0.705  0.00  0.00     0.103 A 
ATOM     21  C   UNL d   1       0.323   3.837   1.987  0.00  0.00     0.064 A 
ATOM     22  C   UNL d   1      -0.058   2.621   2.563  0.00  0.00     0.052 A 
ATOM     23  C   UNL d   1       0.141   1.453   1.830  0.00  0.00     0.033 A 
ATOM     24  C   UNL d   1       0.689   1.566   0.564  0.00  0.00     0.090 A 
ATOM     25  N   UNL d   1       1.041   2.742  -0.004  0.00  0.00    -0.352 N 
ATOM     26  HN  UNL d   1       1.427   2.770  -0.948  1.00  0.00     0.166 HD
BRANCH  22  27
ATOM     27  C   UNL d   1      -0.687   2.578   3.926  0.00  0.00     0.417 C 
ATOM     28  F   UNL d   1      -0.828   3.805   4.502  0.00  0.00    -0.166 F 
ATOM     29  F   UNL d   1       0.036   1.835   4.810  0.00  0.00    -0.166 F 
ATOM     30  F   UNL d   1      -1.933   2.030   3.909  0.00  0.00    -0.166 F 
ENDBRANCH  22  27
ENDBRANCH   1  20
TORSDOF 5
