REMARK  7 active torsions:
REMARK  status: ('A' for Active; 'I' for Inactive)
REMARK    1  A    between atoms: N_6  and  C_1 
REMARK    2  A    between atoms: C_9  and  N_4 
REMARK       I    between atoms: C_8  and  N_6 
REMARK    3  A    between atoms: C_16  and  C_8 
REMARK    4  A    between atoms: C_10  and  C_17 
REMARK    5  A    between atoms: O_15  and  C_10 
REMARK    6  A    between atoms: C_18  and  C_16 
REMARK    7  A    between atoms: C_17  and  C_18 
ROOT
ATOM      1  C   UNL d   1      -0.218  -1.240  -0.010  0.00  0.00     0.129 C 
ATOM      2  C   UNL d   1       1.145  -0.676  -0.216  0.00  0.00     0.295 C 
ATOM      3  N   UNL d   1      -0.307   1.016   0.336  0.00  0.00    -0.289 N 
ATOM      4  N   UNL d   1       1.049   0.699   0.016  0.00  0.00    -0.217 N 
ATOM      5  C   UNL d   1      -1.027  -0.184   0.193  0.00  0.00     0.057 C 
ATOM      6  O   UNL d   1       2.111  -1.378  -0.505  0.00  0.00    -0.264 OA
ATOM      7  C   UNL d   1      -0.817   2.331  -0.044  0.00  0.00     0.178 C 
ATOM      8  C   UNL d   1      -2.526  -0.239   0.130  0.00  0.00     0.072 C 
ENDROOT
BRANCH   1   9
ATOM      9  N   UNL d   1      -0.452  -2.592  -0.104  0.00  0.00    -0.321 N 
ATOM     10  C   UNL d   1      -1.442  -3.261   0.585  0.00  0.00     0.222 C 
ATOM     11  O   UNL d   1      -2.194  -2.745   1.410  0.00  0.00    -0.273 OA
ATOM     12  H   UNL d   1       0.339  -3.140  -0.436  0.00  0.00     0.169 HD
BRANCH  10  13
ATOM     13  C   UNL d   1      -1.542  -4.738   0.274  0.00  0.00     0.103 C 
BRANCH  13  14
ATOM     14  C   UNL d   1      -2.999  -5.217   0.383  0.00  0.00     0.019 C 
BRANCH  14  15
ATOM     15  C   UNL d   1      -3.955  -4.546  -0.612  0.00  0.00     0.110 C 
BRANCH  15  16
ATOM     16  C   UNL d   1      -3.674  -4.912  -2.049  0.00  0.00     0.139 C 
ATOM     17  O   UNL d   1      -2.807  -5.688  -2.425  0.00  0.00    -0.650 OA
BRANCH  16  18
ATOM     18  O   UNL d   1      -4.495  -4.277  -2.915  0.00  0.00    -0.776 OA
ATOM     19  H   UNL d   1      -5.146  -3.693  -2.481  0.00  0.00     0.167 HD
ENDBRANCH  16  18
ENDBRANCH  15  16
ENDBRANCH  14  15
ENDBRANCH  13  14
ENDBRANCH  10  13
ENDBRANCH   1   9
BRANCH   4  20
ATOM     20  C   UNL d   1       2.117   1.625   0.005  0.00  0.00     0.060 A 
ATOM     21  C   UNL d   1       3.208   1.415  -0.852  0.00  0.00     0.031 A 
ATOM     22  C   UNL d   1       4.267   2.325  -0.910  0.00  0.00     0.002 A 
ATOM     23  C   UNL d   1       4.261   3.453  -0.097  0.00  0.00     0.000 A 
ATOM     24  C   UNL d   1       3.199   3.666   0.778  0.00  0.00     0.002 A 
ATOM     25  C   UNL d   1       2.137   2.756   0.830  0.00  0.00     0.031 A 
ENDBRANCH   4  20
TORSDOF 7
