REMARK  4 active torsions:
REMARK  status: ('A' for Active; 'I' for Inactive)
REMARK    1  A    between atoms: N_3  and  C_1 
REMARK    2  A    between atoms: C_2  and  N_3 
REMARK    3  A    between atoms: C_4  and  C_13 
REMARK    4  A    between atoms: C_13  and  N_6 
ROOT
ATOM      1  C   UNL d   1       0.997  -0.197  -0.190  0.00  0.00     0.172 C 
ATOM      2  S   UNL d   1       2.599   0.056   0.223  0.00  0.00    -0.041 SA
ATOM      3  N   UNL d   1       0.265  -0.999   0.637  0.00  0.00    -0.361 N 
ATOM      4  H   UNL d   1       0.836  -1.472   1.331  0.00  0.00     0.162 HD
ENDROOT
BRANCH   1   5
ATOM      5  N   UNL d   1       0.302   0.352  -1.247  0.00  0.00    -0.332 N 
ATOM      6  H   UNL d   1      -0.529   0.825  -0.926  0.00  0.00     0.168 HD
BRANCH   5   7
ATOM      7  C   UNL d   1       0.898   0.865  -2.432  0.00  0.00     0.046 C 
ATOM      8  C   UNL d   1       1.791   0.063  -3.183  0.00  0.00    -0.035 C 
ATOM      9  C   UNL d   1       2.485   0.629  -4.265  0.00  0.00     0.009 C 
ATOM     10  C   UNL d   1       2.005  -1.409  -2.939  0.00  0.00     0.050 C 
ATOM     11  C   UNL d   1       2.246   1.940  -4.654  0.00  0.00     0.001 C 
ATOM     12  C   UNL d   1       1.273   2.684  -3.995  0.00  0.00     0.009 C 
ATOM     13  C   UNL d   1       0.566   2.155  -2.898  0.00  0.00    -0.035 C 
ATOM     14  C   UNL d   1      -0.466   3.060  -2.281  0.00  0.00     0.050 C 
ENDBRANCH   5   7
ENDBRANCH   1   5
BRANCH   3  15
ATOM     15  C   UNL d   1      -0.995  -1.643   0.315  0.00  0.00     0.187 C 
BRANCH  15  16
ATOM     16  C   UNL d   1      -1.401  -2.446   1.492  0.00  0.00     0.070 A 
ATOM     17  O   UNL d   1      -1.024  -3.759   1.496  0.00  0.00    -0.325 OA
ATOM     18  C   UNL d   1      -1.433  -4.285   2.679  0.00  0.00     0.142 A 
ATOM     19  C   UNL d   1      -2.065  -3.331   3.439  0.00  0.00     0.027 A 
ATOM     20  C   UNL d   1      -2.051  -2.140   2.671  0.00  0.00     0.036 A 
ENDBRANCH  15  16
ENDBRANCH   3  15
TORSDOF 4
