REMARK  7 active torsions:
REMARK  status: ('A' for Active; 'I' for Inactive)
REMARK    1  A    between atoms: C_14  and  C_2 
REMARK    2  A    between atoms: C_15  and  C_3 
REMARK    3  A    between atoms: S_17  and  C_6 
REMARK    4  A    between atoms: C_13  and  C_14 
REMARK    5  A    between atoms: C_25  and  S_17 
REMARK    6  A    between atoms: C_18  and  C_25 
REMARK       I    between atoms: N_21  and  C_18 
REMARK    7  A    between atoms: C_27  and  N_21 
ROOT
ATOM      1  N   UNL d   1       1.041   0.071   0.239  0.00  0.00    -0.319 N 
ATOM      2  C   UNL d   1       0.170   1.082  -0.119  0.00  0.00     0.107 A 
ATOM      3  C   UNL d   1       0.270  -1.050   0.361  0.00  0.00     0.162 A 
ATOM      4  N   UNL d   1      -1.033   0.561  -0.280  0.00  0.00    -0.286 N 
ATOM      5  HN  UNL d   1      -1.870   1.067  -0.571  1.00  0.00     0.188 HD
ATOM      6  N   UNL d   1      -0.964  -0.776   0.011  0.00  0.00    -0.278 N 
ATOM      7  HN  UNL d   1      -1.736  -1.441  -0.037  1.00  0.00     0.189 HD
ATOM      8  C   UNL d   1       2.466   0.166   0.450  0.00  0.00     0.159 C 
ENDROOT
BRANCH   2   9
ATOM      9  C   UNL d   1       0.458   2.550  -0.160  0.00  0.00     0.164 C 
BRANCH   9  10
ATOM     10  C   UNL d   1       1.504   2.978  -1.115  0.00  0.00     0.155 A 
ATOM     11  N   UNL d   1       2.781   2.676  -1.119  0.00  0.00    -0.321 N 
ATOM     12  C   UNL d   1       3.308   3.556  -2.045  0.00  0.00     0.156 A 
ATOM     13  HN  UNL d   1       3.267   1.966  -0.571  1.00  0.00     0.169 HD
ATOM     14  N   UNL d   1       2.382   4.335  -2.628  0.00  0.00    -0.241 N 
ATOM     15  O   UNL d   1       1.189   3.959  -2.007  0.00  0.00    -0.222 OA
ATOM     16  HN  UNL d   1       2.519   5.038  -3.354  1.00  0.00     0.196 HD
BRANCH  12  17
ATOM     17  C   UNL d   1       4.747   3.655  -2.266  0.00  0.00     0.094 A 
ATOM     18  N   UNL d   1       5.540   2.775  -1.586  0.00  0.00    -0.360 N 
ATOM     19  C   UNL d   1       6.867   2.940  -1.742  0.00  0.00     0.105 A 
ATOM     20  HN  UNL d   1       5.151   2.039  -0.997  1.00  0.00     0.165 HD
ATOM     21  C   UNL d   1       7.412   3.933  -2.536  0.00  0.00     0.104 A 
ATOM     22  N   UNL d   1       6.642   4.803  -3.224  0.00  0.00    -0.372 N 
ATOM     23  C   UNL d   1       5.298   4.643  -3.072  0.00  0.00     0.121 A 
ATOM     24  HN  UNL d   1       7.040   5.530  -3.818  1.00  0.00     0.164 HD
ENDBRANCH  12  17
ENDBRANCH   9  10
ENDBRANCH   2   9
BRANCH   3  25
ATOM     25  S   UNL d   1       0.776  -2.514   1.124  0.00  0.00    -0.083 SA
BRANCH  25  26
ATOM     26  C   UNL d   1      -0.705  -3.560   1.031  0.00  0.00     0.185 C 
BRANCH  26  27
ATOM     27  C   UNL d   1      -1.841  -3.241   2.000  0.00  0.00     0.231 C 
ATOM     28  N   UNL d   1      -1.998  -1.922   2.365  0.00  0.00    -0.327 N 
ATOM     29  H   UNL d   1      -1.595  -1.240   1.732  0.00  0.00     0.169 HD
ATOM     30  O   UNL d   1      -2.609  -4.143   2.340  0.00  0.00    -0.272 OA
BRANCH  28  31
ATOM     31  C   UNL d   1      -2.912  -1.413   3.303  0.00  0.00     0.034 A 
ATOM     32  C   UNL d   1      -3.449  -2.174   4.343  0.00  0.00     0.031 A 
ATOM     33  C   UNL d   1      -4.330  -1.590   5.258  0.00  0.00     0.026 A 
ATOM     34  C   UNL d   1      -4.687  -0.250   5.119  0.00  0.00     0.034 A 
ATOM     35  C   UNL d   1      -4.162   0.515   4.082  0.00  0.00     0.026 A 
ATOM     36 CL   UNL d   1      -5.774   0.469   6.242  0.00  0.00    -0.084 Cl
ATOM     37  C   UNL d   1      -3.261  -0.062   3.184  0.00  0.00     0.031 A 
ENDBRANCH  28  31
ENDBRANCH  26  27
ENDBRANCH  25  26
ENDBRANCH   3  25
TORSDOF 7
