REMARK  5 active torsions:
REMARK  status: ('A' for Active; 'I' for Inactive)
REMARK    1  A    between atoms: C_12  and  N_1 
REMARK    2  A    between atoms: S_11  and  C_2 
REMARK    3  A    between atoms: C_16  and  C_12 
REMARK    4  A    between atoms: C_18  and  C_16 
REMARK    5  A    between atoms: O_17  and  C_18 
ROOT
ATOM      1  N   UNL d   1       2.342   0.530  -0.035  0.00  0.00    -0.294 N 
ATOM      2  C   UNL d   1       2.213  -0.852  -0.058  0.00  0.00     0.147 A 
ATOM      3  C   UNL d   1       1.199   1.328   0.070  0.00  0.00     0.262 A 
ATOM      4  N   UNL d   1       1.086  -1.478   0.023  0.00  0.00    -0.336 N 
ATOM      5  HN  UNL d   1       1.063  -2.497   0.055  1.00  0.00     0.168 HD
ATOM      6  C   UNL d   1      -0.105   0.644   0.066  0.00  0.00     0.059 A 
ATOM      7  C   UNL d   1      -0.100  -0.745   0.067  0.00  0.00     0.051 A 
ATOM      8  C   UNL d   1      -1.307   1.361   0.025  0.00  0.00     0.021 A 
ATOM      9  C   UNL d   1      -1.316  -1.431   0.050  0.00  0.00     0.054 A 
ATOM     10  O   UNL d   1       1.216   2.557   0.153  0.00  0.00    -0.267 OA
ATOM     11  C   UNL d   1      -2.518  -0.725   0.003  0.00  0.00     0.036 A 
ATOM     12  C   UNL d   1      -2.519   0.669  -0.015  0.00  0.00     0.025 A 
ATOM     13 CL   UNL d   1      -4.010  -1.580  -0.056  0.00  0.00    -0.084 Cl
ENDROOT
BRANCH   1  14
ATOM     14  C   UNL d   1       3.603   1.278  -0.157  0.00  0.00     0.136 C 
BRANCH  14  15
ATOM     15  C   UNL d   1       4.164   1.781   1.182  0.00  0.00     0.046 C 
BRANCH  15  16
ATOM     16  C   UNL d   1       4.757   0.690   2.063  0.00  0.00     0.168 C 
BRANCH  16  17
ATOM     17  O   UNL d   1       5.755  -0.004   1.317  0.00  0.00    -0.396 OA
ATOM     18  C   UNL d   1       6.372  -1.033   2.083  0.00  0.00     0.201 C 
ENDBRANCH  16  17
ENDBRANCH  15  16
ENDBRANCH  14  15
ENDBRANCH   1  14
BRANCH   2  19
ATOM     19  S   UNL d   1       3.597  -1.909  -0.241  0.00  0.00    -0.107 SA
ATOM     20  H   UNL d   1       4.596  -1.053  -0.009  0.00  0.00     0.110 HD
ENDBRANCH   2  19
TORSDOF 5
