REMARK  4 active torsions:
REMARK  status: ('A' for Active; 'I' for Inactive)
REMARK    1  A    between atoms: C_8  and  C_3 
REMARK    2  A    between atoms: N_11  and  C_4 
REMARK       I    between atoms: C_9  and  N_10 
REMARK    3  A    between atoms: C_13  and  C_9 
REMARK    4  A    between atoms: N_10  and  N_11 
ROOT
ATOM      1  N   UNL d   1       0.337  -2.642  -0.122  0.00  0.00    -0.276 N 
ATOM      2  H   UNL d   1      -0.515  -3.198  -0.005  0.00  0.00     0.189 HD
ENDROOT
BRANCH   1   3
ATOM      3  N   UNL d   1       1.501  -3.415  -0.152  0.00  0.00    -0.264 N 
ATOM      4  C   UNL d   1       1.367  -4.769   0.087  0.00  0.00     0.270 C 
ATOM      5  O   UNL d   1       0.293  -5.297   0.356  0.00  0.00    -0.266 OA
ATOM      6  H   UNL d   1       2.383  -2.909  -0.135  0.00  0.00     0.190 HD
BRANCH   4   7
ATOM      7  C   UNL d   1       2.612  -5.577  -0.004  0.00  0.00     0.033 A 
ATOM      8  C   UNL d   1       2.718  -6.740   0.769  0.00  0.00     0.019 A 
ATOM      9  C   UNL d   1       3.849  -7.555   0.659  0.00  0.00     0.025 A 
ATOM     10  C   UNL d   1       4.864  -7.213  -0.233  0.00  0.00     0.034 A 
ATOM     11  C   UNL d   1       4.764  -6.060  -1.011  0.00  0.00     0.025 A 
ATOM     12 CL   UNL d   1       6.243  -8.230  -0.390  0.00  0.00    -0.084 Cl
ATOM     13  C   UNL d   1       3.637  -5.239  -0.898  0.00  0.00     0.019 A 
ENDBRANCH   4   7
ENDBRANCH   1   3
BRANCH   1  14
ATOM     14  C   UNL d   1       0.350  -1.361   0.312  0.00  0.00     0.181 A 
ATOM     15  N   UNL d   1       1.422  -0.665   0.623  0.00  0.00    -0.319 N 
ATOM     16  C   UNL d   1       1.028   0.598   1.067  0.00  0.00     0.131 A 
ATOM     17  HN  UNL d   1       2.384  -0.995   0.552  1.00  0.00     0.169 HD
ATOM     18  N   UNL d   1      -0.272   0.915   1.049  0.00  0.00    -0.308 N 
ATOM     19  S   UNL d   1      -1.088  -0.434   0.514  0.00  0.00     0.026 SA
ATOM     20  HN  UNL d   1      -0.684   1.810   1.312  1.00  0.00     0.176 HD
BRANCH  16  21
ATOM     21  C   UNL d   1       2.048   1.577   1.584  0.00  0.00     0.049 A 
ATOM     22  S   UNL d   1       3.724   1.249   1.664  0.00  0.00    -0.098 SA
ATOM     23  C   UNL d   1       4.053   2.777   2.362  0.00  0.00     0.050 A 
ATOM     24  C   UNL d   1       2.910   3.527   2.526  0.00  0.00     0.009 A 
ATOM     25  C   UNL d   1       1.749   2.834   2.071  0.00  0.00     0.023 A 
ENDBRANCH  16  21
ENDBRANCH   1  14
TORSDOF 4
