REMARK  4 active torsions:
REMARK  status: ('A' for Active; 'I' for Inactive)
REMARK       I    between atoms: C_4  and  N_1 
REMARK    1  A    between atoms: C_10  and  C_4 
REMARK    2  A    between atoms: C_6  and  C_5 
REMARK    3  A    between atoms: C_11  and  C_12 
REMARK    4  A    between atoms: C_21  and  C_13 
ROOT
ATOM      1  N   UNL d   1      -0.124  -0.478   0.252  0.00  0.00    -0.230 N 
ATOM      2  N   UNL d   1      -0.618   0.713   0.706  0.00  0.00    -0.290 N 
ATOM      3  HN  UNL d   1      -1.048   0.904   1.610  1.00  0.00     0.187 HD
ATOM      4  C   UNL d   1      -0.214  -1.686   0.998  0.00  0.00     0.283 C 
ATOM      5  C   UNL d   1      -0.411   1.574  -0.301  0.00  0.00     0.067 A 
ATOM      6  C   UNL d   1       0.284   0.972  -1.373  0.00  0.00     0.051 A 
ATOM      7  C   UNL d   1       0.430  -0.340  -1.008  0.00  0.00     0.122 A 
ATOM      8  O   UNL d   1       0.057  -2.701   0.351  0.00  0.00    -0.265 OA
ENDROOT
BRANCH   5   9
ATOM      9  C   UNL d   1      -0.910   2.990  -0.274  0.00  0.00     0.034 A 
ATOM     10  S   UNL d   1      -0.690   4.084  -1.566  0.00  0.00    -0.079 SA
ATOM     11  C   UNL d   1      -1.621   5.295  -0.799  0.00  0.00     0.059 A 
ATOM     12  C   UNL d   1      -2.041   4.902   0.451  0.00  0.00     0.029 A 
ATOM     13  C   UNL d   1      -1.626   3.564   0.757  0.00  0.00     0.023 A 
BRANCH  11  14
ATOM     14  C   UNL d   1      -1.904   6.524  -1.462  0.00  0.00    -0.054 C 
ATOM     15  C   UNL d   1      -2.048   7.440  -2.226  0.00  0.00    -0.061 C 
BRANCH  15  16
ATOM     16  C   UNL d   1      -2.083   8.338  -3.338  0.00  0.00     0.018 A 
ATOM     17  C   UNL d   1      -2.541   9.650  -3.222  0.00  0.00     0.020 A 
ATOM     18  C   UNL d   1      -2.524  10.489  -4.342  0.00  0.00     0.001 A 
ATOM     19  C   UNL d   1      -2.052  10.017  -5.569  0.00  0.00     0.000 A 
ATOM     20  C   UNL d   1      -1.602   8.704  -5.686  0.00  0.00     0.001 A 
ATOM     21  C   UNL d   1      -1.620   7.868  -4.569  0.00  0.00     0.020 A 
ENDBRANCH  15  16
ENDBRANCH  11  14
ENDBRANCH   5   9
BRANCH   4  22
ATOM     22  C   UNL d   1      -0.555  -1.736   2.421  0.00  0.00     0.074 A 
ATOM     23  S   UNL d   1      -0.820  -3.281   3.139  0.00  0.00    -0.097 SA
ATOM     24  C   UNL d   1      -1.012  -2.613   4.696  0.00  0.00     0.050 A 
ATOM     25  C   UNL d   1      -0.909  -1.242   4.683  0.00  0.00     0.009 A 
ATOM     26  C   UNL d   1      -0.659  -0.736   3.372  0.00  0.00     0.025 A 
ENDBRANCH   4  22
TORSDOF 4
