REMARK  5 active torsions:
REMARK  status: ('A' for Active; 'I' for Inactive)
REMARK    1  A    between atoms: N_2  and  C_1 
REMARK       I    between atoms: C_5  and  N_2 
REMARK    2  A    between atoms: C_12  and  C_5 
REMARK    3  A    between atoms: C_9  and  C_13 
REMARK    4  A    between atoms: O_14  and  C_9 
REMARK    5  A    between atoms: C_13  and  C_12 
ROOT
ATOM      1  N   UNL d   1       2.338  -2.081  -0.125  0.00  0.00    -0.327 N 
ATOM      2  C   UNL d   1       2.191  -3.434  -0.404  0.00  0.00     0.222 C 
ATOM      3  O   UNL d   1       1.159  -4.014  -0.724  0.00  0.00    -0.273 OA
ATOM      4  H   UNL d   1       3.291  -1.729  -0.095  0.00  0.00     0.169 HD
ENDROOT
BRANCH   1   5
ATOM      5  C   UNL d   1       1.298  -1.115  -0.070  0.00  0.00     0.041 A 
ATOM      6  C   UNL d   1      -0.048  -1.510  -0.009  0.00  0.00     0.037 A 
ATOM      7  C   UNL d   1      -1.108  -0.587   0.009  0.00  0.00    -0.054 A 
ATOM      8  C   UNL d   1      -2.521  -1.099   0.019  0.00  0.00     0.049 C 
ATOM      9  C   UNL d   1      -0.821   0.783   0.002  0.00  0.00    -0.056 A 
ATOM     10  C   UNL d   1       0.519   1.188  -0.021  0.00  0.00     0.016 A 
ATOM     11  C   UNL d   1      -1.911   1.817   0.005  0.00  0.00     0.049 C 
ATOM     12  C   UNL d   1       1.586   0.264  -0.073  0.00  0.00    -0.035 A 
ATOM     13  C   UNL d   1       2.968   0.864  -0.116  0.00  0.00     0.050 C 
ENDBRANCH   1   5
BRANCH   2  14
ATOM     14  C   UNL d   1       3.491  -4.215  -0.399  0.00  0.00     0.113 C 
BRANCH  14  15
ATOM     15  C   UNL d   1       4.064  -4.282  -1.808  0.00  0.00     0.119 C 
BRANCH  15  16
ATOM     16  C   UNL d   1       4.534  -2.923  -2.261  0.00  0.00     0.139 C 
ATOM     17  O   UNL d   1       4.909  -2.043  -1.503  0.00  0.00    -0.650 OA
BRANCH  16  18
ATOM     18  O   UNL d   1       4.519  -2.772  -3.604  0.00  0.00    -0.776 OA
ATOM     19  H   UNL d   1       4.165  -3.537  -4.094  0.00  0.00     0.167 HD
ENDBRANCH  16  18
ENDBRANCH  15  16
ENDBRANCH  14  15
ENDBRANCH   2  14
TORSDOF 5
