REMARK  3 active torsions:
REMARK  status: ('A' for Active; 'I' for Inactive)
REMARK    1  A    between atoms: C_7  and  C_3 
REMARK    2  A    between atoms: C_15  and  C_6 
REMARK    3  A    between atoms: O_16  and  C_15 
ROOT
ATOM      1  N   UNL d   1       0.774  -0.521   0.545  0.00  0.00    -0.260 N 
ATOM      2  HN  UNL d   1       1.601  -0.899   1.007  1.00  0.00     0.195 HD
ATOM      3  C   UNL d   1      -0.229  -1.223  -0.008  0.00  0.00     0.067 A 
ATOM      4  C   UNL d   1      -1.207  -0.341  -0.540  0.00  0.00     0.069 A 
ATOM      5  O   UNL d   1       0.462   0.813   0.366  0.00  0.00    -0.240 OA
ATOM      6  C   UNL d   1      -0.728   0.918  -0.280  0.00  0.00     0.102 A 
ENDROOT
BRANCH   3   7
ATOM      7  C   UNL d   1      -0.256  -2.682  -0.005  0.00  0.00    -0.006 A 
ATOM      8  C   UNL d   1      -0.899  -3.381  -1.037  0.00  0.00     0.039 A 
ATOM      9  C   UNL d   1      -0.976  -4.779  -1.012  0.00  0.00     0.056 A 
ATOM     10 CL   UNL d   1      -1.798  -5.557  -2.318  0.00  0.00    -0.083 Cl
ATOM     11  C   UNL d   1      -0.406  -5.492   0.047  0.00  0.00     0.055 A 
ATOM     12  C   UNL d   1       0.255  -4.803   1.068  0.00  0.00     0.026 A 
ATOM     13 CL   UNL d   1      -0.492  -7.213   0.158  0.00  0.00    -0.083 Cl
ATOM     14  C   UNL d   1       0.335  -3.408   1.039  0.00  0.00     0.015 A 
ENDBRANCH   3   7
BRANCH   6  15
ATOM     15  C   UNL d   1      -1.233   2.278  -0.543  0.00  0.00     0.231 C 
BRANCH  15  16
ATOM     16  O   UNL d   1      -1.419   2.402  -1.947  0.00  0.00    -0.394 OA
ATOM     17  H   UNL d   1      -0.540   2.310  -2.356  0.00  0.00     0.209 HD
ENDBRANCH  15  16
ENDBRANCH   6  15
TORSDOF 3
