REMARK  3 active torsions:
REMARK  status: ('A' for Active; 'I' for Inactive)
REMARK    1  A    between atoms: C_4  and  C_1 
REMARK    2  A    between atoms: O_10  and  C_4 
REMARK    3  A    between atoms: O_11  and  C_5 
ROOT
ATOM      1  C   UNL d   1      -0.740   1.218  -0.006  0.00  0.00     0.043 A 
ATOM      2  N   UNL d   1       0.660  -1.173   0.055  0.00  0.00    -0.341 N 
ATOM      3  HN  UNL d   1       1.167  -2.057   0.099  1.00  0.00     0.167 HD
ATOM      4  C   UNL d   1      -0.682  -1.147   0.023  0.00  0.00     0.141 A 
ATOM      5  C   UNL d   1      -1.434   0.009  -0.014  0.00  0.00     0.074 A 
ATOM      6  C   UNL d   1       0.656   1.224  -0.000  0.00  0.00     0.043 A 
ATOM      7  C   UNL d   1       1.319   0.006   0.027  0.00  0.00     0.008 A 
ATOM      8  C   UNL d   1       2.817  -0.041   0.012  0.00  0.00     0.068 C 
ENDROOT
BRANCH   1   9
ATOM      9  C   UNL d   1      -1.437   2.523  -0.062  0.00  0.00     0.176 C 
ATOM     10  O   UNL d   1      -0.962   3.500  -0.614  0.00  0.00    -0.646 OA
BRANCH   9  11
ATOM     11  O   UNL d   1      -2.625   2.540   0.578  0.00  0.00    -0.773 OA
ATOM     12  H   UNL d   1      -2.796   1.784   1.169  0.00  0.00     0.167 HD
ENDBRANCH   9  11
ENDBRANCH   1   9
BRANCH   4  13
ATOM     13  O   UNL d   1      -1.271  -2.376   0.029  0.00  0.00    -0.346 OA
ATOM     14  H   UNL d   1      -2.226  -2.271  -0.080  0.00  0.00     0.219 HD
ENDBRANCH   4  13
TORSDOF 3
