REMARK  4 active torsions:
REMARK  status: ('A' for Active; 'I' for Inactive)
REMARK    1  A    between atoms: C_9  and  C_5 
REMARK    2  A    between atoms: N_7  and  C_10 
REMARK    3  A    between atoms: N_8  and  C_14 
REMARK       I    between atoms: N_15  and  C_9 
REMARK    4  A    between atoms: C_24  and  N_15 
ROOT
ATOM      1  C   UNL d   1      -0.695   0.705  -0.129  0.00  0.00     0.005 A 
ATOM      2  C   UNL d   1      -1.240  -0.602  -0.064  0.00  0.00     0.029 A 
ATOM      3  C   UNL d   1       1.107  -0.794  -0.114  0.00  0.00     0.028 A 
ATOM      4  C   UNL d   1       0.762   0.575  -0.168  0.00  0.00    -0.010 A 
ATOM      5  C   UNL d   1      -1.595   1.768  -0.174  0.00  0.00     0.046 A 
ATOM      6  C   UNL d   1      -0.135  -1.573  -0.044  0.00  0.00     0.194 A 
ATOM      7  C   UNL d   1      -3.467   0.170  -0.094  0.00  0.00     0.104 A 
ATOM      8  C   UNL d   1      -2.591  -0.909  -0.044  0.00  0.00     0.052 A 
ATOM      9  C   UNL d   1      -2.985   1.491  -0.161  0.00  0.00     0.054 A 
ATOM     10  C   UNL d   1       2.397  -1.293  -0.140  0.00  0.00     0.052 A 
ATOM     11  C   UNL d   1       3.418  -0.349  -0.219  0.00  0.00     0.103 A 
ATOM     12  C   UNL d   1       1.791   1.498  -0.261  0.00  0.00     0.016 A 
ATOM     13  O   UNL d   1      -0.233  -2.778   0.019  0.00  0.00    -0.287 OA
ATOM     14  C   UNL d   1       3.123   1.034  -0.277  0.00  0.00     0.037 A 
ENDROOT
BRANCH   5  15
ATOM     15  C   UNL d   1      -1.252   3.208  -0.266  0.00  0.00     0.252 C 
ATOM     16  N   UNL d   1      -0.455   3.705   0.735  0.00  0.00    -0.352 N 
ATOM     17  H   UNL d   1      -0.207   3.077   1.489  0.00  0.00     0.163 HD
ATOM     18  O   UNL d   1      -1.771   3.879  -1.147  0.00  0.00    -0.268 OA
BRANCH  16  19
ATOM     19  C   UNL d   1      -0.289   5.135   1.028  0.00  0.00     0.084 C 
ATOM     20  C   UNL d   1      -1.478   5.685   1.835  0.00  0.00     0.025 C 
ATOM     21  C   UNL d   1      -2.471   6.517   1.036  0.00  0.00     0.002 C 
ATOM     22  C   UNL d   1      -1.748   7.611   0.271  0.00  0.00     0.000 C 
ATOM     23  C   UNL d   1      -0.818   6.989  -0.758  0.00  0.00     0.002 C 
ATOM     24  C   UNL d   1       0.185   6.000  -0.159  0.00  0.00     0.025 C 
ENDBRANCH  16  19
ENDBRANCH   5  15
BRANCH   7  25
ATOM     25  N   UNL d   1      -4.914  -0.078  -0.073  0.00  0.00    -0.116 N 
ATOM     26  O   UNL d   1      -5.298  -1.249  -0.195  0.00  0.00    -0.532 OA
ATOM     27  O   UNL d   1      -5.659   0.899   0.077  0.00  0.00    -0.532 OA
ENDBRANCH   7  25
BRANCH  11  28
ATOM     28  N   UNL d   1       4.818  -0.800  -0.246  0.00  0.00    -0.116 N 
ATOM     29  O   UNL d   1       5.026  -2.019  -0.268  0.00  0.00    -0.532 OA
ATOM     30  O   UNL d   1       5.698   0.068  -0.240  0.00  0.00    -0.532 OA
ENDBRANCH  11  28
TORSDOF 4
