REMARK  4 active torsions:
REMARK  status: ('A' for Active; 'I' for Inactive)
REMARK       I    between atoms: N_6  and  C_1 
REMARK       I    between atoms: N_7  and  C_1 
REMARK    1  A    between atoms: N_16  and  C_4 
REMARK    2  A    between atoms: C_5  and  C_10 
REMARK    3  A    between atoms: C_12  and  N_6 
REMARK    4  A    between atoms: C_17  and  N_7 
ROOT
ATOM      1  C   UNL d   1      -4.113  -1.098   0.848  0.00  0.00    -0.009 A 
ATOM      2  C   UNL d   1      -3.393  -1.014  -0.358  0.00  0.00     0.016 A 
ATOM      3  C   UNL d   1      -3.364  -1.135   2.033  0.00  0.00     0.016 A 
ATOM      4  C   UNL d   1      -1.269  -0.925   0.818  0.00  0.00     0.036 A 
ATOM      5  C   UNL d   1      -1.971  -1.036   2.019  0.00  0.00     0.030 A 
ATOM      6  C   UNL d   1      -1.992  -0.915  -0.376  0.00  0.00     0.030 A 
ENDROOT
BRANCH   4   7
ATOM      7  N   UNL d   1       0.138  -0.783   0.772  0.00  0.00    -0.309 N 
ATOM      8  C   UNL d   1       0.993  -1.109   1.813  0.00  0.00     0.325 C 
ATOM      9  N   UNL d   1       2.265  -0.599   1.617  0.00  0.00    -0.309 N 
ATOM     10  O   UNL d   1       0.649  -1.752   2.799  0.00  0.00    -0.247 OA
ATOM     11  H   UNL d   1       2.354   0.108   0.903  0.00  0.00     0.170 HD
ATOM     12  H   UNL d   1       0.557  -0.644  -0.136  0.00  0.00     0.170 HD
BRANCH   9  13
ATOM     13  C   UNL d   1       3.348  -0.734   2.521  0.00  0.00     0.037 A 
ATOM     14  C   UNL d   1       3.354  -1.637   3.590  0.00  0.00     0.053 A 
ATOM     15  C   UNL d   1       4.423  -1.668   4.486  0.00  0.00     0.036 A 
ATOM     16 CL   UNL d   1       4.388  -2.759   5.817  0.00  0.00    -0.084 Cl
ATOM     17  C   UNL d   1       5.510  -0.818   4.318  0.00  0.00     0.024 A 
ATOM     18  C   UNL d   1       5.534   0.059   3.236  0.00  0.00     0.004 A 
ATOM     19  C   UNL d   1       4.460   0.099   2.338  0.00  0.00     0.029 A 
ENDBRANCH   9  13
ENDBRANCH   4   7
BRANCH   1  20
ATOM     20  C   UNL d   1      -5.591  -1.103   0.872  0.00  0.00     0.046 A 
ATOM     21  N   UNL d   1      -6.209  -1.650  -0.199  0.00  0.00    -0.332 N 
ATOM     22  C   UNL d   1      -7.545  -1.624  -0.214  0.00  0.00     0.155 A 
ATOM     23  HN  UNL d   1      -5.677  -2.065  -0.963  1.00  0.00     0.168 HD
ATOM     24  N   UNL d   1      -8.316  -1.125   0.755  0.00  0.00    -0.343 N 
ATOM     25  C   UNL d   1      -7.678  -0.583   1.802  0.00  0.00     0.093 A 
ATOM     26  HN  UNL d   1      -9.334  -1.155   0.702  1.00  0.00     0.167 HD
ATOM     27  C   UNL d   1      -6.310  -0.543   1.913  0.00  0.00     0.047 A 
BRANCH  22  28
ATOM     28  N   UNL d   1      -8.186  -2.196  -1.293  0.00  0.00    -0.274 NA
ATOM     29  H   UNL d   1      -7.592  -2.906  -1.698  0.00  0.00     0.127 HD
ATOM     30  H   UNL d   1      -9.116  -2.475  -1.013  0.00  0.00     0.127 HD
ENDBRANCH  22  28
ENDBRANCH   1  20
TORSDOF 4
