REMARK  4 active torsions:
REMARK  status: ('A' for Active; 'I' for Inactive)
REMARK    1  A    between atoms: C_8  and  C_2 
REMARK    2  A    between atoms: S_9  and  C_5 
REMARK    3  A    between atoms: C_18  and  S_9 
REMARK    4  A    between atoms: C_20  and  C_18 
ROOT
ATOM      1  N   UNL d   1       0.849  -0.005   0.003  0.00  0.00    -0.315 N 
ATOM      2  C   UNL d   1       0.024   1.095  -0.136  0.00  0.00     0.134 A 
ATOM      3  N   UNL d   1      -1.222   0.658  -0.222  0.00  0.00    -0.283 N 
ATOM      4  HN  UNL d   1      -2.054   1.245  -0.283  1.00  0.00     0.188 HD
ATOM      5  C   UNL d   1       0.032  -1.100  -0.095  0.00  0.00     0.162 A 
ATOM      6  N   UNL d   1      -1.213  -0.716  -0.218  0.00  0.00    -0.278 N 
ATOM      7  HN  UNL d   1      -2.028  -1.324  -0.297  1.00  0.00     0.189 HD
ATOM      8  C   UNL d   1       2.270  -0.025   0.243  0.00  0.00     0.160 C 
ENDROOT
BRANCH   2   9
ATOM      9  C   UNL d   1       0.417   2.508  -0.153  0.00  0.00     0.010 A 
ATOM     10  C   UNL d   1      -0.384   3.456   0.497  0.00  0.00     0.029 A 
ATOM     11  C   UNL d   1      -0.033   4.823   0.506  0.00  0.00    -0.009 A 
ATOM     12  C   UNL d   1      -0.818   5.789   1.152  0.00  0.00     0.015 A 
ATOM     13  C   UNL d   1       1.138   5.258  -0.147  0.00  0.00     0.042 A 
ATOM     14  C   UNL d   1      -0.421   7.122   1.143  0.00  0.00     0.018 A 
ATOM     15  C   UNL d   1       0.752   7.445   0.488  0.00  0.00     0.088 A 
ATOM     16  N   UNL d   1       1.529   6.545  -0.152  0.00  0.00    -0.365 N 
ATOM     17  HN  UNL d   1       2.386   6.832  -0.625  1.00  0.00     0.165 HD
ATOM     18  C   UNL d   1       1.902   4.314  -0.814  0.00  0.00     0.031 A 
ATOM     19  C   UNL d   1       1.549   2.959  -0.837  0.00  0.00     0.017 A 
ENDBRANCH   2   9
BRANCH   5  20
ATOM     20  S   UNL d   1       0.606  -2.731  -0.053  0.00  0.00    -0.088 SA
BRANCH  20  21
ATOM     21  C   UNL d   1      -0.806  -3.601  -0.795  0.00  0.00     0.121 C 
BRANCH  21  22
ATOM     22  C   UNL d   1      -0.578  -5.096  -0.821  0.00  0.00    -0.048 A 
ATOM     23  C   UNL d   1      -1.044  -5.902   0.229  0.00  0.00     0.009 A 
ATOM     24  C   UNL d   1      -0.830  -7.282   0.213  0.00  0.00     0.024 A 
ATOM     25  C   UNL d   1      -0.143  -7.864  -0.850  0.00  0.00     0.034 A 
ATOM     26  C   UNL d   1       0.337  -7.077  -1.894  0.00  0.00     0.024 A 
ATOM     27 CL   UNL d   1       0.118  -9.565  -0.872  0.00  0.00    -0.084 Cl
ATOM     28  C   UNL d   1       0.122  -5.696  -1.879  0.00  0.00     0.009 A 
ENDBRANCH  21  22
ENDBRANCH  20  21
ENDBRANCH   5  20
TORSDOF 4
