REMARK  4 active torsions:
REMARK  status: ('A' for Active; 'I' for Inactive)
REMARK    1  A    between atoms: C_7  and  C_1 
REMARK       I    between atoms: C_6  and  N_10 
REMARK    2  A    between atoms: O_12  and  C_6 
REMARK    3  A    between atoms: N_10  and  N_8 
REMARK    4  A    between atoms: C_16  and  O_12 
ROOT
ATOM      1  C   UNL d   1       2.190   0.253   0.064  0.00  0.00     0.029 A 
ATOM      2  S   UNL d   1       1.465  -1.292   0.035  0.00  0.00    -0.088 SA
ATOM      3  C   UNL d   1       1.246   1.273   0.044  0.00  0.00    -0.032 A 
ATOM      4  C   UNL d   1      -0.104   0.749   0.022  0.00  0.00    -0.012 A 
ATOM      5  C   UNL d   1      -0.126  -0.646   0.020  0.00  0.00     0.016 A 
ATOM      6  C   UNL d   1       1.504   2.754   0.048  0.00  0.00     0.050 C 
ATOM      7  C   UNL d   1      -1.348   1.433   0.007  0.00  0.00     0.013 A 
ATOM      8  C   UNL d   1      -1.338  -1.364   0.008  0.00  0.00     0.019 A 
ATOM      9  C   UNL d   1      -2.552   0.728  -0.003  0.00  0.00     0.001 A 
ATOM     10  C   UNL d   1      -2.545  -0.658  -0.000  0.00  0.00     0.001 A 
ENDROOT
BRANCH   1  11
ATOM     11  C   UNL d   1       3.638   0.317   0.095  0.00  0.00     0.126 C 
ATOM     12  N   UNL d   1       4.210   1.472   0.147  0.00  0.00    -0.306 N 
ATOM     13  HN  UNL d   1       3.648   2.321   0.201  1.00  0.00     0.186 HD
BRANCH  12  14
ATOM     14  N   UNL d   1       5.561   1.551   0.130  0.00  0.00    -0.246 N 
ATOM     15  C   UNL d   1       6.133   2.787  -0.063  0.00  0.00     0.379 C 
ATOM     16  O   UNL d   1       5.530   3.853  -0.131  0.00  0.00    -0.237 OA
ATOM     17  H   UNL d   1       6.146   0.729   0.057  0.00  0.00     0.192 HD
BRANCH  15  18
ATOM     18  O   UNL d   1       7.473   2.651  -0.246  0.00  0.00    -0.303 OA
BRANCH  18  19
ATOM     19  C   UNL d   1       8.125   3.832  -0.737  0.00  0.00     0.176 C 
ATOM     20  C   UNL d   1       8.103   3.797  -2.255  0.00  0.00     0.034 C 
ENDBRANCH  18  19
ENDBRANCH  15  18
ENDBRANCH  12  14
ENDBRANCH   1  11
TORSDOF 4
