REMARK  5 active torsions:
REMARK  status: ('A' for Active; 'I' for Inactive)
REMARK    1  A    between atoms: N_5  and  C_1 
REMARK    2  A    between atoms: N_9  and  C_1 
REMARK    3  A    between atoms: N_2  and  N_9 
REMARK    4  A    between atoms: C_4  and  C_6 
REMARK    5  A    between atoms: C_13  and  N_5 
ROOT
ATOM      1  N   UNL d   1       2.386  -0.418  -0.217  0.00  0.00    -0.277 N 
ATOM      2  H   UNL d   1       2.881   0.093  -0.942  0.00  0.00     0.189 HD
ENDROOT
BRANCH   1   3
ATOM      3  N   UNL d   1       3.085  -1.085   0.758  0.00  0.00    -0.307 N 
ATOM      4  C   UNL d   1       4.371  -1.082   0.594  0.00  0.00     0.144 C 
ATOM      5  HN  UNL d   1       2.630  -1.545   1.547  1.00  0.00     0.186 HD
BRANCH   4   6
ATOM      6  C   UNL d   1       5.243  -1.675   1.571  0.00  0.00     0.091 A 
ATOM      7  O   UNL d   1       6.588  -1.646   1.331  0.00  0.00    -0.321 OA
ATOM      8  C   UNL d   1       7.198  -2.230   2.395  0.00  0.00     0.142 A 
ATOM      9  C   UNL d   1       6.265  -2.635   3.320  0.00  0.00     0.027 A 
ATOM     10  C   UNL d   1       5.002  -2.280   2.787  0.00  0.00     0.040 A 
ENDBRANCH   4   6
ENDBRANCH   1   3
BRANCH   1  11
ATOM     11  C   UNL d   1       1.053  -0.106  -0.045  0.00  0.00     0.186 C 
ATOM     12  S   UNL d   1       0.355   1.024  -1.050  0.00  0.00    -0.040 SA
BRANCH  11  13
ATOM     13  N   UNL d   1       0.462  -0.771   0.998  0.00  0.00    -0.362 N 
ATOM     14  H   UNL d   1       1.102  -1.427   1.438  0.00  0.00     0.162 HD
BRANCH  13  15
ATOM     15  C   UNL d   1      -0.803  -0.458   1.658  0.00  0.00     0.076 C 
ATOM     16  C   UNL d   1      -2.008  -1.032   0.916  0.00  0.00     0.032 C 
ATOM     17  C   UNL d   1      -0.778  -0.980   3.094  0.00  0.00     0.032 C 
ENDBRANCH  13  15
ENDBRANCH  11  13
ENDBRANCH   1  11
TORSDOF 5
