REMARK  7 active torsions:
REMARK  status: ('A' for Active; 'I' for Inactive)
REMARK    1  A    between atoms: N_4  and  S_1 
REMARK    2  A    between atoms: C_5  and  S_1 
REMARK    3  A    between atoms: C_6  and  C_2 
REMARK    4  A    between atoms: N_7  and  C_3 
REMARK    5  A    between atoms: C_15  and  N_4 
REMARK    6  A    between atoms: O_21  and  C_6 
REMARK    7  A    between atoms: C_26  and  O_21 
ROOT
ATOM      1  C   UNL d   1       2.310   0.725  -4.150  0.00  0.00     0.068 A 
ATOM      2  C   UNL d   1       1.429   0.561  -5.255  0.00  0.00     0.046 A 
ATOM      3  C   UNL d   1       1.969   0.266  -2.853  0.00  0.00     0.050 A 
ATOM      4  C   UNL d   1       0.182  -0.026  -4.961  0.00  0.00     0.033 A 
ATOM      5  C   UNL d   1       0.751  -0.365  -2.636  0.00  0.00     0.043 A 
ATOM      6  C   UNL d   1      -0.156  -0.477  -3.681  0.00  0.00     0.032 A 
ENDROOT
BRANCH   5   7
ATOM      7  N   UNL d   1       0.375  -0.863  -1.356  0.00  0.00    -0.281 N 
ATOM      8  H   UNL d   1      -0.171  -1.725  -1.340  0.00  0.00     0.179 HD
BRANCH   7   9
ATOM      9  S   UNL d   1      -0.157   0.196  -0.150  0.00  0.00     0.263 S 
ATOM     10  O   UNL d   1       0.965   0.992   0.301  0.00  0.00    -0.200 OA
ATOM     11  O   UNL d   1      -0.930  -0.609   0.771  0.00  0.00    -0.200 OA
BRANCH   9  12
ATOM     12  C   UNL d   1      -1.283   1.268  -1.010  0.00  0.00     0.080 A 
ATOM     13  C   UNL d   1      -0.785   2.452  -1.561  0.00  0.00     0.035 A 
ATOM     14  C   UNL d   1      -1.647   3.224  -2.314  0.00  0.00    -0.021 A 
ATOM     15  C   UNL d   1      -1.387   4.497  -3.016  0.00  0.00     0.068 C 
ATOM     16  C   UNL d   1      -2.973   2.862  -2.469  0.00  0.00     0.075 A 
ATOM     17  C   UNL d   1      -2.686   4.611  -3.812  0.00  0.00     0.180 C 
ATOM     18  O   UNL d   1      -3.694   3.740  -3.238  0.00  0.00    -0.350 OA
ATOM     19  C   UNL d   1      -3.501   1.731  -1.883  0.00  0.00     0.039 A 
ATOM     20  C   UNL d   1      -2.643   0.914  -1.140  0.00  0.00     0.028 A 
ENDBRANCH   9  12
ENDBRANCH   7   9
ENDBRANCH   5   7
BRANCH   1  21
ATOM     21  C   UNL d   1       3.590   1.475  -4.280  0.00  0.00     0.295 C 
ATOM     22  O   UNL d   1       3.737   2.513  -4.902  0.00  0.00    -0.259 OA
BRANCH  21  23
ATOM     23  O   UNL d   1       4.575   0.785  -3.642  0.00  0.00    -0.318 OA
BRANCH  23  24
ATOM     24  C   UNL d   1       5.907   1.295  -3.822  0.00  0.00     0.174 C 
ATOM     25  C   UNL d   1       6.152   2.552  -3.006  0.00  0.00     0.034 C 
ENDBRANCH  23  24
ENDBRANCH  21  23
ENDBRANCH   1  21
BRANCH   2  26
ATOM     26  N   UNL d   1       1.722   0.966  -6.560  0.00  0.00    -0.380 N 
ATOM     27  C   UNL d   1       2.986   0.529  -7.181  0.00  0.00     0.123 C 
ATOM     28  C   UNL d   1       3.486   1.635  -8.112  0.00  0.00     0.020 C 
ATOM     29  C   UNL d   1       2.434   1.998  -9.159  0.00  0.00     0.003 C 
ATOM     30  C   UNL d   1       1.084   2.296  -8.511  0.00  0.00     0.020 C 
ATOM     31  C   UNL d   1       0.652   1.192  -7.544  0.00  0.00     0.123 C 
ENDBRANCH   2  26
TORSDOF 7
