REMARK  9 active torsions:
REMARK  status: ('A' for Active; 'I' for Inactive)
REMARK    1  A    between atoms: S_8  and  C_2 
REMARK    2  A    between atoms: C_20  and  C_7 
REMARK    3  A    between atoms: C_13  and  S_8 
REMARK    4  A    between atoms: C_9  and  C_26 
REMARK       I    between atoms: N_11  and  C_9 
REMARK    5  A    between atoms: C_10  and  C_13 
REMARK    6  A    between atoms: C_12  and  C_10 
REMARK    7  A    between atoms: C_22  and  N_11 
REMARK    8  A    between atoms: S_18  and  C_20 
REMARK    9  A    between atoms: C_26  and  S_18 
ROOT
ATOM      1  N   UNL d   1       0.477   0.028  -0.307  0.00  0.00    -0.319 N 
ATOM      2  C   UNL d   1      -0.379   1.095  -0.259  0.00  0.00     0.162 A 
ATOM      3  N   UNL d   1      -1.590   0.677   0.024  0.00  0.00    -0.278 N 
ATOM      4  HN  UNL d   1      -2.418   1.262   0.135  1.00  0.00     0.189 HD
ATOM      5  N   UNL d   1      -1.542  -0.694   0.142  0.00  0.00    -0.286 N 
ATOM      6  HN  UNL d   1      -2.333  -1.302   0.356  1.00  0.00     0.188 HD
ATOM      7  C   UNL d   1      -0.299  -1.087  -0.068  0.00  0.00     0.109 A 
ATOM      8  C   UNL d   1       1.892   0.037  -0.576  0.00  0.00     0.159 C 
ENDROOT
BRANCH   7   9
ATOM      9  C   UNL d   1       0.178  -2.499  -0.109  0.00  0.00     0.152 C 
BRANCH   9  10
ATOM     10  S   UNL d   1       1.001  -3.023   1.439  0.00  0.00    -0.152 SA
BRANCH  10  11
ATOM     11  C   UNL d   1      -0.470  -3.108   2.510  0.00  0.00     0.177 C 
BRANCH  11  12
ATOM     12  C   UNL d   1      -0.209  -3.532   3.953  0.00  0.00     0.231 C 
ATOM     13  N   UNL d   1       1.036  -4.064   4.231  0.00  0.00    -0.327 N 
ATOM     14  H   UNL d   1       1.687  -4.082   3.450  0.00  0.00     0.169 HD
ATOM     15  O   UNL d   1      -1.127  -3.412   4.766  0.00  0.00    -0.272 OA
BRANCH  13  16
ATOM     16  C   UNL d   1       1.508  -4.547   5.472  0.00  0.00     0.034 A 
ATOM     17  C   UNL d   1       0.738  -4.577   6.639  0.00  0.00     0.029 A 
ATOM     18  C   UNL d   1       1.269  -5.064   7.839  0.00  0.00     0.002 A 
ATOM     19  C   UNL d   1       2.579  -5.528   7.889  0.00  0.00     0.000 A 
ATOM     20  C   UNL d   1       3.358  -5.507   6.734  0.00  0.00     0.002 A 
ATOM     21  C   UNL d   1       2.826  -5.021   5.534  0.00  0.00     0.029 A 
ENDBRANCH  13  16
ENDBRANCH  11  12
ENDBRANCH  10  11
ENDBRANCH   9  10
ENDBRANCH   7   9
BRANCH   2  22
ATOM     22  S   UNL d   1       0.101   2.727  -0.572  0.00  0.00    -0.085 SA
BRANCH  22  23
ATOM     23  C   UNL d   1      -1.406   3.643  -0.122  0.00  0.00     0.166 C 
BRANCH  23  24
ATOM     24  C   UNL d   1      -1.241   5.145  -0.332  0.00  0.00     0.169 C 
ATOM     25  O   UNL d   1      -0.254   5.662  -0.853  0.00  0.00    -0.291 OA
BRANCH  24  26
ATOM     26  C   UNL d   1      -2.349   6.050   0.124  0.00  0.00     0.011 A 
ATOM     27  C   UNL d   1      -3.567   5.559   0.615  0.00  0.00     0.017 A 
ATOM     28  C   UNL d   1      -4.561   6.445   1.048  0.00  0.00     0.025 A 
ATOM     29  C   UNL d   1      -4.346   7.821   0.991  0.00  0.00     0.034 A 
ATOM     30  C   UNL d   1      -3.148   8.323   0.493  0.00  0.00     0.025 A 
ATOM     31 CL   UNL d   1      -5.566   8.901   1.543  0.00  0.00    -0.084 Cl
ATOM     32  C   UNL d   1      -2.153   7.440   0.058  0.00  0.00     0.017 A 
ENDBRANCH  24  26
ENDBRANCH  23  24
ENDBRANCH  22  23
ENDBRANCH   2  22
TORSDOF 9
