REMARK  4 active torsions:
REMARK  status: ('A' for Active; 'I' for Inactive)
REMARK    1  A    between atoms: C_5  and  C_2 
REMARK    2  A    between atoms: O_13  and  C_5 
REMARK    3  A    between atoms: C_15  and  O_13 
REMARK    4  A    between atoms: O_21  and  C_16 
ROOT
ATOM      1  C   UNL d   1      -6.761  -0.290  -1.387  0.00  0.00     0.086 A 
ATOM      2  C   UNL d   1      -4.679  -0.541  -0.279  0.00  0.00     0.042 A 
ATOM      3  C   UNL d   1      -6.697   1.153  -1.181  0.00  0.00     0.085 A 
ATOM      4  C   UNL d   1      -5.759  -1.171  -0.934  0.00  0.00     0.051 A 
ATOM      5  O   UNL d   1      -8.506   0.657  -2.275  0.00  0.00    -0.156 OA
ATOM      6  N   UNL d   1      -7.886  -0.564  -2.059  0.00  0.00    -0.240 N 
ATOM      7  HN  UNL d   1      -8.219  -1.482  -2.352  1.00  0.00     0.197 HD
ATOM      8  N   UNL d   1      -7.781   1.706  -1.735  0.00  0.00    -0.240 N 
ATOM      9  HN  UNL d   1      -8.024   2.697  -1.755  1.00  0.00     0.197 HD
ATOM     10  C   UNL d   1      -4.633   0.876  -0.070  0.00  0.00     0.020 A 
ATOM     11  C   UNL d   1      -5.632   1.769  -0.506  0.00  0.00     0.035 A 
ENDROOT
BRANCH   2  12
ATOM     12  C   UNL d   1      -3.486  -1.311   0.181  0.00  0.00     0.298 C 
ATOM     13  O   UNL d   1      -2.496  -0.748   0.629  0.00  0.00    -0.259 OA
BRANCH  12  14
ATOM     14  O   UNL d   1      -3.660  -2.671  -0.012  0.00  0.00    -0.275 OA
BRANCH  14  15
ATOM     15  C   UNL d   1      -2.553  -3.519   0.188  0.00  0.00     0.079 A 
ATOM     16  C   UNL d   1      -1.675  -3.389   1.264  0.00  0.00     0.040 A 
ATOM     17  C   UNL d   1      -0.560  -4.229   1.359  0.00  0.00     0.039 A 
ATOM     18  C   UNL d   1      -0.340  -5.217   0.398  0.00  0.00     0.068 A 
ATOM     19  C   UNL d   1      -1.268  -5.385  -0.635  0.00  0.00     0.039 A 
ATOM     20  C   UNL d   1      -2.375  -4.540  -0.744  0.00  0.00     0.040 A 
BRANCH  18  21
ATOM     21  O   UNL d   1       0.724  -6.077   0.364  0.00  0.00    -0.356 OA
ATOM     22  C   UNL d   1       1.804  -5.787   1.245  0.00  0.00     0.210 C 
ENDBRANCH  18  21
ENDBRANCH  14  15
ENDBRANCH  12  14
ENDBRANCH   2  12
TORSDOF 4
