REMARK  6 active torsions:
REMARK  status: ('A' for Active; 'I' for Inactive)
REMARK    1  A    between atoms: C_2  and  C_1 
REMARK    2  A    between atoms: O_9  and  C_2 
REMARK    3  A    between atoms: C_7  and  C_3 
REMARK    4  A    between atoms: O_8  and  C_10 
REMARK    5  A    between atoms: C_11  and  O_8 
REMARK    6  A    between atoms: C_16  and  C_11 
ROOT
ATOM      1  C   UNL d   1       1.003  -0.028  -0.812  0.00  0.00     0.118 C 
ATOM      2  C   UNL d   1       0.331   1.032  -0.323  0.00  0.00     0.041 C 
ATOM      3  C   UNL d   1       0.367  -1.139  -1.427  0.00  0.00     0.106 C 
ATOM      4  N   UNL d   1      -0.053  -2.087  -1.946  0.00  0.00    -0.191 NA
ENDROOT
BRANCH   1   5
ATOM      5  C   UNL d   1       2.482  -0.013  -0.655  0.00  0.00     0.187 C 
ATOM      6  O   UNL d   1       3.084   0.901  -0.107  0.00  0.00    -0.645 OA
BRANCH   5   7
ATOM      7  O   UNL d   1       3.142  -1.089  -1.136  0.00  0.00    -0.772 OA
ATOM      8  H   UNL d   1       2.637  -1.808  -1.564  0.00  0.00     0.167 HD
ENDBRANCH   5   7
ENDBRANCH   1   5
BRANCH   2   9
ATOM      9  C   UNL d   1      -1.127   1.162  -0.283  0.00  0.00    -0.034 A 
ATOM     10  C   UNL d   1      -1.820   0.660   0.822  0.00  0.00     0.014 A 
ATOM     11  C   UNL d   1      -3.212   0.755   0.889  0.00  0.00     0.037 A 
ATOM     12  C   UNL d   1      -3.924   1.353  -0.150  0.00  0.00     0.069 A 
ATOM     13  C   UNL d   1      -3.229   1.901  -1.230  0.00  0.00     0.037 A 
ATOM     14  C   UNL d   1      -1.836   1.792  -1.310  0.00  0.00     0.014 A 
BRANCH  12  15
ATOM     15  O   UNL d   1      -5.286   1.488  -0.186  0.00  0.00    -0.347 OA
BRANCH  15  16
ATOM     16  C   UNL d   1      -6.016   0.445   0.471  0.00  0.00     0.214 C 
BRANCH  16  17
ATOM     17  C   UNL d   1      -7.506   0.671   0.356  0.00  0.00    -0.034 A 
ATOM     18  C   UNL d   1      -8.381  -0.426   0.333  0.00  0.00     0.009 A 
ATOM     19  C   UNL d   1      -9.764  -0.230   0.337  0.00  0.00     0.001 A 
ATOM     20  C   UNL d   1     -10.285   1.061   0.379  0.00  0.00     0.000 A 
ATOM     21  C   UNL d   1      -9.427   2.158   0.405  0.00  0.00     0.001 A 
ATOM     22  C   UNL d   1      -8.045   1.964   0.393  0.00  0.00     0.009 A 
ENDBRANCH  16  17
ENDBRANCH  15  16
ENDBRANCH  12  15
ENDBRANCH   2   9
TORSDOF 6
