REMARK  5 active torsions:
REMARK  status: ('A' for Active; 'I' for Inactive)
REMARK    1  A    between atoms: C_5  and  C_2 
REMARK    2  A    between atoms: C_12  and  C_2 
REMARK    3  A    between atoms: C_4  and  O_6 
REMARK    4  A    between atoms: C_11  and  C_4 
REMARK    5  A    between atoms: O_6  and  C_10 
ROOT
ATOM      1  C   UNL d   1       0.737  -0.866  -2.105  0.00  0.00    -0.038 A 
ATOM      2  C   UNL d   1       1.949  -1.361  -2.620  0.00  0.00     0.045 A 
ATOM      3  C   UNL d   1       2.403  -1.012  -3.890  0.00  0.00     0.079 A 
ATOM      4  C   UNL d   1       0.020   0.047  -2.899  0.00  0.00     0.008 A 
ATOM      5  C   UNL d   1       0.475   0.400  -4.178  0.00  0.00     0.003 A 
ATOM      6  C   UNL d   1       1.659  -0.141  -4.681  0.00  0.00     0.037 A 
ENDROOT
BRANCH   1   7
ATOM      7  C   UNL d   1       0.262  -1.314  -0.705  0.00  0.00     0.068 C 
ATOM      8  C   UNL d   1       0.862  -2.716  -0.312  0.00  0.00     0.232 C 
ATOM      9  N   UNL d   1       0.528  -3.844  -1.054  0.00  0.00    -0.356 N 
ATOM     10  O   UNL d   1       1.650  -2.814   0.637  0.00  0.00    -0.272 OA
ATOM     11  C   UNL d   1       1.293  -5.063  -0.832  0.00  0.00     0.152 C 
ATOM     12  C   UNL d   1      -0.410  -3.873  -2.170  0.00  0.00     0.125 C 
ATOM     13  C   UNL d   1      -1.836  -3.586  -1.737  0.00  0.00     0.020 C 
ATOM     14  C   UNL d   1      -2.127  -2.108  -1.537  0.00  0.00     0.003 C 
ATOM     15  C   UNL d   1      -1.277  -1.398  -0.482  0.00  0.00     0.024 C 
BRANCH   7  16
ATOM     16  C   UNL d   1       0.863  -0.289   0.336  0.00  0.00     0.020 C 
ATOM     17  C   UNL d   1       0.455   1.177   0.213  0.00  0.00     0.006 C 
ENDBRANCH   7  16
ENDBRANCH   1   7
BRANCH   3  18
ATOM     18  O   UNL d   1       3.551  -1.599  -4.469  0.00  0.00    -0.279 OA
BRANCH  18  19
ATOM     19  C   UNL d   1       4.624  -1.994  -3.670  0.00  0.00     0.268 C 
ATOM     20  O   UNL d   1       4.766  -1.715  -2.487  0.00  0.00    -0.264 OA
BRANCH  19  21
ATOM     21  C   UNL d   1       5.684  -2.752  -4.468  0.00  0.00     0.086 C 
ATOM     22  C   UNL d   1       5.203  -3.424  -5.762  0.00  0.00     0.014 C 
ATOM     23  C   UNL d   1       4.410  -4.710  -5.531  0.00  0.00     0.001 C 
ATOM     24  C   UNL d   1       5.148  -5.686  -4.621  0.00  0.00     0.000 C 
ATOM     25  C   UNL d   1       5.549  -5.024  -3.310  0.00  0.00     0.001 C 
ATOM     26  C   UNL d   1       6.394  -3.774  -3.561  0.00  0.00     0.014 C 
ENDBRANCH  19  21
ENDBRANCH  18  19
ENDBRANCH   3  18
TORSDOF 5
