REMARK  4 active torsions:
REMARK  status: ('A' for Active; 'I' for Inactive)
REMARK    1  A    between atoms: C_7  and  C_1 
REMARK    2  A    between atoms: C_9  and  C_3 
REMARK    3  A    between atoms: C_6  and  C_7 
REMARK    4  A    between atoms: N_11  and  C_8 
ROOT
ATOM      1  C   UNL d   1      -0.226  -1.241  -0.020  0.00  0.00     0.046 A 
ATOM      2  C   UNL d   1      -1.522  -0.630   0.028  0.00  0.00     0.056 A 
ATOM      3  C   UNL d   1      -1.343   0.737   0.054  0.00  0.00     0.086 A 
ATOM      4  C   UNL d   1       0.661  -0.169  -0.029  0.00  0.00     0.064 A 
ATOM      5  O   UNL d   1      -0.013   1.015  -0.003  0.00  0.00    -0.314 OA
ATOM      6  C   UNL d   1       2.136  -0.032  -0.038  0.00  0.00     0.077 C 
ENDROOT
BRANCH   1   7
ATOM      7  C   UNL d   1       0.162  -2.651  -0.038  0.00  0.00     0.185 C 
ATOM      8  O   UNL d   1       1.331  -3.025  -0.076  0.00  0.00    -0.287 OA
BRANCH   7   9
ATOM      9  C   UNL d   1      -0.967  -3.626  -0.002  0.00  0.00     0.072 C 
ATOM     10  C   UNL d   1      -0.725  -4.944  -0.001  0.00  0.00     0.088 C 
BRANCH  10  11
ATOM     11  N   UNL d   1      -1.612  -6.016   0.027  0.00  0.00    -0.398 N 
ATOM     12  C   UNL d   1      -3.069  -5.900   0.050  0.00  0.00     0.148 C 
ATOM     13  C   UNL d   1      -1.133  -7.402   0.036  0.00  0.00     0.148 C 
ENDBRANCH  10  11
ENDBRANCH   7   9
ENDBRANCH   1   7
BRANCH   3  14
ATOM     14  C   UNL d   1      -2.241   1.881   0.180  0.00  0.00    -0.002 A 
ATOM     15  C   UNL d   1      -3.500   1.723   0.781  0.00  0.00     0.016 A 
ATOM     16  C   UNL d   1      -4.352   2.817   0.958  0.00  0.00     0.024 A 
ATOM     17  C   UNL d   1      -3.957   4.080   0.526  0.00  0.00     0.034 A 
ATOM     18  C   UNL d   1      -2.720   4.255  -0.090  0.00  0.00     0.024 A 
ATOM     19 CL   UNL d   1      -4.996   5.428   0.768  0.00  0.00    -0.084 Cl
ATOM     20  C   UNL d   1      -1.866   3.159  -0.261  0.00  0.00     0.016 A 
ENDBRANCH   3  14
TORSDOF 4
