REMARK  7 active torsions:
REMARK  status: ('A' for Active; 'I' for Inactive)
REMARK       I    between atoms: N_8  and  C_1 
REMARK       I    between atoms: N_9  and  C_1 
REMARK    1  A    between atoms: C_2  and  N_11 
REMARK    2  A    between atoms: C_3  and  N_10 
REMARK    3  A    between atoms: N_6  and  C_3 
REMARK    4  A    between atoms: C_4  and  N_7 
REMARK    5  A    between atoms: C_5  and  N_6 
REMARK    6  A    between atoms: N_10  and  N_8 
REMARK    7  A    between atoms: N_11  and  N_9 
ROOT
ATOM      1  C   UNL d   1       1.069  -0.220  -0.536  0.00  0.00     0.353 C 
ATOM      2  N   UNL d   1       0.383   0.915  -0.892  0.00  0.00    -0.248 N 
ATOM      3  N   UNL d   1       0.286  -1.356  -0.521  0.00  0.00    -0.248 N 
ATOM      4  O   UNL d   1       2.261  -0.208  -0.256  0.00  0.00    -0.244 OA
ATOM      5  H   UNL d   1       0.895   1.793  -0.937  0.00  0.00     0.192 HD
ATOM      6  H   UNL d   1      -0.519  -1.312  -1.140  0.00  0.00     0.192 HD
ENDROOT
BRANCH   2   7
ATOM      7  N   UNL d   1      -1.006   0.941  -1.102  0.00  0.00    -0.272 N 
ATOM      8  H   UNL d   1      -1.572   0.581  -0.332  0.00  0.00     0.189 HD
BRANCH   7   9
ATOM      9  C   UNL d   1      -1.569   1.833  -1.976  0.00  0.00     0.191 C 
ATOM     10  S   UNL d   1      -0.785   2.502  -3.299  0.00  0.00    -0.039 SA
BRANCH   9  11
ATOM     11  N   UNL d   1      -2.899   2.112  -1.797  0.00  0.00    -0.331 N 
ATOM     12  H   UNL d   1      -3.351   2.474  -2.629  0.00  0.00     0.168 HD
BRANCH  11  13
ATOM     13  C   UNL d   1      -3.701   1.997  -0.637  0.00  0.00     0.046 C 
ATOM     14  C   UNL d   1      -3.210   2.281   0.660  0.00  0.00    -0.035 C 
ATOM     15  C   UNL d   1      -4.036   2.057   1.776  0.00  0.00     0.009 C 
ATOM     16  C   UNL d   1      -1.869   2.905   0.957  0.00  0.00     0.050 C 
ATOM     17  C   UNL d   1      -5.348   1.632   1.622  0.00  0.00     0.001 C 
ATOM     18  C   UNL d   1      -5.863   1.450   0.344  0.00  0.00     0.009 C 
ATOM     19  C   UNL d   1      -5.064   1.653  -0.797  0.00  0.00    -0.035 C 
ATOM     20  C   UNL d   1      -5.731   1.395  -2.125  0.00  0.00     0.050 C 
ENDBRANCH  11  13
ENDBRANCH   9  11
ENDBRANCH   7   9
ENDBRANCH   2   7
BRANCH   3  21
ATOM     21  N   UNL d   1       0.941  -2.601  -0.502  0.00  0.00    -0.272 N 
ATOM     22  H   UNL d   1       1.960  -2.589  -0.461  0.00  0.00     0.189 HD
BRANCH  21  23
ATOM     23  C   UNL d   1       0.235  -3.760  -0.686  0.00  0.00     0.191 C 
ATOM     24  N   UNL d   1       0.943  -4.865  -1.045  0.00  0.00    -0.331 N 
ATOM     25  H   UNL d   1       0.448  -5.726  -0.835  0.00  0.00     0.168 HD
ATOM     26  S   UNL d   1      -1.414  -3.922  -0.430  0.00  0.00    -0.039 SA
BRANCH  24  27
ATOM     27  C   UNL d   1       2.001  -5.042  -1.974  0.00  0.00     0.046 A 
ATOM     28  C   UNL d   1       2.758  -6.237  -1.834  0.00  0.00    -0.035 A 
ATOM     29  C   UNL d   1       3.707  -6.594  -2.809  0.00  0.00     0.009 A 
ATOM     30  C   UNL d   1       2.632  -7.179  -0.661  0.00  0.00     0.050 C 
ATOM     31  C   UNL d   1       3.932  -5.783  -3.909  0.00  0.00     0.001 A 
ATOM     32  C   UNL d   1       3.216  -4.601  -4.039  0.00  0.00     0.009 A 
ATOM     33  C   UNL d   1       2.236  -4.213  -3.096  0.00  0.00    -0.035 A 
ATOM     34  C   UNL d   1       1.481  -2.971  -3.491  0.00  0.00     0.050 C 
ENDBRANCH  24  27
ENDBRANCH  21  23
ENDBRANCH   3  21
TORSDOF 7
