REMARK  6 active torsions:
REMARK  status: ('A' for Active; 'I' for Inactive)
REMARK    1  A    between atoms: N_2  and  C_1 
REMARK    2  A    between atoms: N_3  and  C_1 
REMARK    3  A    between atoms: C_9  and  N_3 
REMARK    4  A    between atoms: C_4  and  C_6 
REMARK    5  A    between atoms: O_12  and  C_4 
REMARK    6  A    between atoms: C_19  and  O_12 
ROOT
ATOM      1  C   UNL d   1      -3.997  -0.944  -1.128  0.00  0.00     0.039 A 
ATOM      2  C   UNL d   1      -1.200  -0.983  -0.823  0.00  0.00     0.034 A 
ATOM      3  C   UNL d   1      -3.320  -2.154  -0.957  0.00  0.00     0.020 A 
ATOM      4  C   UNL d   1      -3.270   0.253  -1.109  0.00  0.00     0.020 A 
ATOM      5  C   UNL d   1      -1.933  -2.173  -0.796  0.00  0.00     0.030 A 
ATOM      6  C   UNL d   1      -1.881   0.233  -0.946  0.00  0.00     0.030 A 
ENDROOT
BRANCH   2   7
ATOM      7  N   UNL d   1       0.200  -0.954  -0.655  0.00  0.00    -0.333 N 
ATOM      8  H   UNL d   1       0.614  -0.039  -0.530  0.00  0.00     0.168 HD
BRANCH   7   9
ATOM      9  C   UNL d   1       1.123  -1.952  -0.931  0.00  0.00     0.174 C 
ATOM     10  S   UNL d   1       0.979  -2.980  -2.259  0.00  0.00    -0.041 SA
BRANCH   9  11
ATOM     11  N   UNL d   1       2.211  -1.958  -0.047  0.00  0.00    -0.354 N 
ATOM     12  C   UNL d   1       2.274  -1.165   1.196  0.00  0.00     0.151 C 
ATOM     13  C   UNL d   1       2.455  -2.075   2.419  0.00  0.00     0.187 C 
ATOM     14  O   UNL d   1       3.600  -2.926   2.272  0.00  0.00    -0.388 OA
ATOM     15  C   UNL d   1       3.465  -3.753   1.105  0.00  0.00     0.187 C 
ATOM     16  C   UNL d   1       3.350  -2.894  -0.159  0.00  0.00     0.151 C 
ENDBRANCH   9  11
ENDBRANCH   7   9
ENDBRANCH   2   7
BRANCH   1  17
ATOM     17  C   UNL d   1      -5.464  -0.995  -1.367  0.00  0.00     0.293 C 
ATOM     18  O   UNL d   1      -6.101  -2.035  -1.418  0.00  0.00    -0.259 OA
BRANCH  17  19
ATOM     19  O   UNL d   1      -5.950   0.253  -1.576  0.00  0.00    -0.318 OA
BRANCH  19  20
ATOM     20  C   UNL d   1      -7.301   0.313  -2.055  0.00  0.00     0.174 C 
ATOM     21  C   UNL d   1      -7.284   0.260  -3.573  0.00  0.00     0.034 C 
ENDBRANCH  19  20
ENDBRANCH  17  19
ENDBRANCH   1  17
TORSDOF 6
