REMARK  9 active torsions:
REMARK  status: ('A' for Active; 'I' for Inactive)
REMARK    1  A    between atoms: C_8  and  N_1 
REMARK    2  A    between atoms: C_11  and  C_2 
REMARK    3  A    between atoms: S_10  and  C_3 
REMARK    4  A    between atoms: C_9  and  C_13 
REMARK       I    between atoms: N_23  and  C_9 
REMARK    5  A    between atoms: C_24  and  S_10 
REMARK    6  A    between atoms: C_16  and  C_11 
REMARK    7  A    between atoms: O_32  and  C_12 
REMARK    8  A    between atoms: O_34  and  C_14 
REMARK    9  A    between atoms: C_27  and  C_24 
ROOT
ATOM      1  N   UNL d   1      -0.452  -1.257   0.177  0.00  0.00    -0.279 N 
ATOM      2  C   UNL d   1       0.821  -0.672   0.065  0.00  0.00     0.109 A 
ATOM      3  C   UNL d   1      -1.317  -0.157   0.059  0.00  0.00     0.167 A 
ATOM      4  N   UNL d   1       0.689   0.629  -0.125  0.00  0.00    -0.286 N 
ATOM      5  HN  UNL d   1       1.456   1.291  -0.244  1.00  0.00     0.188 HD
ATOM      6  N   UNL d   1      -0.631   0.945  -0.136  0.00  0.00    -0.278 N 
ATOM      7  HN  UNL d   1      -1.023   1.877  -0.271  1.00  0.00     0.189 HD
ENDROOT
BRANCH   3   8
ATOM      8  S   UNL d   1      -3.042  -0.148   0.324  0.00  0.00    -0.087 SA
BRANCH   8   9
ATOM      9  C   UNL d   1      -3.492   1.572  -0.086  0.00  0.00     0.121 C 
BRANCH   9  10
ATOM     10  C   UNL d   1      -4.982   1.815   0.061  0.00  0.00    -0.048 A 
ATOM     11  C   UNL d   1      -5.513   2.227   1.293  0.00  0.00     0.009 A 
ATOM     12  C   UNL d   1      -6.887   2.439   1.448  0.00  0.00     0.017 A 
ATOM     13  C   UNL d   1      -7.761   2.253   0.370  0.00  0.00     0.031 A 
ATOM     14  C   UNL d   1      -7.245   1.837  -0.863  0.00  0.00     0.017 A 
ATOM     15  C   UNL d   1      -5.868   1.619  -1.014  0.00  0.00     0.009 A 
BRANCH  13  16
ATOM     16  C   UNL d   1      -9.213   2.473   0.605  0.00  0.00     0.249 C 
ATOM     17  O   UNL d   1      -9.706   2.406   1.724  0.00  0.00    -0.268 OA
ATOM     18  N   UNL d   1      -9.993   2.801  -0.476  0.00  0.00    -0.366 N 
ATOM     19  H   UNL d   1      -9.599   3.123  -1.347  0.00  0.00     0.159 HD
ATOM     20  H   UNL d   1     -10.948   3.058  -0.267  0.00  0.00     0.159 HD
ENDBRANCH  13  16
ENDBRANCH   9  10
ENDBRANCH   8   9
ENDBRANCH   3   8
BRANCH   1  21
ATOM     21  C   UNL d   1      -0.780  -2.645   0.351  0.00  0.00     0.043 A 
ATOM     22  C   UNL d   1       0.093  -3.525   1.010  0.00  0.00     0.033 A 
ATOM     23  C   UNL d   1      -0.231  -4.878   1.170  0.00  0.00     0.044 A 
ATOM     24  C   UNL d   1      -1.444  -5.356   0.701  0.00  0.00     0.116 A 
ATOM     25  C   UNL d   1      -2.329  -4.510   0.054  0.00  0.00     0.044 A 
ATOM     26  F   UNL d   1      -1.762  -6.644   0.877  0.00  0.00    -0.206 F 
ATOM     27  C   UNL d   1      -1.990  -3.166  -0.138  0.00  0.00     0.033 A 
ENDBRANCH   1  21
BRANCH   2  28
ATOM     28  C   UNL d   1       2.174  -1.325   0.069  0.00  0.00     0.117 C 
BRANCH  28  29
ATOM     29  C   UNL d   1       2.529  -2.216  -1.108  0.00  0.00    -0.048 A 
ATOM     30  C   UNL d   1       3.506  -3.222  -0.953  0.00  0.00     0.047 A 
ATOM     31  C   UNL d   1       4.004  -3.950  -2.053  0.00  0.00     0.102 A 
ATOM     32  C   UNL d   1       3.483  -3.696  -3.330  0.00  0.00     0.101 A 
ATOM     33  C   UNL d   1       2.491  -2.718  -3.477  0.00  0.00     0.040 A 
ATOM     34  C   UNL d   1       2.030  -1.974  -2.390  0.00  0.00     0.010 A 
BRANCH  31  35
ATOM     35  O   UNL d   1       4.950  -4.930  -1.909  0.00  0.00    -0.353 OA
ATOM     36  C   UNL d   1       5.892  -4.770  -0.855  0.00  0.00     0.210 C 
ENDBRANCH  31  35
BRANCH  32  37
ATOM     37  O   UNL d   1       3.820  -4.274  -4.527  0.00  0.00    -0.353 OA
ATOM     38  C   UNL d   1       4.952  -5.128  -4.585  0.00  0.00     0.210 C 
ENDBRANCH  32  37
ENDBRANCH  28  29
ENDBRANCH   2  28
TORSDOF 9
