REMARK  10 active torsions:
REMARK  status: ('A' for Active; 'I' for Inactive)
REMARK    1  A    between atoms: N_3  and  C_1 
REMARK    2  A    between atoms: N_8  and  C_1 
REMARK    3  A    between atoms: C_2  and  C_6 
REMARK    4  A    between atoms: O_13  and  C_2 
REMARK    5  A    between atoms: C_12  and  N_3 
REMARK    6  A    between atoms: N_4  and  C_16 
REMARK    7  A    between atoms: C_20  and  N_8 
REMARK    8  A    between atoms: C_23  and  O_13 
REMARK    9  A    between atoms: C_16  and  C_17 
REMARK   10  A    between atoms: C_17  and  C_20 
ROOT
ATOM      1  C   UNL d   1       0.747  -0.006   0.151  0.00  0.00     0.172 C 
ATOM      2  S   UNL d   1      -0.098  -0.129  -1.282  0.00  0.00    -0.041 SA
ENDROOT
BRANCH   1   3
ATOM      3  N   UNL d   1       0.237   0.027   1.423  0.00  0.00    -0.333 N 
ATOM      4  H   UNL d   1       0.652   0.746   2.002  0.00  0.00     0.168 HD
BRANCH   3   5
ATOM      5  C   UNL d   1      -0.912  -0.600   1.934  0.00  0.00     0.034 A 
ATOM      6  C   UNL d   1      -1.397  -1.803   1.418  0.00  0.00     0.030 A 
ATOM      7  C   UNL d   1      -2.478  -2.445   2.026  0.00  0.00     0.020 A 
ATOM      8  C   UNL d   1      -3.091  -1.888   3.155  0.00  0.00     0.039 A 
ATOM      9  C   UNL d   1      -2.611  -0.677   3.668  0.00  0.00     0.020 A 
ATOM     10  C   UNL d   1      -1.518  -0.046   3.067  0.00  0.00     0.030 A 
BRANCH   8  11
ATOM     11  C   UNL d   1      -4.242  -2.616   3.751  0.00  0.00     0.293 C 
ATOM     12  O   UNL d   1      -4.670  -3.670   3.310  0.00  0.00    -0.259 OA
BRANCH  11  13
ATOM     13  O   UNL d   1      -4.745  -1.928   4.806  0.00  0.00    -0.318 OA
BRANCH  13  14
ATOM     14  C   UNL d   1      -5.965  -2.450   5.352  0.00  0.00     0.174 C 
ATOM     15  C   UNL d   1      -7.136  -1.841   4.605  0.00  0.00     0.034 C 
ENDBRANCH  13  14
ENDBRANCH  11  13
ENDBRANCH   8  11
ENDBRANCH   3   5
ENDBRANCH   1   3
BRANCH   1  16
ATOM     16  N   UNL d   1       2.107   0.149   0.080  0.00  0.00    -0.367 N 
ATOM     17  H   UNL d   1       2.440   0.191  -0.878  0.00  0.00     0.161 HD
BRANCH  16  18
ATOM     18  C   UNL d   1       3.052  -0.372   1.061  0.00  0.00     0.123 C 
BRANCH  18  19
ATOM     19  C   UNL d   1       3.259  -1.888   0.923  0.00  0.00     0.050 C 
BRANCH  19  20
ATOM     20  C   UNL d   1       3.851  -2.267  -0.444  0.00  0.00     0.274 C 
BRANCH  20  21
ATOM     21  N   UNL d   1       4.304  -3.664  -0.534  0.00  0.00     0.092 N 
ATOM     22  C   UNL d   1       4.963  -3.922  -1.841  0.00  0.00     0.298 C 
ATOM     23  C   UNL d   1       3.986  -4.035  -3.027  0.00  0.00     0.198 C 
ATOM     24  O   UNL d   1       2.982  -5.028  -2.788  0.00  0.00    -0.388 OA
ATOM     25  C   UNL d   1       2.266  -4.746  -1.579  0.00  0.00     0.198 C 
ATOM     26  C   UNL d   1       3.222  -4.662  -0.377  0.00  0.00     0.298 C 
ENDBRANCH  20  21
ENDBRANCH  19  20
ENDBRANCH  18  19
ENDBRANCH  16  18
ENDBRANCH   1  16
TORSDOF 10
