REMARK  4 active torsions:
REMARK  status: ('A' for Active; 'I' for Inactive)
REMARK       I    between atoms: C_10  and  N_1 
REMARK    1  A    between atoms: C_19  and  C_10 
REMARK    2  A    between atoms: C_22  and  C_19 
REMARK    3  A    between atoms: C_24  and  C_22 
REMARK    4  A    between atoms: C_23  and  C_24 
ROOT
ATOM      1  N   UNL d   1      -1.333  -1.761  -0.045  0.00  0.00    -0.265 N 
ATOM      2  C   UNL d   1      -0.125  -1.082  -0.025  0.00  0.00     0.143 A 
ATOM      3  C   UNL d   1      -0.383   0.281  -0.024  0.00  0.00     0.090 A 
ATOM      4  C   UNL d   1      -1.785   0.464  -0.039  0.00  0.00     0.025 A 
ATOM      5  C   UNL d   1      -2.367  -0.810  -0.067  0.00  0.00     0.057 A 
ATOM      6  N   UNL d   1       1.112  -1.623  -0.033  0.00  0.00    -0.338 N 
ATOM      7  HN  UNL d   1       1.281  -2.629  -0.048  1.00  0.00     0.167 HD
ATOM      8  N   UNL d   1       0.616   1.200  -0.006  0.00  0.00    -0.351 N 
ATOM      9  HN  UNL d   1       0.439   2.204   0.005  1.00  0.00     0.166 HD
ATOM     10  C   UNL d   1      -1.524  -3.157  -0.021  0.00  0.00     0.230 C 
ATOM     11  C   UNL d   1       2.099  -0.714  -0.019  0.00  0.00     0.060 A 
ATOM     12  C   UNL d   1       1.855   0.683  -0.005  0.00  0.00     0.059 A 
ATOM     13  C   UNL d   1      -3.768  -0.971  -0.051  0.00  0.00     0.034 A 
ATOM     14  C   UNL d   1      -2.616   1.603  -0.022  0.00  0.00     0.058 A 
ATOM     15  O   UNL d   1      -2.565  -3.633  -0.464  0.00  0.00    -0.273 OA
ATOM     16  C   UNL d   1      -3.998   1.433  -0.015  0.00  0.00     0.117 A 
ATOM     17  C   UNL d   1      -4.572   0.172  -0.025  0.00  0.00     0.044 A 
ATOM     18  F   UNL d   1      -4.791   2.513   0.012  0.00  0.00    -0.206 F 
ATOM     19  C   UNL d   1       2.941   1.551   0.006  0.00  0.00     0.032 A 
ATOM     20  C   UNL d   1       3.411  -1.170  -0.016  0.00  0.00     0.032 A 
ATOM     21  C   UNL d   1       4.491  -0.288  -0.004  0.00  0.00     0.002 A 
ATOM     22  C   UNL d   1       4.255   1.079   0.007  0.00  0.00     0.002 A 
ENDROOT
BRANCH  10  23
ATOM     23  C   UNL d   1      -0.471  -3.989   0.670  0.00  0.00     0.103 C 
BRANCH  23  24
ATOM     24  C   UNL d   1      -0.347  -3.662   2.162  0.00  0.00     0.009 C 
BRANCH  24  25
ATOM     25  C   UNL d   1      -1.667  -3.861   2.915  0.00  0.00     0.000 C 
BRANCH  25  26
ATOM     26  C   UNL d   1      -1.538  -3.469   4.386  0.00  0.00    -0.005 C 
ATOM     27  C   UNL d   1      -2.855  -3.655   5.122  0.00  0.00     0.005 C 
ENDBRANCH  25  26
ENDBRANCH  24  25
ENDBRANCH  23  24
ENDBRANCH  10  23
TORSDOF 4
