REMARK  5 active torsions:
REMARK  status: ('A' for Active; 'I' for Inactive)
REMARK    1  A    between atoms: C_6  and  N_1 
REMARK       I    between atoms: C_2  and  N_7 
REMARK    2  A    between atoms: C_3  and  C_2 
REMARK    3  A    between atoms: C_4  and  C_5 
REMARK    4  A    between atoms: O_14  and  C_4 
REMARK    5  A    between atoms: N_7  and  C_13 
ROOT
ATOM      1  C   UNL d   1      -2.591  -0.258  -0.779  0.00  0.00     0.030 A 
ATOM      2  C   UNL d   1      -2.451   0.043  -2.136  0.00  0.00     0.031 A 
ATOM      3  C   UNL d   1      -3.863  -0.647  -0.342  0.00  0.00     0.031 A 
ATOM      4  C   UNL d   1      -4.827  -0.309  -2.539  0.00  0.00     0.035 A 
ATOM      5  C   UNL d   1      -3.549   0.005  -3.010  0.00  0.00     0.032 A 
ATOM      6  C   UNL d   1      -4.967  -0.668  -1.202  0.00  0.00     0.032 A 
ENDROOT
BRANCH   4   7
ATOM      7  N   UNL d   1      -5.912  -0.183  -3.437  0.00  0.00    -0.324 N 
ATOM      8  C   UNL d   1      -7.250  -0.281  -3.117  0.00  0.00     0.245 C 
ATOM      9  O   UNL d   1      -7.737  -0.628  -2.048  0.00  0.00    -0.268 OA
ATOM     10  H   UNL d   1      -5.670   0.113  -4.374  0.00  0.00     0.169 HD
BRANCH   8  11
ATOM     11  C   UNL d   1      -8.137   0.144  -4.231  0.00  0.00     0.081 C 
ATOM     12  C   UNL d   1      -9.459   0.180  -4.004  0.00  0.00     0.086 C 
BRANCH  12  13
ATOM     13  C   UNL d   1     -10.359   0.649  -5.065  0.00  0.00     0.165 C 
ATOM     14  O   UNL d   1     -10.018   0.833  -6.222  0.00  0.00    -0.647 OA
BRANCH  13  15
ATOM     15  O   UNL d   1     -11.605   0.876  -4.609  0.00  0.00    -0.773 OA
ATOM     16  H   UNL d   1     -11.733   0.746  -3.651  0.00  0.00     0.167 HD
ENDBRANCH  13  15
ENDBRANCH  12  13
ENDBRANCH   8  11
ENDBRANCH   4   7
BRANCH   1  17
ATOM     17  N   UNL d   1      -1.566  -0.144   0.142  0.00  0.00    -0.377 N 
ATOM     18  C   UNL d   1      -0.499   0.858   0.006  0.00  0.00     0.149 C 
ATOM     19  C   UNL d   1       0.819   0.216  -0.451  0.00  0.00     0.187 C 
ATOM     20  O   UNL d   1       1.187  -0.900   0.376  0.00  0.00    -0.388 OA
ATOM     21  C   UNL d   1       0.153  -1.899   0.352  0.00  0.00     0.187 C 
ATOM     22  C   UNL d   1      -1.173  -1.346   0.898  0.00  0.00     0.149 C 
ENDBRANCH   1  17
TORSDOF 5
