REMARK  3 active torsions:
REMARK  status: ('A' for Active; 'I' for Inactive)
REMARK       I    between atoms: C_6  and  N_1 
REMARK       I    between atoms: N_9  and  C_6 
REMARK    1  A    between atoms: C_13  and  C_7 
REMARK    2  A    between atoms: C_15  and  N_9 
REMARK    3  A    between atoms: O_29  and  C_25 
ROOT
ATOM      1  N   UNL d   1      -3.070   1.030  -0.054  0.00  0.00    -0.232 N 
ATOM      2  N   UNL d   1      -1.771   1.509  -0.155  0.00  0.00    -0.297 N 
ATOM      3  HN  UNL d   1      -1.472   2.451  -0.410  1.00  0.00     0.187 HD
ATOM      4  C   UNL d   1      -1.018   0.489   0.148  0.00  0.00     0.043 C 
ATOM      5  C   UNL d   1      -1.743  -0.720   0.692  0.00  0.00     0.068 C 
ATOM      6  C   UNL d   1      -4.212   1.816  -0.082  0.00  0.00     0.342 C 
ATOM      7  C   UNL d   1      -3.145  -0.414   0.173  0.00  0.00     0.156 C 
ATOM      8  C   UNL d   1       0.445   0.431   0.075  0.00  0.00    -0.005 A 
ATOM      9  N   UNL d   1      -3.960   3.160  -0.254  0.00  0.00    -0.307 N 
ATOM     10  C   UNL d   1      -1.089  -2.073   0.429  0.00  0.00     0.018 C 
ATOM     11  O   UNL d   1      -5.328   1.314   0.058  0.00  0.00    -0.245 OA
ATOM     12  C   UNL d   1       1.025  -0.826  -0.162  0.00  0.00    -0.046 A 
ATOM     13  C   UNL d   1       0.152  -2.017  -0.462  0.00  0.00     0.040 C 
ATOM     14  C   UNL d   1       1.230   1.569   0.251  0.00  0.00     0.014 A 
ATOM     15  C   UNL d   1       2.419  -0.928  -0.213  0.00  0.00     0.008 A 
ATOM     16  C   UNL d   1       2.620   1.448   0.213  0.00  0.00     0.001 A 
ATOM     17  C   UNL d   1       3.212   0.204  -0.014  0.00  0.00     0.001 A 
ATOM     18  H   UNL d   1      -2.989   3.352  -0.471  0.00  0.00     0.170 HD
ENDROOT
BRANCH   7  19
ATOM     19  C   UNL d   1      -3.595  -1.172  -1.064  0.00  0.00    -0.032 A 
ATOM     20  C   UNL d   1      -4.777  -1.926  -1.009  0.00  0.00     0.012 A 
ATOM     21  C   UNL d   1      -5.170  -2.717  -2.091  0.00  0.00     0.037 A 
ATOM     22  C   UNL d   1      -4.395  -2.772  -3.248  0.00  0.00     0.068 A 
ATOM     23  C   UNL d   1      -3.254  -1.976  -3.339  0.00  0.00     0.037 A 
ATOM     24  C   UNL d   1      -2.866  -1.172  -2.261  0.00  0.00     0.012 A 
BRANCH  22  25
ATOM     25  O   UNL d   1      -4.855  -3.633  -4.205  0.00  0.00    -0.356 OA
ATOM     26  C   UNL d   1      -4.017  -3.837  -5.336  0.00  0.00     0.210 C 
ENDBRANCH  22  25
ENDBRANCH   7  19
BRANCH   9  27
ATOM     27  C   UNL d   1      -4.919   4.193  -0.297  0.00  0.00     0.038 A 
ATOM     28  C   UNL d   1      -6.258   4.011   0.072  0.00  0.00     0.055 A 
ATOM     29  C   UNL d   1      -7.191   5.048  -0.044  0.00  0.00     0.058 A 
ATOM     30 CL   UNL d   1      -8.824   4.719   0.421  0.00  0.00    -0.082 Cl
ATOM     31  C   UNL d   1      -6.785   6.293  -0.525  0.00  0.00     0.055 A 
ATOM     32  C   UNL d   1      -5.446   6.498  -0.859  0.00  0.00     0.028 A 
ATOM     33 CL   UNL d   1      -7.887   7.609  -0.734  0.00  0.00    -0.083 Cl
ATOM     34  C   UNL d   1      -4.514   5.458  -0.738  0.00  0.00     0.031 A 
ENDBRANCH   9  27
TORSDOF 3
