REMARK  3 active torsions:
REMARK  status: ('A' for Active; 'I' for Inactive)
REMARK    1  A    between atoms: N_4  and  C_1 
REMARK    2  A    between atoms: C_12  and  N_7 
REMARK    3  A    between atoms: C_10  and  C_12 
ROOT
ATOM      1  C   UNL d   1      -0.316  -1.130  -0.022  0.00  0.00     0.190 A 
ATOM      2  N   UNL d   1       0.998  -0.711  -0.021  0.00  0.00    -0.326 N 
ATOM      3  HN  UNL d   1       1.832  -1.298  -0.018  1.00  0.00     0.169 HD
ATOM      4  C   UNL d   1       0.950   0.608  -0.024  0.00  0.00     0.081 A 
ATOM      5  C   UNL d   1      -1.175  -0.052  -0.028  0.00  0.00     0.147 A 
ATOM      6  N   UNL d   1      -0.357   1.050  -0.031  0.00  0.00    -0.340 N 
ATOM      7  C   UNL d   1       2.131   1.510  -0.013  0.00  0.00     0.089 C 
ENDROOT
BRANCH   1   8
ATOM      8  N   UNL d   1      -0.659  -2.535  -0.003  0.00  0.00    -0.096 N 
ATOM      9  O   UNL d   1      -1.871  -2.808   0.001  0.00  0.00    -0.530 OA
ATOM     10  O   UNL d   1       0.263  -3.360   0.011  0.00  0.00    -0.530 OA
ENDBRANCH   1   8
BRANCH   6  11
ATOM     11  C   UNL d   1      -0.811   2.433   0.024  0.00  0.00     0.156 C 
BRANCH  11  12
ATOM     12  C   UNL d   1      -0.973   3.031  -1.342  0.00  0.00    -0.017 C 
ATOM     13  C   UNL d   1      -0.312   4.110  -1.782  0.00  0.00     0.008 C 
ENDBRANCH  11  12
ENDBRANCH   6  11
TORSDOF 3
