REMARK  2 active torsions:
REMARK  status: ('A' for Active; 'I' for Inactive)
REMARK    1  A    between atoms: N_11  and  C_9 
REMARK       I    between atoms: C_10  and  N_11 
REMARK    2  A    between atoms: C_15  and  C_10 
ROOT
ATOM      1  C   UNL d   1      -1.271   1.323   0.930  0.00  0.00     0.069 A 
ATOM      2  S   UNL d   1       0.690   2.642   1.413  0.00  0.00     0.068 SA
ATOM      3  C   UNL d   1      -0.063   0.540   0.502  0.00  0.00     0.067 A 
ATOM      4  C   UNL d   1      -2.576   0.797   0.759  0.00  0.00     0.061 A 
ATOM      5  N   UNL d   1      -0.965   2.515   1.466  0.00  0.00    -0.310 N 
ATOM      6  HN  UNL d   1      -1.619   3.206   1.832  1.00  0.00     0.176 HD
ATOM      7  N   UNL d   1       1.093   1.184   0.723  0.00  0.00    -0.310 N 
ATOM      8  HN  UNL d   1       2.032   0.847   0.509  1.00  0.00     0.176 HD
ATOM      9  C   UNL d   1      -2.681  -0.479   0.172  0.00  0.00     0.037 A 
ATOM     10  C   UNL d   1      -0.203  -0.745  -0.069  0.00  0.00     0.035 A 
ATOM     11  C   UNL d   1      -1.526  -1.220  -0.207  0.00  0.00     0.032 A 
ENDROOT
BRANCH   9  12
ATOM     12  N   UNL d   1      -3.936  -1.096  -0.075  0.00  0.00    -0.327 N 
ATOM     13  C   UNL d   1      -5.175  -0.485  -0.027  0.00  0.00     0.226 C 
ATOM     14  O   UNL d   1      -5.378   0.699   0.231  0.00  0.00    -0.273 OA
ATOM     15  H   UNL d   1      -3.904  -2.054  -0.404  0.00  0.00     0.169 HD
BRANCH  13  16
ATOM     16  C   UNL d   1      -6.366  -1.386  -0.327  0.00  0.00     0.082 C 
ATOM     17  C   UNL d   1      -6.593  -2.433   0.763  0.00  0.00     0.040 C 
ATOM     18  C   UNL d   1      -7.815  -3.274   0.414  0.00  0.00     0.168 C 
ATOM     19  O   UNL d   1      -7.647  -3.879  -0.870  0.00  0.00    -0.391 OA
ATOM     20  C   UNL d   1      -7.536  -2.913  -1.916  0.00  0.00     0.168 C 
ATOM     21  C   UNL d   1      -6.299  -2.048  -1.705  0.00  0.00     0.040 C 
ENDBRANCH  13  16
ENDBRANCH   9  12
TORSDOF 2
