REMARK  3 active torsions:
REMARK  status: ('A' for Active; 'I' for Inactive)
REMARK    1  A    between atoms: C_5  and  C_1 
REMARK    2  A    between atoms: C_9  and  C_5 
REMARK    3  A    between atoms: C_11  and  C_9 
ROOT
ATOM      1  C   UNL d   1       2.619  -0.728  -0.960  0.00  0.00     0.101 C 
ATOM      2  C   UNL d   1       2.850  -1.496  -2.242  0.00  0.00     0.270 C 
ATOM      3  N   UNL d   1       2.754   0.562  -0.929  0.00  0.00    -0.298 N 
ATOM      4  HN  UNL d   1       2.565   1.086  -0.075  1.00  0.00     0.187 HD
ATOM      5  N   UNL d   1       3.167   1.222  -2.100  0.00  0.00    -0.296 N 
ATOM      6  HN  UNL d   1       3.112   2.238  -2.167  1.00  0.00     0.187 HD
ATOM      7  N   UNL d   1       3.632  -0.831  -3.134  0.00  0.00    -0.317 N 
ATOM      8  C   UNL d   1       3.614   0.524  -3.087  0.00  0.00     0.200 C 
ATOM      9  O   UNL d   1       2.271  -2.539  -2.488  0.00  0.00    -0.266 OA
ATOM     10  H   UNL d   1       3.809  -1.298  -4.011  0.00  0.00     0.170 HD
ENDROOT
BRANCH   1  11
ATOM     11  C   UNL d   1       2.260  -1.458   0.301  0.00  0.00     0.148 C 
BRANCH  11  12
ATOM     12  C   UNL d   1       2.162  -2.958   0.226  0.00  0.00     0.165 C 
ATOM     13  O   UNL d   1       3.179  -3.649   0.219  0.00  0.00    -0.292 OA
BRANCH  12  14
ATOM     14  C   UNL d   1       0.815  -3.608   0.211  0.00  0.00     0.010 A 
ATOM     15  C   UNL d   1      -0.364  -2.891  -0.031  0.00  0.00     0.017 A 
ATOM     16  C   UNL d   1      -1.607  -3.525   0.076  0.00  0.00     0.025 A 
ATOM     17  C   UNL d   1      -1.672  -4.878   0.401  0.00  0.00     0.034 A 
ATOM     18  C   UNL d   1      -0.505  -5.614   0.586  0.00  0.00     0.025 A 
ATOM     19 CL   UNL d   1      -3.204  -5.636   0.592  0.00  0.00    -0.084 Cl
ATOM     20  C   UNL d   1       0.738  -4.981   0.487  0.00  0.00     0.017 A 
ENDBRANCH  12  14
ENDBRANCH  11  12
ENDBRANCH   1  11
TORSDOF 3
