REMARK  8 active torsions:
REMARK  status: ('A' for Active; 'I' for Inactive)
REMARK    1  A    between atoms: N_3  and  C_1 
REMARK    2  A    between atoms: N_4  and  C_2 
REMARK    3  A    between atoms: C_23  and  N_5 
REMARK    4  A    between atoms: N_7  and  C_22 
REMARK    5  A    between atoms: C_13  and  C_15 
REMARK    6  A    between atoms: C_16  and  C_14 
REMARK    7  A    between atoms: C_21  and  C_23 
REMARK    8  A    between atoms: C_22  and  C_21 
ROOT
ATOM      1  C   UNL d   1      -5.878  -1.591  -0.580  0.00  0.00     0.039 C 
ENDROOT
BRANCH   1   2
ATOM      2  C   UNL d   1      -5.105  -0.278  -0.471  0.00  0.00     0.120 C 
BRANCH   2   3
ATOM      3  N   UNL d   1      -3.690  -0.611  -0.330  0.00  0.00    -0.398 N 
ATOM      4  C   UNL d   1      -2.889   0.395  -0.205  0.00  0.00     0.094 C 
ATOM      5  HN  UNL d   1      -3.356  -1.574  -0.331  1.00  0.00     0.158 HD
BRANCH   4   6
ATOM      6  C   UNL d   1      -1.436   0.197  -0.039  0.00  0.00    -0.021 A 
ATOM      7  C   UNL d   1      -0.885  -1.083  -0.051  0.00  0.00     0.015 A 
ATOM      8  C   UNL d   1       0.496  -1.261   0.119  0.00  0.00     0.030 A 
ATOM      9  C   UNL d   1       1.374  -0.178   0.300  0.00  0.00     0.029 A 
ATOM     10  C   UNL d   1       0.780   1.099   0.292  0.00  0.00     0.030 A 
ATOM     11  C   UNL d   1      -0.600   1.296   0.132  0.00  0.00     0.015 A 
BRANCH   9  12
ATOM     12  N   UNL d   1       2.748  -0.338   0.421  0.00  0.00    -0.390 N 
ATOM     13  C   UNL d   1       3.539   0.566   1.256  0.00  0.00     0.149 C 
ATOM     14  C   UNL d   1       3.420  -1.594   0.097  0.00  0.00     0.149 C 
ENDBRANCH   9  12
ENDBRANCH   4   6
ENDBRANCH   2   3
ENDBRANCH   1   2
BRANCH   1  15
ATOM     15  C   UNL d   1      -7.383  -1.384  -0.739  0.00  0.00     0.120 C 
BRANCH  15  16
ATOM     16  N   UNL d   1      -8.003  -2.709  -0.844  0.00  0.00    -0.398 N 
ATOM     17  C   UNL d   1      -9.283  -2.704  -0.995  0.00  0.00     0.094 C 
ATOM     18  HN  UNL d   1      -7.461  -3.572  -0.801  1.00  0.00     0.158 HD
BRANCH  17  19
ATOM     19  C   UNL d   1     -10.047  -3.962  -1.124  0.00  0.00    -0.021 A 
ATOM     20  C   UNL d   1      -9.406  -5.196  -1.055  0.00  0.00     0.015 A 
ATOM     21  C   UNL d   1     -10.146  -6.382  -1.177  0.00  0.00     0.030 A 
ATOM     22  C   UNL d   1     -11.538  -6.385  -1.365  0.00  0.00     0.029 A 
ATOM     23  C   UNL d   1     -12.150  -5.117  -1.425  0.00  0.00     0.030 A 
ATOM     24  C   UNL d   1     -11.424  -3.920  -1.311  0.00  0.00     0.015 A 
BRANCH  22  25
ATOM     25  N   UNL d   1     -12.284  -7.554  -1.430  0.00  0.00    -0.390 N 
ATOM     26  C   UNL d   1     -13.490  -7.640  -2.252  0.00  0.00     0.149 C 
ATOM     27  C   UNL d   1     -11.738  -8.851  -1.034  0.00  0.00     0.149 C 
ENDBRANCH  22  25
ENDBRANCH  17  19
ENDBRANCH  15  16
ENDBRANCH   1  15
TORSDOF 8
