REMARK  6 active torsions:
REMARK  status: ('A' for Active; 'I' for Inactive)
REMARK    1  A    between atoms: N_2  and  C_1 
REMARK    2  A    between atoms: N_4  and  C_1 
REMARK    3  A    between atoms: C_5  and  N_3 
REMARK    4  A    between atoms: C_14  and  N_4 
REMARK    5  A    between atoms: C_7  and  C_8 
REMARK    6  A    between atoms: O_19  and  C_13 
ROOT
ATOM      1  N   UNL d   1       0.737   0.996  -0.838  0.00  0.00    -0.355 N 
ATOM      2  N   UNL d   1      -0.547   2.374  -3.014  0.00  0.00    -0.376 N 
ATOM      3  C   UNL d   1       1.052   0.666  -2.239  0.00  0.00     0.145 C 
ATOM      4  C   UNL d   1      -0.573   1.643  -0.662  0.00  0.00     0.145 C 
ATOM      5  C   UNL d   1       0.836   1.871  -3.183  0.00  0.00     0.143 C 
ATOM      6  C   UNL d   1      -0.815   2.809  -1.630  0.00  0.00     0.143 C 
ENDROOT
BRANCH   1   7
ATOM      7  C   UNL d   1       1.111   0.150   0.200  0.00  0.00     0.174 C 
ATOM      8  S   UNL d   1       1.032  -1.521   0.162  0.00  0.00    -0.041 SA
BRANCH   7   9
ATOM      9  N   UNL d   1       1.446   0.776   1.377  0.00  0.00    -0.333 N 
ATOM     10  H   UNL d   1       1.374   0.200   2.208  0.00  0.00     0.168 HD
BRANCH   9  11
ATOM     11  C   UNL d   1       2.208   1.958   1.513  0.00  0.00     0.034 A 
ATOM     12  C   UNL d   1       2.315   2.537   2.775  0.00  0.00     0.030 A 
ATOM     13  C   UNL d   1       3.144   3.650   2.974  0.00  0.00     0.010 A 
ATOM     14  C   UNL d   1       3.917   4.191   1.927  0.00  0.00    -0.051 A 
ATOM     15  C   UNL d   1       3.784   3.603   0.664  0.00  0.00     0.010 A 
ATOM     16  C   UNL d   1       2.942   2.506   0.462  0.00  0.00     0.030 A 
BRANCH  14  17
ATOM     17  C   UNL d   1       4.879   5.362   2.188  0.00  0.00    -0.024 C 
ATOM     18  C   UNL d   1       5.754   5.732   0.967  0.00  0.00     0.019 C 
ATOM     19  C   UNL d   1       4.069   6.614   2.574  0.00  0.00     0.019 C 
ATOM     20  C   UNL d   1       5.845   4.996   3.336  0.00  0.00     0.019 C 
ENDBRANCH  14  17
ENDBRANCH   9  11
ENDBRANCH   7   9
ENDBRANCH   1   7
BRANCH   2  21
ATOM     21  C   UNL d   1      -1.107   3.091  -4.078  0.00  0.00     0.064 A 
ATOM     22  C   UNL d   1      -1.262   2.535  -5.371  0.00  0.00     0.094 A 
ATOM     23  C   UNL d   1      -1.878   3.252  -6.408  0.00  0.00     0.039 A 
ATOM     24  C   UNL d   1      -2.381   4.529  -6.184  0.00  0.00     0.003 A 
ATOM     25  C   UNL d   1      -2.238   5.106  -4.929  0.00  0.00     0.002 A 
ATOM     26  C   UNL d   1      -1.608   4.396  -3.899  0.00  0.00     0.032 A 
BRANCH  22  27
ATOM     27  O   UNL d   1      -0.805   1.292  -5.740  0.00  0.00    -0.354 OA
ATOM     28  C   UNL d   1      -1.417   0.227  -5.014  0.00  0.00     0.210 C 
ENDBRANCH  22  27
ENDBRANCH   2  21
TORSDOF 6
