REMARK  4 active torsions:
REMARK  status: ('A' for Active; 'I' for Inactive)
REMARK    1  A    between atoms: C_7  and  N_1 
REMARK    2  A    between atoms: C_8  and  C_7 
REMARK       I    between atoms: N_14  and  C_8 
REMARK    3  A    between atoms: N_9  and  N_14 
REMARK    4  A    between atoms: C_11  and  C_12 
ROOT
ATOM      1  N   UNL d   1       0.162  -1.331   0.623  0.00  0.00    -0.336 N 
ATOM      2  S   UNL d   1       0.140   1.790   0.551  0.00  0.00    -0.086 SA
ATOM      3  C   UNL d   1      -1.089  -0.715   0.334  0.00  0.00     0.052 A 
ATOM      4  C   UNL d   1       1.388  -0.698   0.286  0.00  0.00     0.052 A 
ATOM      5  C   UNL d   1       1.520   0.703   0.235  0.00  0.00     0.032 A 
ATOM      6  C   UNL d   1      -1.227   0.683   0.229  0.00  0.00     0.032 A 
ATOM      7  C   UNL d   1      -2.202  -1.531   0.065  0.00  0.00     0.031 A 
ATOM      8  C   UNL d   1       2.487  -1.496  -0.071  0.00  0.00     0.031 A 
ATOM      9  C   UNL d   1      -2.464   1.236  -0.123  0.00  0.00     0.021 A 
ATOM     10  C   UNL d   1       2.761   1.275  -0.073  0.00  0.00     0.021 A 
ATOM     11  C   UNL d   1       3.705  -0.916  -0.432  0.00  0.00     0.002 A 
ATOM     12  C   UNL d   1      -3.425  -0.971  -0.306  0.00  0.00     0.002 A 
ATOM     13  C   UNL d   1       3.848   0.468  -0.409  0.00  0.00     0.002 A 
ATOM     14  C   UNL d   1      -3.556   0.412  -0.396  0.00  0.00     0.002 A 
ENDROOT
BRANCH   1  15
ATOM     15  C   UNL d   1       0.180  -1.891   2.008  0.00  0.00     0.234 C 
BRANCH  15  16
ATOM     16  C   UNL d   1       0.108  -0.826   3.119  0.00  0.00     0.254 C 
ATOM     17  N   UNL d   1       1.366  -0.374   3.525  0.00  0.00    -0.269 N 
ATOM     18  H   UNL d   1       2.187  -0.661   3.007  0.00  0.00     0.190 HD
ATOM     19  O   UNL d   1      -0.961  -0.456   3.605  0.00  0.00    -0.270 OA
BRANCH  17  20
ATOM     20  N   UNL d   1       1.470   0.701   4.370  0.00  0.00    -0.307 N 
ATOM     21  C   UNL d   1       2.679   0.975   4.758  0.00  0.00     0.144 C 
ATOM     22  HN  UNL d   1       0.661   1.244   4.671  1.00  0.00     0.186 HD
BRANCH  21  23
ATOM     23  C   UNL d   1       2.991   2.129   5.548  0.00  0.00     0.091 A 
ATOM     24  O   UNL d   1       4.274   2.247   6.012  0.00  0.00    -0.321 OA
ATOM     25  C   UNL d   1       4.348   3.417   6.697  0.00  0.00     0.142 A 
ATOM     26  C   UNL d   1       3.137   4.066   6.674  0.00  0.00     0.027 A 
ATOM     27  C   UNL d   1       2.255   3.228   5.943  0.00  0.00     0.040 A 
ENDBRANCH  21  23
ENDBRANCH  17  20
ENDBRANCH  15  16
ENDBRANCH   1  15
TORSDOF 4
