REMARK  5 active torsions:
REMARK  status: ('A' for Active; 'I' for Inactive)
REMARK    1  A    between atoms: C_2  and  S_1 
REMARK    2  A    between atoms: N_5  and  S_1 
REMARK    3  A    between atoms: C_3  and  C_8 
REMARK    4  A    between atoms: C_21  and  N_14 
REMARK    5  A    between atoms: C_22  and  C_21 
ROOT
ATOM      1  S   UNL d   1       0.976   0.086   0.132  0.00  0.00     0.267 S 
ATOM      2  O   UNL d   1       0.843  -0.406   1.484  0.00  0.00    -0.200 OA
ATOM      3  O   UNL d   1       0.504  -0.670  -1.014  0.00  0.00    -0.200 OA
ENDROOT
BRANCH   1   4
ATOM      4  C   UNL d   1       2.727   0.245  -0.152  0.00  0.00     0.121 A 
ATOM      5  S   UNL d   1       3.588   1.260   0.918  0.00  0.00    -0.074 SA
ATOM      6  C   UNL d   1       5.030   1.103   0.018  0.00  0.00     0.033 A 
ATOM      7  C   UNL d   1       4.885   0.212  -1.025  0.00  0.00     0.023 A 
ATOM      8  C   UNL d   1       3.554  -0.289  -1.119  0.00  0.00     0.034 A 
BRANCH   6   9
ATOM      9  C   UNL d   1       6.297   1.861   0.282  0.00  0.00     0.056 A 
ATOM     10  N   UNL d   1       7.372   1.773  -0.589  0.00  0.00    -0.353 N 
ATOM     11  C   UNL d   1       8.325   2.597  -0.210  0.00  0.00     0.047 A 
ATOM     12  HN  UNL d   1       7.417   1.160  -1.403  1.00  0.00     0.166 HD
ATOM     13  C   UNL d   1       9.591   2.825  -0.959  0.00  0.00     0.076 C 
ATOM     14  S   UNL d   1       8.023   3.461   1.244  0.00  0.00    -0.087 SA
ATOM     15  C   UNL d   1       6.479   2.723   1.345  0.00  0.00     0.082 A 
ENDBRANCH   6   9
ENDBRANCH   1   4
BRANCH   1  16
ATOM     16  N   UNL d   1       0.314   1.625   0.036  0.00  0.00    -0.303 N 
ATOM     17  C   UNL d   1       0.141   2.258  -1.289  0.00  0.00     0.165 C 
ATOM     18  C   UNL d   1       0.625   3.716  -1.297  0.00  0.00     0.293 C 
ATOM     19  N   UNL d   1       0.072   4.549  -0.210  0.00  0.00     0.095 N 
ATOM     20  C   UNL d   1       0.495   3.929   1.065  0.00  0.00     0.293 C 
ATOM     21  C   UNL d   1       0.111   2.444   1.251  0.00  0.00     0.165 C 
BRANCH  19  22
ATOM     22  C   UNL d   1      -1.399   4.679  -0.261  0.00  0.00     0.311 C 
BRANCH  22  23
ATOM     23  C   UNL d   1      -1.932   5.301  -1.536  0.00  0.00    -0.030 A 
ATOM     24  C   UNL d   1      -2.785   4.575  -2.382  0.00  0.00     0.009 A 
ATOM     25  C   UNL d   1      -3.275   5.146  -3.559  0.00  0.00     0.001 A 
ATOM     26  C   UNL d   1      -2.927   6.453  -3.896  0.00  0.00     0.000 A 
ATOM     27  C   UNL d   1      -2.096   7.189  -3.056  0.00  0.00     0.001 A 
ATOM     28  C   UNL d   1      -1.599   6.617  -1.883  0.00  0.00     0.009 A 
ENDBRANCH  22  23
ENDBRANCH  19  22
ENDBRANCH   1  16
TORSDOF 5
