REMARK  3 active torsions:
REMARK  status: ('A' for Active; 'I' for Inactive)
REMARK       I    between atoms: N_2  and  C_1 
REMARK    1  A    between atoms: C_4  and  C_1 
REMARK    2  A    between atoms: C_3  and  C_8 
REMARK    3  A    between atoms: C_5  and  C_3 
ROOT
ATOM      1  C   UNL d   1       2.457   0.020   0.034  0.00  0.00     0.253 C 
ATOM      2  N   UNL d   1       3.355  -0.999  -0.366  0.00  0.00    -0.348 N 
ATOM      3  C   UNL d   1       3.145  -1.843  -1.540  0.00  0.00     0.127 C 
ATOM      4  C   UNL d   1       4.204  -1.518   0.698  0.00  0.00     0.127 C 
ATOM      5  C   UNL d   1       5.074  -3.364  -0.884  0.00  0.00     0.064 C 
ATOM      6  O   UNL d   1       2.624   0.680   1.058  0.00  0.00    -0.267 OA
ATOM      7  C   UNL d   1       5.375  -2.393   0.259  0.00  0.00     0.032 C 
ATOM      8  C   UNL d   1       4.386  -2.590  -2.012  0.00  0.00     0.032 C 
ENDROOT
BRANCH   1   9
ATOM      9  C   UNL d   1       1.262   0.350  -0.797  0.00  0.00     0.032 A 
ATOM     10  C   UNL d   1       0.389  -0.632  -1.274  0.00  0.00     0.017 A 
ATOM     11  C   UNL d   1      -0.675  -0.287  -2.110  0.00  0.00     0.007 A 
ATOM     12  C   UNL d   1      -0.930   1.052  -2.419  0.00  0.00    -0.062 A 
ATOM     13  C   UNL d   1      -0.126   2.045  -1.847  0.00  0.00     0.007 A 
ATOM     14  C   UNL d   1      -2.059   1.395  -3.345  0.00  0.00     0.048 C 
ATOM     15  C   UNL d   1       0.965   1.696  -1.042  0.00  0.00     0.017 A 
ENDBRANCH   1   9
BRANCH   5  16
ATOM     16  C   UNL d   1       4.301  -4.626  -0.466  0.00  0.00     0.163 C 
ATOM     17  O   UNL d   1       3.128  -4.800  -0.792  0.00  0.00    -0.292 OA
BRANCH  16  18
ATOM     18  C   UNL d   1       4.988  -5.705   0.325  0.00  0.00     0.010 A 
ATOM     19  C   UNL d   1       6.302  -5.575   0.789  0.00  0.00     0.015 A 
ATOM     20  C   UNL d   1       6.868  -6.564   1.599  0.00  0.00     0.007 A 
ATOM     21  C   UNL d   1       6.150  -7.714   1.932  0.00  0.00    -0.062 A 
ATOM     22  C   UNL d   1       4.859  -7.877   1.422  0.00  0.00     0.007 A 
ATOM     23  C   UNL d   1       6.752  -8.718   2.872  0.00  0.00     0.048 C 
ATOM     24  C   UNL d   1       4.284  -6.877   0.626  0.00  0.00     0.015 A 
ENDBRANCH  16  18
ENDBRANCH   5  16
TORSDOF 3
