REMARK  3 active torsions:
REMARK  status: ('A' for Active; 'I' for Inactive)
REMARK    1  A    between atoms: C_2  and  C_1 
REMARK       I    between atoms: N_8  and  C_2 
REMARK    2  A    between atoms: C_7  and  C_3 
REMARK    3  A    between atoms: O_14  and  C_9 
ROOT
ATOM      1  C   UNL d   1       1.030  -0.637  -0.507  0.00  0.00     0.112 C 
ATOM      2  C   UNL d   1       0.366   0.497  -0.805  0.00  0.00     0.039 C 
ATOM      3  C   UNL d   1       0.379  -1.872  -0.246  0.00  0.00     0.105 C 
ATOM      4  N   UNL d   1      -0.092  -2.911  -0.023  0.00  0.00    -0.191 NA
ENDROOT
BRANCH   1   5
ATOM      5  C   UNL d   1       2.520  -0.548  -0.425  0.00  0.00     0.260 C 
ATOM      6  O   UNL d   1       3.138   0.493  -0.629  0.00  0.00    -0.267 OA
ATOM      7  N   UNL d   1       3.198  -1.682  -0.092  0.00  0.00    -0.365 N 
ATOM      8  H   UNL d   1       2.778  -2.582   0.105  0.00  0.00     0.159 HD
ATOM      9  H   UNL d   1       4.206  -1.611  -0.017  0.00  0.00     0.159 HD
ENDBRANCH   1   5
BRANCH   2  10
ATOM     10  C   UNL d   1      -1.093   0.627  -0.849  0.00  0.00    -0.034 A 
ATOM     11  C   UNL d   1      -1.786   0.972   0.315  0.00  0.00     0.014 A 
ATOM     12  C   UNL d   1      -3.179   1.096   0.302  0.00  0.00     0.037 A 
ATOM     13  C   UNL d   1      -3.893   0.873  -0.876  0.00  0.00     0.068 A 
ATOM     14  C   UNL d   1      -3.196   0.541  -2.042  0.00  0.00     0.037 A 
ATOM     15  C   UNL d   1      -1.803   0.416  -2.033  0.00  0.00     0.014 A 
BRANCH  13  16
ATOM     16  O   UNL d   1      -5.252   0.946  -1.014  0.00  0.00    -0.356 OA
ATOM     17  C   UNL d   1      -5.999   1.250   0.158  0.00  0.00     0.210 C 
ENDBRANCH  13  16
ENDBRANCH   2  10
TORSDOF 3
