REMARK  6 active torsions:
REMARK  status: ('A' for Active; 'I' for Inactive)
REMARK    1  A    between atoms: C_13  and  N_2 
REMARK    2  A    between atoms: C_11  and  C_4 
REMARK    3  A    between atoms: C_14  and  N_5 
REMARK    4  A    between atoms: O_18  and  C_11 
REMARK    5  A    between atoms: C_17  and  C_12 
REMARK    6  A    between atoms: C_28  and  O_18 
ROOT
ATOM      1  C   UNL d   1       0.030  -0.180  -0.338  0.00  0.00     0.247 C 
ATOM      2  N   UNL d   1       1.158  -1.004  -0.697  0.00  0.00    -0.265 N 
ATOM      3  S   UNL d   1      -0.591  -0.580   1.361  0.00  0.00    -0.037 SA
ATOM      4  C   UNL d   1      -2.164  -0.211   0.757  0.00  0.00     0.166 C 
ATOM      5  N   UNL d   1      -1.174  -0.272  -1.188  0.00  0.00    -0.241 N 
ATOM      6  N   UNL d   1      -2.381  -0.129  -0.514  0.00  0.00    -0.283 N 
ATOM      7  HN  UNL d   1      -3.290   0.017  -0.952  1.00  0.00     0.188 HD
ATOM      8  S   UNL d   1       0.659   1.554  -0.218  0.00  0.00    -0.056 SA
ATOM      9  C   UNL d   1       2.391  -0.469  -0.306  0.00  0.00     0.268 C 
ATOM     10  C   UNL d   1       2.274   0.989   0.022  0.00  0.00     0.074 C 
ATOM     11  C   UNL d   1       3.262   1.798   0.435  0.00  0.00     0.035 C 
ATOM     12  O   UNL d   1       3.445  -1.084  -0.232  0.00  0.00    -0.266 OA
ENDROOT
BRANCH   2  13
ATOM     13  C   UNL d   1       1.086  -2.305  -1.281  0.00  0.00     0.041 A 
ATOM     14  C   UNL d   1       0.016  -3.182  -1.085  0.00  0.00     0.030 A 
ATOM     15  C   UNL d   1       0.008  -4.451  -1.677  0.00  0.00     0.002 A 
ATOM     16  C   UNL d   1       1.052  -4.850  -2.506  0.00  0.00     0.000 A 
ATOM     17  C   UNL d   1       2.112  -3.983  -2.741  0.00  0.00     0.002 A 
ATOM     18  C   UNL d   1       2.127  -2.730  -2.127  0.00  0.00     0.030 A 
ENDBRANCH   2  13
BRANCH   5  19
ATOM     19  C   UNL d   1      -1.228  -0.287  -2.582  0.00  0.00     0.055 A 
ATOM     20  C   UNL d   1      -2.325  -0.896  -3.226  0.00  0.00     0.031 A 
ATOM     21  C   UNL d   1      -2.428  -0.962  -4.618  0.00  0.00     0.002 A 
ATOM     22  C   UNL d   1      -1.442  -0.387  -5.410  0.00  0.00     0.000 A 
ATOM     23  C   UNL d   1      -0.355   0.236  -4.805  0.00  0.00     0.002 A 
ATOM     24  C   UNL d   1      -0.244   0.271  -3.408  0.00  0.00     0.031 A 
ENDBRANCH   5  19
BRANCH   4  25
ATOM     25  C   UNL d   1      -3.142  -0.054   1.885  0.00  0.00     0.318 C 
ATOM     26  O   UNL d   1      -2.861   0.382   2.987  0.00  0.00    -0.257 OA
BRANCH  25  27
ATOM     27  O   UNL d   1      -4.349  -0.497   1.466  0.00  0.00    -0.316 OA
BRANCH  27  28
ATOM     28  C   UNL d   1      -5.341  -0.667   2.485  0.00  0.00     0.175 C 
ATOM     29  C   UNL d   1      -5.336  -2.131   2.883  0.00  0.00     0.034 C 
ENDBRANCH  27  28
ENDBRANCH  25  27
ENDBRANCH   4  25
BRANCH  11  30
ATOM     30  C   UNL d   1       4.653   1.387   0.645  0.00  0.00    -0.035 A 
ATOM     31  C   UNL d   1       5.533   1.294  -0.437  0.00  0.00     0.012 A 
ATOM     32  C   UNL d   1       6.847   0.862  -0.241  0.00  0.00     0.007 A 
ATOM     33  C   UNL d   1       7.300   0.522   1.040  0.00  0.00    -0.062 A 
ATOM     34  C   UNL d   1       6.417   0.621   2.122  0.00  0.00     0.007 A 
ATOM     35  C   UNL d   1       8.704   0.031   1.230  0.00  0.00     0.048 C 
ATOM     36  C   UNL d   1       5.101   1.052   1.926  0.00  0.00     0.012 A 
ENDBRANCH  11  30
TORSDOF 6
