REMARK  3 active torsions:
REMARK  status: ('A' for Active; 'I' for Inactive)
REMARK    1  A    between atoms: C_7  and  C_1 
REMARK    2  A    between atoms: C_8  and  C_3 
REMARK    3  A    between atoms: O_13  and  C_7 
ROOT
ATOM      1  C   UNL d   1       2.067   0.724   0.134  0.00  0.00     0.066 C 
ATOM      2  C   UNL d   1       1.661  -0.563   0.043  0.00  0.00     0.022 C 
ATOM      3  C   UNL d   1       1.090   1.862  -0.045  0.00  0.00     0.158 C 
ATOM      4  C   UNL d   1      -0.670   0.117  -0.100  0.00  0.00     0.172 C 
ATOM      5  N   UNL d   1       0.314  -0.820  -0.133  0.00  0.00    -0.337 N 
ATOM      6  N   UNL d   1      -0.285   1.402   0.073  0.00  0.00    -0.354 N 
ATOM      7  S   UNL d   1      -2.272  -0.299  -0.218  0.00  0.00    -0.041 SA
ATOM      8  C   UNL d   1       2.515  -1.801   0.082  0.00  0.00     0.069 C 
ATOM      9  H   UNL d   1       0.003  -1.783  -0.215  0.00  0.00     0.168 HD
ATOM     10  H   UNL d   1      -1.023   2.095   0.070  0.00  0.00     0.163 HD
ENDROOT
BRANCH   3  11
ATOM     11  C   UNL d   1       1.265   3.056   0.882  0.00  0.00    -0.031 A 
ATOM     12  C   UNL d   1       1.455   4.341   0.340  0.00  0.00     0.012 A 
ATOM     13  C   UNL d   1       1.610   5.449   1.174  0.00  0.00     0.043 A 
ATOM     14  C   UNL d   1       1.565   5.277   2.551  0.00  0.00     0.116 A 
ATOM     15  C   UNL d   1       1.368   4.022   3.112  0.00  0.00     0.043 A 
ATOM     16  F   UNL d   1       1.713   6.341   3.351  0.00  0.00    -0.206 F 
ATOM     17  C   UNL d   1       1.212   2.911   2.280  0.00  0.00     0.012 A 
ENDBRANCH   3  11
BRANCH   1  18
ATOM     18  C   UNL d   1       3.490   1.061   0.374  0.00  0.00     0.293 C 
ATOM     19  O   UNL d   1       4.239   0.413   1.090  0.00  0.00    -0.259 OA
BRANCH  18  20
ATOM     20  O   UNL d   1       3.824   2.197  -0.288  0.00  0.00    -0.323 OA
ATOM     21  C   UNL d   1       5.125   2.710   0.019  0.00  0.00     0.213 C 
ENDBRANCH  18  20
ENDBRANCH   1  18
TORSDOF 3
