REMARK  1 active torsions:
REMARK  status: ('A' for Active; 'I' for Inactive)
REMARK    1  A    between atoms: S_11  and  C_3 
ROOT
ATOM      1  N   UNL d   1      -1.647  -1.162  -0.002  0.00  0.00    -0.335 N 
ATOM      2  HN  UNL d   1      -1.967  -2.131  -0.003  1.00  0.00     0.168 HD
ATOM      3  C   UNL d   1      -2.383  -0.077  -0.001  0.00  0.00     0.144 A 
ATOM      4  N   UNL d   1      -1.628   1.058  -0.001  0.00  0.00    -0.335 N 
ATOM      5  C   UNL d   1      -0.347  -0.707  -0.002  0.00  0.00     0.062 A 
ATOM      6  C   UNL d   1      -0.308   0.685  -0.001  0.00  0.00     0.062 A 
ATOM      7  C   UNL d   1       0.859  -1.422  -0.003  0.00  0.00     0.057 A 
ATOM      8  C   UNL d   1       0.877   1.425   0.000  0.00  0.00     0.057 A 
ATOM      9  C   UNL d   1       2.076   0.696  -0.000  0.00  0.00     0.058 A 
ATOM     10  C   UNL d   1       2.068  -0.707  -0.002  0.00  0.00     0.058 A 
ATOM     11 CL   UNL d   1       3.545   1.611   0.002  0.00  0.00    -0.082 Cl
ATOM     12 CL   UNL d   1       3.534  -1.629  -0.002  0.00  0.00    -0.082 Cl
ATOM     13  H   UNL d   1      -1.995   1.996   0.001  0.00  0.00     0.168 HD
ENDROOT
BRANCH   3  14
ATOM     14  S   UNL d   1      -4.098   0.071   0.000  0.00  0.00    -0.098 SA
ATOM     15  C   UNL d   1      -4.612  -1.658   0.000  0.00  0.00     0.099 C 
ENDBRANCH   3  14
TORSDOF 1
