REMARK  6 active torsions:
REMARK  status: ('A' for Active; 'I' for Inactive)
REMARK    1  A    between atoms: N_2  and  S_1 
REMARK    2  A    between atoms: C_4  and  S_1 
REMARK    3  A    between atoms: C_3  and  N_2 
REMARK    4  A    between atoms: O_12  and  C_10 
REMARK    5  A    between atoms: C_19  and  O_12 
REMARK    6  A    between atoms: C_17  and  C_19 
ROOT
ATOM      1  C   UNL d   1       0.881   2.176  -1.592  0.00  0.00     0.128 A 
ATOM      2  N   UNL d   1      -0.174   2.972  -1.848  0.00  0.00    -0.354 N 
ATOM      3  HN  UNL d   1      -1.103   2.593  -2.031  1.00  0.00     0.166 HD
ATOM      4  C   UNL d   1       2.185   2.619  -1.358  0.00  0.00     0.108 A 
ATOM      5  C   UNL d   1       0.067   4.297  -1.849  0.00  0.00     0.089 A 
ATOM      6  C   UNL d   1       2.395   3.994  -1.379  0.00  0.00     0.041 A 
ATOM      7  C   UNL d   1       1.317   4.849  -1.620  0.00  0.00     0.020 A 
ENDROOT
BRANCH   1   8
ATOM      8  N   UNL d   1       0.512   0.812  -1.493  0.00  0.00    -0.164 NA
ATOM      9  H   UNL d   1      -0.249   0.613  -2.135  0.00  0.00     0.147 HD
BRANCH   8  10
ATOM     10  S   UNL d   1       0.090   0.317   0.069  0.00  0.00     0.247 S 
ATOM     11  O   UNL d   1       1.146   0.683   0.995  0.00  0.00    -0.205 OA
ATOM     12  O   UNL d   1      -0.367  -1.054  -0.032  0.00  0.00    -0.205 OA
BRANCH  10  13
ATOM     13  C   UNL d   1      -1.348   1.301   0.445  0.00  0.00     0.074 A 
ATOM     14  C   UNL d   1      -2.478   1.185  -0.371  0.00  0.00     0.025 A 
ATOM     15  C   UNL d   1      -3.562   2.039  -0.168  0.00  0.00     0.008 A 
ATOM     16  C   UNL d   1      -3.535   2.988   0.863  0.00  0.00    -0.062 A 
ATOM     17  C   UNL d   1      -2.418   3.055   1.708  0.00  0.00     0.008 A 
ATOM     18  C   UNL d   1      -4.692   3.929   1.036  0.00  0.00     0.048 C 
ATOM     19  C   UNL d   1      -1.322   2.213   1.502  0.00  0.00     0.025 A 
ENDBRANCH  10  13
ENDBRANCH   8  10
ENDBRANCH   1   8
BRANCH   4  20
ATOM     20  O   UNL d   1       3.155   1.670  -1.245  0.00  0.00    -0.343 OA
BRANCH  20  21
ATOM     21  C   UNL d   1       4.335   2.001  -0.521  0.00  0.00     0.214 C 
BRANCH  21  22
ATOM     22  C   UNL d   1       5.247   0.798  -0.604  0.00  0.00    -0.032 A 
ATOM     23  C   UNL d   1       6.529   0.901  -1.165  0.00  0.00     0.035 A 
ATOM     24  C   UNL d   1       7.349  -0.228  -1.284  0.00  0.00     0.056 A 
ATOM     25 CL   UNL d   1       8.907  -0.015  -2.001  0.00  0.00    -0.083 Cl
ATOM     26  C   UNL d   1       6.893  -1.473  -0.838  0.00  0.00     0.055 A 
ATOM     27  C   UNL d   1       5.622  -1.582  -0.269  0.00  0.00     0.026 A 
ATOM     28 CL   UNL d   1       7.843  -2.910  -0.968  0.00  0.00    -0.083 Cl
ATOM     29  C   UNL d   1       4.806  -0.454  -0.149  0.00  0.00     0.011 A 
ENDBRANCH  21  22
ENDBRANCH  20  21
ENDBRANCH   4  20
TORSDOF 6
