REMARK  2 active torsions:
REMARK  status: ('A' for Active; 'I' for Inactive)
REMARK    1  A    between atoms: C_7  and  N_1 
REMARK    2  A    between atoms: C_8  and  C_2 
ROOT
ATOM      1  N   UNL d   1      -0.177  -1.329  -0.014  0.00  0.00    -0.239 N 
ATOM      2  C   UNL d   1       1.013  -0.691  -0.078  0.00  0.00     0.149 A 
ATOM      3  N   UNL d   1       0.888   0.599  -0.142  0.00  0.00    -0.238 N 
ATOM      4  HN  UNL d   1       1.638   1.287  -0.206  1.00  0.00     0.196 HD
ATOM      5  C   UNL d   1      -1.135  -0.368  -0.023  0.00  0.00     0.395 A 
ATOM      6  O   UNL d   1      -0.512   0.855  -0.103  0.00  0.00    -0.179 OA
ATOM      7  O   UNL d   1      -2.348  -0.506   0.018  0.00  0.00    -0.235 OA
ENDROOT
BRANCH   1   8
ATOM      8  C   UNL d   1      -0.473  -2.695   0.026  0.00  0.00     0.052 A 
ATOM      9  C   UNL d   1      -0.469  -3.499  -1.127  0.00  0.00    -0.035 A 
ATOM     10  C   UNL d   1      -0.245  -2.966  -2.515  0.00  0.00     0.050 C 
ATOM     11  C   UNL d   1      -0.762  -4.868  -0.988  0.00  0.00     0.009 A 
ATOM     12  C   UNL d   1      -1.020  -5.424   0.267  0.00  0.00     0.001 A 
ATOM     13  C   UNL d   1      -1.018  -4.620   1.401  0.00  0.00     0.002 A 
ATOM     14  C   UNL d   1      -0.765  -3.256   1.280  0.00  0.00     0.031 A 
ENDBRANCH   1   8
BRANCH   2  15
ATOM     15  C   UNL d   1       2.345  -1.338  -0.073  0.00  0.00     0.026 A 
ATOM     16  C   UNL d   1       3.420  -0.613  -0.584  0.00  0.00     0.102 A 
ATOM     17  N   UNL d   1       4.698  -1.069  -0.639  0.00  0.00    -0.374 N 
ATOM     18  C   UNL d   1       4.925  -2.302  -0.145  0.00  0.00     0.087 A 
ATOM     19  HN  UNL d   1       5.450  -0.505  -1.035  1.00  0.00     0.164 HD
ATOM     20  C   UNL d   1       3.935  -3.094   0.408  0.00  0.00     0.018 A 
ATOM     21  C   UNL d   1       2.630  -2.599   0.451  0.00  0.00     0.018 A 
ENDBRANCH   2  15
TORSDOF 2
