REMARK  4 active torsions:
REMARK  status: ('A' for Active; 'I' for Inactive)
REMARK    1  A    between atoms: C_12  and  N_1 
REMARK    2  A    between atoms: C_7  and  C_2 
REMARK    3  A    between atoms: N_3  and  C_7 
REMARK    4  A    between atoms: C_17  and  C_12 
ROOT
ATOM      1  N   UNL d   1       0.743  -0.669   0.224  0.00  0.00    -0.305 N 
ATOM      2  C   UNL d   1       0.919   0.655  -0.027  0.00  0.00     0.119 A 
ATOM      3  C   UNL d   1      -0.618  -0.841   0.277  0.00  0.00     0.194 A 
ATOM      4  N   UNL d   1      -0.188   1.344  -0.110  0.00  0.00    -0.285 N 
ATOM      5  HN  UNL d   1      -0.294   2.344  -0.281  1.00  0.00     0.188 HD
ATOM      6  N   UNL d   1      -1.170   0.417   0.086  0.00  0.00    -0.275 N 
ATOM      7  S   UNL d   1      -1.518  -2.211   0.521  0.00  0.00    -0.039 SA
ATOM      8  H   UNL d   1      -2.157   0.645   0.046  0.00  0.00     0.189 HD
ENDROOT
BRANCH   2   9
ATOM      9  C   UNL d   1       2.292   1.297  -0.149  0.00  0.00     0.210 C 
BRANCH   9  10
ATOM     10  N   UNL d   1       2.741   1.663  -1.509  0.00  0.00    -0.309 N 
ATOM     11  C   UNL d   1       2.830   0.633  -2.451  0.00  0.00     0.234 C 
ATOM     12  C   UNL d   1       3.586   0.890  -3.734  0.00  0.00     0.182 C 
ATOM     13  O   UNL d   1       2.247  -0.446  -2.318  0.00  0.00    -0.272 OA
ATOM     14  S   UNL d   1       5.226   1.532  -3.380  0.00  0.00    -0.118 SA
ATOM     15  C   UNL d   1       4.660   2.938  -2.451  0.00  0.00     0.028 A 
ATOM     16  C   UNL d   1       3.503   2.879  -1.647  0.00  0.00     0.054 A 
ATOM     17  C   UNL d   1       5.420   4.112  -2.526  0.00  0.00     0.021 A 
ATOM     18  C   UNL d   1       3.109   4.047  -0.975  0.00  0.00     0.031 A 
ATOM     19  C   UNL d   1       3.858   5.226  -1.076  0.00  0.00     0.002 A 
ATOM     20  C   UNL d   1       5.018   5.255  -1.843  0.00  0.00     0.002 A 
ENDBRANCH   9  10
ENDBRANCH   2   9
BRANCH   1  21
ATOM     21  C   UNL d   1       1.752  -1.725   0.263  0.00  0.00     0.171 C 
BRANCH  21  22
ATOM     22  C   UNL d   1       2.329  -2.061   1.620  0.00  0.00    -0.040 A 
ATOM     23  C   UNL d   1       1.928  -1.458   2.817  0.00  0.00     0.009 A 
ATOM     24  C   UNL d   1       2.538  -1.810   4.024  0.00  0.00     0.001 A 
ATOM     25  C   UNL d   1       3.553  -2.769   4.049  0.00  0.00     0.000 A 
ATOM     26  C   UNL d   1       3.959  -3.380   2.867  0.00  0.00     0.001 A 
ATOM     27  C   UNL d   1       3.350  -3.029   1.663  0.00  0.00     0.009 A 
ENDBRANCH  21  22
ENDBRANCH   1  21
TORSDOF 4
