REMARK  3 active torsions:
REMARK  status: ('A' for Active; 'I' for Inactive)
REMARK    1  A    between atoms: C_8  and  C_1 
REMARK       I    between atoms: C_2  and  N_10 
REMARK       I    between atoms: N_11  and  C_2 
REMARK    2  A    between atoms: N_10  and  C_14 
REMARK    3  A    between atoms: C_15  and  N_11 
ROOT
ATOM      1  C   UNL d   1      -0.674  -2.789   0.800  0.00  0.00     0.019 A 
ATOM      2  C   UNL d   1      -1.496  -2.972  -0.337  0.00  0.00     0.045 A 
ATOM      3  C   UNL d   1      -1.982  -4.236  -0.674  0.00  0.00     0.037 A 
ATOM      4  C   UNL d   1      -0.367  -3.890   1.610  0.00  0.00     0.016 A 
ATOM      5  C   UNL d   1      -0.856  -5.151   1.294  0.00  0.00     0.003 A 
ATOM      6  C   UNL d   1      -1.653  -5.316   0.163  0.00  0.00     0.029 A 
ENDROOT
BRANCH   3   7
ATOM      7  N   UNL d   1      -2.741  -4.586  -1.804  0.00  0.00    -0.309 N 
ATOM      8  C   UNL d   1      -3.260  -4.010  -2.916  0.00  0.00     0.325 C 
ATOM      9  N   UNL d   1      -3.205  -2.666  -3.082  0.00  0.00    -0.309 N 
ATOM     10  O   UNL d   1      -3.749  -4.807  -3.721  0.00  0.00    -0.247 OA
ATOM     11  H   UNL d   1      -2.910  -2.119  -2.297  0.00  0.00     0.170 HD
ATOM     12  H   UNL d   1      -2.917  -5.582  -1.896  0.00  0.00     0.170 HD
BRANCH   9  13
ATOM     13  C   UNL d   1      -3.584  -1.928  -4.231  0.00  0.00     0.036 A 
ATOM     14  C   UNL d   1      -4.167  -2.494  -5.369  0.00  0.00     0.029 A 
ATOM     15  C   UNL d   1      -4.468  -1.710  -6.487  0.00  0.00     0.002 A 
ATOM     16  C   UNL d   1      -4.188  -0.347  -6.482  0.00  0.00     0.000 A 
ATOM     17  C   UNL d   1      -3.625   0.234  -5.347  0.00  0.00     0.002 A 
ATOM     18  C   UNL d   1      -3.333  -0.550  -4.227  0.00  0.00     0.029 A 
ENDBRANCH   9  13
ENDBRANCH   3   7
BRANCH   1  19
ATOM     19  C   UNL d   1      -0.115  -1.471   1.083  0.00  0.00     0.173 A 
ATOM     20  N   UNL d   1      -0.208  -0.344   0.404  0.00  0.00    -0.278 N 
ATOM     21  N   UNL d   1       0.562   0.585   1.076  0.00  0.00    -0.288 N 
ATOM     22  HN  UNL d   1      -0.744  -0.189  -0.450  1.00  0.00     0.189 HD
ATOM     23  C   UNL d   1       1.061  -0.042   2.114  0.00  0.00     0.251 A 
ATOM     24  HN  UNL d   1       0.713   1.560   0.818  1.00  0.00     0.188 HD
ATOM     25  O   UNL d   1       0.677  -1.345   2.198  0.00  0.00    -0.286 OA
ENDBRANCH   1  19
TORSDOF 3
