REMARK  5 active torsions:
REMARK  status: ('A' for Active; 'I' for Inactive)
REMARK    1  A    between atoms: C_4  and  C_2 
REMARK    2  A    between atoms: S_7  and  C_3 
REMARK    3  A    between atoms: C_13  and  C_5 
REMARK    4  A    between atoms: C_15  and  C_9 
REMARK    5  A    between atoms: O_20  and  C_13 
ROOT
ATOM      1  C   UNL d   1       1.401  -1.252   0.400  0.00  0.00     0.085 A 
ATOM      2  C   UNL d   1       0.068  -1.380  -0.131  0.00  0.00     0.023 A 
ATOM      3  C   UNL d   1       1.898   0.025   0.275  0.00  0.00     0.121 A 
ATOM      4  C   UNL d   1      -0.354  -0.212  -0.762  0.00  0.00     0.094 A 
ATOM      5  S   UNL d   1       0.838   1.023  -0.627  0.00  0.00    -0.070 SA
ATOM      6  C   UNL d   1       2.179  -2.283   1.018  0.00  0.00     0.102 C 
ATOM      7  N   UNL d   1       2.800  -3.129   1.528  0.00  0.00    -0.191 NA
ENDROOT
BRANCH   2   8
ATOM      8  C   UNL d   1      -0.707  -2.632  -0.045  0.00  0.00     0.009 A 
ATOM      9  C   UNL d   1      -1.558  -3.114  -1.073  0.00  0.00     0.048 A 
ATOM     10  C   UNL d   1      -2.099  -4.300  -0.627  0.00  0.00     0.061 A 
ATOM     11  O   UNL d   1      -1.619  -4.579   0.616  0.00  0.00    -0.318 OA
ATOM     12  C   UNL d   1      -0.787  -3.561   0.977  0.00  0.00     0.060 A 
ATOM     13  C   UNL d   1      -0.195  -3.706   2.325  0.00  0.00     0.077 C 
BRANCH  10  14
ATOM     14  C   UNL d   1      -3.051  -5.297  -1.228  0.00  0.00    -0.002 C 
ATOM     15  C   UNL d   1      -3.555  -4.805  -2.598  0.00  0.00     0.021 C 
ATOM     16  C   UNL d   1      -2.322  -6.638  -1.415  0.00  0.00     0.021 C 
ATOM     17  C   UNL d   1      -4.263  -5.494  -0.302  0.00  0.00     0.021 C 
ENDBRANCH  10  14
ENDBRANCH   2   8
BRANCH   3  18
ATOM     18  S   UNL d   1       3.403   0.762   0.898  0.00  0.00     0.179 S 
ATOM     19  O   UNL d   1       2.993   1.978   1.570  0.00  0.00    -0.222 OA
ATOM     20  O   UNL d   1       4.093  -0.295   1.606  0.00  0.00    -0.222 OA
ATOM     21  C   UNL d   1       4.348   1.162  -0.540  0.00  0.00     0.167 C 
ENDBRANCH   3  18
BRANCH   4  22
ATOM     22  C   UNL d   1      -1.645   0.050  -1.397  0.00  0.00     0.300 C 
ATOM     23  O   UNL d   1      -2.712  -0.439  -1.047  0.00  0.00    -0.259 OA
BRANCH  22  24
ATOM     24  O   UNL d   1      -1.521   0.836  -2.513  0.00  0.00    -0.322 OA
ATOM     25  C   UNL d   1      -2.749   0.950  -3.249  0.00  0.00     0.213 C 
ENDBRANCH  22  24
ENDBRANCH   4  22
TORSDOF 5
