REMARK  6 active torsions:
REMARK  status: ('A' for Active; 'I' for Inactive)
REMARK    1  A    between atoms: C_8  and  C_3 
REMARK    2  A    between atoms: C_9  and  C_4 
REMARK    3  A    between atoms: C_14  and  N_5 
REMARK    4  A    between atoms: C_10  and  C_6 
REMARK    5  A    between atoms: O_19  and  C_10 
REMARK    6  A    between atoms: C_22  and  O_19 
ROOT
ATOM      1  C   UNL d   1      -2.137   2.752  -0.617  0.00  0.00     0.120 C 
ATOM      2  C   UNL d   1      -0.913   2.650  -0.062  0.00  0.00     0.044 C 
ATOM      3  C   UNL d   1      -2.577   3.913  -1.316  0.00  0.00     0.105 C 
ATOM      4  N   UNL d   1      -2.916   4.885  -1.853  0.00  0.00    -0.191 NA
ENDROOT
BRANCH   1   5
ATOM      5  C   UNL d   1      -3.153   1.677  -0.494  0.00  0.00     0.303 C 
ATOM      6  O   UNL d   1      -4.284   1.770  -0.950  0.00  0.00    -0.258 OA
BRANCH   5   7
ATOM      7  O   UNL d   1      -2.712   0.648   0.277  0.00  0.00    -0.317 OA
BRANCH   7   8
ATOM      8  C   UNL d   1      -3.748  -0.163   0.851  0.00  0.00     0.174 C 
ATOM      9  C   UNL d   1      -4.135   0.468   2.177  0.00  0.00     0.034 C 
ENDBRANCH   7   8
ENDBRANCH   5   7
ENDBRANCH   1   5
BRANCH   2  10
ATOM     10  C   UNL d   1       0.134   3.631  -0.040  0.00  0.00     0.014 A 
ATOM     11  C   UNL d   1       1.540   3.443  -0.017  0.00  0.00     0.094 A 
ATOM     12  N   UNL d   1       2.199   4.608   0.007  0.00  0.00    -0.291 N 
ATOM     13  N   UNL d   1       1.234   5.561   0.028  0.00  0.00    -0.266 N 
ATOM     14  HN  UNL d   1       3.210   4.748   0.009  1.00  0.00     0.187 HD
ATOM     15  C   UNL d   1      -0.024   4.995   0.038  0.00  0.00     0.130 A 
BRANCH  11  16
ATOM     16  C   UNL d   1       2.264   2.133  -0.017  0.00  0.00     0.103 A 
ATOM     17  O   UNL d   1       1.664   0.903  -0.051  0.00  0.00    -0.320 OA
ATOM     18  C   UNL d   1       2.648  -0.031  -0.020  0.00  0.00     0.142 A 
ATOM     19  C   UNL d   1       3.881   0.572   0.035  0.00  0.00     0.027 A 
ATOM     20  C   UNL d   1       3.636   1.966   0.032  0.00  0.00     0.041 A 
ENDBRANCH  11  16
BRANCH  13  21
ATOM     21  C   UNL d   1       1.561   6.947   0.053  0.00  0.00     0.056 A 
ATOM     22  C   UNL d   1       2.906   7.348  -0.003  0.00  0.00     0.031 A 
ATOM     23  C   UNL d   1       3.235   8.706   0.018  0.00  0.00     0.002 A 
ATOM     24  C   UNL d   1       2.232   9.672   0.099  0.00  0.00     0.000 A 
ATOM     25  C   UNL d   1       0.896   9.280   0.157  0.00  0.00     0.002 A 
ATOM     26  C   UNL d   1       0.557   7.924   0.129  0.00  0.00     0.031 A 
ENDBRANCH  13  21
ENDBRANCH   2  10
TORSDOF 6
