REMARK  4 active torsions:
REMARK  status: ('A' for Active; 'I' for Inactive)
REMARK    1  A    between atoms: N_2  and  C_14 
REMARK    2  A    between atoms: O_28  and  C_7 
REMARK    3  A    between atoms: O_23  and  C_22 
REMARK    4  A    between atoms: C_27  and  O_23 
ROOT
ATOM      1  C   UNL d   1      -0.431  -0.842  -0.469  0.00  0.00     0.003 C 
ATOM      2  C   UNL d   1       0.227   0.021  -1.595  0.00  0.00     0.002 C 
ATOM      3  C   UNL d   1      -0.379  -0.187  -3.030  0.00  0.00    -0.001 C 
ATOM      4  C   UNL d   1       0.032  -1.619  -3.456  0.00  0.00     0.023 C 
ATOM      5  C   UNL d   1      -0.796  -2.268  -4.552  0.00  0.00    -0.047 C 
ATOM      6  C   UNL d   1      -1.427   0.143   0.268  0.00  0.00     0.128 C 
ATOM      7  C   UNL d   1      -2.172  -2.034  -4.550  0.00  0.00    -0.049 C 
ATOM      8  C   UNL d   1      -2.856   0.179  -0.123  0.00  0.00    -0.078 C 
ATOM      9  C   UNL d   1      -0.951  -2.161  -1.092  0.00  0.00     0.014 C 
ATOM     10  C   UNL d   1      -0.004  -2.606  -2.234  0.00  0.00     0.010 C 
ATOM     11  C   UNL d   1       0.280   1.428  -1.027  0.00  0.00     0.010 C 
ATOM     12  C   UNL d   1      -1.893   0.070  -3.167  0.00  0.00     0.010 C 
ATOM     13  C   UNL d   1      -4.009   0.367  -0.387  0.00  0.00     0.015 C 
ATOM     14  C   UNL d   1      -0.271  -3.420  -5.149  0.00  0.00     0.011 C 
ATOM     15  C   UNL d   1      -3.023  -3.134  -4.730  0.00  0.00     0.044 C 
ATOM     16  C   UNL d   1      -2.633  -0.623  -4.313  0.00  0.00     0.039 C 
ATOM     17  C   UNL d   1      -0.824   1.551   0.017  0.00  0.00     0.052 C 
ATOM     18  C   UNL d   1      -2.468  -4.380  -5.047  0.00  0.00     0.076 C 
ATOM     19  C   UNL d   1      -1.117  -4.487  -5.377  0.00  0.00     0.038 C 
ATOM     20  C   UNL d   1       0.661  -1.280   0.559  0.00  0.00     0.020 C 
ENDROOT
BRANCH   6  21
ATOM     21  O   UNL d   1      -1.423  -0.082   1.679  0.00  0.00    -0.377 OA
ATOM     22  H   UNL d   1      -2.130  -0.726   1.867  0.00  0.00     0.211 HD
ENDBRANCH   6  21
BRANCH  18  23
ATOM     23  O   UNL d   1      -3.065  -5.604  -4.857  0.00  0.00    -0.311 OA
BRANCH  23  24
ATOM     24  C   UNL d   1      -4.382  -5.822  -5.130  0.00  0.00     0.076 A 
ATOM     25  C   UNL d   1      -5.043  -5.283  -6.230  0.00  0.00     0.040 A 
ATOM     26  C   UNL d   1      -6.344  -5.698  -6.524  0.00  0.00     0.039 A 
ATOM     27  C   UNL d   1      -6.965  -6.666  -5.719  0.00  0.00     0.103 A 
ATOM     28  C   UNL d   1      -6.300  -7.215  -4.616  0.00  0.00     0.039 A 
ATOM     29  C   UNL d   1      -5.005  -6.788  -4.328  0.00  0.00     0.040 A 
BRANCH  27  30
ATOM     30  N   UNL d   1      -8.316  -7.127  -6.055  0.00  0.00    -0.116 N 
ATOM     31  O   UNL d   1      -8.914  -6.544  -6.969  0.00  0.00    -0.532 OA
ATOM     32  O   UNL d   1      -8.780  -8.078  -5.404  0.00  0.00    -0.532 OA
ENDBRANCH  27  30
ENDBRANCH  23  24
ENDBRANCH  18  23
TORSDOF 4
