REMARK  2 active torsions:
REMARK  status: ('A' for Active; 'I' for Inactive)
REMARK    1  A    between atoms: N_4  and  C_1 
REMARK       I    between atoms: C_3  and  N_5 
REMARK    2  A    between atoms: C_7  and  C_3 
ROOT
ATOM      1  C   UNL d   1       3.061   6.668  -0.719  0.00  0.00     0.260 C 
ATOM      2  N   UNL d   1       2.222   2.620   0.098  0.00  0.00    -0.266 NA
ATOM      3  N   UNL d   1       2.954   5.382  -0.185  0.00  0.00    -0.345 N 
ATOM      4  C   UNL d   1       2.945   3.066  -1.113  0.00  0.00     0.117 C 
ATOM      5  C   UNL d   1       1.297   3.661   0.589  0.00  0.00     0.117 C 
ATOM      6  C   UNL d   1       3.783   4.309  -0.763  0.00  0.00     0.141 C 
ATOM      7  C   UNL d   1       2.083   4.950   0.920  0.00  0.00     0.141 C 
ATOM      8  O   UNL d   1       3.773   6.863  -1.707  0.00  0.00    -0.267 OA
ENDROOT
BRANCH   2   9
ATOM      9  C   UNL d   1       1.599   1.372  -0.051  0.00  0.00     0.096 A 
ATOM     10  C   UNL d   1       1.267   0.569   1.065  0.00  0.00     0.037 A 
ATOM     11  C   UNL d   1       0.703  -0.667   0.794  0.00  0.00     0.088 A 
ATOM     12  C   UNL d   1       1.425   0.751   2.484  0.00  0.00     0.025 A 
ATOM     13  S   UNL d   1       0.349  -1.557   2.205  0.00  0.00    -0.083 SA
ATOM     14  N   UNL d   1       0.445  -1.178  -0.420  0.00  0.00    -0.346 N 
ATOM     15  C   UNL d   1       0.962  -0.321   3.215  0.00  0.00     0.053 A 
ATOM     16  C   UNL d   1       0.812  -0.351  -1.401  0.00  0.00     0.182 A 
ATOM     17  HN  UNL d   1       0.017  -2.091  -0.575  1.00  0.00     0.167 HD
ATOM     18  N   UNL d   1       1.367   0.866  -1.286  0.00  0.00    -0.342 N 
ATOM     19  HN  UNL d   1       1.610   1.403  -2.118  1.00  0.00     0.167 HD
ENDBRANCH   2   9
BRANCH   1  20
ATOM     20  C   UNL d   1       2.315   7.761  -0.108  0.00  0.00     0.072 A 
ATOM     21  S   UNL d   1       1.547   8.895  -1.150  0.00  0.00    -0.097 SA
ATOM     22  C   UNL d   1       0.942   9.802   0.163  0.00  0.00     0.050 A 
ATOM     23  C   UNL d   1       1.327   9.276   1.375  0.00  0.00     0.009 A 
ATOM     24  C   UNL d   1       2.146   8.118   1.218  0.00  0.00     0.025 A 
ENDBRANCH   1  20
TORSDOF 2
