REMARK  6 active torsions:
REMARK  status: ('A' for Active; 'I' for Inactive)
REMARK    1  A    between atoms: O_9  and  N_1 
REMARK    2  A    between atoms: C_3  and  O_9 
REMARK       I    between atoms: N_6  and  C_3 
REMARK    3  A    between atoms: C_10  and  C_4 
REMARK    4  A    between atoms: N_17  and  C_4 
REMARK    5  A    between atoms: C_5  and  C_11 
REMARK    6  A    between atoms: C_18  and  N_6 
ROOT
ATOM      1  N   UNL d   1       0.968  -0.527   0.126  0.00  0.00    -0.244 N 
ATOM      2  HN  UNL d   1       1.913  -0.871   0.294  1.00  0.00     0.196 HD
ATOM      3  C   UNL d   1       0.346  -0.541  -1.022  0.00  0.00     0.109 C 
ENDROOT
BRANCH   3   4
ATOM      4  C   UNL d   1       1.067  -1.023  -2.240  0.00  0.00     0.004 A 
ATOM      5  C   UNL d   1       2.086  -1.971  -2.139  0.00  0.00     0.015 A 
ATOM      6  C   UNL d   1       2.778  -2.378  -3.286  0.00  0.00     0.010 A 
ATOM      7  C   UNL d   1       2.472  -1.837  -4.549  0.00  0.00    -0.035 A 
ATOM      8  C   UNL d   1       1.431  -0.897  -4.635  0.00  0.00     0.010 A 
ATOM      9  C   UNL d   1       0.736  -0.493  -3.492  0.00  0.00     0.015 A 
BRANCH   7  10
ATOM     10  C   UNL d   1       3.281  -2.250  -5.765  0.00  0.00     0.141 C 
ATOM     11  S   UNL d   1       4.172  -0.838  -6.504  0.00  0.00    -0.148 SA
ATOM     12  C   UNL d   1       3.932  -1.324  -8.229  0.00  0.00     0.085 C 
ATOM     13  C   UNL d   1       2.527  -1.877  -8.357  0.00  0.00     0.085 C 
ATOM     14  S   UNL d   1       2.269  -3.085  -7.032  0.00  0.00    -0.148 SA
ENDBRANCH   7  10
ENDBRANCH   3   4
BRANCH   3  15
ATOM     15  N   UNL d   1      -0.957  -0.117  -1.175  0.00  0.00    -0.286 NA
ATOM     16  H   UNL d   1      -1.437  -0.002  -0.286  0.00  0.00     0.125 HD
ATOM     17  H   UNL d   1      -1.514  -0.630  -1.849  0.00  0.00     0.125 HD
ENDBRANCH   3  15
BRANCH   1  18
ATOM     18  O   UNL d   1       0.109   0.048   1.101  0.00  0.00    -0.179 OA
BRANCH  18  19
ATOM     19  C   UNL d   1       0.712   0.276   2.323  0.00  0.00     0.387 C 
ATOM     20  N   UNL d   1       1.958  -0.289   2.451  0.00  0.00    -0.301 N 
ATOM     21  H   UNL d   1       2.245  -0.771   1.606  0.00  0.00     0.171 HD
ATOM     22  O   UNL d   1       0.103   0.907   3.181  0.00  0.00    -0.236 OA
BRANCH  20  23
ATOM     23  C   UNL d   1       2.803  -0.281   3.577  0.00  0.00     0.036 A 
ATOM     24  C   UNL d   1       2.503   0.400   4.761  0.00  0.00     0.029 A 
ATOM     25  C   UNL d   1       3.386   0.370   5.847  0.00  0.00     0.002 A 
ATOM     26  C   UNL d   1       4.576  -0.344   5.761  0.00  0.00     0.000 A 
ATOM     27  C   UNL d   1       4.884  -1.029   4.588  0.00  0.00     0.002 A 
ATOM     28  C   UNL d   1       4.003  -0.996   3.501  0.00  0.00     0.029 A 
ENDBRANCH  20  23
ENDBRANCH  18  19
ENDBRANCH   1  18
TORSDOF 6
