REMARK  3 active torsions:
REMARK  status: ('A' for Active; 'I' for Inactive)
REMARK       I    between atoms: N_2  and  C_1 
REMARK    1  A    between atoms: C_7  and  C_1 
REMARK    2  A    between atoms: C_8  and  N_2 
REMARK    3  A    between atoms: O_19  and  C_16 
ROOT
ATOM      1  C   UNL d   1       1.137   0.011   0.079  0.00  0.00     0.256 C 
ATOM      2  N   UNL d   1       0.539   0.001  -1.170  0.00  0.00    -0.323 N 
ATOM      3  O   UNL d   1       2.333  -0.109   0.321  0.00  0.00    -0.267 OA
ATOM      4  H   UNL d   1      -0.429   0.289  -1.222  0.00  0.00     0.169 HD
ENDROOT
BRANCH   2   5
ATOM      5  C   UNL d   1       1.189  -0.211  -2.408  0.00  0.00     0.035 A 
ATOM      6  C   UNL d   1       2.510  -0.661  -2.511  0.00  0.00     0.043 A 
ATOM      7  C   UNL d   1       3.109  -0.809  -3.779  0.00  0.00    -0.006 A 
ATOM      8  C   UNL d   1       4.400  -1.216  -4.216  0.00  0.00     0.030 A 
ATOM      9  C   UNL d   1       2.360  -0.513  -4.916  0.00  0.00     0.042 A 
ATOM     10  C   UNL d   1       4.417  -1.143  -5.590  0.00  0.00     0.089 A 
ATOM     11  N   UNL d   1       3.182  -0.719  -6.002  0.00  0.00    -0.365 N 
ATOM     12  H   UNL d   1       2.909  -0.569  -6.964  0.00  0.00     0.165 HD
ATOM     13  C   UNL d   1       1.029  -0.091  -4.848  0.00  0.00     0.033 A 
ATOM     14  C   UNL d   1       0.459   0.049  -3.574  0.00  0.00     0.032 A 
ENDBRANCH   2   5
BRANCH   1  15
ATOM     15  C   UNL d   1       0.222   0.251   1.229  0.00  0.00     0.032 A 
ATOM     16  C   UNL d   1      -1.083  -0.257   1.263  0.00  0.00     0.020 A 
ATOM     17  C   UNL d   1      -1.894  -0.027   2.382  0.00  0.00     0.038 A 
ATOM     18  C   UNL d   1      -1.406   0.707   3.466  0.00  0.00     0.068 A 
ATOM     19  C   UNL d   1      -0.096   1.185   3.441  0.00  0.00     0.038 A 
ATOM     20  C   UNL d   1       0.716   0.962   2.327  0.00  0.00     0.020 A 
BRANCH  18  21
ATOM     21  O   UNL d   1      -2.096   0.976   4.615  0.00  0.00    -0.356 OA
ATOM     22  C   UNL d   1      -3.513   1.007   4.495  0.00  0.00     0.210 C 
ENDBRANCH  18  21
ENDBRANCH   1  15
TORSDOF 3
