REMARK  2 active torsions:
REMARK  status: ('A' for Active; 'I' for Inactive)
REMARK    1  A    between atoms: N_5  and  C_1 
REMARK       I    between atoms: C_2  and  N_5 
REMARK       I    between atoms: N_7  and  C_2 
REMARK    2  A    between atoms: C_11  and  N_7 
ROOT
ATOM      1  C   UNL d   1       0.068  -3.936  -0.473  0.00  0.00     0.325 C 
ATOM      2  N   UNL d   1       0.974  -2.965  -0.173  0.00  0.00    -0.307 N 
ATOM      3  N   UNL d   1      -1.166  -3.824   0.117  0.00  0.00    -0.309 N 
ATOM      4  O   UNL d   1       0.460  -4.915  -1.109  0.00  0.00    -0.247 OA
ATOM      5  H   UNL d   1       1.926  -3.293  -0.296  0.00  0.00     0.170 HD
ATOM      6  H   UNL d   1      -1.188  -3.212   0.923  0.00  0.00     0.170 HD
ENDROOT
BRANCH   2   7
ATOM      7  C   UNL d   1       0.835  -1.593   0.008  0.00  0.00     0.054 A 
ATOM      8  C   UNL d   1      -0.235  -0.696  -0.386  0.00  0.00     0.008 A 
ATOM      9  C   UNL d   1       0.100   0.637  -0.102  0.00  0.00     0.017 A 
ATOM     10  C   UNL d   1      -1.467  -0.907  -1.063  0.00  0.00     0.015 A 
ATOM     11  C   UNL d   1      -0.742   1.717  -0.442  0.00  0.00     0.020 A 
ATOM     12  S   UNL d   1       1.634   0.768   0.662  0.00  0.00    -0.099 SA
ATOM     13  C   UNL d   1      -1.947   1.462  -1.090  0.00  0.00     0.001 A 
ATOM     14  C   UNL d   1      -2.310   0.162  -1.396  0.00  0.00     0.001 A 
ATOM     15  C   UNL d   1       1.903  -0.903   0.547  0.00  0.00     0.081 A 
ENDBRANCH   2   7
BRANCH   3  16
ATOM     16  C   UNL d   1      -2.195  -4.785  -0.012  0.00  0.00     0.038 A 
ATOM     17  C   UNL d   1      -3.093  -4.952   1.048  0.00  0.00     0.056 A 
ATOM     18  C   UNL d   1      -4.079  -5.942   0.977  0.00  0.00     0.074 A 
ATOM     19 CL   UNL d   1      -5.128  -6.188   2.321  0.00  0.00    -0.081 Cl
ATOM     20  C   UNL d   1      -4.197  -6.735  -0.163  0.00  0.00     0.138 A 
ATOM     21  C   UNL d   1      -3.338  -6.547  -1.239  0.00  0.00     0.046 A 
ATOM     22  F   UNL d   1      -5.135  -7.689  -0.245  0.00  0.00    -0.204 F 
ATOM     23  C   UNL d   1      -2.337  -5.576  -1.161  0.00  0.00     0.032 A 
ENDBRANCH   3  16
TORSDOF 2
