REMARK  3 active torsions:
REMARK  status: ('A' for Active; 'I' for Inactive)
REMARK    1  A    between atoms: C_3  and  C_1 
REMARK    2  A    between atoms: C_15  and  N_2 
REMARK    3  A    between atoms: C_14  and  C_6 
ROOT
ATOM      1  C   UNL d   1      -0.150  -1.383   0.009  0.00  0.00     0.065 C 
ATOM      2  N   UNL d   1       1.010   0.499   0.035  0.00  0.00    -0.260 N 
ATOM      3  N   UNL d   1      -0.293   0.873   0.165  0.00  0.00    -0.297 N 
ATOM      4  HN  UNL d   1      -0.655   1.815   0.313  1.00  0.00     0.187 HD
ATOM      5  C   UNL d   1       1.140  -0.885   0.054  0.00  0.00     0.047 C 
ATOM      6  C   UNL d   1      -0.997  -0.259   0.057  0.00  0.00     0.039 C 
ATOM      7  C   UNL d   1       2.429  -1.620   0.185  0.00  0.00     0.071 C 
ATOM      8  C   UNL d   1      -2.480  -0.208   0.043  0.00  0.00     0.071 C 
ENDROOT
BRANCH   1   9
ATOM      9  C   UNL d   1      -0.528  -2.822  -0.035  0.00  0.00     0.178 A 
ATOM     10  O   UNL d   1      -1.821  -3.287  -0.096  0.00  0.00    -0.269 OA
ATOM     11  C   UNL d   1      -1.641  -4.651  -0.135  0.00  0.00     0.249 A 
ATOM     12  N   UNL d   1      -0.369  -4.990  -0.085  0.00  0.00    -0.274 N 
ATOM     13  N   UNL d   1       0.343  -3.814  -0.028  0.00  0.00    -0.277 N 
ATOM     14  HN  UNL d   1       0.012  -5.936  -0.089  1.00  0.00     0.189 HD
ATOM     15  HN  UNL d   1       1.358  -3.725   0.012  1.00  0.00     0.189 HD
BRANCH  11  16
ATOM     16  C   UNL d   1      -2.844  -5.516  -0.237  0.00  0.00     0.457 C 
ATOM     17  F   UNL d   1      -3.996  -4.798  -0.358  0.00  0.00    -0.163 F 
ATOM     18  F   UNL d   1      -2.794  -6.338  -1.319  0.00  0.00    -0.163 F 
ATOM     19  F   UNL d   1      -3.003  -6.313   0.852  0.00  0.00    -0.163 F 
ENDBRANCH  11  16
ENDBRANCH   1   9
BRANCH   2  20
ATOM     20  C   UNL d   1       2.019   1.496  -0.077  0.00  0.00     0.056 A 
ATOM     21  C   UNL d   1       3.200   1.256  -0.791  0.00  0.00     0.031 A 
ATOM     22  C   UNL d   1       4.201   2.229  -0.836  0.00  0.00     0.002 A 
ATOM     23  C   UNL d   1       4.026   3.443  -0.175  0.00  0.00     0.000 A 
ATOM     24  C   UNL d   1       2.834   3.704   0.501  0.00  0.00     0.002 A 
ATOM     25  C   UNL d   1       1.822   2.742   0.535  0.00  0.00     0.031 A 
ENDBRANCH   2  20
TORSDOF 3
