REMARK  1 active torsions:
REMARK  status: ('A' for Active; 'I' for Inactive)
REMARK    1  A    between atoms: C_8  and  N_7 
ROOT
ATOM      1  C   UNL d   1       3.108  -0.022   1.300  0.00  0.00     0.166 A 
ATOM      2  S   UNL d   1       2.531   1.625   1.070  0.00  0.00    -0.022 SA
ATOM      3  C   UNL d   1       2.616   1.849   2.793  0.00  0.00     0.160 A 
ATOM      4  N   UNL d   1       3.341  -0.356   2.530  0.00  0.00    -0.278 N 
ATOM      5  HN  UNL d   1       3.680  -1.269   2.833  1.00  0.00     0.189 HD
ATOM      6  N   UNL d   1       3.068   0.690   3.359  0.00  0.00    -0.282 N 
ATOM      7  N   UNL d   1       3.218  -0.750   0.153  0.00  0.00    -0.334 N 
ATOM      8  S   UNL d   1       2.221   3.213   3.643  0.00  0.00    -0.051 SA
ATOM      9  H   UNL d   1       3.183   0.575   4.360  0.00  0.00     0.188 HD
ATOM     10  H   UNL d   1       2.822  -0.327  -0.679  0.00  0.00     0.168 HD
ENDROOT
BRANCH   7  11
ATOM     11  C   UNL d   1       3.599  -2.097  -0.002  0.00  0.00     0.056 A 
ATOM     12  C   UNL d   1       3.204  -2.810  -1.155  0.00  0.00     0.062 A 
ATOM     13  C   UNL d   1       3.522  -4.159  -1.329  0.00  0.00     0.045 A 
ATOM     14 CL   UNL d   1       2.287  -2.024  -2.398  0.00  0.00    -0.082 Cl
ATOM     15  C   UNL d   1       4.252  -4.819  -0.346  0.00  0.00     0.012 A 
ATOM     16  C   UNL d   1       4.665  -4.141   0.797  0.00  0.00     0.021 A 
ATOM     17 BR   UNL d   1       4.684  -6.645  -0.562  0.00  0.00    -0.051 Br
ATOM     18  C   UNL d   1       4.336  -2.792   0.967  0.00  0.00     0.032 A 
ENDBRANCH   7  11
TORSDOF 1
