REMARK  4 active torsions:
REMARK  status: ('A' for Active; 'I' for Inactive)
REMARK    1  A    between atoms: N_2  and  C_1 
REMARK       I    between atoms: C_3  and  N_2 
REMARK    2  A    between atoms: C_5  and  C_3 
REMARK    3  A    between atoms: N_4  and  C_9 
REMARK    4  A    between atoms: C_9  and  C_5 
ROOT
ATOM      1  N   UNL d   1       0.160   2.623   0.576  0.00  0.00    -0.326 N 
ATOM      2  C   UNL d   1       0.997   3.389  -0.203  0.00  0.00     0.223 C 
ATOM      3  O   UNL d   1       0.750   4.508  -0.639  0.00  0.00    -0.273 OA
ATOM      4  H   UNL d   1       0.621   1.980   1.207  0.00  0.00     0.169 HD
ENDROOT
BRANCH   1   5
ATOM      5  C   UNL d   1      -1.198   2.900   0.878  0.00  0.00     0.046 A 
ATOM      6  C   UNL d   1      -2.151   3.265  -0.099  0.00  0.00    -0.035 A 
ATOM      7  C   UNL d   1      -3.510   3.332   0.269  0.00  0.00     0.009 A 
ATOM      8  C   UNL d   1      -1.841   3.595  -1.533  0.00  0.00     0.050 C 
ATOM      9  C   UNL d   1      -3.929   3.030   1.560  0.00  0.00     0.001 A 
ATOM     10  C   UNL d   1      -2.987   2.709   2.529  0.00  0.00     0.009 A 
ATOM     11  C   UNL d   1      -1.622   2.667   2.210  0.00  0.00    -0.035 A 
ATOM     12  C   UNL d   1      -0.645   2.416   3.331  0.00  0.00     0.050 C 
ENDBRANCH   1   5
BRANCH   2  13
ATOM     13  C   UNL d   1       2.305   2.668  -0.516  0.00  0.00     0.133 C 
BRANCH  13  14
ATOM     14  C   UNL d   1       3.410   3.677  -0.829  0.00  0.00     0.282 C 
BRANCH  14  15
ATOM     15  N   UNL d   1       4.713   3.051  -1.133  0.00  0.00     0.093 N 
ATOM     16  C   UNL d   1       5.782   4.082  -1.178  0.00  0.00     0.298 C 
ATOM     17  C   UNL d   1       5.718   4.992  -2.418  0.00  0.00     0.198 C 
ATOM     18  O   UNL d   1       5.769   4.224  -3.627  0.00  0.00    -0.388 OA
ATOM     19  C   UNL d   1       4.704   3.265  -3.664  0.00  0.00     0.198 C 
ATOM     20  C   UNL d   1       4.734   2.340  -2.434  0.00  0.00     0.298 C 
ENDBRANCH  14  15
ENDBRANCH  13  14
ENDBRANCH   2  13
TORSDOF 4
