REMARK  1 active torsions:
REMARK  status: ('A' for Active; 'I' for Inactive)
REMARK    1  A    between atoms: C_8  and  C_1 
ROOT
ATOM      1  C   UNL d   1       2.294  -0.708   0.008  0.00  0.00     0.163 A 
ATOM      2  N   UNL d   1       1.208  -1.397   0.128  0.00  0.00    -0.335 N 
ATOM      3  HN  UNL d   1       1.230  -2.413   0.214  1.00  0.00     0.168 HD
ATOM      4  O   UNL d   1       2.389   0.641  -0.036  0.00  0.00    -0.257 OA
ATOM      5  C   UNL d   1       1.270   1.393   0.066  0.00  0.00     0.302 A 
ATOM      6  C   UNL d   1      -0.018   0.692   0.093  0.00  0.00     0.066 A 
ATOM      7  C   UNL d   1       0.007  -0.695   0.136  0.00  0.00     0.052 A 
ATOM      8  C   UNL d   1      -1.194  -1.400   0.128  0.00  0.00     0.054 A 
ATOM      9  C   UNL d   1      -1.230   1.391   0.039  0.00  0.00     0.022 A 
ATOM     10  O   UNL d   1       1.317   2.617   0.104  0.00  0.00    -0.259 OA
ATOM     11  C   UNL d   1      -2.407  -0.714   0.057  0.00  0.00     0.036 A 
ATOM     12  C   UNL d   1      -2.431   0.681   0.014  0.00  0.00     0.025 A 
ATOM     13 CL   UNL d   1      -3.884  -1.593  -0.003  0.00  0.00    -0.084 Cl
ENDROOT
BRANCH   1  14
ATOM     14  C   UNL d   1       3.642  -1.314  -0.160  0.00  0.00     0.021 A 
ATOM     15  C   UNL d   1       3.843  -2.507  -0.889  0.00  0.00    -0.048 A 
ATOM     16  C   UNL d   1       2.749  -3.288  -1.564  0.00  0.00     0.049 C 
ATOM     17  C   UNL d   1       5.148  -3.025  -0.988  0.00  0.00     0.007 A 
ATOM     18  C   UNL d   1       6.234  -2.365  -0.414  0.00  0.00     0.001 A 
ATOM     19  C   UNL d   1       6.035  -1.180   0.283  0.00  0.00     0.001 A 
ATOM     20  C   UNL d   1       4.747  -0.659   0.417  0.00  0.00     0.016 A 
ENDBRANCH   1  14
TORSDOF 1
