REMARK  3 active torsions:
REMARK  status: ('A' for Active; 'I' for Inactive)
REMARK    1  A    between atoms: C_2  and  S_1 
REMARK    2  A    between atoms: N_3  and  S_1 
REMARK    3  A    between atoms: N_12  and  C_8 
ROOT
ATOM      1  C   UNL d   1       0.252  -1.730   0.081  0.00  0.00     0.085 A 
ATOM      2  C   UNL d   1      -1.098  -1.983   0.458  0.00  0.00    -0.001 A 
ATOM      3  C   UNL d   1      -1.464  -3.318   0.810  0.00  0.00    -0.003 A 
ATOM      4  C   UNL d   1      -2.777  -3.588   1.296  0.00  0.00     0.017 A 
ATOM      5  C   UNL d   1       1.181  -2.775  -0.044  0.00  0.00     0.026 A 
ATOM      6  C   UNL d   1      -2.096  -0.985   0.532  0.00  0.00     0.014 A 
ATOM      7  C   UNL d   1      -0.488  -4.335   0.691  0.00  0.00     0.014 A 
ATOM      8  C   UNL d   1       0.806  -4.077   0.247  0.00  0.00     0.002 A 
ATOM      9  C   UNL d   1      -3.366  -1.253   1.036  0.00  0.00     0.003 A 
ATOM     10  C   UNL d   1      -3.683  -2.534   1.463  0.00  0.00     0.024 A 
ENDROOT
BRANCH   1  11
ATOM     11  S   UNL d   1       0.933  -0.072   0.098  0.00  0.00     0.244 S 
ATOM     12  O   UNL d   1       2.364  -0.186  -0.124  0.00  0.00    -0.206 OA
ATOM     13  O   UNL d   1       0.453   0.585   1.293  0.00  0.00    -0.206 OA
BRANCH  11  14
ATOM     14  N   UNL d   1       0.276   0.754  -1.243  0.00  0.00    -0.202 NA
ATOM     15  C   UNL d   1       0.571   0.230  -2.611  0.00  0.00     0.134 C 
ATOM     16  C   UNL d   1       1.984   0.605  -3.081  0.00  0.00     0.183 C 
ATOM     17  O   UNL d   1       2.193   2.025  -3.034  0.00  0.00    -0.389 OA
ATOM     18  C   UNL d   1       1.989   2.533  -1.707  0.00  0.00     0.183 C 
ATOM     19  C   UNL d   1       0.566   2.234  -1.218  0.00  0.00     0.134 C 
ENDBRANCH  11  14
ENDBRANCH   1  11
BRANCH   4  20
ATOM     20  N   UNL d   1      -3.137  -4.840   1.844  0.00  0.00    -0.302 NA
ATOM     21  H   UNL d   1      -2.699  -5.633   1.393  0.00  0.00     0.124 HD
ATOM     22  H   UNL d   1      -4.140  -4.971   1.936  0.00  0.00     0.124 HD
ENDBRANCH   4  20
TORSDOF 3
