REMARK  7 active torsions:
REMARK  status: ('A' for Active; 'I' for Inactive)
REMARK    1  A    between atoms: C_6  and  C_1 
REMARK       I    between atoms: C_2  and  N_5 
REMARK    2  A    between atoms: C_7  and  C_2 
REMARK    3  A    between atoms: C_3  and  C_18 
REMARK    4  A    between atoms: N_5  and  C_4 
REMARK    5  A    between atoms: C_8  and  C_7 
REMARK    6  A    between atoms: O_12  and  C_11 
REMARK    7  A    between atoms: C_18  and  O_12 
ROOT
ATOM      1  C   UNL d   1       0.014   1.066  -3.263  0.00  0.00     0.069 A 
ATOM      2  C   UNL d   1       0.891  -0.639  -1.750  0.00  0.00     0.050 A 
ATOM      3  C   UNL d   1       0.628   0.703  -2.056  0.00  0.00     0.048 A 
ATOM      4  C   UNL d   1      -0.357   0.069  -4.190  0.00  0.00     0.095 A 
ATOM      5  C   UNL d   1       0.443  -1.627  -2.629  0.00  0.00     0.019 A 
ATOM      6  C   UNL d   1      -0.180  -1.277  -3.830  0.00  0.00     0.040 A 
ENDROOT
BRANCH   1   7
ATOM      7  N   UNL d   1      -0.285   2.437  -3.419  0.00  0.00    -0.324 N 
ATOM      8  C   UNL d   1       0.124   3.200  -4.502  0.00  0.00     0.227 C 
ATOM      9  O   UNL d   1       0.883   2.812  -5.392  0.00  0.00    -0.273 OA
ATOM     10  H   UNL d   1      -0.377   2.973  -2.564  0.00  0.00     0.169 HD
BRANCH   8  11
ATOM     11  C   UNL d   1      -0.428   4.617  -4.462  0.00  0.00     0.149 C 
BRANCH  11  12
ATOM     12  C   UNL d   1       0.561   5.598  -3.903  0.00  0.00    -0.009 A 
ATOM     13  S   UNL d   1       0.614   5.923  -2.217  0.00  0.00    -0.106 SA
ATOM     14  C   UNL d   1       1.817   7.125  -2.417  0.00  0.00     0.050 A 
ATOM     15  C   UNL d   1       2.184   7.273  -3.736  0.00  0.00     0.008 A 
ATOM     16  C   UNL d   1       1.461   6.389  -4.590  0.00  0.00     0.015 A 
ENDBRANCH  11  12
ENDBRANCH   8  11
ENDBRANCH   1   7
BRANCH   4  17
ATOM     17  O   UNL d   1      -0.963   0.449  -5.366  0.00  0.00    -0.340 OA
BRANCH  17  18
ATOM     18  C   UNL d   1      -0.982  -0.548  -6.403  0.00  0.00     0.293 C 
BRANCH  18  19
ATOM     19  C   UNL d   1      -1.287   0.017  -7.786  0.00  0.00     0.408 C 
ATOM     20  F   UNL d   1      -1.520   1.346  -7.787  0.00  0.00    -0.169 F 
ATOM     21  F   UNL d   1      -0.268  -0.227  -8.643  0.00  0.00    -0.169 F 
ATOM     22  F   UNL d   1      -2.387  -0.585  -8.308  0.00  0.00    -0.169 F 
ENDBRANCH  18  19
ENDBRANCH  17  18
ENDBRANCH   4  17
BRANCH   2  23
ATOM     23  C   UNL d   1       1.630  -1.025  -0.495  0.00  0.00     0.417 C 
ATOM     24  F   UNL d   1       2.168   0.037   0.167  0.00  0.00    -0.166 F 
ATOM     25  F   UNL d   1       2.665  -1.875  -0.740  0.00  0.00    -0.166 F 
ATOM     26  F   UNL d   1       0.828  -1.660   0.403  0.00  0.00    -0.166 F 
ENDBRANCH   2  23
TORSDOF 7
