REMARK  5 active torsions:
REMARK  status: ('A' for Active; 'I' for Inactive)
REMARK    1  A    between atoms: C_9  and  C_1 
REMARK    2  A    between atoms: C_10  and  C_2 
REMARK    3  A    between atoms: C_8  and  N_3 
REMARK    4  A    between atoms: O_18  and  C_9 
REMARK    5  A    between atoms: O_19  and  C_10 
ROOT
ATOM      1  C   UNL d   1      -0.283  -1.367  -0.027  0.00  0.00     0.167 A 
ATOM      2  C   UNL d   1       0.944  -0.712  -0.045  0.00  0.00     0.160 A 
ATOM      3  N   UNL d   1      -1.210  -0.348  -0.166  0.00  0.00    -0.234 N 
ATOM      4  N   UNL d   1      -0.567   0.829  -0.356  0.00  0.00    -0.234 N 
ATOM      5  HN  UNL d   1      -1.011   1.721  -0.573  1.00  0.00     0.209 HD
ATOM      6  N   UNL d   1       0.730   0.631  -0.212  0.00  0.00    -0.278 N 
ATOM      7  HN  UNL d   1       1.449   1.354  -0.224  1.00  0.00     0.189 HD
ENDROOT
BRANCH   3   8
ATOM      8  C   UNL d   1      -2.631  -0.345  -0.082  0.00  0.00     0.061 A 
ATOM      9  C   UNL d   1      -3.333  -1.317   0.640  0.00  0.00     0.055 A 
ATOM     10  C   UNL d   1      -4.727  -1.250   0.716  0.00  0.00     0.037 A 
ATOM     11 CL   UNL d   1      -5.585  -2.426   1.636  0.00  0.00    -0.084 Cl
ATOM     12  C   UNL d   1      -5.434  -0.235   0.075  0.00  0.00     0.048 A 
ATOM     13  C   UNL d   1      -4.733   0.735  -0.634  0.00  0.00     0.037 A 
ATOM     14  C   UNL d   1      -3.341   0.698  -0.703  0.00  0.00     0.055 A 
ATOM     15 CL   UNL d   1      -5.592   1.991  -1.437  0.00  0.00    -0.084 Cl
ENDBRANCH   3   8
BRANCH   1  16
ATOM     16  C   UNL d   1      -0.579  -2.764  -0.022  0.00  0.00     0.314 C 
ATOM     17  O   UNL d   1      -1.466  -3.294  -0.676  0.00  0.00    -0.257 OA
BRANCH  16  18
ATOM     18  O   UNL d   1       0.230  -3.416   0.851  0.00  0.00    -0.321 OA
ATOM     19  C   UNL d   1       0.094  -4.839   0.827  0.00  0.00     0.213 C 
ENDBRANCH  16  18
ENDBRANCH   1  16
BRANCH   2  20
ATOM     20  C   UNL d   1       2.292  -1.266  -0.022  0.00  0.00     0.313 C 
ATOM     21  O   UNL d   1       2.552  -2.455  -0.147  0.00  0.00    -0.257 OA
BRANCH  20  22
ATOM     22  O   UNL d   1       3.238  -0.289   0.122  0.00  0.00    -0.321 OA
ATOM     23  C   UNL d   1       4.587  -0.753   0.094  0.00  0.00     0.213 C 
ENDBRANCH  20  22
ENDBRANCH   2  20
TORSDOF 5
