REMARK  3 active torsions:
REMARK  status: ('A' for Active; 'I' for Inactive)
REMARK    1  A    between atoms: N_6  and  C_1 
REMARK       I    between atoms: C_2  and  N_6 
REMARK       I    between atoms: N_9  and  C_2 
REMARK    2  A    between atoms: N_3  and  C_8 
REMARK    3  A    between atoms: C_14  and  N_9 
ROOT
ATOM      1  C   UNL d   1      -0.034  -4.232  -0.256  0.00  0.00     0.325 C 
ATOM      2  N   UNL d   1       0.314  -5.533  -0.135  0.00  0.00    -0.307 N 
ATOM      3  N   UNL d   1      -1.281  -3.837   0.099  0.00  0.00    -0.309 N 
ATOM      4  O   UNL d   1       0.862  -3.469  -0.627  0.00  0.00    -0.247 OA
ATOM      5  H   UNL d   1       1.317  -5.588  -0.278  0.00  0.00     0.170 HD
ATOM      6  H   UNL d   1      -1.699  -4.405   0.823  0.00  0.00     0.170 HD
ENDROOT
BRANCH   2   7
ATOM      7  C   UNL d   1      -0.305  -6.769   0.039  0.00  0.00     0.054 A 
ATOM      8  C   UNL d   1      -1.689  -7.231   0.091  0.00  0.00     0.008 A 
ATOM      9  C   UNL d   1      -1.740  -8.628   0.272  0.00  0.00     0.017 A 
ATOM     10  C   UNL d   1      -2.954  -6.590  -0.031  0.00  0.00     0.015 A 
ATOM     11  C   UNL d   1      -2.949  -9.350   0.374  0.00  0.00     0.020 A 
ATOM     12  S   UNL d   1      -0.182  -9.341   0.332  0.00  0.00    -0.099 SA
ATOM     13  C   UNL d   1      -4.157  -8.668   0.307  0.00  0.00     0.001 A 
ATOM     14  C   UNL d   1      -4.161  -7.300   0.102  0.00  0.00     0.001 A 
ATOM     15  C   UNL d   1       0.568  -7.838   0.154  0.00  0.00     0.081 A 
ENDBRANCH   2   7
BRANCH   3  16
ATOM     16  C   UNL d   1      -1.805  -2.537  -0.093  0.00  0.00     0.038 A 
ATOM     17  C   UNL d   1      -2.876  -2.140   0.718  0.00  0.00     0.059 A 
ATOM     18  C   UNL d   1      -3.440  -0.856   0.599  0.00  0.00     0.040 A 
ATOM     19  C   UNL d   1      -2.937   0.021  -0.369  0.00  0.00     0.030 A 
ATOM     20  C   UNL d   1      -1.885  -0.377  -1.195  0.00  0.00     0.004 A 
ATOM     21  C   UNL d   1      -1.323  -1.648  -1.059  0.00  0.00     0.029 A 
BRANCH  18  22
ATOM     22  N   UNL d   1      -4.508  -0.462   1.461  0.00  0.00    -0.333 N 
ATOM     23  C   UNL d   1      -5.243   0.708   1.398  0.00  0.00     0.096 A 
ATOM     24  C   UNL d   1      -6.211   0.695   2.381  0.00  0.00     0.019 A 
ATOM     25  C   UNL d   1      -6.060  -0.508   3.095  0.00  0.00     0.019 A 
ATOM     26  C   UNL d   1      -5.011  -1.189   2.527  0.00  0.00     0.096 A 
ENDBRANCH  18  22
ENDBRANCH   3  16
TORSDOF 3
