REMARK  1 active torsions:
REMARK  status: ('A' for Active; 'I' for Inactive)
REMARK    1  A    between atoms: N_10  and  C_3 
ROOT
ATOM      1  N   UNL d   1       0.210   0.257   0.027  0.00  0.00    -0.279 N 
ATOM      2  C   UNL d   1      -0.042  -1.130   0.041  0.00  0.00     0.136 A 
ATOM      3  C   UNL d   1      -0.839   1.229  -0.051  0.00  0.00     0.119 A 
ATOM      4  C   UNL d   1      -1.400  -1.584   0.032  0.00  0.00     0.096 A 
ATOM      5  C   UNL d   1      -2.106   0.761  -0.068  0.00  0.00    -0.006 A 
ATOM      6  N   UNL d   1       1.073  -1.831   0.029  0.00  0.00    -0.339 N 
ATOM      7  HN  UNL d   1       1.160  -2.847   0.013  1.00  0.00     0.167 HD
ATOM      8  C   UNL d   1      -2.383  -0.667  -0.026  0.00  0.00    -0.024 A 
ATOM      9  C   UNL d   1       1.599   0.387   0.092  0.00  0.00     0.069 A 
ATOM     10  C   UNL d   1       2.086  -0.918   0.044  0.00  0.00     0.061 A 
ATOM     11  C   UNL d   1      -1.696  -2.978   0.056  0.00  0.00     0.104 C 
ATOM     12  N   UNL d   1      -2.001  -4.103   0.073  0.00  0.00    -0.191 NA
ATOM     13  C   UNL d   1      -3.402   1.512  -0.133  0.00  0.00     0.043 C 
ATOM     14  C   UNL d   1      -3.869  -0.874  -0.067  0.00  0.00     0.041 C 
ATOM     15  C   UNL d   1       2.490   1.472   0.180  0.00  0.00     0.032 A 
ATOM     16  C   UNL d   1       3.472  -1.150   0.027  0.00  0.00     0.032 A 
ATOM     17  C   UNL d   1      -4.429   0.485   0.342  0.00  0.00     0.009 C 
ATOM     18  C   UNL d   1       3.865   1.230   0.138  0.00  0.00     0.002 A 
ATOM     19  C   UNL d   1       4.354  -0.065   0.056  0.00  0.00     0.002 A 
ENDROOT
BRANCH   3  20
ATOM     20  N   UNL d   1      -0.578   2.603  -0.161  0.00  0.00    -0.366 N 
ATOM     21  C   UNL d   1       0.030   3.120  -1.403  0.00  0.00     0.124 C 
ATOM     22  C   UNL d   1      -0.281   4.594  -1.610  0.00  0.00     0.020 C 
ATOM     23  C   UNL d   1       0.056   5.418  -0.374  0.00  0.00     0.003 C 
ATOM     24  C   UNL d   1      -0.659   4.860   0.851  0.00  0.00     0.020 C 
ATOM     25  C   UNL d   1      -0.344   3.386   1.065  0.00  0.00     0.124 C 
ENDBRANCH   3  20
TORSDOF 1
