REMARK  6 active torsions:
REMARK  status: ('A' for Active; 'I' for Inactive)
REMARK    1  A    between atoms: S_5  and  C_1 
REMARK    2  A    between atoms: C_8  and  C_2 
REMARK    3  A    between atoms: C_18  and  C_3 
REMARK    4  A    between atoms: C_11  and  N_4 
REMARK    5  A    between atoms: C_16  and  S_5 
REMARK    6  A    between atoms: N_9  and  C_12 
ROOT
ATOM      1  C   UNL d   1      -0.354  -1.241  -0.026  0.00  0.00     0.122 C 
ATOM      2  C   UNL d   1       0.933  -0.646  -0.223  0.00  0.00     0.085 C 
ATOM      3  C   UNL d   1      -1.277  -0.182   0.033  0.00  0.00     0.091 C 
ATOM      4  N   UNL d   1      -0.491   0.966  -0.106  0.00  0.00    -0.254 N 
ATOM      5  N   UNL d   1       0.774   0.665  -0.451  0.00  0.00    -0.291 N 
ATOM      6  HN  UNL d   1       1.475   1.309  -0.815  1.00  0.00     0.187 HD
ENDROOT
BRANCH   1   7
ATOM      7  S   UNL d   1      -0.685  -2.943   0.029  0.00  0.00     0.211 S 
ATOM      8  O   UNL d   1      -2.082  -3.115   0.340  0.00  0.00    -0.217 OA
ATOM      9  O   UNL d   1      -0.141  -3.463  -1.210  0.00  0.00    -0.217 OA
BRANCH   7  10
ATOM     10  C   UNL d   1       0.195  -3.660   1.387  0.00  0.00     0.064 A 
ATOM     11  C   UNL d   1       0.390  -2.948   2.573  0.00  0.00     0.024 A 
ATOM     12  C   UNL d   1       0.975  -3.590   3.665  0.00  0.00     0.002 A 
ATOM     13  C   UNL d   1       1.355  -4.931   3.572  0.00  0.00     0.000 A 
ATOM     14  C   UNL d   1       1.163  -5.635   2.383  0.00  0.00     0.002 A 
ATOM     15  C   UNL d   1       0.587  -5.000   1.284  0.00  0.00     0.024 A 
ENDBRANCH   7  10
ENDBRANCH   1   7
BRANCH   2  16
ATOM     16  C   UNL d   1       2.321  -1.167  -0.273  0.00  0.00     0.015 A 
ATOM     17  C   UNL d   1       3.390  -0.501   0.373  0.00  0.00     0.048 A 
ATOM     18  C   UNL d   1       4.715  -0.948   0.242  0.00  0.00     0.048 A 
ATOM     19 CL   UNL d   1       3.175   0.884   1.400  0.00  0.00    -0.083 Cl
ATOM     20  C   UNL d   1       4.992  -2.089  -0.498  0.00  0.00     0.035 A 
ATOM     21  C   UNL d   1       3.961  -2.771  -1.129  0.00  0.00     0.025 A 
ATOM     22 CL   UNL d   1       6.610  -2.649  -0.647  0.00  0.00    -0.084 Cl
ATOM     23  C   UNL d   1       2.646  -2.294  -1.043  0.00  0.00     0.017 A 
ENDBRANCH   2  16
BRANCH   3  24
ATOM     24  C   UNL d   1      -2.754  -0.151   0.083  0.00  0.00    -0.006 A 
ATOM     25  C   UNL d   1      -3.477  -0.836   1.067  0.00  0.00     0.014 A 
ATOM     26  C   UNL d   1      -4.875  -0.808   1.084  0.00  0.00     0.001 A 
ATOM     27  C   UNL d   1      -5.573  -0.023   0.171  0.00  0.00     0.000 A 
ATOM     28  C   UNL d   1      -4.872   0.708  -0.782  0.00  0.00     0.001 A 
ATOM     29  C   UNL d   1      -3.479   0.617  -0.847  0.00  0.00     0.014 A 
ENDBRANCH   3  24
BRANCH   4  30
ATOM     30  C   UNL d   1      -0.847   2.348   0.009  0.00  0.00     0.057 A 
ATOM     31  C   UNL d   1      -1.902   2.778   0.823  0.00  0.00     0.034 A 
ATOM     32  C   UNL d   1      -2.297   4.121   0.820  0.00  0.00     0.038 A 
ATOM     33  C   UNL d   1      -1.623   5.041   0.004  0.00  0.00     0.103 A 
ATOM     34  C   UNL d   1      -0.524   4.637  -0.761  0.00  0.00     0.038 A 
ATOM     35  C   UNL d   1      -0.127   3.296  -0.743  0.00  0.00     0.034 A 
BRANCH  33  36
ATOM     36  N   UNL d   1      -2.087   6.432  -0.065  0.00  0.00    -0.116 N 
ATOM     37  O   UNL d   1      -1.468   7.212  -0.801  0.00  0.00    -0.532 OA
ATOM     38  O   UNL d   1      -3.083   6.741   0.608  0.00  0.00    -0.532 OA
ENDBRANCH  33  36
ENDBRANCH   4  30
TORSDOF 6
