REMARK  5 active torsions:
REMARK  status: ('A' for Active; 'I' for Inactive)
REMARK    1  A    between atoms: C_3  and  C_1 
REMARK    2  A    between atoms: C_6  and  C_1 
REMARK    3  A    between atoms: C_2  and  C_3 
REMARK    4  A    between atoms: O_4  and  C_2 
REMARK    5  A    between atoms: O_5  and  C_6 
ROOT
ATOM      1  C   UNL d   1      -1.307   0.311  -0.238  0.00  0.00    -0.016 C 
ATOM      2  C   UNL d   1      -0.205   1.367   0.028  0.00  0.00     0.012 C 
ATOM      3  C   UNL d   1      -0.803  -1.106   0.144  0.00  0.00     0.012 C 
ATOM      4  C   UNL d   1       1.177   0.992  -0.509  0.00  0.00     0.001 C 
ATOM      5  C   UNL d   1       0.581  -1.445  -0.412  0.00  0.00     0.001 C 
ATOM      6  C   UNL d   1       1.601  -0.385  -0.014  0.00  0.00     0.000 C 
ENDROOT
BRANCH   1   7
ATOM      7  C   UNL d   1      -2.648   0.661   0.512  0.00  0.00     0.048 C 
BRANCH   7   8
ATOM      8  C   UNL d   1      -2.781   0.754   2.061  0.00  0.00     0.051 C 
ATOM      9  C   UNL d   1      -1.989   1.891   2.716  0.00  0.00     0.045 C 
ATOM     10  C   UNL d   1      -4.269   0.973   2.396  0.00  0.00     0.045 C 
BRANCH   8  11
ATOM     11  O   UNL d   1      -2.439  -0.481   2.687  0.00  0.00    -0.391 OA
ATOM     12  H   UNL d   1      -1.508  -0.451   2.956  0.00  0.00     0.210 HD
ENDBRANCH   8  11
ENDBRANCH   7   8
ENDBRANCH   1   7
BRANCH   1  13
ATOM     13  C   UNL d   1      -1.627   0.346  -1.770  0.00  0.00     0.173 C 
BRANCH  13  14
ATOM     14  O   UNL d   1      -2.631  -0.597  -2.120  0.00  0.00    -0.400 OA
ATOM     15  H   UNL d   1      -2.787  -0.515  -3.076  0.00  0.00     0.209 HD
ENDBRANCH  13  14
ENDBRANCH   1  13
TORSDOF 5
