REMARK  7 active torsions:
REMARK  status: ('A' for Active; 'I' for Inactive)
REMARK    1  A    between atoms: C_5  and  N_13 
REMARK    2  A    between atoms: N_14  and  C_6 
REMARK    3  A    between atoms: C_15  and  C_7 
REMARK    4  A    between atoms: C_16  and  C_8 
REMARK    5  A    between atoms: N_13  and  C_18 
REMARK    6  A    between atoms: C_17  and  N_14 
REMARK    7  A    between atoms: C_18  and  C_17 
ROOT
ATOM      1  C   UNL d   1      -1.322  -3.093  -0.096  0.00  0.00     0.144 C 
ENDROOT
BRANCH   1   2
ATOM      2  N   UNL d   1      -0.075  -2.393   0.255  0.00  0.00    -0.364 N 
ATOM      3  C   UNL d   1       0.576  -2.809   1.490  0.00  0.00     0.151 C 
BRANCH   2   4
ATOM      4  C   UNL d   1       0.538  -1.464  -0.539  0.00  0.00     0.146 A 
ATOM      5  N   UNL d   1       1.673  -0.874  -0.218  0.00  0.00    -0.336 N 
ATOM      6  C   UNL d   1       2.038   0.090  -1.144  0.00  0.00     0.051 A 
ATOM      7  HN  UNL d   1       2.219  -1.102   0.614  1.00  0.00     0.168 HD
ATOM      8  C   UNL d   1       1.179   0.212  -2.210  0.00  0.00     0.083 A 
ATOM      9  S   UNL d   1      -0.089  -0.924  -2.067  0.00  0.00    -0.064 SA
BRANCH   6  10
ATOM     10  C   UNL d   1       3.252   0.883  -0.974  0.00  0.00    -0.009 A 
ATOM     11  C   UNL d   1       4.383   0.302  -0.384  0.00  0.00     0.015 A 
ATOM     12  C   UNL d   1       5.559   1.040  -0.215  0.00  0.00     0.024 A 
ATOM     13  C   UNL d   1       5.605   2.370  -0.627  0.00  0.00     0.034 A 
ATOM     14  C   UNL d   1       4.488   2.966  -1.208  0.00  0.00     0.024 A 
ATOM     15 CL   UNL d   1       7.046   3.284  -0.414  0.00  0.00    -0.084 Cl
ATOM     16  C   UNL d   1       3.315   2.225  -1.383  0.00  0.00     0.015 A 
ENDBRANCH   6  10
ENDBRANCH   2   4
ENDBRANCH   1   2
BRANCH   1  17
ATOM     17  C   UNL d   1      -2.577  -2.208   0.084  0.00  0.00     0.144 C 
BRANCH  17  18
ATOM     18  N   UNL d   1      -3.839  -2.877  -0.300  0.00  0.00    -0.364 N 
ATOM     19  C   UNL d   1      -4.773  -2.028  -1.038  0.00  0.00     0.151 C 
BRANCH  18  20
ATOM     20  C   UNL d   1      -4.304  -3.894   0.494  0.00  0.00     0.146 A 
ATOM     21  N   UNL d   1      -3.654  -4.364   1.539  0.00  0.00    -0.336 N 
ATOM     22  C   UNL d   1      -4.335  -5.415   2.140  0.00  0.00     0.051 A 
ATOM     23  HN  UNL d   1      -2.759  -4.001   1.867  1.00  0.00     0.168 HD
ATOM     24  C   UNL d   1      -5.513  -5.763   1.521  0.00  0.00     0.083 A 
ATOM     25  S   UNL d   1      -5.782  -4.753   0.174  0.00  0.00    -0.064 SA
BRANCH  22  26
ATOM     26  C   UNL d   1      -3.790  -6.111   3.304  0.00  0.00    -0.009 A 
ATOM     27  C   UNL d   1      -4.615  -6.785   4.220  0.00  0.00     0.015 A 
ATOM     28  C   UNL d   1      -4.061  -7.466   5.308  0.00  0.00     0.024 A 
ATOM     29  C   UNL d   1      -2.680  -7.476   5.492  0.00  0.00     0.034 A 
ATOM     30  C   UNL d   1      -1.847  -6.802   4.602  0.00  0.00     0.024 A 
ATOM     31 CL   UNL d   1      -2.000  -8.323   6.824  0.00  0.00    -0.084 Cl
ATOM     32  C   UNL d   1      -2.404  -6.119   3.514  0.00  0.00     0.015 A 
ENDBRANCH  22  26
ENDBRANCH  18  20
ENDBRANCH  17  18
ENDBRANCH   1  17
TORSDOF 7
