REMARK  3 active torsions:
REMARK  status: ('A' for Active; 'I' for Inactive)
REMARK    1  A    between atoms: C_7  and  C_1 
REMARK    2  A    between atoms: C_9  and  N_2 
REMARK       I    between atoms: N_8  and  C_7 
REMARK    3  A    between atoms: C_12  and  N_8 
ROOT
ATOM      1  C   UNL d   1      -0.170  -1.212   0.141  0.00  0.00     0.080 C 
ATOM      2  N   UNL d   1       1.102   0.635   0.130  0.00  0.00    -0.260 N 
ATOM      3  N   UNL d   1      -0.149   1.062   0.415  0.00  0.00    -0.297 N 
ATOM      4  HN  UNL d   1      -0.437   2.013   0.645  1.00  0.00     0.187 HD
ATOM      5  C   UNL d   1       1.149  -0.743   0.075  0.00  0.00     0.048 C 
ATOM      6  C   UNL d   1      -0.929  -0.020   0.334  0.00  0.00     0.040 C 
ATOM      7  C   UNL d   1       2.415  -1.541   0.050  0.00  0.00     0.071 C 
ATOM      8  C   UNL d   1      -2.392   0.210   0.466  0.00  0.00     0.071 C 
ENDROOT
BRANCH   1   9
ATOM      9  C   UNL d   1      -0.481  -2.649   0.043  0.00  0.00     0.260 C 
ATOM     10  N   UNL d   1      -1.804  -3.053   0.155  0.00  0.00    -0.323 N 
ATOM     11  H   UNL d   1      -2.515  -2.345   0.180  0.00  0.00     0.169 HD
ATOM     12  O   UNL d   1       0.435  -3.442  -0.145  0.00  0.00    -0.267 OA
BRANCH  10  13
ATOM     13  C   UNL d   1      -2.256  -4.403   0.108  0.00  0.00     0.035 A 
ATOM     14  C   UNL d   1      -1.405  -5.518   0.113  0.00  0.00     0.029 A 
ATOM     15  C   UNL d   1      -1.907  -6.819   0.006  0.00  0.00     0.002 A 
ATOM     16  C   UNL d   1      -3.275  -7.030  -0.092  0.00  0.00     0.000 A 
ATOM     17  C   UNL d   1      -4.139  -5.936  -0.060  0.00  0.00     0.002 A 
ATOM     18  C   UNL d   1      -3.635  -4.633   0.047  0.00  0.00     0.029 A 
ENDBRANCH  10  13
ENDBRANCH   1   9
BRANCH   2  19
ATOM     19  C   UNL d   1       2.153   1.581  -0.032  0.00  0.00     0.056 A 
ATOM     20  C   UNL d   1       3.234   1.327  -0.888  0.00  0.00     0.031 A 
ATOM     21  C   UNL d   1       4.290   2.237  -0.972  0.00  0.00     0.002 A 
ATOM     22  C   UNL d   1       4.266   3.406  -0.214  0.00  0.00     0.000 A 
ATOM     23  C   UNL d   1       3.170   3.686   0.603  0.00  0.00     0.002 A 
ATOM     24  C   UNL d   1       2.105   2.786   0.681  0.00  0.00     0.031 A 
ENDBRANCH   2  19
TORSDOF 3
