REMARK  2 active torsions:
REMARK  status: ('A' for Active; 'I' for Inactive)
REMARK       I    between atoms: N_3  and  C_1 
REMARK       I    between atoms: N_6  and  C_1 
REMARK    1  A    between atoms: C_7  and  N_3 
REMARK    2  A    between atoms: C_13  and  C_8 
ROOT
ATOM      1  N   UNL d   1       5.275   6.051  -1.687  0.00  0.00    -0.197 NA
ATOM      2  C   UNL d   1       4.391   5.707  -2.356  0.00  0.00     0.063 C 
ATOM      3  C   UNL d   1       3.274   5.292  -3.222  0.00  0.00     0.162 C 
ENDROOT
BRANCH   3   4
ATOM      4  C   UNL d   1       2.442   4.198  -2.598  0.00  0.00    -0.045 A 
ATOM      5  C   UNL d   1       1.355   4.506  -1.769  0.00  0.00     0.010 A 
ATOM      6  C   UNL d   1       0.655   3.490  -1.110  0.00  0.00     0.030 A 
ATOM      7  C   UNL d   1       1.043   2.152  -1.249  0.00  0.00     0.035 A 
ATOM      8  C   UNL d   1       2.087   1.840  -2.119  0.00  0.00     0.030 A 
ATOM      9  C   UNL d   1       2.785   2.853  -2.784  0.00  0.00     0.010 A 
BRANCH   7  10
ATOM     10  N   UNL d   1       0.366   1.192  -0.471  0.00  0.00    -0.314 N 
ATOM     11  C   UNL d   1       0.781  -0.089  -0.215  0.00  0.00     0.296 C 
ATOM     12  O   UNL d   1       1.791  -0.657  -0.606  0.00  0.00    -0.254 OA
ATOM     13  N   UNL d   1      -0.075  -0.745   0.619  0.00  0.00    -0.254 NA
ATOM     14  H   UNL d   1      -1.062  -0.614   0.457  0.00  0.00     0.128 HD
ATOM     15  H   UNL d   1       0.197  -1.709   0.763  0.00  0.00     0.128 HD
ATOM     16  H   UNL d   1      -0.354   1.531   0.148  0.00  0.00     0.170 HD
ENDBRANCH   7  10
ENDBRANCH   3   4
TORSDOF 2
