REMARK  4 active torsions:
REMARK  status: ('A' for Active; 'I' for Inactive)
REMARK    1  A    between atoms: N_2  and  C_1 
REMARK    2  A    between atoms: C_6  and  N_20 
REMARK    3  A    between atoms: N_15  and  C_21 
REMARK    4  A    between atoms: N_20  and  N_15 
ROOT
ATOM      1  N   UNL d   1       0.571  -4.833   0.108  0.00  0.00    -0.280 N 
ATOM      2  H   UNL d   1      -0.256  -5.120  -0.415  0.00  0.00     0.189 HD
ENDROOT
BRANCH   1   3
ATOM      3  C   UNL d   1       1.560  -5.772   0.120  0.00  0.00     0.164 A 
ATOM      4  N   UNL d   1       1.448  -6.947  -0.457  0.00  0.00    -0.333 N 
ATOM      5  C   UNL d   1       2.633  -7.672  -0.336  0.00  0.00     0.073 A 
ATOM      6  HN  UNL d   1       0.608  -7.284  -0.929  1.00  0.00     0.168 HD
ATOM      7  C   UNL d   1       2.943  -8.948  -0.857  0.00  0.00     0.063 A 
ATOM      8  C   UNL d   1       3.633  -7.034   0.402  0.00  0.00     0.038 A 
ATOM      9  C   UNL d   1       4.178  -9.559  -0.638  0.00  0.00     0.050 A 
ATOM     10 CL   UNL d   1       1.726  -9.707  -1.789  0.00  0.00    -0.082 Cl
ATOM     11  C   UNL d   1       5.132  -8.893   0.119  0.00  0.00     0.037 A 
ATOM     12  C   UNL d   1       4.885  -7.625   0.649  0.00  0.00     0.045 A 
ATOM     13 CL   UNL d   1       6.656  -9.639   0.412  0.00  0.00    -0.084 Cl
ATOM     14  S   UNL d   1       3.071  -5.495   0.903  0.00  0.00    -0.050 SA
ENDBRANCH   1   3
BRANCH   1  15
ATOM     15  N   UNL d   1       0.879  -3.504   0.164  0.00  0.00    -0.309 N 
ATOM     16  HN  UNL d   1       1.847  -3.185   0.164  1.00  0.00     0.186 HD
BRANCH  15  17
ATOM     17  C   UNL d   1      -0.104  -2.665   0.216  0.00  0.00     0.126 C 
ATOM     18  C   UNL d   1       0.207  -1.254   0.216  0.00  0.00     0.024 A 
ATOM     19  S   UNL d   1      -1.039  -0.090   0.329  0.00  0.00    -0.065 SA
ATOM     20  C   UNL d   1       1.454  -0.661   0.122  0.00  0.00     0.023 A 
ATOM     21  C   UNL d   1       0.078   1.194   0.248  0.00  0.00     0.144 A 
ATOM     22  C   UNL d   1       1.381   0.764   0.137  0.00  0.00     0.045 A 
BRANCH  21  23
ATOM     23  N   UNL d   1      -0.368   2.562   0.295  0.00  0.00    -0.108 N 
ATOM     24  O   UNL d   1       0.515   3.428   0.229  0.00  0.00    -0.531 OA
ATOM     25  O   UNL d   1      -1.581   2.782   0.394  0.00  0.00    -0.531 OA
ENDBRANCH  21  23
ENDBRANCH  15  17
ENDBRANCH   1  15
TORSDOF 4
