REMARK  6 active torsions:
REMARK  status: ('A' for Active; 'I' for Inactive)
REMARK    1  A    between atoms: N_7  and  C_1 
REMARK    2  A    between atoms: N_11  and  C_1 
REMARK    3  A    between atoms: C_2  and  N_9 
REMARK    4  A    between atoms: C_3  and  C_4 
REMARK    5  A    between atoms: C_8  and  C_13 
REMARK    6  A    between atoms: C_20  and  N_11 
ROOT
ATOM      1  N   UNL d   1       0.378   1.281   0.105  0.00  0.00    -0.355 N 
ATOM      2  N   UNL d   1      -1.118   3.692   0.299  0.00  0.00    -0.363 N 
ATOM      3  C   UNL d   1       0.382   2.276  -0.984  0.00  0.00     0.145 C 
ATOM      4  C   UNL d   1      -0.792   1.373   1.006  0.00  0.00     0.145 C 
ATOM      5  C   UNL d   1       0.166   3.694  -0.417  0.00  0.00     0.144 C 
ATOM      6  C   UNL d   1      -1.099   2.809   1.477  0.00  0.00     0.144 C 
ENDROOT
BRANCH   1   7
ATOM      7  C   UNL d   1       0.908   0.009  -0.071  0.00  0.00     0.174 C 
ATOM      8  S   UNL d   1       0.754  -0.919  -1.452  0.00  0.00    -0.041 SA
BRANCH   7   9
ATOM      9  N   UNL d   1       1.517  -0.528   1.039  0.00  0.00    -0.333 N 
ATOM     10  H   UNL d   1       1.579  -1.540   1.057  0.00  0.00     0.168 HD
BRANCH   9  11
ATOM     11  C   UNL d   1       2.348   0.166   1.951  0.00  0.00     0.035 A 
ATOM     12  C   UNL d   1       2.908   1.409   1.643  0.00  0.00     0.045 A 
ATOM     13  C   UNL d   1       3.786   2.054   2.527  0.00  0.00     0.050 A 
ATOM     14  C   UNL d   1       4.089   1.429   3.744  0.00  0.00     0.016 A 
ATOM     15  C   UNL d   1       3.543   0.183   4.052  0.00  0.00     0.003 A 
ATOM     16  C   UNL d   1       2.689  -0.457   3.150  0.00  0.00     0.029 A 
BRANCH  13  17
ATOM     17  C   UNL d   1       4.419   3.369   2.154  0.00  0.00     0.417 C 
ATOM     18  F   UNL d   1       3.969   3.875   0.969  0.00  0.00    -0.166 F 
ATOM     19  F   UNL d   1       4.194   4.341   3.080  0.00  0.00    -0.166 F 
ATOM     20  F   UNL d   1       5.772   3.277   2.027  0.00  0.00    -0.166 F 
ENDBRANCH  13  17
ENDBRANCH   9  11
ENDBRANCH   7   9
ENDBRANCH   1   7
BRANCH   2  21
ATOM     21  C   UNL d   1      -1.942   4.799   0.311  0.00  0.00     0.125 A 
ATOM     22  N   UNL d   1      -2.424   5.198   1.518  0.00  0.00    -0.350 N 
ATOM     23  C   UNL d   1      -3.333   6.201   1.574  0.00  0.00     0.106 A 
ATOM     24  HN  UNL d   1      -2.103   4.746   2.374  1.00  0.00     0.166 HD
ATOM     25  C   UNL d   1      -3.812   6.874   0.466  0.00  0.00     0.065 A 
ATOM     26  C   UNL d   1      -3.314   6.485  -0.775  0.00  0.00     0.045 A 
ATOM     27  C   UNL d   1      -2.391   5.439  -0.862  0.00  0.00     0.078 A 
ATOM     28 CL   UNL d   1      -1.996   4.912  -2.467  0.00  0.00    -0.080 Cl
BRANCH  25  29
ATOM     29  C   UNL d   1      -4.864   7.926   0.618  0.00  0.00     0.418 C 
ATOM     30  F   UNL d   1      -5.177   8.549  -0.551  0.00  0.00    -0.166 F 
ATOM     31  F   UNL d   1      -6.034   7.422   1.096  0.00  0.00    -0.166 F 
ATOM     32  F   UNL d   1      -4.499   8.911   1.481  0.00  0.00    -0.166 F 
ENDBRANCH  25  29
ENDBRANCH   2  21
TORSDOF 6
