REMARK  5 active torsions:
REMARK  status: ('A' for Active; 'I' for Inactive)
REMARK       I    between atoms: N_3  and  C_1 
REMARK       I    between atoms: N_8  and  C_1 
REMARK    1  A    between atoms: C_2  and  O_5 
REMARK    2  A    between atoms: C_6  and  N_3 
REMARK    3  A    between atoms: N_4  and  C_9 
REMARK    4  A    between atoms: O_5  and  C_7 
REMARK    5  A    between atoms: C_16  and  N_8 
ROOT
ATOM      1  C   UNL d   1       0.920  -1.971  -0.858  0.00  0.00     0.325 C 
ATOM      2  N   UNL d   1       2.078  -1.994  -0.093  0.00  0.00    -0.306 N 
ATOM      3  N   UNL d   1       0.099  -0.930  -0.492  0.00  0.00    -0.309 N 
ATOM      4  O   UNL d   1       0.667  -2.802  -1.715  0.00  0.00    -0.247 OA
ATOM      5  H   UNL d   1       1.944  -1.650   0.840  0.00  0.00     0.171 HD
ATOM      6  H   UNL d   1       0.562  -0.093  -0.181  0.00  0.00     0.170 HD
ENDROOT
BRANCH   2   7
ATOM      7  C   UNL d   1       3.096  -2.943  -0.317  0.00  0.00     0.070 A 
ATOM      8  C   UNL d   1       3.704  -3.656   0.736  0.00  0.00     0.105 A 
ATOM      9  C   UNL d   1       4.640  -4.656   0.425  0.00  0.00     0.039 A 
ATOM     10  C   UNL d   1       5.001  -4.925  -0.898  0.00  0.00     0.003 A 
ATOM     11  C   UNL d   1       4.430  -4.195  -1.932  0.00  0.00     0.002 A 
ATOM     12  C   UNL d   1       3.495  -3.206  -1.637  0.00  0.00     0.032 A 
BRANCH   8  13
ATOM     13  O   UNL d   1       3.257  -3.700   2.027  0.00  0.00    -0.253 OA
BRANCH  13  14
ATOM     14  C   UNL d   1       3.223  -2.518   2.807  0.00  0.00     0.530 C 
ATOM     15  F   UNL d   1       3.073  -1.390   2.082  0.00  0.00    -0.144 F 
ATOM     16  F   UNL d   1       2.164  -2.602   3.644  0.00  0.00    -0.144 F 
ATOM     17  F   UNL d   1       4.343  -2.414   3.551  0.00  0.00    -0.144 F 
ENDBRANCH  13  14
ENDBRANCH   8  13
ENDBRANCH   2   7
BRANCH   3  18
ATOM     18  C   UNL d   1      -1.276  -0.863  -0.782  0.00  0.00     0.036 A 
ATOM     19  C   UNL d   1      -2.019  -1.988  -1.125  0.00  0.00     0.032 A 
ATOM     20  C   UNL d   1      -3.397  -1.899  -1.336  0.00  0.00     0.031 A 
ATOM     21  C   UNL d   1      -4.082  -0.686  -1.219  0.00  0.00     0.030 A 
ATOM     22  C   UNL d   1      -3.309   0.442  -0.895  0.00  0.00     0.031 A 
ATOM     23  C   UNL d   1      -1.927   0.363  -0.672  0.00  0.00     0.032 A 
BRANCH  21  24
ATOM     24  N   UNL d   1      -5.440  -0.584  -1.453  0.00  0.00    -0.381 N 
ATOM     25  C   UNL d   1      -6.167  -1.582  -2.240  0.00  0.00     0.123 C 
ATOM     26  C   UNL d   1      -7.131  -0.845  -3.168  0.00  0.00     0.020 C 
ATOM     27  C   UNL d   1      -8.044   0.106  -2.394  0.00  0.00     0.003 C 
ATOM     28  C   UNL d   1      -7.244   1.036  -1.479  0.00  0.00     0.020 C 
ATOM     29  C   UNL d   1      -6.283   0.247  -0.591  0.00  0.00     0.123 C 
ENDBRANCH  21  24
ENDBRANCH   3  18
TORSDOF 5
