REMARK  9 active torsions:
REMARK  status: ('A' for Active; 'I' for Inactive)
REMARK    1  A    between atoms: C_11  and  N_1 
REMARK    2  A    between atoms: C_12  and  N_2 
REMARK    3  A    between atoms: C_9  and  C_3 
REMARK    4  A    between atoms: C_18  and  C_3 
REMARK    5  A    between atoms: C_6  and  C_7 
REMARK    6  A    between atoms: C_7  and  O_16 
REMARK    7  A    between atoms: O_16  and  C_9 
REMARK    8  A    between atoms: C_27  and  C_18 
REMARK    9  A    between atoms: C_28  and  C_27 
ROOT
ATOM      1  N   UNL d   1      -0.643   1.218   0.291  0.00  0.00    -0.213 N 
ATOM      2  N   UNL d   1       0.658   1.168  -0.244  0.00  0.00    -0.213 N 
ATOM      3  C   UNL d   1      -0.113  -1.033  -0.099  0.00  0.00     0.147 C 
ATOM      4  C   UNL d   1      -1.214  -0.059   0.268  0.00  0.00     0.264 C 
ATOM      5  C   UNL d   1       1.121  -0.157  -0.193  0.00  0.00     0.264 C 
ATOM      6  O   UNL d   1      -2.381  -0.356   0.478  0.00  0.00    -0.270 OA
ATOM      7  O   UNL d   1       2.268  -0.571  -0.294  0.00  0.00    -0.270 OA
ENDROOT
BRANCH   3   8
ATOM      8  C   UNL d   1       0.004  -2.140   0.948  0.00  0.00     0.208 C 
BRANCH   8   9
ATOM      9  O   UNL d   1       0.117  -1.628   2.296  0.00  0.00    -0.316 OA
BRANCH   9  10
ATOM     10  C   UNL d   1      -0.829  -2.037   3.182  0.00  0.00     0.295 C 
ATOM     11  O   UNL d   1      -1.781  -2.749   2.926  0.00  0.00    -0.259 OA
BRANCH  10  12
ATOM     12  C   UNL d   1      -0.516  -1.635   4.585  0.00  0.00     0.061 A 
ATOM     13  C   UNL d   1       0.232  -0.515   4.972  0.00  0.00     0.051 A 
ATOM     14  C   UNL d   1       0.481  -0.274   6.332  0.00  0.00     0.048 A 
ATOM     15 CL   UNL d   1       0.830   0.673   3.865  0.00  0.00    -0.083 Cl
ATOM     16  C   UNL d   1      -0.038  -1.125   7.307  0.00  0.00     0.035 A 
ATOM     17  C   UNL d   1      -0.814  -2.218   6.942  0.00  0.00     0.025 A 
ATOM     18 CL   UNL d   1       0.270  -0.814   8.971  0.00  0.00    -0.084 Cl
ATOM     19  C   UNL d   1      -1.048  -2.473   5.589  0.00  0.00     0.021 A 
ENDBRANCH  10  12
ENDBRANCH   9  10
ENDBRANCH   8   9
ENDBRANCH   3   8
BRANCH   3  20
ATOM     20  C   UNL d   1      -0.267  -1.591  -1.538  0.00  0.00     0.031 C 
BRANCH  20  21
ATOM     21  C   UNL d   1      -1.531  -2.402  -1.809  0.00  0.00     0.001 C 
BRANCH  21  22
ATOM     22  C   UNL d   1      -1.553  -2.917  -3.249  0.00  0.00    -0.005 C 
ATOM     23  C   UNL d   1      -2.830  -3.694  -3.518  0.00  0.00     0.005 C 
ENDBRANCH  21  22
ENDBRANCH  20  21
ENDBRANCH   3  20
BRANCH   1  24
ATOM     24  C   UNL d   1      -1.462   2.364   0.221  0.00  0.00     0.060 A 
ATOM     25  C   UNL d   1      -1.815   2.969   1.432  0.00  0.00     0.031 A 
ATOM     26  C   UNL d   1      -2.493   4.185   1.438  0.00  0.00     0.002 A 
ATOM     27  C   UNL d   1      -2.873   4.771   0.233  0.00  0.00     0.000 A 
ATOM     28  C   UNL d   1      -2.575   4.141  -0.977  0.00  0.00     0.002 A 
ATOM     29  C   UNL d   1      -1.853   2.942  -0.989  0.00  0.00     0.031 A 
ENDBRANCH   1  24
BRANCH   2  30
ATOM     30  C   UNL d   1       1.563   2.256  -0.264  0.00  0.00     0.060 A 
ATOM     31  C   UNL d   1       2.490   2.355  -1.311  0.00  0.00     0.031 A 
ATOM     32  C   UNL d   1       3.374   3.436  -1.375  0.00  0.00     0.002 A 
ATOM     33  C   UNL d   1       3.356   4.411  -0.380  0.00  0.00     0.000 A 
ATOM     34  C   UNL d   1       2.450   4.313   0.672  0.00  0.00     0.002 A 
ATOM     35  C   UNL d   1       1.553   3.244   0.725  0.00  0.00     0.031 A 
ENDBRANCH   2  30
TORSDOF 9
