REMARK  4 active torsions:
REMARK  status: ('A' for Active; 'I' for Inactive)
REMARK    1  A    between atoms: C_6  and  C_1 
REMARK    2  A    between atoms: N_9  and  C_2 
REMARK    3  A    between atoms: O_11  and  C_6 
REMARK    4  A    between atoms: C_14  and  O_11 
ROOT
ATOM      1  C   UNL d   1       2.009   0.690   0.017  0.00  0.00     0.080 A 
ATOM      2  C   UNL d   1       2.624  -0.557   0.075  0.00  0.00     0.085 A 
ATOM      3  C   UNL d   1       0.564   0.549   0.072  0.00  0.00    -0.026 A 
ATOM      4  C   UNL d   1       0.179  -0.776   0.105  0.00  0.00    -0.008 A 
ATOM      5  S   UNL d   1       1.494  -1.838   0.173  0.00  0.00    -0.076 SA
ATOM      6  C   UNL d   1      -0.450   1.661   0.006  0.00  0.00     0.041 C 
ATOM      7  C   UNL d   1      -1.233  -1.276   0.093  0.00  0.00     0.051 C 
ATOM      8  C   UNL d   1      -1.885   1.165   0.261  0.00  0.00     0.009 C 
ATOM      9  C   UNL d   1      -2.198  -0.185  -0.417  0.00  0.00    -0.014 C 
ATOM     10  C   UNL d   1      -2.173  -0.075  -1.946  0.00  0.00     0.010 C 
ENDROOT
BRANCH   1  11
ATOM     11  C   UNL d   1       2.712   1.968  -0.147  0.00  0.00     0.296 C 
ATOM     12  O   UNL d   1       2.135   3.043  -0.273  0.00  0.00    -0.259 OA
BRANCH  11  13
ATOM     13  O   UNL d   1       4.072   1.831  -0.237  0.00  0.00    -0.318 OA
BRANCH  13  14
ATOM     14  C   UNL d   1       4.766   2.920  -0.858  0.00  0.00     0.174 C 
ATOM     15  C   UNL d   1       4.748   2.698  -2.361  0.00  0.00     0.034 C 
ENDBRANCH  13  14
ENDBRANCH  11  13
ENDBRANCH   1  11
BRANCH   2  16
ATOM     16  N   UNL d   1       3.939  -0.853   0.041  0.00  0.00    -0.393 N 
ATOM     17  H   UNL d   1       4.650  -0.127   0.045  0.00  0.00     0.156 HD
ATOM     18  H   UNL d   1       4.268  -1.809   0.144  0.00  0.00     0.156 HD
ENDBRANCH   2  16
TORSDOF 4
