REMARK  6 active torsions:
REMARK  status: ('A' for Active; 'I' for Inactive)
REMARK    1  A    between atoms: C_7  and  C_1 
REMARK    2  A    between atoms: C_8  and  C_2 
REMARK       I    between atoms: C_3  and  N_6 
REMARK       I    between atoms: N_12  and  C_3 
REMARK    3  A    between atoms: N_6  and  C_4 
REMARK    4  A    between atoms: C_19  and  N_12 
REMARK    5  A    between atoms: C_20  and  C_19 
REMARK    6  A    between atoms: C_21  and  C_20 
ROOT
ATOM      1  C   UNL d   1       1.363  -0.189   0.111  0.00  0.00    -0.048 A 
ATOM      2  C   UNL d   1      -0.916  -1.132   0.002  0.00  0.00    -0.048 A 
ATOM      3  C   UNL d   1      -0.589   1.299   0.065  0.00  0.00     0.037 A 
ATOM      4  C   UNL d   1       0.484  -1.279   0.013  0.00  0.00     0.015 A 
ATOM      5  C   UNL d   1      -1.433   0.182   0.021  0.00  0.00     0.037 A 
ATOM      6  C   UNL d   1       0.793   1.094   0.106  0.00  0.00     0.037 A 
ENDROOT
BRANCH   3   7
ATOM      7  N   UNL d   1      -1.173   2.592   0.121  0.00  0.00    -0.309 N 
ATOM      8  C   UNL d   1      -0.501   3.788   0.016  0.00  0.00     0.320 C 
ATOM      9  O   UNL d   1       0.692   3.936  -0.235  0.00  0.00    -0.247 OA
ATOM     10  N   UNL d   1      -1.311   4.885   0.250  0.00  0.00    -0.343 N 
ATOM     11  H   UNL d   1      -2.290   4.787   0.032  0.00  0.00     0.164 HD
ATOM     12  H   UNL d   1      -2.174   2.634   0.235  0.00  0.00     0.170 HD
BRANCH  10  13
ATOM     13  C   UNL d   1      -0.705   6.194   0.100  0.00  0.00     0.124 C 
BRANCH  13  14
ATOM     14  C   UNL d   1      -1.637   7.356   0.418  0.00  0.00     0.019 C 
BRANCH  14  15
ATOM     15  C   UNL d   1      -2.098   7.367   1.874  0.00  0.00    -0.003 C 
ATOM     16  C   UNL d   1      -2.969   8.580   2.161  0.00  0.00     0.005 C 
ENDBRANCH  14  15
ENDBRANCH  13  14
ENDBRANCH  10  13
ENDBRANCH   3   7
BRANCH   1  17
ATOM     17  C   UNL d   1       2.887  -0.389   0.221  0.00  0.00    -0.024 C 
ATOM     18  C   UNL d   1       3.490  -0.427  -1.195  0.00  0.00     0.019 C 
ATOM     19  C   UNL d   1       3.572   0.743   1.024  0.00  0.00     0.019 C 
ATOM     20  C   UNL d   1       3.255  -1.707   0.945  0.00  0.00     0.019 C 
ENDBRANCH   1  17
BRANCH   2  21
ATOM     21  C   UNL d   1      -1.854  -2.356   0.026  0.00  0.00    -0.024 C 
ATOM     22  C   UNL d   1      -1.105  -3.708   0.120  0.00  0.00     0.019 C 
ATOM     23  C   UNL d   1      -2.773  -2.268   1.263  0.00  0.00     0.019 C 
ATOM     24  C   UNL d   1      -2.719  -2.403  -1.249  0.00  0.00     0.019 C 
ENDBRANCH   2  21
TORSDOF 6
