REMARK  7 active torsions:
REMARK  status: ('A' for Active; 'I' for Inactive)
REMARK    1  A    between atoms: C_21  and  N_1 
REMARK    2  A    between atoms: C_3  and  C_2 
REMARK    3  A    between atoms: S_22  and  C_6 
REMARK    4  A    between atoms: O_25  and  C_7 
REMARK    5  A    between atoms: C_14  and  C_23 
REMARK    6  A    between atoms: C_24  and  C_21 
REMARK    7  A    between atoms: C_23  and  S_22 
ROOT
ATOM      1  N   UNL d   1      -0.138  -1.262  -0.033  0.00  0.00    -0.282 N 
ATOM      2  C   UNL d   1       1.139  -0.751   0.040  0.00  0.00     0.165 A 
ATOM      3  C   UNL d   1      -0.944  -0.137   0.003  0.00  0.00     0.241 A 
ATOM      4  N   UNL d   1       1.095   0.561   0.118  0.00  0.00    -0.277 N 
ATOM      5  HN  UNL d   1       1.901   1.184   0.171  1.00  0.00     0.189 HD
ATOM      6  N   UNL d   1      -0.213   0.946   0.115  0.00  0.00    -0.263 N 
ATOM      7  HN  UNL d   1      -0.560   1.902   0.187  1.00  0.00     0.190 HD
ENDROOT
BRANCH   2   8
ATOM      8  S   UNL d   1       2.622  -1.645   0.038  0.00  0.00    -0.085 SA
BRANCH   8   9
ATOM      9  C   UNL d   1       3.839  -0.273   0.140  0.00  0.00     0.160 C 
BRANCH   9  10
ATOM     10  C   UNL d   1       5.238  -0.791   0.142  0.00  0.00     0.114 A 
ATOM     11  N   UNL d   1       5.974  -0.988  -1.007  0.00  0.00    -0.322 N 
ATOM     12  C   UNL d   1       7.101  -1.497  -0.551  0.00  0.00     0.186 A 
ATOM     13  HN  UNL d   1       5.711  -0.788  -1.973  1.00  0.00     0.169 HD
ATOM     14  O   UNL d   1       7.114  -1.577   0.819  0.00  0.00    -0.217 OA
ATOM     15  N   UNL d   1       5.888  -1.098   1.273  0.00  0.00    -0.246 N 
ATOM     16  HN  UNL d   1       5.563  -1.003   2.235  1.00  0.00     0.196 HD
BRANCH  12  17
ATOM     17  C   UNL d   1       8.216  -1.968  -1.404  0.00  0.00     0.073 A 
ATOM     18  C   UNL d   1       9.338  -2.636  -0.974  0.00  0.00     0.089 A 
ATOM     19  O   UNL d   1      10.113  -2.935  -2.051  0.00  0.00    -0.242 OA
ATOM     20  C   UNL d   1       9.839  -3.094   0.336  0.00  0.00     0.080 C 
ATOM     21  N   UNL d   1       9.515  -2.452  -3.201  0.00  0.00    -0.265 N 
ATOM     22  C   UNL d   1       8.379  -1.864  -2.805  0.00  0.00     0.045 A 
ATOM     23  HN  UNL d   1       9.867  -2.528  -4.155  1.00  0.00     0.194 HD
ATOM     24  C   UNL d   1       7.501  -1.205  -3.799  0.00  0.00     0.071 C 
ENDBRANCH  12  17
ENDBRANCH   9  10
ENDBRANCH   8   9
ENDBRANCH   2   8
BRANCH   1  25
ATOM     25  C   UNL d   1      -0.656  -2.627   0.003  0.00  0.00     0.124 C 
ATOM     26  C   UNL d   1       0.041  -3.625   0.932  0.00  0.00     0.038 C 
BRANCH  25  27
ATOM     27  C   UNL d   1      -0.863  -3.240  -1.377  0.00  0.00    -0.035 A 
ATOM     28  C   UNL d   1       0.208  -3.467  -2.254  0.00  0.00     0.009 A 
ATOM     29  C   UNL d   1       0.027  -4.189  -3.437  0.00  0.00     0.001 A 
ATOM     30  C   UNL d   1      -1.229  -4.687  -3.768  0.00  0.00     0.000 A 
ATOM     31  C   UNL d   1      -2.312  -4.447  -2.928  0.00  0.00     0.001 A 
ATOM     32  C   UNL d   1      -2.133  -3.728  -1.742  0.00  0.00     0.009 A 
ENDBRANCH  25  27
ENDBRANCH   1  25
BRANCH   3  33
ATOM     33  O   UNL d   1      -2.265  -0.100  -0.025  0.00  0.00    -0.331 OA
ATOM     34  H   UNL d   1      -2.597  -0.888  -0.484  0.00  0.00     0.221 HD
ENDBRANCH   3  33
TORSDOF 7
