REMARK  12 active torsions:
REMARK  status: ('A' for Active; 'I' for Inactive)
REMARK    1  A    between atoms: N_2  and  C_1 
REMARK    2  A    between atoms: C_3  and  C_1 
REMARK    3  A    between atoms: C_5  and  C_1 
REMARK       I    between atoms: C2_20  and  N_2 
REMARK    4  A    between atoms: O_10  and  C_3 
REMARK    5  A    between atoms: C_4  and  O_6 
REMARK    6  A    between atoms: O_9  and  C_4 
REMARK    7  A    between atoms: O_6  and  C_5 
REMARK    8  A    between atoms: C_11  and  O_9 
REMARK    9  A    between atoms: C_12  and  C_11 
REMARK   10  A    between atoms: O5_22  and  C2_20 
REMARK   11  A    between atoms: C6_23  and  O5_22 
REMARK   12  A    between atoms: C8_24  and  C6_23 
ROOT
ATOM      1  C   UNK d   1       1.123  -0.054  -0.046  0.00  0.00     0.209 C 
ENDROOT
BRANCH   1   2
ATOM      2  N   UNK d   1       0.659  -1.188  -0.836  0.00  0.00    -0.320 N 
ATOM      3  C2  <1> d   1       0.818  -1.236  -2.186  0.00  0.00     0.361 C 
ATOM      4  O2  <1> d   1       1.260  -0.317  -2.855  0.00  0.00    -0.238 OA
ATOM      5  H   UNK d   1       0.315  -2.021  -0.370  0.00  0.00     0.165 HD
BRANCH   3   6
ATOM      6  O5  <1> d   1       0.393  -2.430  -2.653  0.00  0.00    -0.299 OA
BRANCH   6   7
ATOM      7  C6  <1> d   1       0.228  -2.502  -4.075  0.00  0.00     0.219 C 
BRANCH   7   8
ATOM      8  C8  <1> d   1       1.252  -3.391  -4.735  0.00  0.00    -0.034 A 
ATOM      9  C10 <1> d   1       1.020  -4.767  -4.876  0.00  0.00     0.009 A 
ATOM     10  C15 <1> d   1       1.924  -5.572  -5.574  0.00  0.00     0.001 A 
ATOM     11  C18 <1> d   1       3.075  -5.013  -6.126  0.00  0.00     0.000 A 
ATOM     12  C14 <1> d   1       3.330  -3.652  -5.969  0.00  0.00     0.001 A 
ATOM     13  C11 <1> d   1       2.427  -2.846  -5.271  0.00  0.00     0.009 A 
ENDBRANCH   7   8
ENDBRANCH   6   7
ENDBRANCH   3   6
ENDBRANCH   1   2
BRANCH   1  14
ATOM     14  C   UNK d   1       0.560  -0.173   1.369  0.00  0.00     0.165 C 
ATOM     15  O   UNK d   1       0.576  -1.212   2.017  0.00  0.00    -0.648 OA
BRANCH  14  16
ATOM     16  O   UNK d   1       0.020   0.968   1.857  0.00  0.00    -0.775 OA
ATOM     17  H   UNK d   1       0.037   1.734   1.251  0.00  0.00     0.167 HD
ENDBRANCH  14  16
ENDBRANCH   1  14
BRANCH   1  18
ATOM     18  C   UNK d   1       2.650  -0.021   0.044  0.00  0.00     0.217 C 
BRANCH  18  19
ATOM     19  O   UNK d   1       3.107   1.054   0.880  0.00  0.00    -0.295 OA
BRANCH  19  20
ATOM     20  C   UNK d   1       3.192   2.266   0.289  0.00  0.00     0.406 C 
ATOM     21  O   UNK d   1       2.836   2.532  -0.844  0.00  0.00    -0.229 OA
BRANCH  20  22
ATOM     22  O   UNK d   1       3.765   3.112   1.176  0.00  0.00    -0.293 OA
BRANCH  22  23
ATOM     23  C   UNK d   1       4.319   4.293   0.604  0.00  0.00     0.219 C 
BRANCH  23  24
ATOM     24  C   UNK d   1       3.573   5.537   1.012  0.00  0.00    -0.034 A 
ATOM     25  C   UNK d   1       3.446   5.894   2.361  0.00  0.00     0.009 A 
ATOM     26  C   UNK d   1       2.863   7.112   2.718  0.00  0.00     0.001 A 
ATOM     27  C   UNK d   1       2.398   7.981   1.732  0.00  0.00     0.000 A 
ATOM     28  C   UNK d   1       2.499   7.626   0.389  0.00  0.00     0.001 A 
ATOM     29  C   UNK d   1       3.080   6.409   0.030  0.00  0.00     0.009 A 
ENDBRANCH  23  24
ENDBRANCH  22  23
ENDBRANCH  20  22
ENDBRANCH  19  20
ENDBRANCH  18  19
ENDBRANCH   1  18
TORSDOF 12
