REMARK  5 active torsions:
REMARK  status: ('A' for Active; 'I' for Inactive)
REMARK    1  A    between atoms: C_3  and  N_1 
REMARK    2  A    between atoms: C_4  and  O_12 
REMARK    3  A    between atoms: C_6  and  C_4 
REMARK    4  A    between atoms: C_7  and  C_6 
REMARK    5  A    between atoms: O_12  and  C_17 
ROOT
ATOM      1  O   UNL d   1      -1.860   2.904   3.347  0.00  0.00    -0.276 OA
ENDROOT
BRANCH   1   2
ATOM      2  C   UNL d   1      -1.691   4.083   4.055  0.00  0.00     0.288 C 
ATOM      3  O   UNL d   1      -2.449   4.566   4.887  0.00  0.00    -0.260 OA
BRANCH   2   4
ATOM      4  C   UNL d   1      -0.459   4.801   3.664  0.00  0.00     0.084 C 
BRANCH   4   5
ATOM      5  C   UNL d   1       0.392   4.433   2.693  0.00  0.00     0.025 C 
ATOM      6  C   UNL d   1       1.515   5.242   2.338  0.00  0.00     0.005 A 
ATOM      7  S   UNL d   1       2.635   4.638   1.168  0.00  0.00    -0.102 SA
ATOM      8  C   UNL d   1       1.905   6.506   2.756  0.00  0.00     0.019 A 
ATOM      9  C   UNL d   1       3.602   6.043   1.245  0.00  0.00     0.050 A 
ATOM     10  C   UNL d   1       3.101   6.966   2.130  0.00  0.00     0.008 A 
ENDBRANCH   4   5
ENDBRANCH   2   4
ENDBRANCH   1   2
BRANCH   1  11
ATOM     11  C   UNL d   1      -3.090   2.210   3.405  0.00  0.00     0.079 A 
ATOM     12  C   UNL d   1      -3.482   1.578   2.221  0.00  0.00     0.040 A 
ATOM     13  C   UNL d   1      -4.718   0.929   2.154  0.00  0.00     0.039 A 
ATOM     14  C   UNL d   1      -5.551   0.912   3.282  0.00  0.00     0.103 A 
ATOM     15  C   UNL d   1      -5.131   1.496   4.485  0.00  0.00     0.039 A 
ATOM     16  C   UNL d   1      -3.888   2.132   4.548  0.00  0.00     0.040 A 
BRANCH  14  17
ATOM     17  N   UNL d   1      -6.883   0.298   3.196  0.00  0.00    -0.116 N 
ATOM     18  O   UNL d   1      -7.604   0.340   4.203  0.00  0.00    -0.532 OA
ATOM     19  O   UNL d   1      -7.211  -0.217   2.118  0.00  0.00    -0.532 OA
ENDBRANCH  14  17
ENDBRANCH   1  11
TORSDOF 5
