REMARK  4 active torsions:
REMARK  status: ('A' for Active; 'I' for Inactive)
REMARK       I    between atoms: C_2  and  N_1 
REMARK       I    between atoms: N_8  and  C_2 
REMARK    1  A    between atoms: C_5  and  C_3 
REMARK    2  A    between atoms: C_6  and  C_5 
REMARK       I    between atoms: N_9  and  C_6 
REMARK    3  A    between atoms: C_7  and  N_9 
REMARK    4  A    between atoms: C_16  and  N_8 
ROOT
ATOM      1  N   UNL d   1      -1.493  -1.135   0.297  0.00  0.00    -0.318 N 
ATOM      2  C   UNL d   1      -2.337  -2.025   0.953  0.00  0.00     0.323 C 
ATOM      3  C   UNL d   1      -0.007  -1.253   0.421  0.00  0.00     0.189 C 
ATOM      4  C   UNL d   1       0.539  -0.131   1.343  0.00  0.00     0.241 C 
ATOM      5  N   UNL d   1      -3.683  -1.768   0.857  0.00  0.00    -0.309 N 
ATOM      6  N   UNL d   1      -0.020   1.118   1.177  0.00  0.00    -0.358 N 
ATOM      7  O   UNL d   1      -1.892  -3.009   1.544  0.00  0.00    -0.247 OA
ATOM      8  O   UNL d   1       1.535  -0.238   2.055  0.00  0.00    -0.271 OA
ATOM      9  C   UNL d   1      -1.899   0.195  -0.187  0.00  0.00     0.148 C 
ATOM     10  C   UNL d   1      -1.391   1.299   0.750  0.00  0.00     0.142 C 
ATOM     11  H   UNL d   1      -3.995  -1.281   0.033  0.00  0.00     0.170 HD
ATOM     12  H   UNL d   1       0.396   1.817   1.783  0.00  0.00     0.162 HD
ENDROOT
BRANCH   3  13
ATOM     13  C   UNL d   1       0.650  -2.587   0.790  0.00  0.00     0.138 C 
BRANCH  13  14
ATOM     14  C   UNL d   1       0.608  -3.583  -0.345  0.00  0.00     0.224 C 
ATOM     15  N   UNL d   1      -0.406  -4.505  -0.262  0.00  0.00    -0.326 N 
ATOM     16  H   UNL d   1      -1.182  -4.283   0.369  0.00  0.00     0.169 HD
ATOM     17  O   UNL d   1       1.442  -3.522  -1.250  0.00  0.00    -0.273 OA
BRANCH  15  18
ATOM     18  C   UNL d   1      -0.510  -5.726  -0.981  0.00  0.00     0.058 A 
ATOM     19  C   UNL d   1       0.588  -6.297  -1.638  0.00  0.00     0.055 A 
ATOM     20  C   UNL d   1       0.486  -7.564  -2.218  0.00  0.00     0.036 A 
ATOM     21 CL   UNL d   1       1.851  -8.260  -3.005  0.00  0.00    -0.084 Cl
ATOM     22  C   UNL d   1      -0.705  -8.283  -2.152  0.00  0.00     0.026 A 
ATOM     23  C   UNL d   1      -1.817  -7.712  -1.536  0.00  0.00     0.028 A 
ATOM     24  C   UNL d   1      -1.724  -6.439  -0.962  0.00  0.00     0.060 A 
ATOM     25 CL   UNL d   1      -3.156  -5.756  -0.274  0.00  0.00    -0.082 Cl
ENDBRANCH  15  18
ENDBRANCH  13  14
ENDBRANCH   3  13
BRANCH   5  26
ATOM     26  C   UNL d   1      -4.705  -2.361   1.639  0.00  0.00     0.036 A 
ATOM     27  C   UNL d   1      -4.459  -3.134   2.783  0.00  0.00     0.032 A 
ATOM     28  C   UNL d   1      -5.516  -3.601   3.571  0.00  0.00     0.044 A 
ATOM     29  C   UNL d   1      -6.821  -3.293   3.219  0.00  0.00     0.116 A 
ATOM     30  C   UNL d   1      -7.091  -2.556   2.074  0.00  0.00     0.044 A 
ATOM     31  F   UNL d   1      -7.830  -3.700   3.999  0.00  0.00    -0.206 F 
ATOM     32  C   UNL d   1      -6.035  -2.096   1.281  0.00  0.00     0.032 A 
ENDBRANCH   5  26
TORSDOF 4
