REMARK  4 active torsions:
REMARK  status: ('A' for Active; 'I' for Inactive)
REMARK    1  A    between atoms: C_2  and  C_1 
REMARK    2  A    between atoms: C_13  and  N_3 
REMARK    3  A    between atoms: C_15  and  C_4 
REMARK    4  A    between atoms: C_14  and  N_5 
ROOT
ATOM      1  C   UNL d   1      -0.264   1.221  -0.022  0.00  0.00     0.057 C 
ATOM      2  C   UNL d   1       1.071   0.839  -0.065  0.00  0.00     0.082 C 
ATOM      3  N   UNL d   1       1.030  -0.567  -0.081  0.00  0.00    -0.255 N 
ATOM      4  N   UNL d   1      -0.239  -1.039  -0.224  0.00  0.00    -0.303 N 
ATOM      5  HN  UNL d   1      -0.532  -2.003  -0.386  1.00  0.00     0.186 HD
ATOM      6  C   UNL d   1      -1.013   0.036  -0.104  0.00  0.00     0.125 C 
ENDROOT
BRANCH   1   7
ATOM      7  C   UNL d   1      -0.816   2.603   0.023  0.00  0.00     0.152 C 
ATOM      8  N   UNL d   1      -1.999   3.013   0.614  0.00  0.00    -0.224 N 
ATOM      9  N   UNL d   1      -2.293   4.249   0.151  0.00  0.00     0.001 NA
ATOM     10  N   UNL d   1      -1.217   4.647  -0.512  0.00  0.00    -0.007 NA
ATOM     11  N   UNL d   1      -0.284   3.644  -0.585  0.00  0.00    -0.269 N 
ATOM     12  HN  UNL d   1       0.636   3.695  -1.021  1.00  0.00     0.185 HD
BRANCH   8  13
ATOM     13  C   UNL d   1      -2.746   2.412   1.650  0.00  0.00     0.056 A 
ATOM     14  C   UNL d   1      -2.119   1.579   2.588  0.00  0.00     0.032 A 
ATOM     15  C   UNL d   1      -2.864   0.997   3.612  0.00  0.00     0.009 A 
ATOM     16  C   UNL d   1      -4.239   1.228   3.706  0.00  0.00    -0.062 A 
ATOM     17  C   UNL d   1      -4.856   2.080   2.778  0.00  0.00     0.009 A 
ATOM     18  C   UNL d   1      -5.026   0.596   4.815  0.00  0.00     0.048 C 
ATOM     19  C   UNL d   1      -4.113   2.687   1.764  0.00  0.00     0.032 A 
ENDBRANCH   8  13
ENDBRANCH   1   7
BRANCH   2  20
ATOM     20  C   UNL d   1       2.291   1.665  -0.081  0.00  0.00    -0.006 A 
ATOM     21  C   UNL d   1       2.390   2.807   0.728  0.00  0.00     0.015 A 
ATOM     22  C   UNL d   1       3.547   3.591   0.735  0.00  0.00     0.024 A 
ATOM     23  C   UNL d   1       4.641   3.212  -0.035  0.00  0.00     0.034 A 
ATOM     24  C   UNL d   1       4.571   2.083  -0.842  0.00  0.00     0.024 A 
ATOM     25 CL   UNL d   1       6.086   4.142   0.016  0.00  0.00    -0.084 Cl
ATOM     26  C   UNL d   1       3.389   1.336  -0.893  0.00  0.00     0.015 A 
ENDBRANCH   2  20
BRANCH   3  27
ATOM     27  C   UNL d   1       2.091  -1.510   0.030  0.00  0.00     0.057 A 
ATOM     28  C   UNL d   1       3.223  -1.241   0.809  0.00  0.00     0.033 A 
ATOM     29  C   UNL d   1       4.307  -2.119   0.786  0.00  0.00     0.026 A 
ATOM     30  C   UNL d   1       4.251  -3.274   0.009  0.00  0.00     0.034 A 
ATOM     31  C   UNL d   1       3.098  -3.584  -0.712  0.00  0.00     0.026 A 
ATOM     32 CL   UNL d   1       5.620  -4.309  -0.080  0.00  0.00    -0.084 Cl
ATOM     33  C   UNL d   1       2.007  -2.714  -0.688  0.00  0.00     0.033 A 
ENDBRANCH   3  27
TORSDOF 4
