REMARK  5 active torsions:
REMARK  status: ('A' for Active; 'I' for Inactive)
REMARK    1  A    between atoms: CB_6  and  CG_1 
REMARK    2  A    between atoms: C_5  and  CA_8 
REMARK    3  A    between atoms: OXT_11  and  C_5 
REMARK    4  A    between atoms: CA_8  and  CB_6 
REMARK    5  A    between atoms: N_10  and  CA_8 
ROOT
ATOM      1  CG  TRP d   1      -1.489  -1.110  -0.123  0.00  0.00    -0.028 A 
ATOM      2  NE1 TRP d   1      -1.531   1.120  -0.071  0.00  0.00    -0.365 N 
ATOM      3  CD1 TRP d   1      -2.311  -0.002  -0.044  0.00  0.00     0.096 A 
ATOM      4  CD2 TRP d   1      -0.148  -0.620  -0.251  0.00  0.00    -0.002 A 
ATOM      5  CE2 TRP d   1      -0.204   0.770  -0.145  0.00  0.00     0.042 A 
ATOM      6  CE3 TRP d   1       1.117  -1.230  -0.385  0.00  0.00     0.014 A 
ATOM      7  CZ2 TRP d   1       0.940   1.577  -0.126  0.00  0.00     0.030 A 
ATOM      8  CZ3 TRP d   1       2.271  -0.439  -0.359  0.00  0.00     0.001 A 
ATOM      9  CH2 TRP d   1       2.181   0.943  -0.221  0.00  0.00     0.002 A 
ATOM     10  HE1 TRP d   1      -1.873   2.071  -0.017  0.00  0.00     0.165 HD
ENDROOT
BRANCH   1  11
ATOM     11  CB  TRP d   1      -1.942  -2.537  -0.032  0.00  0.00     0.087 C 
BRANCH  11  12
ATOM     12  CA  TRP d   1      -1.308  -3.325   1.126  0.00  0.00     0.318 C 
BRANCH  12  13
ATOM     13  C   TRP d   1      -1.692  -2.758   2.509  0.00  0.00     0.174 C 
ATOM     14  O   TRP d   1      -2.488  -3.306   3.263  0.00  0.00    -0.648 OA
BRANCH  13  15
ATOM     15  OXT TRP d   1      -1.038  -1.631   2.867  0.00  0.00    -0.775 OA
ATOM     16  HXT TRP d   1      -0.449  -1.263   2.179  0.00  0.00     0.167 HD
ENDBRANCH  13  15
ENDBRANCH  12  13
BRANCH  12  17
ATOM     17  N   TRP d   1      -1.750  -4.747   1.043  0.00  0.00     0.093 N 
ATOM     18  H1  TRP d   1      -2.745  -4.771   1.287  0.00  0.00     0.314 HD
ATOM     19  H2  TRP d   1      -1.316  -5.253   1.822  0.00  0.00     0.314 HD
ENDBRANCH  12  17
ENDBRANCH  11  12
ENDBRANCH   1  11
TORSDOF 5
