REMARK  4 active torsions:
REMARK  status: ('A' for Active; 'I' for Inactive)
REMARK    1  A    between atoms: N_7  and  C_1 
REMARK    2  A    between atoms: C_10  and  C_4 
REMARK       I    between atoms: C_8  and  N_7 
REMARK       I    between atoms: N_13  and  C_8 
REMARK    3  A    between atoms: C_9  and  C_14 
REMARK    4  A    between atoms: C_24  and  N_13 
ROOT
ATOM      1  N   UNL d   1      -2.495   0.993  -0.090  0.00  0.00    -0.288 N 
ATOM      2  C   UNL d   1      -3.787   0.712  -0.378  0.00  0.00     0.326 C 
ATOM      3  N   UNL d   1      -4.070  -0.385  -1.138  0.00  0.00    -0.309 N 
ATOM      4  O   UNL d   1      -4.604   1.555   0.002  0.00  0.00    -0.247 OA
ATOM      5  H   UNL d   1      -2.369   1.916   0.295  0.00  0.00     0.172 HD
ATOM      6  H   UNL d   1      -3.330  -1.075  -1.223  0.00  0.00     0.170 HD
ENDROOT
BRANCH   1   7
ATOM      7  C   UNL d   1      -1.376   0.240  -0.212  0.00  0.00     0.153 C 
ATOM      8  N   UNL d   1      -1.220  -1.034  -0.462  0.00  0.00    -0.335 N 
ATOM      9  C   UNL d   1       0.136  -1.356  -0.280  0.00  0.00     0.057 C 
ATOM     10  HN  UNL d   1      -1.956  -1.683  -0.741  1.00  0.00     0.168 HD
ATOM     11  C   UNL d   1       0.980  -0.268  -0.084  0.00  0.00     0.010 C 
ATOM     12  S   UNL d   1       0.032   1.151   0.082  0.00  0.00    -0.057 SA
ATOM     13  C   UNL d   1       2.462  -0.159   0.040  0.00  0.00     0.059 C 
BRANCH   9  14
ATOM     14  C   UNL d   1       0.566  -2.752  -0.264  0.00  0.00    -0.007 A 
ATOM     15  C   UNL d   1      -0.018  -3.675  -1.136  0.00  0.00     0.038 A 
ATOM     16  C   UNL d   1       0.306  -5.035  -1.054  0.00  0.00     0.040 A 
ATOM     17 CL   UNL d   1      -0.483  -6.118  -2.146  0.00  0.00    -0.084 Cl
ATOM     18  C   UNL d   1       1.224  -5.503  -0.100  0.00  0.00    -0.040 A 
ATOM     19  C   UNL d   1       1.821  -4.574   0.760  0.00  0.00     0.009 A 
ATOM     20  C   UNL d   1       1.542  -6.964   0.059  0.00  0.00     0.050 C 
ATOM     21  C   UNL d   1       1.489  -3.218   0.684  0.00  0.00     0.014 A 
ENDBRANCH   9  14
ENDBRANCH   1   7
BRANCH   3  22
ATOM     22  C   UNL d   1      -5.261  -0.582  -1.886  0.00  0.00     0.036 A 
ATOM     23  C   UNL d   1      -6.299   0.357  -1.945  0.00  0.00     0.030 A 
ATOM     24  C   UNL d   1      -7.376   0.201  -2.823  0.00  0.00     0.018 A 
ATOM     25  C   UNL d   1      -7.450  -0.910  -3.667  0.00  0.00     0.048 A 
ATOM     26  C   UNL d   1      -6.454  -1.892  -3.562  0.00  0.00     0.018 A 
ATOM     27  C   UNL d   1      -5.372  -1.730  -2.680  0.00  0.00     0.030 A 
BRANCH  25  28
ATOM     28  C   UNL d   1      -8.553  -0.990  -4.694  0.00  0.00     0.417 C 
ATOM     29  F   UNL d   1      -8.550  -2.145  -5.415  0.00  0.00    -0.166 F 
ATOM     30  F   UNL d   1      -9.797  -0.892  -4.147  0.00  0.00    -0.166 F 
ATOM     31  F   UNL d   1      -8.473   0.017  -5.611  0.00  0.00    -0.166 F 
ENDBRANCH  25  28
ENDBRANCH   3  22
TORSDOF 4
