REMARK  5 active torsions:
REMARK  status: ('A' for Active; 'I' for Inactive)
REMARK    1  A    between atoms: C_3  and  C_8 
REMARK    2  A    between atoms: C_4  and  C_9 
REMARK    3  A    between atoms: O_18  and  C_14 
REMARK    4  A    between atoms: C_27  and  O_18 
REMARK    5  A    between atoms: C_19  and  C_27 
ROOT
ATOM      1  O   UNL d   1       3.561   1.428   0.082  0.00  0.00    -0.346 OA
ENDROOT
BRANCH   1   2
ATOM      2  C   UNL d   1       2.421   0.660   0.024  0.00  0.00     0.077 A 
ATOM      3  C   UNL d   1       1.191   1.360   0.071  0.00  0.00     0.006 A 
ATOM      4  C   UNL d   1      -0.017   0.634   0.025  0.00  0.00     0.092 A 
ATOM      5  C   UNL d   1       1.204   2.865   0.142  0.00  0.00     0.054 C 
ATOM      6  C   UNL d   1       0.022  -0.764   0.003  0.00  0.00     0.044 A 
ATOM      7  O   UNL d   1      -1.200   1.341  -0.002  0.00  0.00    -0.339 OA
ATOM      8  C   UNL d   1      -1.240  -1.521   0.048  0.00  0.00     0.165 C 
ATOM      9  C   UNL d   1       1.233  -1.451  -0.041  0.00  0.00     0.021 A 
ATOM     10  O   UNL d   1      -1.265  -2.741  -0.109  0.00  0.00    -0.292 OA
ATOM     11  C   UNL d   1      -2.463  -0.717   0.348  0.00  0.00     0.121 C 
ATOM     12  C   UNL d   1      -2.366   0.599  -0.422  0.00  0.00     0.067 C 
ATOM     13  C   UNL d   1      -2.348   0.405  -1.950  0.00  0.00     0.046 C 
ATOM     14  C   UNL d   1      -3.598   1.448  -0.073  0.00  0.00     0.046 C 
ATOM     15  C   UNL d   1       2.431  -0.739  -0.034  0.00  0.00     0.038 A 
ENDBRANCH   1   2
BRANCH   1  16
ATOM     16  C   UNL d   1       4.719   0.910  -0.581  0.00  0.00     0.214 C 
BRANCH  16  17
ATOM     17  C   UNL d   1       5.897   1.861  -0.444  0.00  0.00    -0.033 A 
ATOM     18  C   UNL d   1       7.206   1.344  -0.442  0.00  0.00     0.025 A 
ATOM     19  C   UNL d   1       8.323   2.189  -0.335  0.00  0.00     0.049 A 
ATOM     20  C   UNL d   1       8.115   3.572  -0.238  0.00  0.00     0.032 A 
ATOM     21  C   UNL d   1       6.822   4.116  -0.252  0.00  0.00     0.049 A 
ATOM     22  C   UNL d   1       5.721   3.252  -0.366  0.00  0.00     0.025 A 
BRANCH  19  23
ATOM     23  C   UNL d   1       9.728   1.632  -0.311  0.00  0.00     0.417 C 
ATOM     24  F   UNL d   1      10.681   2.601  -0.203  0.00  0.00    -0.166 F 
ATOM     25  F   UNL d   1       9.938   0.786   0.734  0.00  0.00    -0.166 F 
ATOM     26  F   UNL d   1      10.040   0.929  -1.435  0.00  0.00    -0.166 F 
ENDBRANCH  19  23
BRANCH  21  27
ATOM     27  C   UNL d   1       6.624   5.610  -0.155  0.00  0.00     0.417 C 
ATOM     28  F   UNL d   1       7.798   6.295  -0.049  0.00  0.00    -0.166 F 
ATOM     29  F   UNL d   1       5.992   6.123  -1.245  0.00  0.00    -0.166 F 
ATOM     30  F   UNL d   1       5.880   5.980   0.924  0.00  0.00    -0.166 F 
ENDBRANCH  21  27
ENDBRANCH  16  17
ENDBRANCH   1  16
TORSDOF 5
