REMARK  3 active torsions:
REMARK  status: ('A' for Active; 'I' for Inactive)
REMARK       I    between atoms: N_4  and  C_1 
REMARK    1  A    between atoms: C_6  and  C_1 
REMARK    2  A    between atoms: C_8  and  N_4 
REMARK    3  A    between atoms: C_22  and  C_20 
ROOT
ATOM      1  N   UNL d   1       2.983   3.331  -5.355  0.00  0.00    -0.359 N 
ATOM      2  HN  UNL d   1       2.511   4.111  -5.811  1.00  0.00     0.166 HD
ATOM      3  C   UNL d   1       2.428   2.718  -4.294  0.00  0.00     0.042 A 
ATOM      4  C   UNL d   1       3.054   1.642  -3.636  0.00  0.00    -0.007 A 
ATOM      5  C   UNL d   1       1.209   1.470  -2.058  0.00  0.00     0.035 A 
ATOM      6  C   UNL d   1       2.445   1.028  -2.530  0.00  0.00     0.043 A 
ATOM      7  C   UNL d   1       1.194   3.139  -3.818  0.00  0.00     0.033 A 
ATOM      8  C   UNL d   1       4.183   2.888  -5.805  0.00  0.00     0.005 A 
ATOM      9  C   UNL d   1       4.291   1.204  -4.117  0.00  0.00     0.015 A 
ATOM     10  C   UNL d   1       0.578   2.523  -2.719  0.00  0.00     0.032 A 
ATOM     11  C   UNL d   1       4.866   1.833  -5.215  0.00  0.00     0.025 A 
ATOM     12  C   UNL d   1       4.771   3.586  -6.993  0.00  0.00     0.068 C 
ENDROOT
BRANCH   5  13
ATOM     13  N   UNL d   1       0.555   0.894  -0.948  0.00  0.00    -0.323 N 
ATOM     14  C   UNL d   1       1.107  -0.000  -0.048  0.00  0.00     0.256 C 
ATOM     15  O   UNL d   1       2.275  -0.372  -0.010  0.00  0.00    -0.267 OA
ATOM     16  H   UNL d   1      -0.368   1.253  -0.738  0.00  0.00     0.169 HD
BRANCH  14  17
ATOM     17  C   UNL d   1       0.184  -0.500   1.003  0.00  0.00     0.032 A 
ATOM     18  C   UNL d   1      -1.165  -0.764   0.741  0.00  0.00     0.017 A 
ATOM     19  C   UNL d   1      -1.983  -1.264   1.758  0.00  0.00     0.008 A 
ATOM     20  C   UNL d   1      -1.461  -1.515   3.035  0.00  0.00    -0.059 A 
ATOM     21  C   UNL d   1      -0.109  -1.250   3.286  0.00  0.00     0.008 A 
ATOM     22  C   UNL d   1       0.711  -0.754   2.275  0.00  0.00     0.017 A 
BRANCH  20  23
ATOM     23  C   UNL d   1      -2.343  -2.053   4.133  0.00  0.00     0.034 C 
ATOM     24  C   UNL d   1      -2.995  -0.935   4.930  0.00  0.00     0.010 C 
ENDBRANCH  20  23
ENDBRANCH  14  17
ENDBRANCH   5  13
TORSDOF 3
