REMARK  4 active torsions:
REMARK  status: ('A' for Active; 'I' for Inactive)
REMARK       I    between atoms: C_7  and  N_1 
REMARK    1  A    between atoms: C_9  and  C_4 
REMARK    2  A    between atoms: C_10  and  C_7 
REMARK    3  A    between atoms: C_8  and  O_16 
REMARK       I    between atoms: N_17  and  C_8 
REMARK    4  A    between atoms: O_16  and  N_11 
ROOT
ATOM      1  N   UNL d   1      -0.331  -1.037   0.051  0.00  0.00    -0.233 N 
ATOM      2  N   UNL d   1       0.965  -0.668   0.191  0.00  0.00    -0.289 N 
ATOM      3  HN  UNL d   1       1.766  -1.279   0.352  1.00  0.00     0.188 HD
ATOM      4  C   UNL d   1       0.976   0.674   0.075  0.00  0.00     0.084 A 
ATOM      5  C   UNL d   1      -1.149   0.064  -0.103  0.00  0.00     0.141 A 
ATOM      6  C   UNL d   1      -0.338   1.163  -0.049  0.00  0.00     0.058 A 
ATOM      7  C   UNL d   1      -0.745  -2.386   0.056  0.00  0.00     0.250 C 
ATOM      8  O   UNL d   1      -1.874  -2.628  -0.367  0.00  0.00    -0.270 OA
ATOM      9 BR   UNL d   1      -0.870   2.951  -0.148  0.00  0.00    -0.047 Br
ENDROOT
BRANCH   4  10
ATOM     10  C   UNL d   1       2.223   1.426   0.077  0.00  0.00     0.147 C 
ATOM     11  N   UNL d   1       3.340   0.776   0.099  0.00  0.00    -0.265 N 
ATOM     12  HN  UNL d   1       3.426  -0.240   0.137  1.00  0.00     0.194 HD
BRANCH  11  13
ATOM     13  O   UNL d   1       4.426   1.684   0.061  0.00  0.00    -0.181 OA
BRANCH  13  14
ATOM     14  C   UNL d   1       5.638   1.012   0.028  0.00  0.00     0.382 C 
ATOM     15  O   UNL d   1       6.708   1.610   0.004  0.00  0.00    -0.236 OA
ATOM     16  N   UNL d   1       5.507  -0.350   0.025  0.00  0.00    -0.340 N 
ATOM     17  C   UNL d   1       6.593  -1.285   0.013  0.00  0.00     0.151 C 
ATOM     18  H   UNL d   1       4.538  -0.659   0.051  0.00  0.00     0.164 HD
ENDBRANCH  13  14
ENDBRANCH  11  13
ENDBRANCH   4  10
BRANCH   7  19
ATOM     19  C   UNL d   1       0.174  -3.428   0.720  0.00  0.00     0.032 C 
ATOM     20  C   UNL d   1       0.338  -3.087   2.211  0.00  0.00     0.025 C 
ATOM     21  C   UNL d   1      -0.551  -4.794   0.634  0.00  0.00     0.025 C 
ATOM     22  C   UNL d   1       1.541  -3.611   0.046  0.00  0.00     0.025 C 
ENDBRANCH   7  19
TORSDOF 4
