REMARK  4 active torsions:
REMARK  status: ('A' for Active; 'I' for Inactive)
REMARK    1  A    between atoms: C_6  and  C_1 
REMARK    2  A    between atoms: C_8  and  N_2 
REMARK    3  A    between atoms: C_7  and  C_3 
REMARK    4  A    between atoms: O_11  and  C_6 
ROOT
ATOM      1  C   UNL d   1      -0.307   1.149   0.091  0.00  0.00     0.062 C 
ATOM      2  N   UNL d   1       1.080  -0.697   0.029  0.00  0.00    -0.318 N 
ATOM      3  C   UNL d   1      -0.280  -1.147   0.049  0.00  0.00     0.026 C 
ATOM      4  C   UNL d   1       1.002   0.722  -0.086  0.00  0.00     0.030 C 
ATOM      5  C   UNL d   1      -1.084  -0.016   0.133  0.00  0.00     0.046 C 
ATOM      6  C   UNL d   1       2.135   1.655  -0.406  0.00  0.00     0.070 C 
ENDROOT
BRANCH   2   7
ATOM      7  C   UNL d   1       2.336  -1.469   0.079  0.00  0.00     0.039 A 
ATOM      8  C   UNL d   1       3.573  -0.850   0.331  0.00  0.00     0.030 A 
ATOM      9  C   UNL d   1       4.798  -1.541   0.266  0.00  0.00     0.002 A 
ATOM     10  C   UNL d   1       4.822  -2.902   0.015  0.00  0.00     0.000 A 
ATOM     11  C   UNL d   1       3.619  -3.565  -0.139  0.00  0.00     0.002 A 
ATOM     12  C   UNL d   1       2.406  -2.856  -0.103  0.00  0.00     0.030 A 
ENDBRANCH   2   7
BRANCH   3  13
ATOM     13  C   UNL d   1      -0.861  -2.578   0.075  0.00  0.00    -0.008 C 
ATOM     14  C   UNL d   1      -2.427  -2.569   0.154  0.00  0.00     0.021 C 
ATOM     15  C   UNL d   1      -0.589  -3.320  -1.256  0.00  0.00     0.021 C 
ATOM     16  C   UNL d   1      -0.445  -3.312   1.370  0.00  0.00     0.021 C 
ENDBRANCH   3  13
BRANCH   1  17
ATOM     17  C   UNL d   1      -0.768   2.542   0.175  0.00  0.00     0.178 C 
ATOM     18  O   UNL d   1      -0.040   3.486   0.460  0.00  0.00    -0.646 OA
BRANCH  17  19
ATOM     19  O   UNL d   1      -2.087   2.728  -0.083  0.00  0.00    -0.773 OA
ATOM     20  H   UNL d   1      -2.531   1.918  -0.387  0.00  0.00     0.167 HD
ENDBRANCH  17  19
ENDBRANCH   1  17
TORSDOF 4
