REMARK  7 active torsions:
REMARK  status: ('A' for Active; 'I' for Inactive)
REMARK    1  A    between atoms: O_4  and  C_1 
REMARK    2  A    between atoms: C_9  and  O_4 
REMARK       I    between atoms: C_14  and  N_17 
REMARK    3  A    between atoms: C_24  and  C_14 
REMARK    4  A    between atoms: C_16  and  C_25 
REMARK    5  A    between atoms: O_27  and  C_16 
REMARK    6  A    between atoms: N_17  and  C_21 
REMARK    7  A    between atoms: C_25  and  C_24 
ROOT
ATOM      1  N   UNL d   1       3.205   3.392  -1.156  0.00  0.00    -0.344 N 
ATOM      2  HN  UNL d   1       2.859   2.936  -2.001  1.00  0.00     0.167 HD
ATOM      3  C   UNL d   1       2.490   3.407  -0.011  0.00  0.00     0.149 A 
ATOM      4  C   UNL d   1       4.911   4.715  -0.027  0.00  0.00     0.050 A 
ATOM      5  C   UNL d   1       4.407   4.013  -1.123  0.00  0.00     0.119 A 
ATOM      6  C   UNL d   1       2.881   4.101   1.122  0.00  0.00     0.059 A 
ATOM      7  C   UNL d   1       4.107   4.764   1.109  0.00  0.00     0.035 A 
ENDROOT
BRANCH   3   8
ATOM      8  O   UNL d   1       1.244   2.808   0.047  0.00  0.00    -0.276 OA
BRANCH   8   9
ATOM      9  C   UNL d   1       1.060   1.641  -0.686  0.00  0.00     0.163 A 
ATOM     10  C   UNL d   1      -0.239   1.378  -1.131  0.00  0.00     0.042 A 
ATOM     11  C   UNL d   1      -0.386   0.167  -1.815  0.00  0.00     0.049 A 
ATOM     12  C   UNL d   1      -1.357   2.222  -0.925  0.00  0.00     0.020 A 
ATOM     13  C   UNL d   1      -1.645  -0.179  -2.285  0.00  0.00     0.054 A 
ATOM     14  N   UNL d   1       0.637  -0.673  -2.021  0.00  0.00    -0.351 N 
ATOM     15  C   UNL d   1      -2.750   0.648  -2.078  0.00  0.00     0.036 A 
ATOM     16  C   UNL d   1      -2.613   1.851  -1.396  0.00  0.00     0.025 A 
ATOM     17 CL   UNL d   1      -4.296   0.172  -2.662  0.00  0.00    -0.084 Cl
ATOM     18  C   UNL d   1       1.826  -0.322  -1.512  0.00  0.00     0.182 A 
ATOM     19  HN  UNL d   1       0.516  -1.541  -2.543  1.00  0.00     0.166 HD
ATOM     20  N   UNL d   1       2.090   0.784  -0.817  0.00  0.00    -0.332 N 
ATOM     21  HN  UNL d   1       3.007   0.968  -0.411  1.00  0.00     0.168 HD
ENDBRANCH   8   9
ENDBRANCH   3   8
BRANCH   4  22
ATOM     22  N   UNL d   1       6.192   5.302  -0.120  0.00  0.00    -0.326 N 
ATOM     23  C   UNL d   1       6.841   6.008   0.869  0.00  0.00     0.222 C 
ATOM     24  O   UNL d   1       6.376   6.339   1.961  0.00  0.00    -0.273 OA
ATOM     25  H   UNL d   1       6.704   5.118  -0.976  0.00  0.00     0.169 HD
BRANCH  23  26
ATOM     26  C   UNL d   1       8.290   6.314   0.552  0.00  0.00     0.113 C 
BRANCH  26  27
ATOM     27  C   UNL d   1       9.117   6.161   1.824  0.00  0.00     0.119 C 
BRANCH  27  28
ATOM     28  C   UNL d   1       9.045   4.738   2.318  0.00  0.00     0.139 C 
ATOM     29  O   UNL d   1       9.822   3.865   1.964  0.00  0.00    -0.650 OA
BRANCH  28  30
ATOM     30  O   UNL d   1       7.994   4.493   3.132  0.00  0.00    -0.776 OA
ATOM     31  H   UNL d   1       7.366   5.249   3.213  0.00  0.00     0.167 HD
ENDBRANCH  28  30
ENDBRANCH  27  28
ENDBRANCH  26  27
ENDBRANCH  23  26
ENDBRANCH   4  22
TORSDOF 7
