REMARK  3 active torsions:
REMARK  status: ('A' for Active; 'I' for Inactive)
REMARK    1  A    between atoms: C_5  and  N_1 
REMARK    2  A    between atoms: N_12  and  C_9 
REMARK    3  A    between atoms: C_10  and  C_13 
ROOT
ATOM      1  C   UNL d   1       3.604  -1.271  -0.096  0.00  0.00     0.071 A 
ATOM      2  C   UNL d   1       3.806  -2.112  -1.222  0.00  0.00     0.058 A 
ATOM      3  C   UNL d   1       4.646  -0.999   0.821  0.00  0.00     0.048 A 
ATOM      4  C   UNL d   1       5.925  -1.538   0.641  0.00  0.00     0.050 A 
ATOM      5  C   UNL d   1       5.096  -2.665  -1.341  0.00  0.00     0.032 A 
ATOM      6  C   UNL d   1       6.134  -2.384  -0.447  0.00  0.00     0.018 A 
ENDROOT
BRANCH   1   7
ATOM      7  N   UNL d   1       2.383  -0.573   0.115  0.00  0.00    -0.265 N 
ATOM      8  C   UNL d   1       1.444  -1.165   0.963  0.00  0.00     0.266 C 
ATOM      9  C   UNL d   1       0.087  -0.593   0.888  0.00  0.00     0.060 A 
ATOM     10  O   UNL d   1       1.649  -2.128   1.698  0.00  0.00    -0.267 OA
ATOM     11  C   UNL d   1      -1.022  -1.306   1.357  0.00  0.00     0.038 A 
ATOM     12  C   UNL d   1      -0.060   0.624   0.228  0.00  0.00     0.049 A 
ATOM     13  C   UNL d   1      -2.295  -0.777   1.162  0.00  0.00     0.012 A 
ATOM     14 BR   UNL d   1      -3.815  -1.763   1.700  0.00  0.00    -0.051 Br
ATOM     15  C   UNL d   1      -2.460   0.460   0.540  0.00  0.00     0.021 A 
ATOM     16  C   UNL d   1      -1.341   1.160   0.081  0.00  0.00     0.032 A 
ATOM     17  N   UNL d   1       1.020   1.293  -0.353  0.00  0.00    -0.345 N 
ATOM     18  C   UNL d   1       2.160   0.677  -0.434  0.00  0.00     0.087 C 
ATOM     19  HN  UNL d   1       0.915   2.244  -0.707  1.00  0.00     0.167 HD
ATOM     20  C   UNL d   1       3.278   1.415  -1.140  0.00  0.00     0.089 C 
ENDBRANCH   1   7
BRANCH   2  21
ATOM     21  N   UNL d   1       2.855  -2.464  -2.176  0.00  0.00    -0.375 N 
ATOM     22  C   UNL d   1       1.402  -2.446  -1.950  0.00  0.00     0.149 C 
ATOM     23  C   UNL d   1       0.707  -3.538  -2.783  0.00  0.00     0.187 C 
ATOM     24  O   UNL d   1       1.050  -3.466  -4.172  0.00  0.00    -0.388 OA
ATOM     25  C   UNL d   1       2.473  -3.589  -4.330  0.00  0.00     0.187 C 
ATOM     26  C   UNL d   1       3.204  -2.442  -3.614  0.00  0.00     0.149 C 
ENDBRANCH   2  21
BRANCH   4  27
ATOM     27  C   UNL d   1       7.063  -1.214   1.575  0.00  0.00     0.417 C 
ATOM     28  F   UNL d   1       6.727  -0.340   2.563  0.00  0.00    -0.166 F 
ATOM     29  F   UNL d   1       7.562  -2.316   2.197  0.00  0.00    -0.166 F 
ATOM     30  F   UNL d   1       8.116  -0.646   0.921  0.00  0.00    -0.166 F 
ENDBRANCH   4  27
TORSDOF 3
