REMARK  5 active torsions:
REMARK  status: ('A' for Active; 'I' for Inactive)
REMARK    1  A    between atoms: O_4  and  C_1 
REMARK    2  A    between atoms: C_6  and  O_4 
REMARK    3  A    between atoms: C_12  and  C_5 
REMARK       I    between atoms: N_11  and  C_6 
REMARK    4  A    between atoms: C_18  and  C_9 
REMARK    5  A    between atoms: C_24  and  C_18 
ROOT
ATOM      1  C   UNL d   1       0.887  -1.093  -0.694  0.00  0.00     0.163 A 
ATOM      2  N   UNL d   1       1.636   0.008  -0.511  0.00  0.00    -0.321 N 
ATOM      3  HN  UNL d   1       2.655  -0.017  -0.558  1.00  0.00     0.169 HD
ATOM      4  C   UNL d   1       0.963   1.139  -0.264  0.00  0.00     0.117 A 
ATOM      5  N   UNL d   1      -0.380   1.224  -0.225  0.00  0.00    -0.345 N 
ATOM      6  HN  UNL d   1      -0.844   2.107  -0.015  1.00  0.00     0.167 HD
ATOM      7  C   UNL d   1      -0.499  -1.115  -0.746  0.00  0.00     0.016 A 
ATOM      8  C   UNL d   1      -1.097   0.106  -0.470  0.00  0.00     0.017 A 
ATOM      9  C   UNL d   1      -2.585   0.281  -0.376  0.00  0.00     0.069 C 
ENDROOT
BRANCH   4  10
ATOM     10  C   UNL d   1       1.734   2.377  -0.036  0.00  0.00     0.008 A 
ATOM     11  C   UNL d   1       3.138   2.402  -0.128  0.00  0.00     0.016 A 
ATOM     12  C   UNL d   1       3.865   3.575   0.107  0.00  0.00     0.007 A 
ATOM     13  C   UNL d   1       3.209   4.761   0.450  0.00  0.00    -0.062 A 
ATOM     14  C   UNL d   1       1.816   4.762   0.528  0.00  0.00     0.007 A 
ATOM     15  C   UNL d   1       3.999   6.005   0.721  0.00  0.00     0.048 C 
ATOM     16  C   UNL d   1       1.093   3.588   0.289  0.00  0.00     0.016 A 
ENDBRANCH   4  10
BRANCH   1  17
ATOM     17  O   UNL d   1       1.581  -2.270  -1.032  0.00  0.00    -0.243 OA
BRANCH  17  18
ATOM     18  C   UNL d   1       2.584  -2.639  -0.149  0.00  0.00     0.368 C 
ATOM     19  N   UNL d   1       3.474  -3.556  -0.717  0.00  0.00    -0.336 N 
ATOM     20  C   UNL d   1       4.711  -3.809  -0.005  0.00  0.00     0.154 C 
ATOM     21  C   UNL d   1       3.449  -3.861  -2.137  0.00  0.00     0.154 C 
ATOM     22  O   UNL d   1       2.684  -2.244   1.011  0.00  0.00    -0.238 OA
ENDBRANCH  17  18
ENDBRANCH   1  17
BRANCH   7  23
ATOM     23  C   UNL d   1      -1.274  -2.349  -1.120  0.00  0.00     0.044 C 
BRANCH  23  24
ATOM     24  C   UNL d   1      -1.625  -2.432  -2.614  0.00  0.00     0.000 C 
ATOM     25  C   UNL d   1      -0.428  -2.679  -3.522  0.00  0.00     0.005 C 
ENDBRANCH  23  24
ENDBRANCH   7  23
TORSDOF 5
