REMARK  7 active torsions:
REMARK  status: ('A' for Active; 'I' for Inactive)
REMARK    1  A    between atoms: N_3  and  C_1 
REMARK    2  A    between atoms: C_4  and  C_2 
REMARK       I    between atoms: C_6  and  N_3 
REMARK    3  A    between atoms: O_15  and  C_4 
REMARK    4  A    between atoms: C_13  and  C_6 
REMARK    5  A    between atoms: C_9  and  C_14 
REMARK    6  A    between atoms: O_16  and  C_9 
REMARK    7  A    between atoms: C_14  and  C_13 
ROOT
ATOM      1  N   UNL d   1      -0.049   2.769   0.176  0.00  0.00    -0.320 N 
ATOM      2  C   UNL d   1       0.686   3.733  -0.490  0.00  0.00     0.223 C 
ATOM      3  O   UNL d   1       1.700   3.539  -1.156  0.00  0.00    -0.273 OA
ATOM      4  H   UNL d   1      -1.057   2.895   0.125  0.00  0.00     0.169 HD
ENDROOT
BRANCH   1   5
ATOM      5  C   UNL d   1       0.349   1.449   0.120  0.00  0.00     0.092 A 
ATOM      6  C   UNL d   1       1.489   0.763   0.501  0.00  0.00     0.073 A 
ATOM      7  C   UNL d   1       1.351  -0.632   0.144  0.00  0.00     0.028 A 
ATOM      8  C   UNL d   1       0.148  -0.930  -0.452  0.00  0.00     0.053 A 
ATOM      9  S   UNL d   1      -0.866   0.440  -0.521  0.00  0.00    -0.083 SA
BRANCH   6  10
ATOM     10  C   UNL d   1       2.652   1.266   1.229  0.00  0.00     0.295 C 
ATOM     11  O   UNL d   1       3.588   0.531   1.532  0.00  0.00    -0.259 OA
BRANCH  10  12
ATOM     12  O   UNL d   1       2.566   2.576   1.600  0.00  0.00    -0.322 OA
ATOM     13  C   UNL d   1       3.683   3.072   2.342  0.00  0.00     0.213 C 
ENDBRANCH  10  12
ENDBRANCH   6  10
ENDBRANCH   1   5
BRANCH   2  14
ATOM     14  C   UNL d   1       0.042   5.107  -0.441  0.00  0.00     0.113 C 
BRANCH  14  15
ATOM     15  C   UNL d   1      -0.186   5.648  -1.844  0.00  0.00     0.119 C 
BRANCH  15  16
ATOM     16  C   UNL d   1      -1.143   4.767  -2.603  0.00  0.00     0.139 C 
ATOM     17  O   UNL d   1      -2.357   4.875  -2.537  0.00  0.00    -0.650 OA
BRANCH  16  18
ATOM     18  O   UNL d   1      -0.535   3.782  -3.300  0.00  0.00    -0.776 OA
ATOM     19  H   UNL d   1       0.438   3.751  -3.205  0.00  0.00     0.167 HD
ENDBRANCH  16  18
ENDBRANCH  15  16
ENDBRANCH  14  15
ENDBRANCH   2  14
TORSDOF 7
