REMARK  6 active torsions:
REMARK  status: ('A' for Active; 'I' for Inactive)
REMARK    1  A    between atoms: S_2  and  C_1 
REMARK    2  A    between atoms: N_8  and  S_2 
REMARK    3  A    between atoms: C_9  and  C_3 
REMARK    4  A    between atoms: C_12  and  C_4 
REMARK    5  A    between atoms: C_7  and  C_5 
REMARK    6  A    between atoms: O_17  and  C_9 
ROOT
ATOM      1  C   UNL d   1       1.656   0.592   0.019  0.00  0.00     0.110 A 
ATOM      2  C   UNL d   1       0.401   1.163   0.133  0.00  0.00     0.104 A 
ATOM      3  C   UNL d   1       1.592  -0.855  -0.119  0.00  0.00     0.021 A 
ATOM      4  C   UNL d   1       0.280  -1.315  -0.021  0.00  0.00     0.102 A 
ATOM      5  S   UNL d   1      -0.830  -0.015   0.139  0.00  0.00    -0.077 SA
ENDROOT
BRANCH   1   6
ATOM      6  S   UNL d   1       3.141   1.511   0.057  0.00  0.00     0.246 S 
ATOM      7  O   UNL d   1       3.822   1.131  -1.158  0.00  0.00    -0.206 OA
ATOM      8  O   UNL d   1       2.771   2.881   0.317  0.00  0.00    -0.206 OA
BRANCH   6   9
ATOM      9  N   UNL d   1       4.065   1.015   1.393  0.00  0.00    -0.206 NA
ATOM     10  C   UNL d   1       3.519   1.346   2.736  0.00  0.00     0.107 C 
ATOM     11  C   UNL d   1       4.473   2.384   3.300  0.00  0.00     0.017 C 
ATOM     12  C   UNL d   1       5.812   1.919   2.766  0.00  0.00     0.017 C 
ATOM     13  C   UNL d   1       5.486   1.474   1.347  0.00  0.00     0.107 C 
ENDBRANCH   6   9
ENDBRANCH   1   6
BRANCH   2  14
ATOM     14  C   UNL d   1      -0.009   2.541   0.292  0.00  0.00     0.301 C 
ATOM     15  O   UNL d   1      -0.657   2.969   1.239  0.00  0.00    -0.259 OA
BRANCH  14  16
ATOM     16  O   UNL d   1       0.375   3.269  -0.792  0.00  0.00    -0.322 OA
ATOM     17  C   UNL d   1       0.155   4.680  -0.697  0.00  0.00     0.213 C 
ENDBRANCH  14  16
ENDBRANCH   2  14
BRANCH   3  18
ATOM     18  C   UNL d   1       2.699  -1.797  -0.305  0.00  0.00    -0.023 A 
ATOM     19  C   UNL d   1       3.662  -1.974   0.694  0.00  0.00     0.012 A 
ATOM     20  C   UNL d   1       4.722  -2.865   0.516  0.00  0.00     0.001 A 
ATOM     21  C   UNL d   1       4.798  -3.634  -0.641  0.00  0.00     0.000 A 
ATOM     22  C   UNL d   1       3.824  -3.498  -1.628  0.00  0.00     0.001 A 
ATOM     23  C   UNL d   1       2.789  -2.569  -1.472  0.00  0.00     0.012 A 
ENDBRANCH   3  18
BRANCH   4  24
ATOM     24  C   UNL d   1      -0.293  -2.703  -0.033  0.00  0.00     0.424 C 
ATOM     25  F   UNL d   1       0.632  -3.688   0.064  0.00  0.00    -0.166 F 
ATOM     26  F   UNL d   1      -1.154  -2.900   1.004  0.00  0.00    -0.166 F 
ATOM     27  F   UNL d   1      -0.996  -2.942  -1.172  0.00  0.00    -0.166 F 
ENDBRANCH   4  24
TORSDOF 6
