REMARK  5 active torsions:
REMARK  status: ('A' for Active; 'I' for Inactive)
REMARK    1  A    between atoms: C_2  and  C_1 
REMARK    2  A    between atoms: O_4  and  C_2 
REMARK    3  A    between atoms: C_9  and  O_4 
REMARK    4  A    between atoms: C_5  and  C_9 
REMARK    5  A    between atoms: C_6  and  C_5 
ROOT
ATOM      1  C   UNL d   1       0.481   2.666   0.554  0.00  0.00     0.294 C 
ATOM      2  O   UNL d   1      -0.181   2.630   1.577  0.00  0.00    -0.259 OA
ENDROOT
BRANCH   1   3
ATOM      3  C   UNL d   1       1.537   1.693   0.206  0.00  0.00     0.051 A 
ATOM      4  C   UNL d   1       1.301   0.279   0.070  0.00  0.00     0.007 A 
ATOM      5  C   UNL d   1       0.059  -0.440  -0.029  0.00  0.00     0.018 A 
ATOM      6  C   UNL d   1       2.477  -0.527   0.010  0.00  0.00    -0.024 A 
ATOM      7  I   UNL d   1      -1.836   0.450  -0.372  0.00  0.00    -0.044 I 
ATOM      8  C   UNL d   1       0.011  -1.846  -0.053  0.00  0.00     0.019 A 
ATOM      9  C   UNL d   1       1.179  -2.588  -0.029  0.00  0.00     0.002 A 
ATOM     10  C   UNL d   1       2.401  -1.929  -0.023  0.00  0.00     0.012 A 
ATOM     11  C   UNL d   1       3.757   0.051  -0.022  0.00  0.00     0.012 A 
ATOM     12  C   UNL d   1       3.936   1.427   0.029  0.00  0.00     0.002 A 
ATOM     13  C   UNL d   1       2.831   2.248   0.167  0.00  0.00     0.018 A 
ENDBRANCH   1   3
BRANCH   1  14
ATOM     14  O   UNL d   1       0.400   3.582  -0.441  0.00  0.00    -0.310 OA
BRANCH  14  15
ATOM     15  C   UNL d   1      -0.615   4.570  -0.268  0.00  0.00     0.263 C 
BRANCH  15  16
ATOM     16  C   UNL d   1      -0.189   5.792   0.550  0.00  0.00     0.183 C 
ATOM     17  O   UNL d   1       0.940   5.918   1.020  0.00  0.00    -0.290 OA
BRANCH  16  18
ATOM     18  C   UNL d   1      -1.207   6.872   0.766  0.00  0.00     0.012 A 
ATOM     19  C   UNL d   1      -0.989   7.817   1.779  0.00  0.00     0.016 A 
ATOM     20  C   UNL d   1      -1.918   8.837   2.012  0.00  0.00     0.020 A 
ATOM     21  C   UNL d   1      -3.064   8.920   1.226  0.00  0.00     0.011 A 
ATOM     22  C   UNL d   1      -3.289   7.998   0.206  0.00  0.00     0.020 A 
ATOM     23 BR   UNL d   1      -4.328  10.293   1.537  0.00  0.00    -0.051 Br
ATOM     24  C   UNL d   1      -2.363   6.974  -0.023  0.00  0.00     0.016 A 
ENDBRANCH  16  18
ENDBRANCH  15  16
ENDBRANCH  14  15
ENDBRANCH   1  14
TORSDOF 5
