REMARK  12 active torsions:
REMARK  status: ('A' for Active; 'I' for Inactive)
REMARK    1  A    between atoms: C1*_3  and  N_1 
REMARK    2  A    between atoms: N_19  and  C_2 
REMARK    3  A    between atoms: C2*_8  and  O2*_29 
REMARK    4  A    between atoms: C3*_10  and  O3*_32 
REMARK    5  A    between atoms: C4*_11  and  C5*_35 
REMARK    6  A    between atoms: C_12  and  O_20 
REMARK    7  A    between atoms: C_16  and  C_12 
REMARK    8  A    between atoms: N_30  and  C_15 
REMARK    9  A    between atoms: N_21  and  N_19 
REMARK   10  A    between atoms: O_20  and  C_33 
REMARK   11  A    between atoms: C_34  and  C_31 
REMARK   12  A    between atoms: O5*_40  and  C5*_35 
ROOT
ATOM      1  N   UNL d   1       1.611   1.107  -0.084  0.00  0.00    -0.134 N 
ATOM      2  C   UNL d   1       2.414  -0.013   0.019  0.00  0.00     0.703 C 
ATOM      3  C   UNL d   1       0.314   0.688   0.074  0.00  0.00     0.158 A 
ATOM      4  N   UNL d   1       1.687  -1.113   0.049  0.00  0.00    -0.182 N 
ATOM      5  HN  UNL d   1       2.024  -2.075   0.056  1.00  0.00     0.184 HD
ATOM      6  C   UNL d   1       0.382  -0.692   0.070  0.00  0.00     0.137 A 
ATOM      7  N   UNL d   1      -0.793   1.444   0.146  0.00  0.00    -0.336 N 
ATOM      8  HN  UNL d   1      -0.797   2.463   0.161  1.00  0.00     0.168 HD
ATOM      9  C   UNL d   1      -0.838  -1.387   0.075  0.00  0.00     0.131 A 
ATOM     10  N   UNL d   1      -1.984  -0.674   0.159  0.00  0.00    -0.337 N 
ATOM     11  HN  UNL d   1      -2.890  -1.143   0.193  1.00  0.00     0.168 HD
ATOM     12  C   UNL d   1      -1.900   0.672   0.195  0.00  0.00     0.183 A 
ENDROOT
BRANCH   2  13
ATOM     13  N   UNL d   1       3.770   0.080  -0.007  0.00  0.00    -0.132 N 
ATOM     14  H   UNL d   1       4.182   1.019  -0.010  0.00  0.00     0.205 HD
BRANCH  13  15
ATOM     15  N   UNL d   1       4.523  -0.974  -0.415  0.00  0.00    -0.297 N 
ATOM     16  C   UNL d   1       5.739  -0.718  -0.776  0.00  0.00     0.119 C 
ATOM     17  HN  UNL d   1       4.148  -1.923  -0.436  1.00  0.00     0.186 HD
BRANCH  16  18
ATOM     18  C   UNL d   1       6.604  -1.777  -1.322  0.00  0.00    -0.019 A 
ATOM     19  C   UNL d   1       6.260  -3.122  -1.162  0.00  0.00     0.015 A 
ATOM     20  C   UNL d   1       7.094  -4.111  -1.676  0.00  0.00     0.038 A 
ATOM     21  C   UNL d   1       8.254  -3.749  -2.365  0.00  0.00     0.079 A 
ATOM     22  C   UNL d   1       8.595  -2.410  -2.545  0.00  0.00     0.038 A 
ATOM     23  C   UNL d   1       7.762  -1.417  -2.020  0.00  0.00     0.015 A 
BRANCH  21  24
ATOM     24  O   UNL d   1       9.066  -4.830  -2.764  0.00  0.00    -0.273 OA
BRANCH  24  25
ATOM     25  C   UNL d   1       9.982  -4.813  -3.816  0.00  0.00     0.322 C 
ATOM     26  O   UNL d   1      10.172  -3.874  -4.584  0.00  0.00    -0.257 OA
BRANCH  25  27
ATOM     27  C   UNL d   1      10.666  -6.085  -3.866  0.00  0.00     0.150 A 
ATOM     28  O   UNL d   1      10.411  -7.034  -2.906  0.00  0.00    -0.317 OA
ATOM     29  C   UNL d   1      11.180  -8.115  -3.188  0.00  0.00     0.143 A 
ATOM     30  C   UNL d   1      11.931  -7.889  -4.316  0.00  0.00     0.027 A 
ATOM     31  C   UNL d   1      11.606  -6.581  -4.751  0.00  0.00     0.045 A 
ENDBRANCH  25  27
ENDBRANCH  24  25
ENDBRANCH  21  24
ENDBRANCH  16  18
ENDBRANCH  13  15
ENDBRANCH   2  13
BRANCH   1  32
ATOM     32  C1* UNL d   1       2.002   2.483  -0.334  0.00  0.00     0.279 C 
ATOM     33  C2* UNL d   1       1.230   3.225  -1.437  0.00  0.00     0.199 C 
ATOM     34  C3* UNL d   1       2.045   2.936  -2.685  0.00  0.00     0.182 C 
ATOM     35  C4* UNL d   1       3.470   2.883  -2.148  0.00  0.00     0.179 C 
ATOM     36  O4* UNL d   1       3.402   2.533  -0.743  0.00  0.00    -0.353 OA
BRANCH  33  37
ATOM     37  O2* UNL d   1       1.221   4.654  -1.221  0.00  0.00    -0.388 OA
ATOM     38  H2* UNL d   1       2.068   4.917  -0.821  0.00  0.00     0.210 HD
ENDBRANCH  33  37
BRANCH  34  39
ATOM     39  O3* UNL d   1       1.902   3.962  -3.665  0.00  0.00    -0.390 OA
ATOM     40  H3* UNL d   1       1.439   4.704  -3.224  0.00  0.00     0.210 HD
ENDBRANCH  34  39
BRANCH  35  41
ATOM     41  C5* UNL d   1       4.356   1.898  -2.919  0.00  0.00     0.198 C 
BRANCH  41  42
ATOM     42  O5* UNL d   1       3.771   0.604  -3.013  0.00  0.00    -0.398 OA
ATOM     43  H5* UNL d   1       3.807   0.155  -2.141  0.00  0.00     0.209 HD
ENDBRANCH  41  42
ENDBRANCH  35  41
ENDBRANCH   1  32
BRANCH   9  44
ATOM     44  N   UNL d   1      -0.919  -2.768  -0.015  0.00  0.00    -0.383 N 
ATOM     45  H   UNL d   1      -0.060  -3.249   0.224  0.00  0.00     0.157 HD
ATOM     46  H   UNL d   1      -1.796  -3.143   0.315  0.00  0.00     0.157 HD
ENDBRANCH   9  44
TORSDOF 12
