REMARK  2 active torsions:
REMARK  status: ('A' for Active; 'I' for Inactive)
REMARK    1  A    between atoms: C_9  and  C_1 
REMARK    2  A    between atoms: O_11  and  C_9 
ROOT
ATOM      1  C   UNL d   1       1.315   0.015   0.036  0.00  0.00    -0.015 C 
ATOM      2  C   UNL d   1       0.740   1.437  -0.297  0.00  0.00    -0.004 C 
ATOM      3  C   UNL d   1      -0.819   1.386  -0.338  0.00  0.00    -0.010 C 
ATOM      4  C   UNL d   1      -1.312  -0.048  -0.035  0.00  0.00    -0.010 C 
ATOM      5  C   UNL d   1       0.795  -0.947  -1.075  0.00  0.00     0.012 C 
ATOM      6  C   UNL d   1       0.730  -0.484   1.381  0.00  0.00     0.012 C 
ATOM      7  C   UNL d   1      -0.803  -0.438   1.364  0.00  0.00     0.006 C 
ATOM      8  C   UNL d   1      -0.736  -1.048  -1.045  0.00  0.00     0.006 C 
ATOM      9  C   UNL d   1       1.192   2.540   0.669  0.00  0.00     0.011 C 
ATOM     10  C   UNL d   1      -1.353   1.920  -1.670  0.00  0.00     0.011 C 
ENDROOT
BRANCH   1  11
ATOM     11  C   UNL d   1       2.852  -0.021   0.091  0.00  0.00     0.173 C 
BRANCH  11  12
ATOM     12  O   UNL d   1       3.439   0.369  -1.143  0.00  0.00    -0.400 OA
ATOM     13  H   UNL d   1       3.452  -0.414  -1.720  0.00  0.00     0.209 HD
ENDBRANCH  11  12
ENDBRANCH   1  11
TORSDOF 2
