REMARK  8 active torsions:
REMARK  status: ('A' for Active; 'I' for Inactive)
REMARK    1  A    between atoms: C_4  and  S_1 
REMARK    2  A    between atoms: N_8  and  S_1 
REMARK       I    between atoms: C_2  and  N_3 
REMARK    3  A    between atoms: C_7  and  C_2 
REMARK    4  A    between atoms: N_3  and  C_14 
REMARK    5  A    between atoms: C_23  and  N_8 
REMARK    6  A    between atoms: C_21  and  C_23 
REMARK    7  A    between atoms: C_24  and  C_21 
REMARK    8  A    between atoms: O_22  and  C_24 
ROOT
ATOM      1  C   UNL d   1       0.572   0.678  -1.575  0.00  0.00     0.079 A 
ATOM      2  C   UNL d   1       0.185  -0.260  -2.533  0.00  0.00     0.027 A 
ATOM      3  C   UNL d   1       0.542   2.041  -1.871  0.00  0.00     0.027 A 
ATOM      4  C   UNL d   1      -0.314   1.546  -4.093  0.00  0.00     0.035 A 
ATOM      5  C   UNL d   1       0.101   2.469  -3.128  0.00  0.00     0.031 A 
ATOM      6  C   UNL d   1      -0.249   0.177  -3.791  0.00  0.00     0.031 A 
ENDROOT
BRANCH   4   7
ATOM      7  N   UNL d   1      -0.812   1.908  -5.365  0.00  0.00    -0.323 N 
ATOM      8  C   UNL d   1      -1.014   3.192  -5.845  0.00  0.00     0.256 C 
ATOM      9  O   UNL d   1      -0.774   4.240  -5.259  0.00  0.00    -0.267 OA
ATOM     10  H   UNL d   1      -1.018   1.139  -5.988  0.00  0.00     0.169 HD
BRANCH   8  11
ATOM     11  C   UNL d   1      -1.539   3.284  -7.239  0.00  0.00     0.032 A 
ATOM     12  C   UNL d   1      -2.438   2.351  -7.772  0.00  0.00     0.018 A 
ATOM     13  C   UNL d   1      -2.855   2.466  -9.103  0.00  0.00     0.025 A 
ATOM     14  C   UNL d   1      -2.388   3.518  -9.893  0.00  0.00     0.034 A 
ATOM     15  C   UNL d   1      -1.530   4.476  -9.357  0.00  0.00     0.025 A 
ATOM     16 CL   UNL d   1      -2.870   3.629 -11.540  0.00  0.00    -0.084 Cl
ATOM     17  C   UNL d   1      -1.112   4.363  -8.030  0.00  0.00     0.018 A 
ENDBRANCH   8  11
ENDBRANCH   4   7
BRANCH   1  18
ATOM     18  S   UNL d   1       1.034   0.157   0.055  0.00  0.00     0.258 S 
ATOM     19  O   UNL d   1       1.017  -1.291   0.105  0.00  0.00    -0.201 OA
ATOM     20  O   UNL d   1       0.278   0.953   0.995  0.00  0.00    -0.201 OA
BRANCH  18  21
ATOM     21  N   UNL d   1       2.632   0.666   0.183  0.00  0.00    -0.315 N 
ATOM     22  H   UNL d   1       2.805   1.121   1.078  0.00  0.00     0.172 HD
BRANCH  21  23
ATOM     23  C   UNL d   1       3.666  -0.214  -0.371  0.00  0.00     0.134 C 
BRANCH  23  24
ATOM     24  C   UNL d   1       5.035   0.447  -0.234  0.00  0.00     0.046 C 
BRANCH  24  25
ATOM     25  C   UNL d   1       6.137  -0.478  -0.740  0.00  0.00     0.168 C 
BRANCH  25  26
ATOM     26  O   UNL d   1       5.902  -0.765  -2.116  0.00  0.00    -0.396 OA
ATOM     27  C   UNL d   1       6.868  -1.663  -2.644  0.00  0.00     0.201 C 
ENDBRANCH  25  26
ENDBRANCH  24  25
ENDBRANCH  23  24
ENDBRANCH  21  23
ENDBRANCH  18  21
ENDBRANCH   1  18
TORSDOF 8
