REMARK  4 active torsions:
REMARK  status: ('A' for Active; 'I' for Inactive)
REMARK    1  A    between atoms: C_8  and  C_2 
REMARK    2  A    between atoms: O_18  and  C_3 
REMARK    3  A    between atoms: C_16  and  C_6 
REMARK    4  A    between atoms: C_19  and  O_18 
ROOT
ATOM      1  C   UNL d   1       0.597   0.059   0.062  0.00  0.00     0.108 A 
ATOM      2  C   UNL d   1      -0.071   1.292   0.018  0.00  0.00     0.025 A 
ATOM      3  C   UNL d   1      -0.175  -1.102   0.025  0.00  0.00     0.165 A 
ATOM      4  N   UNL d   1      -1.526  -1.106  -0.029  0.00  0.00    -0.335 N 
ATOM      5  HN  UNL d   1      -2.045  -1.984  -0.042  1.00  0.00     0.168 HD
ATOM      6  C   UNL d   1      -2.176   0.082  -0.066  0.00  0.00     0.045 A 
ATOM      7  C   UNL d   1      -1.476   1.282  -0.032  0.00  0.00     0.046 A 
ATOM      8  C   UNL d   1       2.023  -0.042   0.093  0.00  0.00     0.105 C 
ATOM      9  N   UNL d   1       3.181  -0.104   0.124  0.00  0.00    -0.191 NA
ENDROOT
BRANCH   2  10
ATOM     10  C   UNL d   1       0.605   2.593  -0.009  0.00  0.00     0.086 A 
ATOM     11  O   UNL d   1      -0.058   3.573  -0.701  0.00  0.00    -0.322 OA
ATOM     12  C   UNL d   1       0.691   4.702  -0.637  0.00  0.00     0.142 A 
ATOM     13  C   UNL d   1       1.833   4.476   0.090  0.00  0.00     0.027 A 
ATOM     14  C   UNL d   1       1.779   3.117   0.496  0.00  0.00     0.040 A 
ENDBRANCH   2  10
BRANCH   3  15
ATOM     15  O   UNL d   1       0.464  -2.329   0.067  0.00  0.00    -0.321 OA
BRANCH  15  16
ATOM     16  C   UNL d   1      -0.364  -3.399  -0.420  0.00  0.00     0.300 C 
ATOM     17  C   UNL d   1       0.335  -4.695  -0.316  0.00  0.00     0.085 C 
ATOM     18  N   UNL d   1       0.845  -5.735  -0.246  0.00  0.00    -0.195 NA
ENDBRANCH  15  16
ENDBRANCH   3  15
BRANCH   6  19
ATOM     19  C   UNL d   1      -3.648   0.012  -0.176  0.00  0.00    -0.009 A 
ATOM     20  C   UNL d   1      -4.364  -1.066   0.377  0.00  0.00     0.013 A 
ATOM     21  C   UNL d   1      -5.754  -1.159   0.251  0.00  0.00     0.001 A 
ATOM     22  C   UNL d   1      -6.461  -0.173  -0.430  0.00  0.00     0.000 A 
ATOM     23  C   UNL d   1      -5.780   0.907  -0.981  0.00  0.00     0.001 A 
ATOM     24  C   UNL d   1      -4.391   0.997  -0.856  0.00  0.00     0.013 A 
ENDBRANCH   6  19
TORSDOF 4
