REMARK  2 active torsions:
REMARK  status: ('A' for Active; 'I' for Inactive)
REMARK    1  A    between atoms: N_4  and  N_1 
REMARK    2  A    between atoms: C_13  and  C_9 
ROOT
ATOM      1  N   UNL d   1       0.290  -2.441  -0.131  0.00  0.00    -0.300 N 
ATOM      2  HN  UNL d   1      -0.617  -2.836  -0.380  1.00  0.00     0.186 HD
ATOM      3  C   UNL d   1       1.301  -3.219   0.089  0.00  0.00     0.120 C 
ENDROOT
BRANCH   1   4
ATOM      4  N   UNL d   1       0.446  -1.069  -0.025  0.00  0.00    -0.206 N 
ATOM      5  C   UNL d   1      -0.677  -0.296   0.219  0.00  0.00     0.163 A 
ATOM      6  S   UNL d   1      -0.252   1.407   0.226  0.00  0.00    -0.089 SA
ATOM      7  S   UNL d   1      -2.240  -0.814   0.514  0.00  0.00    -0.051 SA
ATOM      8  C   UNL d   1       1.477   1.090  -0.155  0.00  0.00     0.186 A 
ATOM      9  C   UNL d   1       1.633  -0.400  -0.318  0.00  0.00     0.254 A 
ATOM     10  O   UNL d   1       2.696  -0.894  -0.686  0.00  0.00    -0.270 OA
ENDBRANCH   1   4
BRANCH   3  11
ATOM     11  C   UNL d   1       1.169  -4.681  -0.027  0.00  0.00    -0.004 A 
ATOM     12  C   UNL d   1       2.253  -5.490   0.279  0.00  0.00     0.100 A 
ATOM     13  N   UNL d   1       2.217  -6.843   0.232  0.00  0.00    -0.374 N 
ATOM     14  C   UNL d   1       1.045  -7.406  -0.142  0.00  0.00     0.087 A 
ATOM     15  HN  UNL d   1       3.032  -7.410   0.466  1.00  0.00     0.164 HD
ATOM     16  C   UNL d   1      -0.089  -6.680  -0.474  0.00  0.00     0.018 A 
ATOM     17  C   UNL d   1      -0.025  -5.290  -0.414  0.00  0.00     0.015 A 
ENDBRANCH   3  11
TORSDOF 2
