REMARK  5 active torsions:
REMARK  status: ('A' for Active; 'I' for Inactive)
REMARK       I    between atoms: N_2  and  C_1 
REMARK       I    between atoms: N_6  and  C_1 
REMARK    1  A    between atoms: C_4  and  N_2 
REMARK    2  A    between atoms: C_7  and  N_2 
REMARK    3  A    between atoms: C_3  and  C_4 
REMARK    4  A    between atoms: C_17  and  N_6 
REMARK    5  A    between atoms: C_12  and  C_7 
ROOT
ATOM      1  C   UNL d   1       1.330  -0.072  -0.087  0.00  0.00     0.319 C 
ATOM      2  N   UNL d   1       0.645  -1.072   0.584  0.00  0.00    -0.326 N 
ATOM      3  N   UNL d   1       2.671   0.043   0.181  0.00  0.00    -0.339 N 
ATOM      4  O   UNL d   1       0.769   0.696  -0.864  0.00  0.00    -0.247 OA
ATOM      5  H   UNL d   1       3.135  -0.642   0.748  0.00  0.00     0.164 HD
ENDROOT
BRANCH   2   6
ATOM      6  C   UNL d   1      -0.805  -1.168   0.342  0.00  0.00     0.168 C 
BRANCH   6   7
ATOM      7  C   UNL d   1      -1.691  -0.253   1.176  0.00  0.00    -0.017 A 
ATOM      8  C   UNL d   1      -3.099  -0.382   1.117  0.00  0.00     0.063 A 
ATOM      9  C   UNL d   1      -3.928   0.513   1.818  0.00  0.00     0.056 A 
ATOM     10 CL   UNL d   1      -3.811  -1.654   0.166  0.00  0.00    -0.082 Cl
ATOM     11 CL   UNL d   1      -5.656   0.420   1.770  0.00  0.00    -0.083 Cl
ATOM     12  C   UNL d   1      -3.368   1.535   2.586  0.00  0.00     0.026 A 
ATOM     13  C   UNL d   1      -1.985   1.664   2.665  0.00  0.00     0.002 A 
ATOM     14  C   UNL d   1      -1.156   0.780   1.969  0.00  0.00     0.011 A 
ENDBRANCH   6   7
ENDBRANCH   2   6
BRANCH   2  15
ATOM     15  C   UNL d   1       1.254  -2.229   1.247  0.00  0.00     0.167 C 
BRANCH  15  16
ATOM     16  C   UNL d   1       1.406  -3.446   0.363  0.00  0.00    -0.025 A 
ATOM     17  C   UNL d   1       1.472  -4.710   0.945  0.00  0.00     0.096 A 
ATOM     18  N   UNL d   1       1.616  -5.868   0.259  0.00  0.00    -0.375 N 
ATOM     19  C   UNL d   1       1.701  -5.772  -1.084  0.00  0.00     0.087 A 
ATOM     20  HN  UNL d   1       1.658  -6.770   0.734  1.00  0.00     0.164 HD
ATOM     21  C   UNL d   1       1.664  -4.569  -1.767  0.00  0.00     0.018 A 
ATOM     22  C   UNL d   1       1.525  -3.393  -1.031  0.00  0.00     0.011 A 
ENDBRANCH  15  16
ENDBRANCH   2  15
BRANCH   3  23
ATOM     23  C   UNL d   1       3.537   0.904  -0.619  0.00  0.00     0.078 C 
ATOM     24  C   UNL d   1       4.622   1.542   0.244  0.00  0.00     0.032 C 
ATOM     25  C   UNL d   1       4.160   0.083  -1.745  0.00  0.00     0.032 C 
ENDBRANCH   3  23
TORSDOF 5
