REMARK  3 active torsions:
REMARK  status: ('A' for Active; 'I' for Inactive)
REMARK    1  A    between atoms: C_8  and  C_1 
REMARK    2  A    between atoms: N_10  and  N_5 
REMARK    3  A    between atoms: O_12  and  C_8 
ROOT
ATOM      1  C   UNL d   1      -1.506   1.358  -0.175  0.00  0.00     0.074 A 
ATOM      2  C   UNL d   1      -0.170   0.862  -0.092  0.00  0.00     0.036 A 
ATOM      3  C   UNL d   1       1.151   1.462   0.007  0.00  0.00     0.039 C 
ATOM      4  C   UNL d   1      -2.301   0.220  -0.170  0.00  0.00     0.161 A 
ATOM      5  N   UNL d   1       1.261   2.704  -0.367  0.00  0.00    -0.306 N 
ATOM      6  HN  UNL d   1       0.464   3.209  -0.754  1.00  0.00     0.186 HD
ATOM      7  C   UNL d   1      -0.273  -0.513  -0.058  0.00  0.00     0.066 A 
ATOM      8  O   UNL d   1      -1.559  -0.917  -0.105  0.00  0.00    -0.325 OA
ATOM      9  C   UNL d   1       2.227   0.526   0.574  0.00  0.00     0.060 C 
ATOM     10  C   UNL d   1       0.810  -1.520   0.056  0.00  0.00     0.066 C 
ATOM     11  C   UNL d   1       2.163  -0.820  -0.171  0.00  0.00     0.013 C 
ENDROOT
BRANCH   5  12
ATOM     12  N   UNL d   1       2.467   3.309  -0.226  0.00  0.00    -0.328 N 
ATOM     13  C   UNL d   1       2.470   4.752   0.074  0.00  0.00     0.142 C 
ATOM     14  C   UNL d   1       2.846   5.658  -1.099  0.00  0.00     0.021 C 
ATOM     15  C   UNL d   1       4.174   5.235  -1.706  0.00  0.00     0.003 C 
ATOM     16  C   UNL d   1       4.064   3.791  -2.160  0.00  0.00     0.021 C 
ATOM     17  C   UNL d   1       3.640   2.881  -1.010  0.00  0.00     0.142 C 
ENDBRANCH   5  12
BRANCH   1  18
ATOM     18  C   UNL d   1      -2.065   2.700  -0.212  0.00  0.00     0.179 C 
ATOM     19  O   UNL d   1      -3.273   2.908  -0.176  0.00  0.00    -0.646 OA
BRANCH  18  20
ATOM     20  O   UNL d   1      -1.186   3.726  -0.277  0.00  0.00    -0.773 OA
ATOM     21  H   UNL d   1      -0.242   3.446  -0.344  0.00  0.00     0.167 HD
ENDBRANCH  18  20
ENDBRANCH   1  18
TORSDOF 3
