REMARK  6 active torsions:
REMARK  status: ('A' for Active; 'I' for Inactive)
REMARK    1  A    between atoms: N_9  and  S_1 
REMARK    2  A    between atoms: C_10  and  S_1 
REMARK    3  A    between atoms: C_2  and  C_11 
REMARK    4  A    between atoms: C_13  and  C_3 
REMARK    5  A    between atoms: N_6  and  C_12 
REMARK    6  A    between atoms: N_26  and  N_9 
ROOT
ATOM      1  C   UNL d   1      -0.408   2.458   5.251  0.00  0.00     0.079 A 
ATOM      2  C   UNL d   1      -1.437   3.360   5.474  0.00  0.00     0.115 A 
ATOM      3  N   UNL d   1       0.246   2.192   6.435  0.00  0.00    -0.338 N 
ATOM      4  HN  UNL d   1       1.018   1.546   6.597  1.00  0.00     0.168 HD
ATOM      5  O   UNL d   1      -1.390   3.709   6.798  0.00  0.00    -0.295 OA
ATOM      6  C   UNL d   1      -0.360   2.971   7.310  0.00  0.00     0.121 A 
ATOM      7  C   UNL d   1      -0.076   3.167   8.746  0.00  0.00     0.098 C 
ENDROOT
BRANCH   1   8
ATOM      8  C   UNL d   1      -0.030   1.873   3.975  0.00  0.00    -0.006 A 
ATOM      9  C   UNL d   1      -0.052   2.647   2.804  0.00  0.00     0.015 A 
ATOM     10  C   UNL d   1       0.221   2.077   1.562  0.00  0.00     0.026 A 
ATOM     11  C   UNL d   1       0.569   0.729   1.485  0.00  0.00     0.075 A 
ATOM     12  C   UNL d   1       0.652  -0.051   2.643  0.00  0.00     0.026 A 
ATOM     13  C   UNL d   1       0.350   0.525   3.887  0.00  0.00     0.015 A 
BRANCH  11  14
ATOM     14  S   UNL d   1       0.957   0.036  -0.098  0.00  0.00     0.254 S 
ATOM     15  O   UNL d   1       0.596   0.991  -1.123  0.00  0.00    -0.205 OA
ATOM     16  O   UNL d   1       2.279  -0.545  -0.037  0.00  0.00    -0.205 OA
BRANCH  14  17
ATOM     17  N   UNL d   1      -0.190  -1.254  -0.246  0.00  0.00    -0.150 NA
ATOM     18  H   UNL d   1      -1.151  -0.895  -0.176  0.00  0.00     0.159 HD
BRANCH  17  19
ATOM     19  N   UNL d   1       0.019  -1.917  -1.497  0.00  0.00    -0.257 NA
ATOM     20  H   UNL d   1       0.989  -2.261  -1.501  0.00  0.00     0.138 HD
ATOM     21  H   UNL d   1       0.002  -1.206  -2.243  0.00  0.00     0.138 HD
ENDBRANCH  17  19
ENDBRANCH  14  17
ENDBRANCH  11  14
ENDBRANCH   1   8
BRANCH   2  22
ATOM     22  C   UNL d   1      -2.492   3.986   4.686  0.00  0.00     0.000 A 
ATOM     23  C   UNL d   1      -3.127   3.279   3.652  0.00  0.00     0.017 A 
ATOM     24  C   UNL d   1      -4.080   3.896   2.836  0.00  0.00     0.037 A 
ATOM     25  C   UNL d   1      -4.429   5.229   3.075  0.00  0.00     0.102 A 
ATOM     26  C   UNL d   1      -3.833   5.942   4.122  0.00  0.00     0.037 A 
ATOM     27  C   UNL d   1      -2.867   5.318   4.920  0.00  0.00     0.017 A 
BRANCH  25  28
ATOM     28  N   UNL d   1      -5.427   5.881   2.218  0.00  0.00    -0.116 N 
ATOM     29  O   UNL d   1      -5.739   7.050   2.485  0.00  0.00    -0.532 OA
ATOM     30  O   UNL d   1      -5.896   5.224   1.277  0.00  0.00    -0.532 OA
ENDBRANCH  25  28
ENDBRANCH   2  22
TORSDOF 6
