REMARK  5 active torsions:
REMARK  status: ('A' for Active; 'I' for Inactive)
REMARK    1  A    between atoms: S_14  and  C_6 
REMARK    2  A    between atoms: C_11  and  C_26 
REMARK       I    between atoms: N_23  and  C_11 
REMARK    3  A    between atoms: C_26  and  S_14 
REMARK    4  A    between atoms: N_16  and  N_23 
REMARK    5  A    between atoms: C_29  and  C_28 
ROOT
ATOM      1  S   UNL d   1       0.961   3.001   0.474  0.00  0.00    -0.102 SA
ENDROOT
BRANCH   1   2
ATOM      2  C   UNL d   1       1.670   1.409   0.121  0.00  0.00     0.084 A 
ATOM      3  C   UNL d   1       0.850   0.343  -0.303  0.00  0.00     0.039 A 
ATOM      4  C   UNL d   1       1.504  -0.885  -0.388  0.00  0.00     0.089 A 
ATOM      5  C   UNL d   1      -0.546   0.190  -0.678  0.00  0.00    -0.029 A 
ATOM      6  S   UNL d   1       0.469  -2.168  -0.821  0.00  0.00    -0.075 SA
ATOM      7  N   UNL d   1       2.796  -1.126  -0.146  0.00  0.00    -0.346 N 
ATOM      8  C   UNL d   1      -0.871  -1.131  -0.936  0.00  0.00    -0.008 A 
ATOM      9  C   UNL d   1      -2.228  -1.643  -1.316  0.00  0.00     0.051 C 
ATOM     10  C   UNL d   1      -3.326  -0.616  -0.965  0.00  0.00    -0.014 C 
ATOM     11  C   UNL d   1      -3.692  -0.671   0.522  0.00  0.00     0.010 C 
ATOM     12  C   UNL d   1      -2.895   0.796  -1.410  0.00  0.00     0.009 C 
ATOM     13  C   UNL d   1      -1.586   1.274  -0.761  0.00  0.00     0.041 C 
ATOM     14  C   UNL d   1       3.466  -0.031   0.226  0.00  0.00     0.182 A 
ATOM     15  HN  UNL d   1       3.225  -2.047  -0.235  1.00  0.00     0.167 HD
ATOM     16  N   UNL d   1       2.975   1.206   0.394  0.00  0.00    -0.346 N 
ATOM     17  HN  UNL d   1       3.570   1.969   0.717  1.00  0.00     0.167 HD
ENDBRANCH   1   2
BRANCH   1  18
ATOM     18  C   UNL d   1       2.316   4.133   0.020  0.00  0.00     0.185 C 
BRANCH  18  19
ATOM     19  C   UNL d   1       2.601   4.128  -1.473  0.00  0.00     0.245 C 
ATOM     20  N   UNL d   1       3.058   5.311  -2.016  0.00  0.00    -0.270 N 
ATOM     21  H   UNL d   1       3.279   5.269  -3.006  0.00  0.00     0.190 HD
ATOM     22  O   UNL d   1       2.446   3.161  -2.218  0.00  0.00    -0.271 OA
BRANCH  20  23
ATOM     23  N   UNL d   1       3.536   6.344  -1.271  0.00  0.00    -0.308 N 
ATOM     24  C   UNL d   1       3.837   7.396  -1.968  0.00  0.00     0.118 C 
ATOM     25  HN  UNL d   1       3.648   6.296  -0.258  1.00  0.00     0.186 HD
BRANCH  24  26
ATOM     26  C   UNL d   1       4.600   8.526  -1.409  0.00  0.00    -0.017 A 
ATOM     27  C   UNL d   1       4.963   9.555  -2.286  0.00  0.00     0.052 A 
ATOM     28  C   UNL d   1       5.958  10.405  -1.865  0.00  0.00     0.105 A 
ATOM     29  O   UNL d   1       6.570  11.348  -2.634  0.00  0.00    -0.323 OA
ATOM     30  C   UNL d   1       6.531  10.302  -0.615  0.00  0.00     0.105 A 
ATOM     31  C   UNL d   1       7.743  11.595  -1.830  0.00  0.00     0.352 C 
ATOM     32  O   UNL d   1       7.581  11.155  -0.465  0.00  0.00    -0.323 OA
ATOM     33  C   UNL d   1       6.108   9.368   0.306  0.00  0.00     0.040 A 
ATOM     34  C   UNL d   1       5.132   8.456  -0.105  0.00  0.00     0.016 A 
ENDBRANCH  24  26
ENDBRANCH  20  23
ENDBRANCH  18  19
ENDBRANCH   1  18
TORSDOF 5
