REMARK  4 active torsions:
REMARK  status: ('A' for Active; 'I' for Inactive)
REMARK    1  A    between atoms: N_3  and  C_1 
REMARK    2  A    between atoms: N_4  and  C_1 
REMARK    3  A    between atoms: C_2  and  N_3 
REMARK    4  A    between atoms: C_5  and  N_4 
ROOT
ATOM      1  C   UNL d   1       1.056  -0.404  -0.180  0.00  0.00     0.176 C 
ATOM      2  S   UNL d   1       2.587  -0.925  -0.599  0.00  0.00    -0.041 SA
ENDROOT
BRANCH   1   3
ATOM      3  N   UNL d   1       0.520  -0.339   1.087  0.00  0.00    -0.332 N 
ATOM      4  H   UNL d   1      -0.428  -0.691   1.096  0.00  0.00     0.168 HD
BRANCH   3   5
ATOM      5  C   UNL d   1       1.139  -0.173   2.341  0.00  0.00     0.046 A 
ATOM      6  C   UNL d   1       2.141   0.801   2.563  0.00  0.00    -0.035 A 
ATOM      7  C   UNL d   1       2.702   0.931   3.846  0.00  0.00     0.009 A 
ATOM      8  C   UNL d   1       2.595   1.823   1.553  0.00  0.00     0.050 C 
ATOM      9  C   UNL d   1       2.248   0.166   4.912  0.00  0.00     0.001 A 
ATOM     10  C   UNL d   1       1.208  -0.733   4.714  0.00  0.00     0.009 A 
ATOM     11  C   UNL d   1       0.631  -0.905   3.444  0.00  0.00    -0.035 A 
ATOM     12  C   UNL d   1      -0.482  -1.921   3.366  0.00  0.00     0.050 C 
ENDBRANCH   3   5
ENDBRANCH   1   3
BRANCH   1  13
ATOM     13  N   UNL d   1       0.141  -0.159  -1.185  0.00  0.00    -0.333 N 
ATOM     14  H   UNL d   1       0.416  -0.501  -2.098  0.00  0.00     0.168 HD
BRANCH  13  15
ATOM     15  C   UNL d   1      -1.010   0.664  -1.130  0.00  0.00     0.040 A 
ATOM     16  C   UNL d   1      -2.048   0.491  -2.061  0.00  0.00    -0.035 A 
ATOM     17  C   UNL d   1      -3.138   1.381  -2.033  0.00  0.00     0.009 A 
ATOM     18  C   UNL d   1      -2.091  -0.625  -3.067  0.00  0.00     0.050 C 
ATOM     19  C   UNL d   1      -3.211   2.414  -1.098  0.00  0.00     0.007 A 
ATOM     20  C   UNL d   1      -2.189   2.585  -0.165  0.00  0.00    -0.060 A 
ATOM     21  C   UNL d   1      -1.099   1.709  -0.195  0.00  0.00     0.037 A 
ATOM     22  C   UNL d   1      -2.246   3.700   0.836  0.00  0.00     0.048 C 
ENDBRANCH  13  15
ENDBRANCH   1  13
TORSDOF 4
