REMARK  2 active torsions:
REMARK  status: ('A' for Active; 'I' for Inactive)
REMARK    1  A    between atoms: O_20  and  C_7 
REMARK    2  A    between atoms: O_22  and  C_19 
ROOT
ATOM      1  C   UNL d   1      -0.394  -0.784  -0.416  0.00  0.00     0.003 C 
ATOM      2  C   UNL d   1       0.073  -1.652  -3.377  0.00  0.00     0.024 C 
ATOM      3  C   UNL d   1       0.225   0.075  -1.563  0.00  0.00     0.002 C 
ATOM      4  C   UNL d   1      -0.738  -2.349  -4.459  0.00  0.00    -0.041 C 
ATOM      5  C   UNL d   1      -0.358  -0.207  -2.995  0.00  0.00    -0.001 C 
ATOM      6  C   UNL d   1      -2.101  -2.055  -4.560  0.00  0.00    -0.048 C 
ATOM      7  C   UNL d   1      -1.414   0.176   0.308  0.00  0.00     0.128 C 
ATOM      8  C   UNL d   1      -0.228  -3.497  -5.098  0.00  0.00    -0.052 C 
ATOM      9  C   UNL d   1      -2.816   0.248  -0.156  0.00  0.00    -0.078 C 
ATOM     10  C   UNL d   1      -0.880  -2.136  -0.993  0.00  0.00     0.014 C 
ATOM     11  C   UNL d   1       0.066  -2.597  -2.127  0.00  0.00     0.010 C 
ATOM     12  C   UNL d   1      -1.870   0.022  -3.150  0.00  0.00     0.010 C 
ATOM     13  C   UNL d   1       0.182   1.513  -1.051  0.00  0.00     0.010 C 
ATOM     14  C   UNL d   1      -3.960   0.439  -0.461  0.00  0.00     0.015 C 
ATOM     15  C   UNL d   1      -2.988  -3.069  -4.943  0.00  0.00     0.044 C 
ATOM     16  C   UNL d   1      -1.126  -4.499  -5.481  0.00  0.00     0.044 C 
ATOM     17  C   UNL d   1      -2.546  -0.636  -4.346  0.00  0.00     0.039 C 
ATOM     18  C   UNL d   1      -0.772   1.572   0.131  0.00  0.00     0.052 C 
ATOM     19  C   UNL d   1      -2.496  -4.325  -5.303  0.00  0.00     0.069 C 
ATOM     20  C   UNL d   1       0.722  -1.152   0.617  0.00  0.00     0.020 C 
ATOM     21  C   UNL d   1       1.246  -3.711  -5.295  0.00  0.00     0.049 C 
ENDROOT
BRANCH   7  22
ATOM     22  O   UNL d   1      -1.489  -0.107   1.703  0.00  0.00    -0.377 OA
ATOM     23  H   UNL d   1      -2.139  -0.822   1.812  0.00  0.00     0.211 HD
ENDBRANCH   7  22
BRANCH  19  24
ATOM     24  O   UNL d   1      -3.270  -5.423  -5.561  0.00  0.00    -0.356 OA
ATOM     25  C   UNL d   1      -4.403  -5.561  -4.706  0.00  0.00     0.210 C 
ENDBRANCH  19  24
TORSDOF 2
