REMARK  5 active torsions:
REMARK  status: ('A' for Active; 'I' for Inactive)
REMARK    1  A    between atoms: C_8  and  N_1 
REMARK    2  A    between atoms: C_7  and  C_2 
REMARK    3  A    between atoms: N_13  and  C_10 
REMARK    4  A    between atoms: C_12  and  N_13 
REMARK    5  A    between atoms: O_24  and  C_19 
ROOT
ATOM      1  N   UNL d   1       4.947  -1.060  -0.014  0.00  0.00    -0.225 N 
ATOM      2  C   UNL d   1       3.649  -0.597  -0.241  0.00  0.00     0.139 C 
ATOM      3  N   UNL d   1       4.936   1.064   0.238  0.00  0.00    -0.007 NA
ATOM      4  N   UNL d   1       5.692  -0.010   0.407  0.00  0.00     0.001 NA
ATOM      5  N   UNL d   1       3.675   0.722  -0.174  0.00  0.00    -0.270 N 
ATOM      6  HN  UNL d   1       2.908   1.360  -0.386  1.00  0.00     0.185 HD
ENDROOT
BRANCH   2   7
ATOM      7  C   UNL d   1       2.551  -1.487  -0.347  0.00  0.00     0.068 C 
ATOM      8  C   UNL d   1       1.379  -1.172  -0.907  0.00  0.00     0.092 C 
BRANCH   8   9
ATOM      9  N   UNL d   1       0.948  -0.004  -1.477  0.00  0.00    -0.363 N 
ATOM     10  H   UNL d   1       1.579   0.790  -1.381  0.00  0.00     0.165 HD
BRANCH   9  11
ATOM     11  C   UNL d   1      -0.274   0.230  -2.141  0.00  0.00     0.071 A 
ATOM     12  C   UNL d   1      -1.123  -0.787  -2.627  0.00  0.00     0.145 A 
ATOM     13  C   UNL d   1      -2.357  -0.506  -3.208  0.00  0.00     0.086 A 
ATOM     14  F   UNL d   1      -0.756  -2.078  -2.575  0.00  0.00    -0.204 F 
ATOM     15  C   UNL d   1      -2.769   0.811  -3.308  0.00  0.00     0.119 A 
ATOM     16  C   UNL d   1      -1.966   1.845  -2.844  0.00  0.00     0.044 A 
ATOM     17  F   UNL d   1      -3.958   1.091  -3.856  0.00  0.00    -0.206 F 
ATOM     18  C   UNL d   1      -0.725   1.555  -2.264  0.00  0.00     0.036 A 
ENDBRANCH   9  11
ENDBRANCH   8   9
ENDBRANCH   2   7
BRANCH   1  19
ATOM     19  C   UNL d   1       5.515  -2.354  -0.161  0.00  0.00     0.056 A 
ATOM     20  C   UNL d   1       4.995  -3.272  -1.084  0.00  0.00     0.034 A 
ATOM     21  C   UNL d   1       5.522  -4.567  -1.170  0.00  0.00     0.039 A 
ATOM     22  C   UNL d   1       6.559  -4.960  -0.327  0.00  0.00     0.068 A 
ATOM     23  C   UNL d   1       7.118  -4.024   0.547  0.00  0.00     0.039 A 
ATOM     24  C   UNL d   1       6.616  -2.719   0.622  0.00  0.00     0.034 A 
BRANCH  22  25
ATOM     25  O   UNL d   1       7.109  -6.209  -0.257  0.00  0.00    -0.356 OA
ATOM     26  C   UNL d   1       6.510  -7.234  -1.042  0.00  0.00     0.210 C 
ENDBRANCH  22  25
ENDBRANCH   1  19
TORSDOF 5
