REMARK  5 active torsions:
REMARK  status: ('A' for Active; 'I' for Inactive)
REMARK    1  A    between atoms: N_15  and  C_8 
REMARK    2  A    between atoms: S_14  and  C_11 
REMARK    3  A    between atoms: C_18  and  S_14 
REMARK    4  A    between atoms: C_21  and  N_15 
REMARK    5  A    between atoms: C_17  and  C_18 
ROOT
ATOM      1  C   UNL d   1       1.309  -0.817  -0.057  0.00  0.00     0.090 A 
ATOM      2  C   UNL d   1       0.775   0.458  -0.075  0.00  0.00     0.043 A 
ATOM      3  C   UNL d   1      -1.130  -0.895  -0.028  0.00  0.00    -0.008 A 
ATOM      4  N   UNL d   1       2.608  -1.138  -0.060  0.00  0.00    -0.330 N 
ATOM      5  HN  UNL d   1       2.953  -2.098  -0.036  1.00  0.00     0.168 HD
ATOM      6  N   UNL d   1       3.021   1.225  -0.115  0.00  0.00    -0.327 N 
ATOM      7  HN  UNL d   1       3.718   1.970  -0.136  1.00  0.00     0.169 HD
ATOM      8  C   UNL d   1       1.701   1.520  -0.106  0.00  0.00     0.095 A 
ATOM      9  C   UNL d   1      -0.666   0.407  -0.080  0.00  0.00    -0.029 A 
ATOM     10  S   UNL d   1       0.125  -2.039  -0.024  0.00  0.00    -0.075 SA
ATOM     11  C   UNL d   1       3.404  -0.069  -0.097  0.00  0.00     0.146 A 
ATOM     12  C   UNL d   1      -1.602   1.584  -0.097  0.00  0.00     0.041 C 
ATOM     13  C   UNL d   1      -2.572  -1.300   0.004  0.00  0.00     0.051 C 
ATOM     14  C   UNL d   1      -3.060   1.161  -0.333  0.00  0.00     0.009 C 
ATOM     15  C   UNL d   1      -3.454  -0.112   0.446  0.00  0.00    -0.014 C 
ATOM     16  C   UNL d   1      -3.383   0.103   1.962  0.00  0.00     0.010 C 
ENDROOT
BRANCH  11  17
ATOM     17  S   UNL d   1       5.155  -0.401  -0.047  0.00  0.00    -0.086 SA
BRANCH  17  18
ATOM     18  C   UNL d   1       5.163  -2.010  -0.907  0.00  0.00     0.160 C 
BRANCH  18  19
ATOM     19  C   UNL d   1       4.653  -1.894  -2.329  0.00  0.00     0.132 C 
ATOM     20  O   UNL d   1       4.833  -0.898  -3.030  0.00  0.00    -0.298 OA
ATOM     21  C   UNL d   1       3.994  -3.108  -2.920  0.00  0.00     0.091 C 
ENDBRANCH  18  19
ENDBRANCH  17  18
ENDBRANCH  11  17
BRANCH   8  22
ATOM     22  N   UNL d   1       1.239   2.834  -0.099  0.00  0.00    -0.278 NA
ATOM     23  H   UNL d   1       0.840   3.039   0.813  0.00  0.00     0.129 HD
BRANCH  22  24
ATOM     24  C   UNL d   1       2.124   3.876  -0.588  0.00  0.00     0.089 C 
ATOM     25  C   UNL d   1       1.392   5.209  -0.465  0.00  0.00     0.021 C 
ENDBRANCH  22  24
ENDBRANCH   8  22
TORSDOF 5
