REMARK  3 active torsions:
REMARK  status: ('A' for Active; 'I' for Inactive)
REMARK    1  A    between atoms: C1_2  and  C3_5 
REMARK    2  A    between atoms: C2_3  and  C5_8 
REMARK    3  A    between atoms: O2_9  and  C3_5 
ROOT
ATOM      1  N1  <1> d   1      -1.337  -0.707  -0.169  0.00  0.00    -0.391 N 
ATOM      2  C1  <1> d   1      -1.520   0.721   0.114  0.00  0.00     0.186 C 
ATOM      3  C2  <1> d   1       0.013  -1.071  -0.542  0.00  0.00     0.173 C 
ATOM      4  S1  <1> d   1       1.094   0.168   0.201  0.00  0.00    -0.137 SA
ATOM      5  C4  <1> d   1      -0.179   1.454   0.174  0.00  0.00     0.112 C 
ATOM      6  H3  <1> d   1      -2.113  -1.253  -0.518  0.00  0.00     0.155 HD
ENDROOT
BRANCH   3   7
ATOM      7  C5  <1> d   1       0.120  -1.239  -2.048  0.00  0.00    -0.026 A 
ATOM      8  C6  <1> d   1       0.498  -0.207  -2.924  0.00  0.00     0.010 A 
ATOM      9  C8  <1> d   1       0.458  -0.387  -4.308  0.00  0.00     0.001 A 
ATOM     10  C10 <1> d   1       0.045  -1.603  -4.842  0.00  0.00     0.000 A 
ATOM     11  C9  <1> d   1      -0.319  -2.645  -3.995  0.00  0.00     0.001 A 
ATOM     12  C7  <1> d   1      -0.286  -2.463  -2.611  0.00  0.00     0.010 A 
ENDBRANCH   3   7
BRANCH   2  13
ATOM     13  C3  <1> d   1      -2.425   1.425  -0.894  0.00  0.00     0.164 C 
ATOM     14  O1  <1> d   1      -2.939   2.516  -0.682  0.00  0.00    -0.648 OA
BRANCH  13  15
ATOM     15  O2  <1> d   1      -2.596   0.778  -2.068  0.00  0.00    -0.775 OA
ATOM     16  H6  <1> d   1      -2.045  -0.027  -2.127  0.00  0.00     0.167 HD
ENDBRANCH  13  15
ENDBRANCH   2  13
TORSDOF 3
