REMARK  4 active torsions:
REMARK  status: ('A' for Active; 'I' for Inactive)
REMARK    1  A    between atoms: C_14  and  N_3 
REMARK    2  A    between atoms: N_13  and  C_6 
REMARK    3  A    between atoms: C_15  and  N_13 
REMARK    4  A    between atoms: C_16  and  N_13 
ROOT
ATOM      1  C   UNL d   1      -0.398   0.652  -0.045  0.00  0.00     0.071 A 
ATOM      2  C   UNL d   1      -0.229  -0.723   0.047  0.00  0.00     0.143 A 
ATOM      3  N   UNL d   1      -1.504  -1.292   0.036  0.00  0.00    -0.239 N 
ATOM      4  N   UNL d   1      -2.470  -0.326  -0.044  0.00  0.00    -0.302 N 
ATOM      5  HN  UNL d   1      -3.482  -0.454  -0.057  1.00  0.00     0.186 HD
ATOM      6  C   UNL d   1       0.754   1.467  -0.103  0.00  0.00     0.119 A 
ATOM      7  C   UNL d   1      -1.792   0.819  -0.100  0.00  0.00     0.127 A 
ATOM      8  N   UNL d   1       0.958  -1.362   0.102  0.00  0.00    -0.336 N 
ATOM      9  HN  UNL d   1       1.056  -2.374   0.190  1.00  0.00     0.168 HD
ATOM     10  N   UNL d   1       1.950   0.818  -0.089  0.00  0.00    -0.338 N 
ATOM     11  HN  UNL d   1       2.818   1.348  -0.168  1.00  0.00     0.168 HD
ATOM     12  C   UNL d   1       1.990  -0.518   0.029  0.00  0.00     0.183 A 
ENDROOT
BRANCH   3  13
ATOM     13  C   UNL d   1      -1.889  -2.669   0.088  0.00  0.00     0.058 A 
ATOM     14  C   UNL d   1      -0.952  -3.698   0.242  0.00  0.00     0.031 A 
ATOM     15  C   UNL d   1      -1.372  -5.032   0.305  0.00  0.00     0.002 A 
ATOM     16  C   UNL d   1      -2.724  -5.350   0.211  0.00  0.00     0.000 A 
ATOM     17  C   UNL d   1      -3.664  -4.337   0.047  0.00  0.00     0.002 A 
ATOM     18  C   UNL d   1      -3.251  -3.003  -0.014  0.00  0.00     0.031 A 
ENDBRANCH   3  13
BRANCH   6  19
ATOM     19  N   UNL d   1       0.749   2.852  -0.252  0.00  0.00    -0.367 N 
BRANCH  19  20
ATOM     20  C   UNL d   1      -0.164   3.672   0.541  0.00  0.00     0.120 C 
ATOM     21  C   UNL d   1      -1.119   4.435  -0.367  0.00  0.00     0.026 C 
ENDBRANCH  19  20
BRANCH  19  22
ATOM     22  C   UNL d   1       1.976   3.476  -0.761  0.00  0.00     0.120 C 
ATOM     23  C   UNL d   1       3.041   3.700   0.304  0.00  0.00     0.026 C 
ENDBRANCH  19  22
ENDBRANCH   6  19
TORSDOF 4
