REMARK  4 active torsions:
REMARK  status: ('A' for Active; 'I' for Inactive)
REMARK    1  A    between atoms: S_14  and  C_2 
REMARK    2  A    between atoms: C_11  and  C_3 
REMARK    3  A    between atoms: C_5  and  N_12 
REMARK    4  A    between atoms: N_12  and  N_7 
ROOT
ATOM      1  N   UNL d   1       0.868  -3.564   0.043  0.00  0.00    -0.310 N 
ATOM      2  HN  UNL d   1       1.845  -3.275   0.087  1.00  0.00     0.186 HD
ATOM      3  C   UNL d   1      -0.094  -2.698  -0.013  0.00  0.00     0.126 C 
ENDROOT
BRANCH   1   4
ATOM      4  N   UNL d   1       0.511  -4.879   0.039  0.00  0.00    -0.299 N 
ATOM      5  H   UNL d   1      -0.247  -5.180  -0.579  0.00  0.00     0.187 HD
BRANCH   4   6
ATOM      6  C   UNL d   1       1.592  -5.800   0.038  0.00  0.00     0.069 A 
ATOM      7  C   UNL d   1       1.450  -7.099  -0.482  0.00  0.00     0.063 A 
ATOM      8  C   UNL d   1       2.512  -8.007  -0.456  0.00  0.00     0.050 A 
ATOM      9 CL   UNL d   1      -0.039  -7.601  -1.207  0.00  0.00    -0.082 Cl
ATOM     10  C   UNL d   1       3.724  -7.629   0.115  0.00  0.00     0.035 A 
ATOM     11  C   UNL d   1       3.883  -6.360   0.665  0.00  0.00     0.026 A 
ATOM     12 CL   UNL d   1       5.041  -8.738   0.145  0.00  0.00    -0.084 Cl
ATOM     13  C   UNL d   1       2.819  -5.458   0.634  0.00  0.00     0.034 A 
ENDBRANCH   4   6
ENDBRANCH   1   4
BRANCH   3  14
ATOM     14  C   UNL d   1       0.237  -1.295  -0.028  0.00  0.00     0.023 A 
ATOM     15  S   UNL d   1      -0.997  -0.119  -0.040  0.00  0.00    -0.082 SA
ATOM     16  C   UNL d   1       0.132   1.173  -0.033  0.00  0.00     0.041 A 
ATOM     17  C   UNL d   1       1.430   0.708  -0.021  0.00  0.00     0.027 A 
ATOM     18  C   UNL d   1       1.490  -0.716  -0.026  0.00  0.00     0.022 A 
BRANCH  16  19
ATOM     19  S   UNL d   1      -0.413   2.844   0.003  0.00  0.00    -0.127 SA
ATOM     20  C   UNL d   1       0.918   3.707  -0.862  0.00  0.00     0.096 C 
ENDBRANCH  16  19
ENDBRANCH   3  14
TORSDOF 4
