REMARK  1 active torsions:
REMARK  status: ('A' for Active; 'I' for Inactive)
REMARK    1  A    between atoms: C_5  and  C_1 
ROOT
ATOM      1  C   UNL d   1      -0.462  -2.731  -0.040  0.00  0.00     0.059 A 
ATOM      2  C   UNL d   1      -1.059  -3.389  -1.126  0.00  0.00     0.050 A 
ATOM      3  C   UNL d   1      -0.005  -3.487   1.050  0.00  0.00     0.050 A 
ATOM      4 CL   UNL d   1       0.704  -2.773   2.455  0.00  0.00    -0.083 Cl
ATOM      5 CL   UNL d   1      -1.590  -2.559  -2.548  0.00  0.00    -0.083 Cl
ATOM      6  C   UNL d   1      -0.755  -5.526  -0.026  0.00  0.00     0.003 A 
ATOM      7  C   UNL d   1      -0.149  -4.880   1.049  0.00  0.00     0.025 A 
ATOM      8  C   UNL d   1      -1.211  -4.780  -1.112  0.00  0.00     0.025 A 
ENDROOT
BRANCH   1   9
ATOM      9  C   UNL d   1      -0.283  -1.275  -0.057  0.00  0.00     0.172 A 
ATOM     10  O   UNL d   1      -1.459  -0.612  -0.217  0.00  0.00    -0.250 OA
ATOM     11  C   UNL d   1      -1.176   0.719  -0.257  0.00  0.00     0.349 A 
ATOM     12  O   UNL d   1      -2.003   1.597  -0.445  0.00  0.00    -0.249 OA
ATOM     13  S   UNL d   1       0.534   1.004  -0.009  0.00  0.00     0.058 SA
ATOM     14  N   UNL d   1       0.849  -0.654   0.077  0.00  0.00    -0.301 N 
ATOM     15  HN  UNL d   1       1.762  -1.088   0.210  1.00  0.00     0.176 HD
ENDBRANCH   1   9
TORSDOF 1
