REMARK  4 active torsions:
REMARK  status: ('A' for Active; 'I' for Inactive)
REMARK    1  A    between atoms: C_4  and  C_1 
REMARK       I    between atoms: N_7  and  C_4 
REMARK    2  A    between atoms: C_11  and  N_7 
REMARK    3  A    between atoms: O_10  and  C_12 
REMARK    4  A    between atoms: C_13  and  O_10 
ROOT
ATOM      1  C   UNL d   1       3.917  -0.011  -0.503  0.00  0.00     0.264 C 
ATOM      2  N   UNL d   1       4.493  -1.221  -0.110  0.00  0.00    -0.322 N 
ATOM      3  O   UNL d   1       2.794   0.060  -0.996  0.00  0.00    -0.267 OA
ATOM      4  H   UNL d   1       5.384  -1.153   0.367  0.00  0.00     0.169 HD
ENDROOT
BRANCH   2   5
ATOM      5  C   UNL d   1       3.886  -2.493  -0.151  0.00  0.00     0.035 A 
ATOM      6  C   UNL d   1       2.692  -2.760  -0.831  0.00  0.00     0.032 A 
ATOM      7  C   UNL d   1       2.060  -3.997  -0.702  0.00  0.00     0.039 A 
ATOM      8  C   UNL d   1       2.621  -4.980   0.103  0.00  0.00     0.076 A 
ATOM      9  C   UNL d   1       3.880  -4.778   0.672  0.00  0.00     0.039 A 
ATOM     10  C   UNL d   1       4.504  -3.532   0.556  0.00  0.00     0.032 A 
BRANCH   8  11
ATOM     11  O   UNL d   1       1.903  -6.138   0.267  0.00  0.00    -0.311 OA
BRANCH  11  12
ATOM     12  C   UNL d   1       1.660  -6.595   1.547  0.00  0.00     0.076 A 
ATOM     13  C   UNL d   1       1.766  -5.833   2.715  0.00  0.00     0.037 A 
ATOM     14  C   UNL d   1       1.550  -6.424   3.962  0.00  0.00     0.003 A 
ATOM     15  C   UNL d   1       1.180  -7.765   4.044  0.00  0.00     0.000 A 
ATOM     16  C   UNL d   1       1.009  -8.511   2.878  0.00  0.00     0.003 A 
ATOM     17  C   UNL d   1       1.248  -7.926   1.634  0.00  0.00     0.037 A 
ENDBRANCH  11  12
ENDBRANCH   8  11
ENDBRANCH   2   5
BRANCH   1  18
ATOM     18  C   UNL d   1       4.729   1.178  -0.278  0.00  0.00     0.096 A 
ATOM     19  S   UNL d   1       6.314   1.087   0.367  0.00  0.00    -0.082 SA
ATOM     20  C   UNL d   1       6.574   2.780   0.229  0.00  0.00     0.017 A 
ATOM     21  C   UNL d   1       7.748   3.489   0.556  0.00  0.00     0.020 A 
ATOM     22  C   UNL d   1       5.446   3.429  -0.274  0.00  0.00     0.004 A 
ATOM     23  C   UNL d   1       7.790   4.869   0.344  0.00  0.00     0.001 A 
ATOM     24  C   UNL d   1       6.687   5.537  -0.167  0.00  0.00     0.001 A 
ATOM     25  C   UNL d   1       5.519   4.835  -0.465  0.00  0.00     0.014 A 
ATOM     26  C   UNL d   1       4.378   2.497  -0.519  0.00  0.00     0.068 A 
ATOM     27 CL   UNL d   1       2.849   3.044  -1.096  0.00  0.00    -0.082 Cl
ENDBRANCH   1  18
TORSDOF 4
