REMARK  4 active torsions:
REMARK  status: ('A' for Active; 'I' for Inactive)
REMARK    1  A    between atoms: C_15  and  C_2 
REMARK    2  A    between atoms: C_10  and  C_13 
REMARK    3  A    between atoms: O_16  and  C_11 
REMARK    4  A    between atoms: C_18  and  O_16 
ROOT
ATOM      1  N   UNL d   1       0.151   0.685  -0.055  0.00  0.00    -0.218 N 
ATOM      2  C   UNL d   1       1.453   1.163  -0.026  0.00  0.00     0.154 A 
ATOM      3  N   UNL d   1       2.274   0.125  -0.122  0.00  0.00    -0.282 N 
ATOM      4  HN  UNL d   1       3.293   0.176  -0.144  1.00  0.00     0.188 HD
ATOM      5  C   UNL d   1       0.265  -0.688  -0.155  0.00  0.00     0.143 A 
ATOM      6  N   UNL d   1      -1.015   1.407   0.007  0.00  0.00    -0.270 N 
ATOM      7  HN  UNL d   1      -1.051   2.423   0.082  1.00  0.00     0.190 HD
ATOM      8  N   UNL d   1       1.532  -1.030  -0.187  0.00  0.00    -0.282 N 
ATOM      9  HN  UNL d   1       1.899  -1.979  -0.249  1.00  0.00     0.188 HD
ATOM     10  C   UNL d   1      -2.061   0.651  -0.041  0.00  0.00     0.163 A 
ATOM     11  C   UNL d   1      -0.924  -1.449  -0.213  0.00  0.00     0.056 A 
ATOM     12  C   UNL d   1      -2.106  -0.820  -0.183  0.00  0.00     0.061 A 
ENDROOT
BRANCH  10  13
ATOM     13  O   UNL d   1      -3.362   1.117   0.065  0.00  0.00    -0.293 OA
BRANCH  13  14
ATOM     14  C   UNL d   1      -3.585   2.365   0.682  0.00  0.00     0.078 A 
ATOM     15  C   UNL d   1      -2.958   2.703   1.882  0.00  0.00     0.053 A 
ATOM     16  C   UNL d   1      -3.268   3.909   2.522  0.00  0.00     0.050 A 
ATOM     17  C   UNL d   1      -4.238   4.749   1.951  0.00  0.00     0.016 A 
ATOM     18  C   UNL d   1      -4.879   4.391   0.761  0.00  0.00     0.004 A 
ATOM     19  C   UNL d   1      -4.555   3.193   0.123  0.00  0.00     0.037 A 
BRANCH  16  20
ATOM     20  C   UNL d   1      -2.590   4.293   3.814  0.00  0.00     0.417 C 
ATOM     21  F   UNL d   1      -1.629   3.411   4.206  0.00  0.00    -0.166 F 
ATOM     22  F   UNL d   1      -1.974   5.505   3.740  0.00  0.00    -0.166 F 
ATOM     23  F   UNL d   1      -3.465   4.378   4.854  0.00  0.00    -0.166 F 
ENDBRANCH  16  20
ENDBRANCH  13  14
ENDBRANCH  10  13
BRANCH   2  24
ATOM     24  C   UNL d   1       1.861   2.569   0.054  0.00  0.00     0.011 A 
ATOM     25  C   UNL d   1       1.083   3.549   0.689  0.00  0.00     0.015 A 
ATOM     26  C   UNL d   1       1.503   4.881   0.736  0.00  0.00     0.001 A 
ATOM     27  C   UNL d   1       2.712   5.253   0.157  0.00  0.00     0.000 A 
ATOM     28  C   UNL d   1       3.508   4.293  -0.464  0.00  0.00     0.001 A 
ATOM     29  C   UNL d   1       3.086   2.961  -0.510  0.00  0.00     0.015 A 
ENDBRANCH   2  24
TORSDOF 4
