REMARK  8 active torsions:
REMARK  status: ('A' for Active; 'I' for Inactive)
REMARK    1  A    between atoms: O_14  and  C_2 
REMARK       I    between atoms: C_3  and  N_4 
REMARK    2  A    between atoms: C_16  and  C_3 
REMARK    3  A    between atoms: N_4  and  C_5 
REMARK    4  A    between atoms: C_6  and  C_17 
REMARK    5  A    between atoms: O_13  and  C_6 
REMARK    6  A    between atoms: O_15  and  C_7 
REMARK    7  A    between atoms: S_11  and  C_16 
REMARK    8  A    between atoms: C_17  and  S_11 
ROOT
ATOM      1  C   UNL d   1       3.310   1.973  -0.671  0.00  0.00     0.231 C 
ATOM      2  N   UNL d   1       1.972   2.082  -0.329  0.00  0.00    -0.326 N 
ATOM      3  O   UNL d   1       3.924   0.928  -0.901  0.00  0.00    -0.272 OA
ATOM      4  H   UNL d   1       1.568   3.012  -0.288  0.00  0.00     0.169 HD
ENDROOT
BRANCH   2   5
ATOM      5  C   UNL d   1       1.079   1.002  -0.157  0.00  0.00     0.037 A 
ATOM      6  C   UNL d   1       1.511  -0.319  -0.023  0.00  0.00     0.069 A 
ATOM      7  C   UNL d   1       0.612  -1.394   0.049  0.00  0.00     0.103 A 
ATOM      8  C   UNL d   1      -0.763  -1.131   0.057  0.00  0.00     0.101 A 
ATOM      9  C   UNL d   1      -1.197   0.203  -0.013  0.00  0.00     0.042 A 
ATOM     10  C   UNL d   1      -0.288   1.262  -0.118  0.00  0.00     0.032 A 
BRANCH   7  11
ATOM     11  O   UNL d   1       1.065  -2.683   0.165  0.00  0.00    -0.353 OA
ATOM     12  C   UNL d   1       2.304  -2.967  -0.486  0.00  0.00     0.210 C 
ENDBRANCH   7  11
BRANCH   8  13
ATOM     13  O   UNL d   1      -1.802  -2.021   0.121  0.00  0.00    -0.353 OA
ATOM     14  C   UNL d   1      -1.507  -3.410   0.089  0.00  0.00     0.210 C 
ENDBRANCH   8  13
ENDBRANCH   2   5
BRANCH   1  15
ATOM     15  C   UNL d   1       4.063   3.292  -0.712  0.00  0.00     0.177 C 
BRANCH  15  16
ATOM     16  S   UNL d   1       4.910   3.593   0.872  0.00  0.00    -0.149 SA
BRANCH  16  17
ATOM     17  C   UNL d   1       5.883   2.059   1.072  0.00  0.00     0.184 C 
BRANCH  17  18
ATOM     18  C   UNL d   1       6.890   1.848  -0.037  0.00  0.00     0.149 C 
ATOM     19  O   UNL d   1       7.998   2.367  -0.060  0.00  0.00    -0.649 OA
BRANCH  18  20
ATOM     20  O   UNL d   1       6.471   1.036  -1.034  0.00  0.00    -0.776 OA
ATOM     21  H   UNL d   1       5.535   0.725  -0.952  0.00  0.00     0.167 HD
ENDBRANCH  18  20
ENDBRANCH  17  18
ENDBRANCH  16  17
ENDBRANCH  15  16
ENDBRANCH   1  15
TORSDOF 8
