REMARK  5 active torsions:
REMARK  status: ('A' for Active; 'I' for Inactive)
REMARK    1  A    between atoms: O_15  and  C_1 
REMARK    2  A    between atoms: C_9  and  N_2 
REMARK    3  A    between atoms: N_7  and  C_3 
REMARK    4  A    between atoms: C_16  and  N_10 
REMARK    5  A    between atoms: C_13  and  C_14 
ROOT
ATOM      1  C   UNL d   1      -0.414  -1.247  -0.216  0.00  0.00     0.193 C 
ATOM      2  N   UNL d   1       0.845  -0.695   0.035  0.00  0.00    -0.232 N 
ATOM      3  C   UNL d   1      -1.295  -0.186  -0.143  0.00  0.00     0.124 C 
ATOM      4  N   UNL d   1       0.762   0.616   0.385  0.00  0.00    -0.294 N 
ATOM      5  HN  UNL d   1       1.511   1.215   0.734  1.00  0.00     0.187 HD
ATOM      6  C   UNL d   1      -0.516   0.947   0.171  0.00  0.00     0.055 C 
ATOM      7  C   UNL d   1      -0.927   2.366   0.295  0.00  0.00     0.072 C 
ENDROOT
BRANCH   3   8
ATOM      8  N   UNL d   1      -2.689  -0.181  -0.334  0.00  0.00    -0.294 N 
ATOM      9  N   UNL d   1      -3.245  -1.191   0.153  0.00  0.00    -0.300 N 
ATOM     10  HN  UNL d   1      -2.738  -1.926   0.644  1.00  0.00     0.187 HD
ATOM     11  HN  UNL d   1      -3.191   0.563  -0.818  1.00  0.00     0.187 HD
BRANCH   9  12
ATOM     12  C   UNL d   1      -4.643  -1.213  -0.044  0.00  0.00     0.048 A 
ATOM     13  C   UNL d   1      -5.264  -2.445  -0.271  0.00  0.00     0.031 A 
ATOM     14  C   UNL d   1      -6.658  -2.549  -0.412  0.00  0.00     0.010 A 
ATOM     15  C   UNL d   1      -7.491  -1.419  -0.324  0.00  0.00    -0.051 A 
ATOM     16  C   UNL d   1      -6.860  -0.185  -0.089  0.00  0.00     0.010 A 
ATOM     17  C   UNL d   1      -5.464  -0.085   0.053  0.00  0.00     0.031 A 
BRANCH  15  18
ATOM     18  C   UNL d   1      -9.019  -1.560  -0.485  0.00  0.00    -0.024 C 
ATOM     19  C   UNL d   1      -9.787  -0.226  -0.332  0.00  0.00     0.019 C 
ATOM     20  C   UNL d   1      -9.347  -2.115  -1.889  0.00  0.00     0.019 C 
ATOM     21  C   UNL d   1      -9.587  -2.529   0.575  0.00  0.00     0.019 C 
ENDBRANCH  15  18
ENDBRANCH   9  12
ENDBRANCH   3   8
BRANCH   1  22
ATOM     22  O   UNL d   1      -0.650  -2.544  -0.441  0.00  0.00    -0.343 OA
ATOM     23  H   UNL d   1       0.047  -3.072  -0.013  0.00  0.00     0.219 HD
ENDBRANCH   1  22
BRANCH   2  24
ATOM     24  C   UNL d   1       2.127  -1.312  -0.055  0.00  0.00     0.060 A 
ATOM     25  C   UNL d   1       2.355  -2.391  -0.918  0.00  0.00     0.055 A 
ATOM     26  C   UNL d   1       3.628  -2.963  -0.983  0.00  0.00     0.036 A 
ATOM     27 CL   UNL d   1       3.917  -4.269  -2.066  0.00  0.00    -0.084 Cl
ATOM     28  C   UNL d   1       4.670  -2.481  -0.192  0.00  0.00     0.024 A 
ATOM     29  C   UNL d   1       4.450  -1.396   0.655  0.00  0.00     0.004 A 
ATOM     30  C   UNL d   1       3.188  -0.801   0.712  0.00  0.00     0.032 A 
ENDBRANCH   2  24
TORSDOF 5
