REMARK  2 active torsions:
REMARK  status: ('A' for Active; 'I' for Inactive)
REMARK    1  A    between atoms: C_9  and  C_3 
REMARK    2  A    between atoms: O_17  and  C_14 
ROOT
ATOM      1  N   UNL d   1      -2.150   1.111  -0.015  0.00  0.00    -0.340 N 
ATOM      2  HN  UNL d   1      -2.469   2.080  -0.003  1.00  0.00     0.167 HD
ATOM      3  C   UNL d   1      -2.904   0.027  -0.019  0.00  0.00     0.116 A 
ATOM      4  N   UNL d   1      -2.109  -1.099  -0.033  0.00  0.00    -0.340 N 
ATOM      5  C   UNL d   1      -0.850   0.670  -0.032  0.00  0.00     0.061 A 
ATOM      6  C   UNL d   1      -0.796  -0.712  -0.036  0.00  0.00     0.061 A 
ATOM      7  C   UNL d   1       0.348   1.394  -0.029  0.00  0.00     0.039 A 
ATOM      8  C   UNL d   1       0.399  -1.430  -0.033  0.00  0.00     0.039 A 
ATOM      9  C   UNL d   1       1.611  -0.700  -0.026  0.00  0.00    -0.054 A 
ATOM     10  C   UNL d   1       1.589   0.712  -0.017  0.00  0.00    -0.054 A 
ATOM     11  C   UNL d   1       2.814   1.586   0.013  0.00  0.00     0.049 C 
ATOM     12  C   UNL d   1       2.871  -1.528  -0.032  0.00  0.00     0.049 C 
ATOM     13  H   UNL d   1      -2.443  -2.048   0.006  0.00  0.00     0.167 HD
ENDROOT
BRANCH   3  14
ATOM     14  C   UNL d   1      -4.364  -0.018   0.050  0.00  0.00     0.008 A 
ATOM     15  C   UNL d   1      -5.103  -1.073  -0.503  0.00  0.00     0.018 A 
ATOM     16  C   UNL d   1      -6.500  -1.107  -0.389  0.00  0.00     0.037 A 
ATOM     17  C   UNL d   1      -7.172  -0.083   0.278  0.00  0.00     0.068 A 
ATOM     18  C   UNL d   1      -6.444   0.968   0.832  0.00  0.00     0.037 A 
ATOM     19  C   UNL d   1      -5.053   1.010   0.706  0.00  0.00     0.018 A 
BRANCH  17  20
ATOM     20  O   UNL d   1      -8.523  -0.031   0.484  0.00  0.00    -0.356 OA
ATOM     21  C   UNL d   1      -9.323  -0.662  -0.509  0.00  0.00     0.210 C 
ENDBRANCH  17  20
ENDBRANCH   3  14
TORSDOF 2
