REMARK  2 active torsions:
REMARK  status: ('A' for Active; 'I' for Inactive)
REMARK    1  A    between atoms: C_6  and  N_1 
REMARK    2  A    between atoms: C_9  and  C_4 
ROOT
ATOM      1  N   UNL d   1       0.002   0.865  -0.051  0.00  0.00    -0.252 N 
ATOM      2  C   UNL d   1      -1.129   0.097   0.149  0.00  0.00     0.240 C 
ATOM      3  C   UNL d   1       1.129   0.080  -0.161  0.00  0.00     0.232 C 
ATOM      4  C   UNL d   1      -0.756  -1.361   0.029  0.00  0.00     0.120 C 
ATOM      5  C   UNL d   1       0.760  -1.359   0.029  0.00  0.00     0.122 C 
ATOM      6  O   UNL d   1      -2.281   0.461   0.347  0.00  0.00    -0.272 OA
ATOM      7  O   UNL d   1       2.296   0.418  -0.307  0.00  0.00    -0.273 OA
ENDROOT
BRANCH   1   8
ATOM      8  C   UNL d   1       0.007   2.294  -0.122  0.00  0.00     0.045 A 
ATOM      9  C   UNL d   1      -1.050   3.062   0.399  0.00  0.00     0.033 A 
ATOM     10  C   UNL d   1      -1.039   4.461   0.329  0.00  0.00     0.044 A 
ATOM     11  C   UNL d   1       0.024   5.110  -0.276  0.00  0.00     0.116 A 
ATOM     12  C   UNL d   1       1.079   4.387  -0.807  0.00  0.00     0.044 A 
ATOM     13  F   UNL d   1       0.032   6.447  -0.347  0.00  0.00    -0.206 F 
ATOM     14  C   UNL d   1       1.072   2.990  -0.726  0.00  0.00     0.033 A 
ENDBRANCH   1   8
BRANCH   4  15
ATOM     15  C   UNL d   1      -1.341  -2.026  -1.201  0.00  0.00    -0.045 A 
ATOM     16  C   UNL d   1      -1.050  -1.574  -2.500  0.00  0.00     0.008 A 
ATOM     17  C   UNL d   1      -1.563  -2.238  -3.615  0.00  0.00     0.001 A 
ATOM     18  C   UNL d   1      -2.378  -3.355  -3.449  0.00  0.00     0.000 A 
ATOM     19  C   UNL d   1      -2.689  -3.804  -2.168  0.00  0.00     0.001 A 
ATOM     20  C   UNL d   1      -2.176  -3.143  -1.051  0.00  0.00     0.008 A 
ENDBRANCH   4  15
TORSDOF 2
