REMARK  1 active torsions:
REMARK  status: ('A' for Active; 'I' for Inactive)
REMARK    1  A    between atoms: C_9  and  C_6 
ROOT
ATOM      1  C   UNL d   1      -1.194  -0.718   0.051  0.00  0.00     0.045 A 
ATOM      2  C   UNL d   1      -1.796   0.670   0.077  0.00  0.00     0.257 A 
ATOM      3  N   UNL d   1      -0.709   1.528   0.083  0.00  0.00    -0.322 N 
ATOM      4  C   UNL d   1       0.264  -0.549   0.041  0.00  0.00     0.006 A 
ATOM      5  C   UNL d   1       0.493   0.831   0.058  0.00  0.00     0.046 A 
ATOM      6  C   UNL d   1      -1.865  -1.880   0.021  0.00  0.00     0.029 C 
ATOM      7  O   UNL d   1      -2.965   1.000   0.098  0.00  0.00    -0.267 OA
ATOM      8  C   UNL d   1       1.329  -1.431   0.004  0.00  0.00     0.015 A 
ATOM      9  C   UNL d   1       1.759   1.379   0.044  0.00  0.00     0.030 A 
ATOM     10  C   UNL d   1       2.625  -0.897  -0.013  0.00  0.00     0.001 A 
ATOM     11  C   UNL d   1       2.837   0.494   0.007  0.00  0.00     0.002 A 
ATOM     12  H   UNL d   1      -0.814   2.530   0.097  0.00  0.00     0.169 HD
ENDROOT
BRANCH   6  13
ATOM     13  C   UNL d   1      -3.326  -1.960  -0.027  0.00  0.00    -0.032 A 
ATOM     14  C   UNL d   1      -3.973  -1.992  -1.268  0.00  0.00     0.051 A 
ATOM     15  C   UNL d   1      -5.365  -1.939  -1.329  0.00  0.00     0.102 A 
ATOM     16  O   UNL d   1      -5.925  -1.913  -2.581  0.00  0.00    -0.346 OA
ATOM     17  C   UNL d   1      -6.120  -1.899  -0.152  0.00  0.00     0.102 A 
ATOM     18  C   UNL d   1      -7.268  -1.422  -2.525  0.00  0.00     0.202 C 
ATOM     19  C   UNL d   1      -8.046  -2.127  -1.426  0.00  0.00     0.202 C 
ATOM     20  O   UNL d   1      -7.490  -1.844  -0.137  0.00  0.00    -0.346 OA
ATOM     21  C   UNL d   1      -5.479  -1.887   1.086  0.00  0.00     0.040 A 
ATOM     22  C   UNL d   1      -4.084  -1.917   1.150  0.00  0.00     0.014 A 
ENDBRANCH   6  13
TORSDOF 1
