REMARK  2 active torsions:
REMARK  status: ('A' for Active; 'I' for Inactive)
REMARK    1  A    between atoms: C_4  and  N_1 
REMARK    2  A    between atoms: C_9  and  C_4 
ROOT
ATOM      1  N   UNL d   1       1.007   0.960   0.169  0.00  0.00    -0.313 N 
ATOM      2  C   UNL d   1       2.058   0.045   0.091  0.00  0.00     0.225 C 
ATOM      3  C   UNL d   1      -0.359   0.539   0.064  0.00  0.00     0.043 A 
ATOM      4  C   UNL d   1      -0.657  -0.836   0.094  0.00  0.00    -0.031 A 
ATOM      5  C   UNL d   1       1.698  -1.331  -0.411  0.00  0.00     0.108 C 
ATOM      6  O   UNL d   1       3.237   0.331   0.310  0.00  0.00    -0.273 OA
ATOM      7  C   UNL d   1       0.448  -1.835   0.270  0.00  0.00     0.050 C 
ATOM      8  C   UNL d   1      -1.423   1.445  -0.048  0.00  0.00     0.030 A 
ATOM      9  C   UNL d   1      -1.988  -1.279   0.040  0.00  0.00     0.009 A 
ATOM     10  C   UNL d   1      -2.747   0.997  -0.119  0.00  0.00     0.002 A 
ATOM     11  C   UNL d   1      -3.029  -0.364  -0.071  0.00  0.00     0.001 A 
ENDROOT
BRANCH   1  12
ATOM     12  C   UNL d   1       1.351   2.358   0.443  0.00  0.00     0.170 C 
BRANCH  12  13
ATOM     13  C   UNL d   1       1.145   2.761   1.888  0.00  0.00    -0.040 A 
ATOM     14  C   UNL d   1       1.916   2.178   2.905  0.00  0.00     0.009 A 
ATOM     15  C   UNL d   1       1.726   2.541   4.239  0.00  0.00     0.001 A 
ATOM     16  C   UNL d   1       0.768   3.495   4.573  0.00  0.00     0.000 A 
ATOM     17  C   UNL d   1       0.007   4.095   3.572  0.00  0.00     0.001 A 
ATOM     18  C   UNL d   1       0.198   3.735   2.236  0.00  0.00     0.009 A 
ENDBRANCH  12  13
ENDBRANCH   1  12
TORSDOF 2
