REMARK  3 active torsions:
REMARK  status: ('A' for Active; 'I' for Inactive)
REMARK    1  A    between atoms: C_3  and  C_1 
REMARK    2  A    between atoms: N_2  and  C_6 
REMARK    3  A    between atoms: N_7  and  C_4 
ROOT
ATOM      1  C   UNL d   1      -0.521  -0.920  -0.713  0.00  0.00     0.076 A 
ATOM      2  C   UNL d   1       0.660  -1.344  -0.064  0.00  0.00     0.045 A 
ATOM      3  C   UNL d   1      -0.700   0.453  -1.020  0.00  0.00     0.054 A 
ATOM      4  C   UNL d   1       0.262   1.400  -0.663  0.00  0.00     0.103 A 
ATOM      5  C   UNL d   1       1.595  -0.353   0.312  0.00  0.00     0.032 A 
ATOM      6  C   UNL d   1       1.404   1.002   0.025  0.00  0.00     0.038 A 
ENDROOT
BRANCH   2   7
ATOM      7  N   UNL d   1       0.895  -2.694   0.217  0.00  0.00    -0.380 N 
ATOM      8  C   UNL d   1       1.730  -3.038   1.380  0.00  0.00     0.123 C 
ATOM      9  C   UNL d   1       1.427  -4.477   1.791  0.00  0.00     0.020 C 
ATOM     10  C   UNL d   1       1.658  -5.444   0.631  0.00  0.00     0.003 C 
ATOM     11  C   UNL d   1       0.912  -4.995  -0.625  0.00  0.00     0.020 C 
ATOM     12  C   UNL d   1       1.201  -3.530  -0.964  0.00  0.00     0.123 C 
ENDBRANCH   2   7
BRANCH   1  13
ATOM     13  C   UNL d   1      -1.678  -1.829  -1.081  0.00  0.00     0.419 C 
ATOM     14  F   UNL d   1      -1.573  -3.145  -0.763  0.00  0.00    -0.166 F 
ATOM     15  F   UNL d   1      -2.846  -1.414  -0.505  0.00  0.00    -0.166 F 
ATOM     16  F   UNL d   1      -1.917  -1.802  -2.427  0.00  0.00    -0.166 F 
ENDBRANCH   1  13
BRANCH   4  17
ATOM     17  N   UNL d   1       0.067   2.814  -1.014  0.00  0.00    -0.116 N 
ATOM     18  O   UNL d   1      -0.950   3.112  -1.651  0.00  0.00    -0.532 OA
ATOM     19  O   UNL d   1       0.943   3.617  -0.663  0.00  0.00    -0.532 OA
ENDBRANCH   4  17
TORSDOF 3
