REMARK  6 active torsions:
REMARK  status: ('A' for Active; 'I' for Inactive)
REMARK    1  A    between atoms: C_3  and  C_1 
REMARK    2  A    between atoms: C_4  and  C_2 
REMARK    3  A    between atoms: N_13  and  C_3 
REMARK    4  A    between atoms: N_14  and  C_4 
REMARK    5  A    between atoms: O_15  and  N_6 
REMARK    6  A    between atoms: O_16  and  N_8 
ROOT
ATOM      1  C   UNL d   1      -1.112   3.710   0.136  0.00  0.00     0.005 A 
ATOM      2  C   UNL d   1       0.943   4.988   0.199  0.00  0.00     0.005 A 
ATOM      3  C   UNL d   1       0.285   3.755   0.138  0.00  0.00     0.029 A 
ATOM      4  C   UNL d   1      -1.847   4.903   0.199  0.00  0.00     0.021 A 
ATOM      5  C   UNL d   1       0.203   6.176   0.265  0.00  0.00     0.021 A 
ATOM      6  C   UNL d   1      -1.197   6.141   0.267  0.00  0.00    -0.060 A 
ATOM      7  C   UNL d   1      -2.000   7.406   0.354  0.00  0.00     0.048 C 
ENDROOT
BRANCH   1   8
ATOM      8  C   UNL d   1      -1.828   2.398   0.050  0.00  0.00     0.108 C 
ATOM      9  N   UNL d   1      -3.062   2.388  -0.366  0.00  0.00    -0.258 N 
ATOM     10  HN  UNL d   1      -3.583   3.218  -0.648  1.00  0.00     0.195 HD
BRANCH   9  11
ATOM     11  O   UNL d   1      -3.581   1.083  -0.375  0.00  0.00    -0.289 OA
ATOM     12  H   UNL d   1      -4.429   1.207  -0.838  0.00  0.00     0.244 HD
ENDBRANCH   9  11
BRANCH   8  13
ATOM     13  N   UNL d   1      -1.173   1.246   0.424  0.00  0.00    -0.287 NA
ATOM     14  H   UNL d   1      -0.556   1.330   1.224  0.00  0.00     0.125 HD
ATOM     15  H   UNL d   1      -1.844   0.489   0.525  0.00  0.00     0.125 HD
ENDBRANCH   8  13
ENDBRANCH   1   8
BRANCH   2  16
ATOM     16  C   UNL d   1       2.437   5.035   0.200  0.00  0.00     0.108 C 
ATOM     17  N   UNL d   1       3.092   3.977   0.588  0.00  0.00    -0.258 N 
ATOM     18  HN  UNL d   1       2.656   3.110   0.903  1.00  0.00     0.195 HD
BRANCH  17  19
ATOM     19  O   UNL d   1       4.478   4.190   0.515  0.00  0.00    -0.289 OA
ATOM     20  H   UNL d   1       4.827   3.386   0.944  0.00  0.00     0.244 HD
ENDBRANCH  17  19
BRANCH  16  21
ATOM     21  N   UNL d   1       3.075   6.181  -0.212  0.00  0.00    -0.287 NA
ATOM     22  H   UNL d   1       2.653   6.652  -1.004  0.00  0.00     0.125 HD
ATOM     23  H   UNL d   1       4.062   5.983  -0.363  0.00  0.00     0.125 HD
ENDBRANCH  16  21
ENDBRANCH   2  16
TORSDOF 6
