REMARK  6 active torsions:
REMARK  status: ('A' for Active; 'I' for Inactive)
REMARK    1  A    between atoms: N_6  and  C_1 
REMARK    2  A    between atoms: C_9  and  C_2 
REMARK    3  A    between atoms: C_11  and  N_3 
REMARK       I    between atoms: C_8  and  N_6 
REMARK       I    between atoms: N_10  and  C_8 
REMARK    4  A    between atoms: O_14  and  C_9 
REMARK    5  A    between atoms: C_15  and  N_10 
REMARK    6  A    between atoms: C_18  and  O_14 
ROOT
ATOM      1  C   UNL d   1       0.762  -0.820  -0.054  0.00  0.00     0.149 C 
ATOM      2  C   UNL d   1      -0.576  -1.137  -0.228  0.00  0.00     0.102 C 
ATOM      3  N   UNL d   1       0.798   0.555   0.200  0.00  0.00    -0.239 N 
ATOM      4  N   UNL d   1      -0.422   1.014   0.561  0.00  0.00    -0.302 N 
ATOM      5  HN  UNL d   1      -0.656   1.908   0.992  1.00  0.00     0.186 HD
ATOM      6  C   UNL d   1      -1.249   0.025   0.222  0.00  0.00     0.129 C 
ENDROOT
BRANCH   1   7
ATOM      7  N   UNL d   1       1.838  -1.680   0.174  0.00  0.00    -0.292 N 
ATOM      8  C   UNL d   1       2.658  -2.298  -0.810  0.00  0.00     0.326 C 
ATOM      9  N   UNL d   1       2.019  -2.833  -1.883  0.00  0.00    -0.309 N 
ATOM     10  O   UNL d   1       3.840  -2.289  -0.536  0.00  0.00    -0.247 OA
ATOM     11  H   UNL d   1       1.050  -3.103  -1.731  0.00  0.00     0.170 HD
ATOM     12  H   UNL d   1       2.436  -1.414   0.957  0.00  0.00     0.172 HD
BRANCH   9  13
ATOM     13  C   UNL d   1       2.719  -3.543  -2.882  0.00  0.00     0.036 A 
ATOM     14  C   UNL d   1       2.111  -4.673  -3.434  0.00  0.00     0.029 A 
ATOM     15  C   UNL d   1       2.820  -5.481  -4.327  0.00  0.00     0.002 A 
ATOM     16  C   UNL d   1       4.115  -5.136  -4.709  0.00  0.00     0.000 A 
ATOM     17  C   UNL d   1       4.701  -3.974  -4.212  0.00  0.00     0.002 A 
ATOM     18  C   UNL d   1       4.005  -3.180  -3.299  0.00  0.00     0.029 A 
ENDBRANCH   9  13
ENDBRANCH   1   7
BRANCH   2  19
ATOM     19  C   UNL d   1      -1.177  -2.358  -0.722  0.00  0.00     0.298 C 
ATOM     20  O   UNL d   1      -0.515  -3.276  -1.190  0.00  0.00    -0.259 OA
BRANCH  19  21
ATOM     21  O   UNL d   1      -2.536  -2.278  -0.766  0.00  0.00    -0.318 OA
BRANCH  21  22
ATOM     22  C   UNL d   1      -3.175  -3.029  -1.812  0.00  0.00     0.174 C 
ATOM     23  C   UNL d   1      -3.643  -4.395  -1.355  0.00  0.00     0.034 C 
ENDBRANCH  21  22
ENDBRANCH  19  21
ENDBRANCH   2  19
BRANCH   3  24
ATOM     24  C   UNL d   1       1.917   1.427   0.105  0.00  0.00     0.058 A 
ATOM     25  C   UNL d   1       3.012   1.100  -0.708  0.00  0.00     0.031 A 
ATOM     26  C   UNL d   1       4.096   1.970  -0.817  0.00  0.00     0.002 A 
ATOM     27  C   UNL d   1       4.093   3.176  -0.124  0.00  0.00     0.000 A 
ATOM     28  C   UNL d   1       2.998   3.522   0.667  0.00  0.00     0.002 A 
ATOM     29  C   UNL d   1       1.904   2.658   0.773  0.00  0.00     0.031 A 
ENDBRANCH   3  24
TORSDOF 6
