REMARK  2 active torsions:
REMARK  status: ('A' for Active; 'I' for Inactive)
REMARK    1  A    between atoms: N_4  and  C_2 
REMARK    2  A    between atoms: C_7  and  N_4 
ROOT
ATOM      1  N   UNL d   1      -2.969  -1.669  -0.560  0.00  0.00    -0.359 N 
ATOM      2  H   UNL d   1      -3.430  -2.472  -0.988  0.00  0.00     0.166 HD
ENDROOT
BRANCH   1   3
ATOM      3  C   UNL d   1      -1.578  -1.797  -0.542  0.00  0.00     0.018 C 
ATOM      4  C   UNL d   1      -0.761  -1.103   0.278  0.00  0.00     0.041 C 
ATOM      5  C   UNL d   1       0.730  -1.122   0.294  0.00  0.00     0.291 C 
ATOM      6  C   UNL d   1      -1.119  -0.088   1.310  0.00  0.00     0.073 C 
ATOM      7  O   UNL d   1       1.146   0.074   0.812  0.00  0.00    -0.317 OA
ATOM      8  O   UNL d   1       1.473  -2.025  -0.043  0.00  0.00    -0.260 OA
ATOM      9  C   UNL d   1       0.001   0.889   1.074  0.00  0.00     0.184 C 
ATOM     10  C   UNL d   1      -1.067  -2.864  -1.492  0.00  0.00     0.069 C 
ENDBRANCH   1   3
BRANCH   1  11
ATOM     11  C   UNL d   1      -3.725  -0.502  -0.850  0.00  0.00     0.032 A 
ATOM     12  C   UNL d   1      -3.164   0.739  -1.169  0.00  0.00     0.030 A 
ATOM     13  C   UNL d   1      -3.969   1.868  -1.361  0.00  0.00     0.009 A 
ATOM     14  C   UNL d   1      -5.361   1.775  -1.270  0.00  0.00    -0.062 A 
ATOM     15  C   UNL d   1      -5.931   0.542  -0.944  0.00  0.00     0.009 A 
ATOM     16  C   UNL d   1      -6.214   2.985  -1.505  0.00  0.00     0.048 C 
ATOM     17  C   UNL d   1      -5.120  -0.579  -0.730  0.00  0.00     0.030 A 
ENDBRANCH   1  11
TORSDOF 2
