REMARK  3 active torsions:
REMARK  status: ('A' for Active; 'I' for Inactive)
REMARK    1  A    between atoms: C_3  and  C_9 
REMARK    2  A    between atoms: O_25  and  C_6 
REMARK    3  A    between atoms: N_10  and  C_22 
ROOT
ATOM      1  C   UNL d   1       0.430   0.584  -0.109  0.00  0.00    -0.014 C 
ATOM      2  C   UNL d   1      -0.406  -0.564  -0.102  0.00  0.00    -0.014 C 
ATOM      3  C   UNL d   1       1.860   0.447  -0.013  0.00  0.00    -0.015 A 
ATOM      4  C   UNL d   1       2.449  -0.835  -0.107  0.00  0.00    -0.023 A 
ATOM      5  C   UNL d   1      -1.840  -0.413  -0.007  0.00  0.00    -0.015 A 
ATOM      6  C   UNL d   1       0.234  -1.821  -0.188  0.00  0.00     0.014 C 
ATOM      7  C   UNL d   1      -0.198   1.843  -0.211  0.00  0.00     0.014 C 
ATOM      8  C   UNL d   1       2.739   1.527   0.222  0.00  0.00     0.015 A 
ATOM      9  C   UNL d   1       1.623  -1.952  -0.228  0.00  0.00     0.013 C 
ATOM     10  C   UNL d   1       3.851  -0.985  -0.058  0.00  0.00     0.041 A 
ATOM     11  C   UNL d   1      -2.409   0.881  -0.089  0.00  0.00    -0.025 A 
ATOM     12  C   UNL d   1      -1.582   1.988  -0.234  0.00  0.00     0.013 C 
ATOM     13  C   UNL d   1       4.702   0.103   0.146  0.00  0.00     0.032 A 
ATOM     14  C   UNL d   1       4.122   1.355   0.331  0.00  0.00     0.030 A 
ATOM     15  C   UNL d   1      -2.747  -1.483   0.204  0.00  0.00     0.013 A 
ATOM     16  C   UNL d   1      -3.799   1.069  -0.005  0.00  0.00     0.012 A 
ATOM     17  C   UNL d   1      -4.127  -1.283   0.326  0.00  0.00     0.001 A 
ATOM     18  C   UNL d   1      -4.654  -0.006   0.211  0.00  0.00     0.001 A 
ENDROOT
BRANCH  13  19
ATOM     19  N   UNL d   1       6.089  -0.128   0.217  0.00  0.00    -0.365 N 
ATOM     20  C   UNL d   1       6.891   0.777  -0.255  0.00  0.00     0.102 C 
ATOM     21  HN  UNL d   1       6.456  -0.986   0.630  1.00  0.00     0.165 HD
BRANCH  20  22
ATOM     22  C   UNL d   1       8.359   0.622  -0.230  0.00  0.00     0.016 A 
ATOM     23  C   UNL d   1       9.178   1.684  -0.627  0.00  0.00     0.099 A 
ATOM     24  C   UNL d   1      10.568   1.522  -0.636  0.00  0.00     0.069 A 
ATOM     25 CL   UNL d   1      11.591   2.822  -1.127  0.00  0.00    -0.081 Cl
ATOM     26  C   UNL d   1      11.142   0.312  -0.254  0.00  0.00     0.050 A 
ATOM     27  C   UNL d   1      10.319  -0.739   0.147  0.00  0.00     0.036 A 
ATOM     28  C   UNL d   1       8.931  -0.592   0.166  0.00  0.00     0.039 A 
ATOM     29 CL   UNL d   1      11.024  -2.237   0.613  0.00  0.00    -0.084 Cl
BRANCH  23  30
ATOM     30  O   UNL d   1       8.614   2.877  -0.999  0.00  0.00    -0.358 OA
ATOM     31  H   UNL d   1       9.338   3.490  -1.234  0.00  0.00     0.217 HD
ENDBRANCH  23  30
ENDBRANCH  20  22
ENDBRANCH  13  19
TORSDOF 3
