REMARK  5 active torsions:
REMARK  status: ('A' for Active; 'I' for Inactive)
REMARK    1  A    between atoms: C_2  and  C_1 
REMARK    2  A    between atoms: C_16  and  N_3 
REMARK    3  A    between atoms: N_19  and  C_4 
REMARK    4  A    between atoms: S_20  and  C_10 
REMARK    5  A    between atoms: C_21  and  C_16 
ROOT
ATOM      1  C   UNL d   1       3.979   0.101  -0.073  0.00  0.00     0.144 A 
ATOM      2  N   UNL d   1       4.635   0.650   1.016  0.00  0.00    -0.306 N 
ATOM      3  N   UNL d   1       4.885  -0.463  -0.856  0.00  0.00    -0.282 N 
ATOM      4  HN  UNL d   1       4.689  -0.981  -1.713  1.00  0.00     0.188 HD
ATOM      5  C   UNL d   1       5.973   0.438   0.780  0.00  0.00     0.162 A 
ATOM      6  N   UNL d   1       6.129  -0.238  -0.329  0.00  0.00    -0.278 N 
ATOM      7  HN  UNL d   1       7.016  -0.543  -0.729  1.00  0.00     0.189 HD
ENDROOT
BRANCH   1   8
ATOM      8  C   UNL d   1       2.576   0.128  -0.423  0.00  0.00     0.079 A 
ATOM      9  C   UNL d   1       1.898  -0.792  -1.219  0.00  0.00     0.060 A 
ATOM     10  C   UNL d   1       0.571  -0.352  -1.616  0.00  0.00     0.031 A 
ATOM     11  C   UNL d   1      -0.450  -0.840  -2.487  0.00  0.00    -0.045 A 
ATOM     12  C   UNL d   1       0.291   0.857  -0.978  0.00  0.00     0.088 A 
ATOM     13  C   UNL d   1      -1.615  -0.053  -2.618  0.00  0.00     0.032 A 
ATOM     14  C   UNL d   1      -0.410  -2.086  -3.332  0.00  0.00     0.049 C 
ATOM     15  C   UNL d   1      -1.751   1.137  -1.921  0.00  0.00     0.006 A 
ATOM     16  N   UNL d   1      -0.822   1.608  -1.079  0.00  0.00    -0.354 N 
ATOM     17  C   UNL d   1      -2.970   1.989  -2.128  0.00  0.00     0.068 C 
ATOM     18  HN  UNL d   1      -0.947   2.472  -0.552  1.00  0.00     0.166 HD
ATOM     19  S   UNL d   1       1.553   1.424  -0.002  0.00  0.00    -0.065 SA
BRANCH   9  20
ATOM     20  N   UNL d   1       2.485  -1.956  -1.605  0.00  0.00    -0.397 N 
ATOM     21  H   UNL d   1       3.495  -2.055  -1.472  0.00  0.00     0.156 HD
ATOM     22  H   UNL d   1       2.180  -2.469  -2.420  0.00  0.00     0.156 HD
ENDBRANCH   9  20
ENDBRANCH   1   8
BRANCH   2  23
ATOM     23  C   UNL d   1       4.050   1.173   2.238  0.00  0.00     0.171 C 
BRANCH  23  24
ATOM     24  C   UNL d   1       3.876   2.676   2.296  0.00  0.00    -0.040 A 
ATOM     25  C   UNL d   1       4.193   3.552   1.247  0.00  0.00     0.009 A 
ATOM     26  C   UNL d   1       3.974   4.927   1.373  0.00  0.00     0.001 A 
ATOM     27  C   UNL d   1       3.442   5.449   2.551  0.00  0.00     0.000 A 
ATOM     28  C   UNL d   1       3.125   4.595   3.603  0.00  0.00     0.001 A 
ATOM     29  C   UNL d   1       3.338   3.221   3.476  0.00  0.00     0.009 A 
ENDBRANCH  23  24
ENDBRANCH   2  23
BRANCH   5  30
ATOM     30  S   UNL d   1       7.232   0.996   1.829  0.00  0.00    -0.097 SA
ATOM     31  C   UNL d   1       8.708   0.502   0.908  0.00  0.00     0.099 C 
ENDBRANCH   5  30
TORSDOF 5
