REMARK  6 active torsions:
REMARK  status: ('A' for Active; 'I' for Inactive)
REMARK    1  A    between atoms: N_5  and  C_1 
REMARK    2  A    between atoms: C_8  and  C_2 
REMARK    3  A    between atoms: C_7  and  N_5 
REMARK    4  A    between atoms: N_11  and  C_7 
REMARK    5  A    between atoms: O_12  and  C_8 
REMARK    6  A    between atoms: C_16  and  O_12 
ROOT
ATOM      1  C   UNL d   1      -2.110  -0.701   0.006  0.00  0.00     0.093 A 
ATOM      2  C   UNL d   1      -1.048  -1.606  -0.011  0.00  0.00     0.080 A 
ATOM      3  S   UNL d   1      -1.584   0.906  -0.093  0.00  0.00    -0.075 SA
ATOM      4  C   UNL d   1       0.225  -0.902  -0.004  0.00  0.00    -0.026 A 
ATOM      5  C   UNL d   1       0.043   0.466  -0.037  0.00  0.00    -0.008 A 
ATOM      6  C   UNL d   1       1.611  -1.489  -0.003  0.00  0.00     0.041 C 
ATOM      7  C   UNL d   1       1.122   1.502  -0.007  0.00  0.00     0.047 C 
ATOM      8  C   UNL d   1       2.674  -0.459   0.411  0.00  0.00     0.005 C 
ATOM      9  C   UNL d   1       2.486   0.875  -0.319  0.00  0.00     0.005 C 
ENDROOT
BRANCH   1  10
ATOM     10  N   UNL d   1      -3.465  -1.023  -0.004  0.00  0.00    -0.327 N 
ATOM     11  H   UNL d   1      -3.636  -2.024  -0.002  0.00  0.00     0.169 HD
BRANCH  10  12
ATOM     12  C   UNL d   1      -4.592  -0.243   0.086  0.00  0.00     0.172 C 
ATOM     13  S   UNL d   1      -4.803   1.287   0.729  0.00  0.00    -0.041 SA
BRANCH  12  14
ATOM     14  N   UNL d   1      -5.735  -0.816  -0.410  0.00  0.00    -0.371 N 
ATOM     15  C   UNL d   1      -5.920  -2.044  -1.153  0.00  0.00     0.148 C 
ATOM     16  H   UNL d   1      -6.533  -0.190  -0.370  0.00  0.00     0.161 HD
ENDBRANCH  12  14
ENDBRANCH  10  12
ENDBRANCH   1  10
BRANCH   2  17
ATOM     17  C   UNL d   1      -1.262  -3.060  -0.046  0.00  0.00     0.296 C 
ATOM     18  O   UNL d   1      -2.373  -3.576  -0.036  0.00  0.00    -0.259 OA
BRANCH  17  19
ATOM     19  O   UNL d   1      -0.096  -3.767  -0.112  0.00  0.00    -0.318 OA
BRANCH  19  20
ATOM     20  C   UNL d   1      -0.200  -5.199  -0.175  0.00  0.00     0.174 C 
ATOM     21  C   UNL d   1      -0.360  -5.781   1.217  0.00  0.00     0.034 C 
ENDBRANCH  19  20
ENDBRANCH  17  19
ENDBRANCH   2  17
TORSDOF 6
