REMARK  7 active torsions:
REMARK  status: ('A' for Active; 'I' for Inactive)
REMARK    1  A    between atoms: C_2  and  C_1 
REMARK       I    between atoms: N_5  and  C_1 
REMARK    2  A    between atoms: C_4  and  C_3 
REMARK    3  A    between atoms: O_19  and  C_4 
REMARK    4  A    between atoms: C_14  and  N_5 
REMARK    5  A    between atoms: O_13  and  C_8 
REMARK    6  A    between atoms: C_9  and  C_11 
REMARK    7  A    between atoms: C_18  and  O_13 
ROOT
ATOM      1  N   UNL d   1      -3.367   2.365   0.595  0.00  0.00    -0.344 N 
ATOM      2  HN  UNL d   1      -3.882   3.235   0.457  1.00  0.00     0.167 HD
ATOM      3  C   UNL d   1      -4.007   1.199   0.818  0.00  0.00     0.148 A 
ATOM      4  C   UNL d   1      -1.264   1.173   0.695  0.00  0.00     0.050 A 
ATOM      5  C   UNL d   1      -2.018   2.334   0.563  0.00  0.00     0.119 A 
ATOM      6  C   UNL d   1      -3.352  -0.015   0.960  0.00  0.00     0.059 A 
ATOM      7  C   UNL d   1      -1.957  -0.024   0.889  0.00  0.00     0.035 A 
ENDROOT
BRANCH   4   8
ATOM      8  N   UNL d   1       0.142   1.131   0.591  0.00  0.00    -0.322 N 
ATOM      9  C   UNL d   1       0.976   2.229   0.674  0.00  0.00     0.257 C 
ATOM     10  O   UNL d   1       0.619   3.354   1.021  0.00  0.00    -0.267 OA
ATOM     11  H   UNL d   1       0.535   0.200   0.483  0.00  0.00     0.169 HD
BRANCH   9  12
ATOM     12  C   UNL d   1       2.418   2.048   0.355  0.00  0.00     0.049 A 
ATOM     13  C   UNL d   1       3.191   0.901   0.603  0.00  0.00     0.053 A 
ATOM     14  C   UNL d   1       4.536   0.875   0.189  0.00  0.00     0.019 A 
ATOM     15  C   UNL d   1       5.119   1.979  -0.435  0.00  0.00     0.001 A 
ATOM     16  C   UNL d   1       4.367   3.124  -0.652  0.00  0.00     0.001 A 
ATOM     17  C   UNL d   1       3.030   3.157  -0.260  0.00  0.00     0.018 A 
BRANCH  13  18
ATOM     18  C   UNL d   1       2.708  -0.340   1.248  0.00  0.00     0.177 C 
ATOM     19  O   UNL d   1       3.045  -1.442   0.853  0.00  0.00    -0.646 OA
BRANCH  18  20
ATOM     20  O   UNL d   1       1.860  -0.169   2.279  0.00  0.00    -0.773 OA
ATOM     21  H   UNL d   1       1.720   0.743   2.605  0.00  0.00     0.167 HD
ENDBRANCH  18  20
ENDBRANCH  13  18
ENDBRANCH   9  12
ENDBRANCH   4   8
BRANCH   3  22
ATOM     22  O   UNL d   1      -5.394   1.190   0.897  0.00  0.00    -0.294 OA
BRANCH  22  23
ATOM     23  C   UNL d   1      -5.997   2.346   1.344  0.00  0.00     0.077 A 
ATOM     24  C   UNL d   1      -7.173   2.747   0.720  0.00  0.00     0.038 A 
ATOM     25  C   UNL d   1      -7.840   3.899   1.158  0.00  0.00     0.011 A 
ATOM     26  C   UNL d   1      -7.351   4.670   2.234  0.00  0.00    -0.050 A 
ATOM     27  C   UNL d   1      -6.166   4.237   2.848  0.00  0.00     0.011 A 
ATOM     28  C   UNL d   1      -5.510   3.080   2.425  0.00  0.00     0.038 A 
BRANCH  26  29
ATOM     29  C   UNL d   1      -8.112   5.914   2.722  0.00  0.00    -0.024 C 
ATOM     30  C   UNL d   1      -7.428   6.628   3.911  0.00  0.00     0.019 C 
ATOM     31  C   UNL d   1      -8.239   6.945   1.583  0.00  0.00     0.019 C 
ATOM     32  C   UNL d   1      -9.522   5.497   3.193  0.00  0.00     0.019 C 
ENDBRANCH  26  29
ENDBRANCH  22  23
ENDBRANCH   3  22
TORSDOF 7
