REMARK  2 active torsions:
REMARK  status: ('A' for Active; 'I' for Inactive)
REMARK    1  A    between atoms: N_8  and  C_1 
REMARK    2  A    between atoms: C_10  and  N_8 
ROOT
ATOM      1  C   UNL d   1       1.668  -1.587  -0.053  0.00  0.00     0.232 A 
ATOM      2  O   UNL d   1       2.155  -0.329   0.057  0.00  0.00    -0.241 OA
ATOM      3  C   UNL d   1       1.309   0.731   0.043  0.00  0.00     0.303 A 
ATOM      4  N   UNL d   1       0.410  -1.891  -0.087  0.00  0.00    -0.321 N 
ATOM      5  HN  UNL d   1       0.112  -2.864  -0.159  1.00  0.00     0.169 HD
ATOM      6  C   UNL d   1      -0.132   0.455   0.010  0.00  0.00     0.066 A 
ATOM      7  C   UNL d   1      -0.520  -0.871  -0.025  0.00  0.00     0.051 A 
ATOM      8  O   UNL d   1       1.722   1.885   0.073  0.00  0.00    -0.259 OA
ATOM      9  C   UNL d   1      -1.084   1.480   0.023  0.00  0.00     0.020 A 
ATOM     10  C   UNL d   1      -1.878  -1.190  -0.019  0.00  0.00     0.030 A 
ATOM     11  C   UNL d   1      -2.443   1.158   0.016  0.00  0.00     0.001 A 
ATOM     12  C   UNL d   1      -2.840  -0.179   0.003  0.00  0.00     0.002 A 
ENDROOT
BRANCH   1  13
ATOM     13  N   UNL d   1       2.683  -2.501  -0.103  0.00  0.00    -0.322 N 
ATOM     14  H   UNL d   1       3.617  -2.161   0.078  0.00  0.00     0.169 HD
BRANCH  13  15
ATOM     15  C   UNL d   1       2.618  -3.760  -0.726  0.00  0.00     0.035 A 
ATOM     16  C   UNL d   1       1.732  -4.034  -1.779  0.00  0.00     0.029 A 
ATOM     17  C   UNL d   1       1.655  -5.306  -2.349  0.00  0.00     0.002 A 
ATOM     18  C   UNL d   1       2.452  -6.334  -1.857  0.00  0.00     0.000 A 
ATOM     19  C   UNL d   1       3.328  -6.087  -0.802  0.00  0.00     0.002 A 
ATOM     20  C   UNL d   1       3.415  -4.807  -0.246  0.00  0.00     0.029 A 
ENDBRANCH  13  15
ENDBRANCH   1  13
TORSDOF 2
