REMARK  4 active torsions:
REMARK  status: ('A' for Active; 'I' for Inactive)
REMARK    1  A    between atoms: C_8  and  C_3 
REMARK    2  A    between atoms: C_7  and  C_4 
REMARK    3  A    between atoms: C_14  and  C_11 
REMARK    4  A    between atoms: C_16  and  C_14 
ROOT
ATOM      1  N   UNL d   1       0.757  -0.394   0.189  0.00  0.00    -0.348 N 
ATOM      2  HN  UNL d   1       1.684  -0.594   0.564  1.00  0.00     0.166 HD
ATOM      3  C   UNL d   1       0.252   0.817   0.051  0.00  0.00     0.085 A 
ATOM      4  C   UNL d   1      -0.143  -1.363  -0.247  0.00  0.00     0.056 A 
ATOM      5  S   UNL d   1      -1.326   0.853  -0.629  0.00  0.00    -0.074 SA
ATOM      6  C   UNL d   1      -1.355  -0.864  -0.701  0.00  0.00     0.008 A 
ATOM      7  C   UNL d   1      -2.592  -1.524  -1.203  0.00  0.00     0.059 C 
ENDROOT
BRANCH   4   8
ATOM      8  C   UNL d   1       0.217  -2.779  -0.153  0.00  0.00    -0.008 A 
ATOM      9  C   UNL d   1       1.009  -3.222   0.915  0.00  0.00     0.014 A 
ATOM     10  C   UNL d   1       1.350  -4.573   1.047  0.00  0.00     0.008 A 
ATOM     11  C   UNL d   1       0.911  -5.515   0.107  0.00  0.00    -0.058 A 
ATOM     12  C   UNL d   1       0.130  -5.071  -0.967  0.00  0.00     0.008 A 
ATOM     13  C   UNL d   1      -0.190  -3.716  -1.109  0.00  0.00     0.014 A 
BRANCH  11  14
ATOM     14  C   UNL d   1       1.255  -6.978   0.269  0.00  0.00     0.042 C 
BRANCH  14  15
ATOM     15  C   UNL d   1       1.914  -7.630  -0.965  0.00  0.00    -0.019 C 
ATOM     16  C   UNL d   1       3.271  -7.000  -1.288  0.00  0.00     0.010 C 
ATOM     17  C   UNL d   1       2.082  -9.134  -0.737  0.00  0.00     0.010 C 
ENDBRANCH  14  15
ENDBRANCH  11  14
ENDBRANCH   4   8
BRANCH   3  18
ATOM     18  C   UNL d   1       0.964   2.066   0.381  0.00  0.00    -0.002 A 
ATOM     19  C   UNL d   1       2.367   2.082   0.354  0.00  0.00     0.014 A 
ATOM     20  C   UNL d   1       3.081   3.254   0.627  0.00  0.00     0.001 A 
ATOM     21  C   UNL d   1       2.398   4.427   0.946  0.00  0.00     0.000 A 
ATOM     22  C   UNL d   1       1.006   4.426   1.000  0.00  0.00     0.001 A 
ATOM     23  C   UNL d   1       0.296   3.255   0.724  0.00  0.00     0.014 A 
ENDBRANCH   3  18
TORSDOF 4
