REMARK  6 active torsions:
REMARK  status: ('A' for Active; 'I' for Inactive)
REMARK    1  A    between atoms: C_8  and  C_1 
REMARK    2  A    between atoms: N_12  and  C_2 
REMARK       I    between atoms: C_7  and  N_6 
REMARK    3  A    between atoms: O_15  and  C_7 
REMARK    4  A    between atoms: O_16  and  C_8 
REMARK    5  A    between atoms: C_17  and  O_15 
REMARK    6  A    between atoms: C_18  and  O_16 
ROOT
ATOM      1  C   UNL d   1       1.187  -1.579   0.113  0.00  0.00     0.080 A 
ATOM      2  C   UNL d   1       2.309  -0.756   0.147  0.00  0.00     0.085 A 
ATOM      3  C   UNL d   1       0.237   0.574   0.110  0.00  0.00     0.010 A 
ATOM      4  C   UNL d   1      -0.028  -0.786   0.079  0.00  0.00    -0.023 A 
ATOM      5  S   UNL d   1       1.900   0.905   0.147  0.00  0.00    -0.074 SA
ATOM      6  N   UNL d   1      -2.115   1.097   0.254  0.00  0.00    -0.323 N 
ATOM      7  C   UNL d   1      -2.901   1.542   1.296  0.00  0.00     0.363 C 
ATOM      8  C   UNL d   1      -0.785   1.679   0.068  0.00  0.00     0.174 C 
ATOM      9  C   UNL d   1      -1.456  -1.269   0.017  0.00  0.00     0.061 C 
ATOM     10  C   UNL d   1      -2.387  -0.146  -0.472  0.00  0.00     0.133 C 
ATOM     11  O   UNL d   1      -2.623   2.501   2.009  0.00  0.00    -0.238 OA
ENDROOT
BRANCH   1  12
ATOM     12  C   UNL d   1       1.291  -3.041   0.059  0.00  0.00     0.296 C 
ATOM     13  O   UNL d   1       2.344  -3.649  -0.112  0.00  0.00    -0.259 OA
BRANCH  12  14
ATOM     14  O   UNL d   1       0.071  -3.651   0.122  0.00  0.00    -0.318 OA
BRANCH  14  15
ATOM     15  C   UNL d   1       0.002  -4.972  -0.425  0.00  0.00     0.174 C 
ATOM     16  C   UNL d   1      -0.162  -4.857  -1.931  0.00  0.00     0.034 C 
ENDBRANCH  14  15
ENDBRANCH  12  14
ENDBRANCH   1  12
BRANCH   2  17
ATOM     17  N   UNL d   1       3.604  -1.126   0.175  0.00  0.00    -0.393 N 
ATOM     18  H   UNL d   1       3.867  -2.101   0.024  0.00  0.00     0.156 HD
ATOM     19  H   UNL d   1       4.344  -0.447   0.027  0.00  0.00     0.156 HD
ENDBRANCH   2  17
BRANCH   7  20
ATOM     20  O   UNL d   1      -4.001   0.762   1.473  0.00  0.00    -0.304 OA
BRANCH  20  21
ATOM     21  C   UNL d   1      -4.699   0.931   2.713  0.00  0.00     0.176 C 
ATOM     22  C   UNL d   1      -4.054   0.021   3.742  0.00  0.00     0.034 C 
ENDBRANCH  20  21
ENDBRANCH   7  20
TORSDOF 6
