REMARK  5 active torsions:
REMARK  status: ('A' for Active; 'I' for Inactive)
REMARK    1  A    between atoms: C_3  and  C_1 
REMARK    2  A    between atoms: N_4  and  C_1 
REMARK    3  A    between atoms: C_6  and  C_2 
REMARK       I    between atoms: N_11  and  C_3 
REMARK       I    between atoms: C_5  and  N_4 
REMARK    4  A    between atoms: C_10  and  C_5 
REMARK    5  A    between atoms: N_15  and  N_11 
ROOT
ATOM      1  C   UNL d   1       0.867   0.156   0.107  0.00  0.00     0.107 C 
ATOM      2  C   UNL d   1       0.402  -0.030   1.355  0.00  0.00     0.072 C 
ENDROOT
BRANCH   1   3
ATOM      3  C   UNL d   1       2.347   0.341  -0.157  0.00  0.00     0.282 C 
ATOM      4  O   UNL d   1       3.079   1.082   0.489  0.00  0.00    -0.265 OA
ATOM      5  N   UNL d   1       2.770  -0.367  -1.283  0.00  0.00    -0.288 N 
ATOM      6  H   UNL d   1       2.197  -1.138  -1.620  0.00  0.00     0.183 HD
BRANCH   5   7
ATOM      7  N   UNL d   1       4.133  -0.332  -1.657  0.00  0.00    -0.247 NA
ATOM      8  H   UNL d   1       4.650   0.078  -0.864  0.00  0.00     0.143 HD
ATOM      9  H   UNL d   1       4.246   0.361  -2.402  0.00  0.00     0.143 HD
ENDBRANCH   5   7
ENDBRANCH   1   3
BRANCH   1  10
ATOM     10  N   UNL d   1       0.062   0.196  -1.033  0.00  0.00    -0.318 N 
ATOM     11  C   UNL d   1      -1.321   0.137  -1.093  0.00  0.00     0.256 C 
ATOM     12  O   UNL d   1      -2.076   0.047  -0.135  0.00  0.00    -0.267 OA
ATOM     13  H   UNL d   1       0.552   0.427  -1.891  0.00  0.00     0.169 HD
BRANCH  11  14
ATOM     14  C   UNL d   1      -1.928   0.228  -2.452  0.00  0.00     0.032 A 
ATOM     15  C   UNL d   1      -1.297  -0.277  -3.595  0.00  0.00     0.017 A 
ATOM     16  C   UNL d   1      -1.945  -0.209  -4.831  0.00  0.00     0.001 A 
ATOM     17  C   UNL d   1      -3.221   0.354  -4.930  0.00  0.00     0.000 A 
ATOM     18  C   UNL d   1      -3.852   0.853  -3.792  0.00  0.00     0.001 A 
ATOM     19  C   UNL d   1      -3.210   0.788  -2.557  0.00  0.00     0.017 A 
ENDBRANCH  11  14
ENDBRANCH   1  10
BRANCH   2  20
ATOM     20  C   UNL d   1       1.194  -0.071   2.531  0.00  0.00     0.077 A 
ATOM     21  O   UNL d   1       1.587  -1.247   3.127  0.00  0.00    -0.323 OA
ATOM     22  C   UNL d   1       2.219  -0.943   4.287  0.00  0.00     0.142 A 
ATOM     23  C   UNL d   1       2.252   0.415   4.474  0.00  0.00     0.027 A 
ATOM     24  C   UNL d   1       1.600   0.974   3.351  0.00  0.00     0.039 A 
ENDBRANCH   2  20
TORSDOF 5
