REMARK  3 active torsions:
REMARK  status: ('A' for Active; 'I' for Inactive)
REMARK    1  A    between atoms: N_15  and  C_9 
REMARK    2  A    between atoms: C_16  and  N_15 
REMARK    3  A    between atoms: C_17  and  N_15 
ROOT
ATOM      1  C   UNL d   1      -0.138   0.547  -0.438  0.00  0.00     0.138 A 
ATOM      2  N   UNL d   1      -1.283   1.255  -0.449  0.00  0.00    -0.175 N 
ATOM      3  HN  UNL d   1      -1.312   2.207  -0.814  1.00  0.00     0.186 HD
ATOM      4  N   UNL d   1       0.969   1.150  -1.035  0.00  0.00    -0.318 N 
ATOM      5  N   UNL d   1       2.313  -0.677  -0.534  0.00  0.00    -0.323 N 
ATOM      6  C   UNL d   1       2.190   0.559  -1.107  0.00  0.00     0.178 A 
ATOM      7  C   UNL d   1       1.296  -1.380   0.090  0.00  0.00     0.118 A 
ATOM      8  C   UNL d   1      -0.016  -0.713   0.102  0.00  0.00     0.063 A 
ATOM      9  C   UNL d   1      -2.385   0.661   0.039  0.00  0.00     0.681 A 
ATOM     10  N   UNL d   1      -2.365  -0.585   0.545  0.00  0.00    -0.201 N 
ATOM     11  HN  UNL d   1      -3.220  -1.026   0.881  1.00  0.00     0.183 HD
ATOM     12  C   UNL d   1      -1.183  -1.237   0.596  0.00  0.00     0.124 A 
ATOM     13  S   UNL d   1       1.647  -2.875   0.751  0.00  0.00    -0.059 SA
ATOM     14  S   UNL d   1       3.479   1.297  -1.851  0.00  0.00    -0.040 SA
ATOM     15  H   UNL d   1       0.825   2.063  -1.449  0.00  0.00     0.170 HD
ATOM     16  H   UNL d   1       3.227  -1.114  -0.572  0.00  0.00     0.169 HD
ENDROOT
BRANCH   9  17
ATOM     17  N   UNL d   1      -3.576   1.346   0.030  0.00  0.00    -0.218 N 
BRANCH  17  18
ATOM     18  C   UNL d   1      -4.825   0.606  -0.075  0.00  0.00     0.136 C 
ATOM     19  C   UNL d   1      -5.431   0.309   1.287  0.00  0.00     0.027 C 
ENDBRANCH  17  18
BRANCH  17  20
ATOM     20  C   UNL d   1      -3.579   2.800   0.019  0.00  0.00     0.136 C 
ATOM     21  C   UNL d   1      -3.591   3.362  -1.393  0.00  0.00     0.027 C 
ENDBRANCH  17  20
ENDBRANCH   9  17
TORSDOF 3
