REMARK  5 active torsions:
REMARK  status: ('A' for Active; 'I' for Inactive)
REMARK    1  A    between atoms: N_6  and  C_2 
REMARK    2  A    between atoms: C_13  and  C_3 
REMARK       I    between atoms: C_10  and  N_6 
REMARK    3  A    between atoms: C_9  and  C_10 
REMARK    4  A    between atoms: O_19  and  C_11 
REMARK    5  A    between atoms: C_18  and  O_19 
ROOT
ATOM      1  C   UNL d   1       2.620   1.957  -0.042  0.00  0.00     0.146 A 
ATOM      2  C   UNL d   1       4.623   1.082   0.218  0.00  0.00     0.191 A 
ATOM      3  O   UNL d   1       3.715   1.929   0.784  0.00  0.00    -0.282 OA
ATOM      4  C   UNL d   1       2.827   1.109  -1.114  0.00  0.00     0.048 A 
ATOM      5  C   UNL d   1       4.095   0.519  -0.927  0.00  0.00     0.067 A 
ENDROOT
BRANCH   1   6
ATOM      6  C   UNL d   1       1.474   2.787   0.282  0.00  0.00     0.281 C 
ATOM      7  N   UNL d   1       1.509   3.277   1.566  0.00  0.00    -0.300 N 
ATOM      8  H   UNL d   1       2.309   3.050   2.144  0.00  0.00     0.171 HD
ATOM      9  O   UNL d   1       0.582   2.975  -0.537  0.00  0.00    -0.265 OA
BRANCH   7  10
ATOM     10  C   UNL d   1       0.517   3.980   2.203  0.00  0.00     0.168 A 
ATOM     11  S   UNL d   1      -0.939   4.444   1.444  0.00  0.00    -0.037 SA
ATOM     12  C   UNL d   1      -1.416   5.130   2.934  0.00  0.00     0.074 A 
ATOM     13  N   UNL d   1      -0.529   5.007   3.898  0.00  0.00    -0.296 N 
ATOM     14  N   UNL d   1       0.604   4.339   3.465  0.00  0.00    -0.279 N 
ATOM     15  HN  UNL d   1      -0.660   5.360   4.846  1.00  0.00     0.187 HD
ATOM     16  HN  UNL d   1       1.412   4.147   4.057  1.00  0.00     0.189 HD
BRANCH  12  17
ATOM     17  C   UNL d   1      -2.763   5.829   3.113  0.00  0.00     0.044 A 
ATOM     18  C   UNL d   1      -2.836   7.016   4.052  0.00  0.00     0.012 A 
ATOM     19  C   UNL d   1      -3.464   5.726   4.453  0.00  0.00     0.012 A 
ENDBRANCH  12  17
ENDBRANCH   7  10
ENDBRANCH   1   6
BRANCH   2  20
ATOM     20  O   UNL d   1       5.769   0.988   0.892  0.00  0.00    -0.288 OA
BRANCH  20  21
ATOM     21  C   UNL d   1       6.864   0.376   0.329  0.00  0.00     0.081 A 
ATOM     22  C   UNL d   1       7.294   0.650  -0.973  0.00  0.00     0.061 A 
ATOM     23  C   UNL d   1       8.408  -0.013  -1.485  0.00  0.00     0.038 A 
ATOM     24 CL   UNL d   1       8.899   0.282  -3.108  0.00  0.00    -0.084 Cl
ATOM     25  C   UNL d   1       9.121  -0.915  -0.700  0.00  0.00     0.048 A 
ATOM     26  C   UNL d   1       8.714  -1.144   0.612  0.00  0.00     0.038 A 
ATOM     27  C   UNL d   1       7.591  -0.501   1.134  0.00  0.00     0.061 A 
ATOM     28 CL   UNL d   1       9.606  -2.236   1.599  0.00  0.00    -0.084 Cl
ENDBRANCH  20  21
ENDBRANCH   2  20
TORSDOF 5
