REMARK  8 active torsions:
REMARK  status: ('A' for Active; 'I' for Inactive)
REMARK    1  A    between atoms: S_13  and  C_1 
REMARK    2  A    between atoms: N_18  and  C_1 
REMARK    3  A    between atoms: C_2  and  S_14 
REMARK    4  A    between atoms: N_17  and  C_2 
REMARK    5  A    between atoms: C_3  and  C_15 
REMARK    6  A    between atoms: C_16  and  C_4 
REMARK    7  A    between atoms: C_15  and  S_13 
REMARK    8  A    between atoms: S_14  and  C_16 
ROOT
ATOM      1  C   UNL d   1      -1.969   1.470   1.135  0.00  0.00    -0.041 A 
ATOM      2  C   UNL d   1      -3.350   1.622   0.866  0.00  0.00    -0.041 A 
ATOM      3  C   UNL d   1      -1.199   2.642   1.285  0.00  0.00     0.015 A 
ATOM      4  C   UNL d   1      -3.894   2.921   0.762  0.00  0.00     0.015 A 
ATOM      5  C   UNL d   1      -1.744   3.934   1.176  0.00  0.00    -0.056 A 
ATOM      6  C   UNL d   1      -3.109   4.077   0.902  0.00  0.00    -0.056 A 
ATOM      7  C   UNL d   1      -3.780   5.414   0.743  0.00  0.00     0.049 C 
ATOM      8  C   UNL d   1      -0.832   5.117   1.356  0.00  0.00     0.049 C 
ENDROOT
BRANCH   1   9
ATOM      9  C   UNL d   1      -1.355   0.079   1.247  0.00  0.00     0.121 C 
BRANCH   9  10
ATOM     10  S   UNL d   1       0.421  -0.014   1.634  0.00  0.00    -0.096 SA
BRANCH  10  11
ATOM     11  C   UNL d   1       0.661  -1.721   1.520  0.00  0.00     0.110 C 
ATOM     12  N   UNL d   1       0.102  -2.515   2.358  0.00  0.00    -0.385 N 
ATOM     13  H   UNL d   1      -0.442  -1.947   3.017  0.00  0.00     0.157 HD
ATOM     14  HN  UNL d   1       0.183  -3.532   2.368  1.00  0.00     0.157 HD
BRANCH  11  15
ATOM     15  N   UNL d   1       1.510  -2.147   0.566  0.00  0.00    -0.283 NA
ATOM     16  H   UNL d   1       1.883  -3.067   0.773  0.00  0.00     0.126 HD
ATOM     17  H   UNL d   1       2.217  -1.471   0.303  0.00  0.00     0.126 HD
ENDBRANCH  11  15
ENDBRANCH  10  11
ENDBRANCH   9  10
ENDBRANCH   1   9
BRANCH   2  18
ATOM     18  C   UNL d   1      -4.293   0.446   0.685  0.00  0.00     0.121 C 
BRANCH  18  19
ATOM     19  S   UNL d   1      -4.896  -0.201   2.273  0.00  0.00    -0.096 SA
BRANCH  19  20
ATOM     20  C   UNL d   1      -5.797  -1.564   1.700  0.00  0.00     0.110 C 
ATOM     21  N   UNL d   1      -6.813  -1.403   0.930  0.00  0.00    -0.385 N 
ATOM     22  H   UNL d   1      -6.943  -0.399   0.774  0.00  0.00     0.157 HD
ATOM     23  HN  UNL d   1      -7.392  -2.148   0.542  1.00  0.00     0.157 HD
BRANCH  20  24
ATOM     24  N   UNL d   1      -5.416  -2.776   2.141  0.00  0.00    -0.283 NA
ATOM     25  H   UNL d   1      -4.985  -2.780   3.058  0.00  0.00     0.126 HD
ATOM     26  H   UNL d   1      -6.152  -3.468   2.038  0.00  0.00     0.126 HD
ENDBRANCH  20  24
ENDBRANCH  19  20
ENDBRANCH  18  19
ENDBRANCH   2  18
TORSDOF 8
