REMARK  7 active torsions:
REMARK  status: ('A' for Active; 'I' for Inactive)
REMARK    1  A    between atoms: C_13  and  C_2 
REMARK    2  A    between atoms: C_5  and  O_11 
REMARK    3  A    between atoms: C_6  and  C_5 
REMARK    4  A    between atoms: O_11  and  N_9 
REMARK    5  A    between atoms: C_12  and  C_22 
REMARK    6  A    between atoms: N_23  and  C_12 
REMARK    7  A    between atoms: C_22  and  C_24 
ROOT
ATOM      1  N   UNL d   1       4.553  -5.176  -1.950  0.00  0.00    -0.245 N 
ATOM      2  HN  UNL d   1       4.374  -5.933  -2.609  1.00  0.00     0.196 HD
ATOM      3  C   UNL d   1       5.673  -5.027  -1.314  0.00  0.00     0.100 C 
ENDROOT
BRANCH   3   4
ATOM      4  C   UNL d   1       6.758  -6.072  -1.574  0.00  0.00     0.116 C 
BRANCH   4   5
ATOM      5  C   UNL d   1       7.772  -5.679  -2.623  0.00  0.00    -0.051 A 
ATOM      6  C   UNL d   1       9.138  -5.628  -2.314  0.00  0.00     0.008 A 
ATOM      7  C   UNL d   1      10.090  -5.377  -3.310  0.00  0.00     0.014 A 
ATOM      8  C   UNL d   1       9.699  -5.177  -4.641  0.00  0.00    -0.008 A 
ATOM      9  C   UNL d   1       8.330  -5.194  -4.942  0.00  0.00     0.014 A 
ATOM     10  C   UNL d   1       7.378  -5.448  -3.947  0.00  0.00     0.008 A 
BRANCH   8  11
ATOM     11  C   UNL d   1      10.671  -4.970  -5.711  0.00  0.00     0.063 A 
ATOM     12  N   UNL d   1      10.322  -4.313  -6.888  0.00  0.00    -0.292 N 
ATOM     13  N   UNL d   1      11.330  -4.250  -7.742  0.00  0.00    -0.061 NA
ATOM     14  HN  UNL d   1       9.396  -3.926  -7.071  1.00  0.00     0.183 HD
ATOM     15  S   UNL d   1      12.714  -4.987  -7.167  0.00  0.00    -0.010 SA
ATOM     16  C   UNL d   1      11.978  -5.432  -5.681  0.00  0.00     0.096 A 
ENDBRANCH   8  11
ENDBRANCH   4   5
ENDBRANCH   3   4
BRANCH   3  17
ATOM     17  N   UNL d   1       5.941  -4.029  -0.407  0.00  0.00    -0.387 N 
ATOM     18  H   UNL d   1       5.120  -3.572  -0.032  0.00  0.00     0.157 HD
ATOM     19  H   UNL d   1       6.675  -4.197   0.270  0.00  0.00     0.157 HD
ENDBRANCH   3  17
BRANCH   1  20
ATOM     20  O   UNL d   1       3.607  -4.176  -1.631  0.00  0.00    -0.193 OA
BRANCH  20  21
ATOM     21  C   UNL d   1       2.474  -4.391  -2.370  0.00  0.00     0.315 C 
ATOM     22  O   UNL d   1       2.276  -5.285  -3.182  0.00  0.00    -0.257 OA
BRANCH  21  23
ATOM     23  C   UNL d   1       1.426  -3.374  -2.072  0.00  0.00     0.044 A 
ATOM     24  C   UNL d   1       0.222  -3.456  -2.791  0.00  0.00     0.041 A 
ATOM     25  C   UNL d   1      -0.801  -2.540  -2.558  0.00  0.00     0.036 A 
ATOM     26 CL   UNL d   1      -2.269  -2.654  -3.447  0.00  0.00    -0.084 Cl
ATOM     27  C   UNL d   1      -0.646  -1.533  -1.611  0.00  0.00     0.047 A 
ATOM     28  C   UNL d   1       0.548  -1.452  -0.895  0.00  0.00     0.036 A 
ATOM     29  C   UNL d   1       1.585  -2.362  -1.117  0.00  0.00     0.041 A 
ATOM     30 CL   UNL d   1       0.744  -0.213   0.283  0.00  0.00    -0.084 Cl
ENDBRANCH  21  23
ENDBRANCH  20  21
ENDBRANCH   1  20
TORSDOF 7
