REMARK  4 active torsions:
REMARK  status: ('A' for Active; 'I' for Inactive)
REMARK    1  A    between atoms: C_6  and  C_1 
REMARK    2  A    between atoms: C_8  and  C_3 
REMARK    3  A    between atoms: C_7  and  C_4 
REMARK    4  A    between atoms: O_13  and  C_7 
ROOT
ATOM      1  C   UNL d   1       0.123   1.251  -0.050  0.00  0.00     0.100 A 
ATOM      2  S   UNL d   1      -1.058  -0.006  -0.089  0.00  0.00    -0.078 SA
ATOM      3  C   UNL d   1       1.417   0.732  -0.066  0.00  0.00    -0.002 A 
ATOM      4  C   UNL d   1       0.109  -1.243  -0.066  0.00  0.00     0.080 A 
ATOM      5  C   UNL d   1       1.382  -0.711  -0.066  0.00  0.00     0.039 A 
ENDROOT
BRANCH   3   6
ATOM      6  C   UNL d   1       2.652   1.534  -0.042  0.00  0.00    -0.025 A 
ATOM      7  C   UNL d   1       3.772   1.066   0.667  0.00  0.00     0.012 A 
ATOM      8  C   UNL d   1       4.974   1.783   0.677  0.00  0.00     0.001 A 
ATOM      9  C   UNL d   1       5.072   2.991  -0.006  0.00  0.00     0.000 A 
ATOM     10  C   UNL d   1       3.977   3.466  -0.719  0.00  0.00     0.001 A 
ATOM     11  C   UNL d   1       2.786   2.732  -0.754  0.00  0.00     0.012 A 
ENDBRANCH   3   6
BRANCH   1  12
ATOM     12  C   UNL d   1      -0.379   2.666   0.005  0.00  0.00     0.424 C 
ATOM     13  F   UNL d   1      -1.719   2.746   0.234  0.00  0.00    -0.166 F 
ATOM     14  F   UNL d   1       0.215   3.386   0.989  0.00  0.00    -0.166 F 
ATOM     15  F   UNL d   1      -0.167   3.326  -1.163  0.00  0.00    -0.166 F 
ENDBRANCH   1  12
BRANCH   4  16
ATOM     16  C   UNL d   1      -0.247  -2.648  -0.053  0.00  0.00     0.183 C 
ATOM     17  O   UNL d   1       0.548  -3.577  -0.031  0.00  0.00    -0.646 OA
BRANCH  16  18
ATOM     18  O   UNL d   1      -1.591  -2.865  -0.063  0.00  0.00    -0.772 OA
ATOM     19  H   UNL d   1      -2.092  -2.029  -0.071  0.00  0.00     0.167 HD
ENDBRANCH  16  18
ENDBRANCH   4  16
TORSDOF 4
