REMARK  7 active torsions:
REMARK  status: ('A' for Active; 'I' for Inactive)
REMARK    1  A    between atoms: C_2  and  N_1 
REMARK    2  A    between atoms: C_3  and  C_7 
REMARK    3  A    between atoms: C_4  and  C_6 
REMARK       I    between atoms: C_6  and  N_18 
REMARK    4  A    between atoms: N_19  and  C_8 
REMARK    5  A    between atoms: N_18  and  C_23 
REMARK    6  A    between atoms: C_24  and  N_19 
REMARK    7  A    between atoms: C_23  and  C_24 
ROOT
ATOM      1  N   UNL d   1      -1.146  -1.508  -0.941  0.00  0.00    -0.386 N 
ATOM      2  H   UNL d   1      -1.647  -2.400  -1.048  0.00  0.00     0.159 HD
ENDROOT
BRANCH   1   3
ATOM      3  C   UNL d   1      -0.670  -1.256   0.350  0.00  0.00     0.061 A 
ATOM      4  C   UNL d   1      -1.179  -1.907   1.495  0.00  0.00     0.130 A 
ATOM      5  C   UNL d   1      -0.795  -1.552   2.805  0.00  0.00     0.054 A 
ATOM      6  C   UNL d   1       0.117  -0.510   3.008  0.00  0.00     0.050 A 
ATOM      7  C   UNL d   1       0.624   0.156   1.889  0.00  0.00     0.018 A 
ATOM      8  C   UNL d   1       0.227  -0.205   0.593  0.00  0.00     0.032 A 
BRANCH   4   9
ATOM      9  N   UNL d   1      -2.097  -3.033   1.362  0.00  0.00    -0.113 N 
ATOM     10  O   UNL d   1      -3.073  -3.062   2.126  0.00  0.00    -0.532 OA
ATOM     11  O   UNL d   1      -1.808  -3.914   0.538  0.00  0.00    -0.532 OA
ENDBRANCH   4   9
BRANCH   6  12
ATOM     12  C   UNL d   1       0.549  -0.088   4.392  0.00  0.00     0.417 C 
ATOM     13  F   UNL d   1      -0.026  -0.814   5.388  0.00  0.00    -0.166 F 
ATOM     14  F   UNL d   1       1.893  -0.205   4.569  0.00  0.00    -0.166 F 
ATOM     15  F   UNL d   1       0.250   1.214   4.653  0.00  0.00    -0.166 F 
ENDBRANCH   6  12
ENDBRANCH   1   3
BRANCH   1  16
ATOM     16  C   UNL d   1      -0.292  -1.242  -2.102  0.00  0.00     0.139 C 
BRANCH  16  17
ATOM     17  C   UNL d   1      -0.974  -1.662  -3.414  0.00  0.00     0.142 C 
BRANCH  17  18
ATOM     18  N   UNL d   1      -1.235  -3.090  -3.499  0.00  0.00    -0.355 N 
ATOM     19  C   UNL d   1      -2.444  -3.640  -3.136  0.00  0.00     0.254 C 
ATOM     20  O   UNL d   1      -3.345  -2.974  -2.633  0.00  0.00    -0.268 OA
ATOM     21  H   UNL d   1      -0.507  -3.693  -3.867  0.00  0.00     0.162 HD
BRANCH  19  22
ATOM     22  C   UNL d   1      -2.639  -5.097  -3.372  0.00  0.00     0.070 A 
ATOM     23  C   UNL d   1      -1.672  -5.907  -3.972  0.00  0.00     0.132 A 
ATOM     24  F   UNL d   1      -0.484  -5.407  -4.349  0.00  0.00    -0.205 F 
ATOM     25  C   UNL d   1      -1.912  -7.260  -4.205  0.00  0.00     0.043 A 
ATOM     26  C   UNL d   1      -3.132  -7.822  -3.834  0.00  0.00     0.003 A 
ATOM     27  C   UNL d   1      -4.106  -7.031  -3.227  0.00  0.00     0.001 A 
ATOM     28  C   UNL d   1      -3.862  -5.674  -2.997  0.00  0.00     0.020 A 
ENDBRANCH  19  22
ENDBRANCH  17  18
ENDBRANCH  16  17
ENDBRANCH   1  16
TORSDOF 7
