REMARK  10 active torsions:
REMARK  status: ('A' for Active; 'I' for Inactive)
REMARK    1  A    between atoms: C_6  and  C_1 
REMARK    2  A    between atoms: C_14  and  N_2 
REMARK    3  A    between atoms: C_8  and  C_3 
REMARK    4  A    between atoms: O_15  and  C_6 
REMARK       I    between atoms: C_7  and  N_13 
REMARK    5  A    between atoms: O_9  and  C_7 
REMARK    6  A    between atoms: C_12  and  O_9 
REMARK    7  A    between atoms: N_13  and  C_21 
REMARK    8  A    between atoms: C_17  and  C_14 
REMARK    9  A    between atoms: C_25  and  O_15 
REMARK   10  A    between atoms: C_21  and  C_17 
ROOT
ATOM      1  C   UNL d   1      -0.408   1.274  -0.038  0.00  0.00     0.063 A 
ATOM      2  N   UNL d   1       0.816  -0.622  -0.039  0.00  0.00    -0.352 N 
ATOM      3  C   UNL d   1      -0.524  -1.023   0.021  0.00  0.00     0.020 A 
ATOM      4  C   UNL d   1       0.884   0.771  -0.009  0.00  0.00     0.024 A 
ATOM      5  C   UNL d   1      -1.268   0.151  -0.009  0.00  0.00     0.045 A 
ATOM      6  C   UNL d   1       2.144   1.580   0.054  0.00  0.00     0.069 C 
ENDROOT
BRANCH   2   7
ATOM      7  C   UNL d   1       1.999  -1.476  -0.036  0.00  0.00     0.130 C 
BRANCH   7   8
ATOM      8  C   UNL d   1       2.587  -1.828  -1.413  0.00  0.00     0.040 C 
BRANCH   8   9
ATOM      9  C   UNL d   1       3.004  -0.631  -2.264  0.00  0.00     0.126 C 
BRANCH   9  10
ATOM     10  N   UNL d   1       3.568  -1.020  -3.539  0.00  0.00    -0.337 N 
ATOM     11  C   UNL d   1       4.897  -1.193  -3.744  0.00  0.00     0.361 C 
ATOM     12  O   UNL d   1       5.748  -1.186  -2.863  0.00  0.00    -0.238 OA
ATOM     13  H   UNL d   1       2.974  -1.109  -4.353  0.00  0.00     0.164 HD
BRANCH  11  14
ATOM     14  O   UNL d   1       5.133  -1.385  -5.067  0.00  0.00    -0.294 OA
BRANCH  14  15
ATOM     15  C   UNL d   1       6.459  -1.724  -5.551  0.00  0.00     0.061 C 
ATOM     16  C   UNL d   1       6.915  -3.057  -4.943  0.00  0.00     0.046 C 
ATOM     17  C   UNL d   1       6.307  -1.863  -7.078  0.00  0.00     0.046 C 
ATOM     18  C   UNL d   1       7.481  -0.613  -5.272  0.00  0.00     0.046 C 
ENDBRANCH  14  15
ENDBRANCH  11  14
ENDBRANCH   9  10
ENDBRANCH   8   9
ENDBRANCH   7   8
ENDBRANCH   2   7
BRANCH   3  19
ATOM     19  C   UNL d   1      -1.089  -2.459   0.088  0.00  0.00    -0.009 C 
ATOM     20  C   UNL d   1      -2.641  -2.443  -0.051  0.00  0.00     0.021 C 
ATOM     21  C   UNL d   1      -0.541  -3.335  -1.051  0.00  0.00     0.021 C 
ATOM     22  C   UNL d   1      -0.799  -3.124   1.448  0.00  0.00     0.021 C 
ENDBRANCH   3  19
BRANCH   1  23
ATOM     23  C   UNL d   1      -0.790   2.684  -0.011  0.00  0.00     0.295 C 
ATOM     24  O   UNL d   1       0.008   3.611   0.068  0.00  0.00    -0.259 OA
BRANCH  23  25
ATOM     25  O   UNL d   1      -2.147   2.836   0.021  0.00  0.00    -0.318 OA
BRANCH  25  26
ATOM     26  C   UNL d   1      -2.601   4.063   0.603  0.00  0.00     0.174 C 
ATOM     27  C   UNL d   1      -2.667   3.861   2.107  0.00  0.00     0.034 C 
ENDBRANCH  25  26
ENDBRANCH  23  25
ENDBRANCH   1  23
TORSDOF 10
