REMARK  7 active torsions:
REMARK  status: ('A' for Active; 'I' for Inactive)
REMARK    1  A    between atoms: C_8  and  N_1 
REMARK    2  A    between atoms: S_11  and  C_2 
REMARK    3  A    between atoms: O_17  and  C_3 
REMARK    4  A    between atoms: C_16  and  S_11 
REMARK    5  A    between atoms: C_12  and  C_16 
REMARK       I    between atoms: N_13  and  C_12 
REMARK    6  A    between atoms: C_20  and  N_13 
REMARK    7  A    between atoms: C_21  and  C_14 
ROOT
ATOM      1  C   UNL d   1       3.938  -5.232  -0.483  0.00  0.00     0.185 C 
ENDROOT
BRANCH   1   2
ATOM      2  C   UNL d   1       3.816  -3.716  -0.405  0.00  0.00     0.231 C 
ATOM      3  N   UNL d   1       5.010  -3.055  -0.145  0.00  0.00    -0.327 N 
ATOM      4  H   UNL d   1       5.878  -3.530  -0.361  0.00  0.00     0.169 HD
ATOM      5  O   UNL d   1       2.749  -3.131  -0.577  0.00  0.00    -0.272 OA
BRANCH   3   6
ATOM      6  C   UNL d   1       5.087  -1.689   0.211  0.00  0.00     0.034 A 
ATOM      7  C   UNL d   1       3.991  -0.990   0.725  0.00  0.00     0.030 A 
ATOM      8  C   UNL d   1       4.101   0.348   1.097  0.00  0.00     0.010 A 
ATOM      9  C   UNL d   1       5.319   1.022   0.985  0.00  0.00    -0.055 A 
ATOM     10  C   UNL d   1       6.419   0.325   0.463  0.00  0.00     0.010 A 
ATOM     11  C   UNL d   1       6.307  -1.023   0.088  0.00  0.00     0.030 A 
BRANCH   9  12
ATOM     12  C   UNL d   1       5.456   2.454   1.471  0.00  0.00     0.010 C 
ATOM     13  C   UNL d   1       4.516   3.408   0.728  0.00  0.00     0.015 C 
ATOM     14  C   UNL d   1       5.210   2.529   2.983  0.00  0.00     0.015 C 
ENDBRANCH   9  12
ENDBRANCH   3   6
ENDBRANCH   1   2
BRANCH   1  15
ATOM     15  S   UNL d   1       2.292  -6.015  -0.295  0.00  0.00    -0.083 SA
BRANCH  15  16
ATOM     16  C   UNL d   1       1.560  -5.505  -1.780  0.00  0.00     0.165 A 
ATOM     17  N   UNL d   1       0.367  -4.833  -1.946  0.00  0.00    -0.286 N 
ATOM     18  C   UNL d   1       0.174  -4.808  -3.312  0.00  0.00     0.240 A 
ATOM     19  N   UNL d   1       1.228  -5.295  -3.927  0.00  0.00    -0.263 N 
ATOM     20  N   UNL d   1       2.099  -5.741  -2.959  0.00  0.00    -0.277 N 
ATOM     21  HN  UNL d   1       1.374  -5.335  -4.936  1.00  0.00     0.190 HD
ATOM     22  HN  UNL d   1       3.006  -6.178  -3.125  1.00  0.00     0.189 HD
BRANCH  17  23
ATOM     23  C   UNL d   1      -0.567  -4.224  -1.011  0.00  0.00     0.096 A 
ATOM     24  C   UNL d   1      -0.209  -3.575   0.311  0.00  0.00     0.028 A 
ATOM     25  C   UNL d   1      -0.964  -4.858   0.307  0.00  0.00     0.028 A 
ENDBRANCH  17  23
BRANCH  18  26
ATOM     26  O   UNL d   1      -0.908  -4.396  -3.956  0.00  0.00    -0.331 OA
ATOM     27  H   UNL d   1      -1.668  -4.459  -3.355  0.00  0.00     0.221 HD
ENDBRANCH  18  26
ENDBRANCH  15  16
ENDBRANCH   1  15
TORSDOF 7
