REMARK  1 active torsions:
REMARK  status: ('A' for Active; 'I' for Inactive)
REMARK    1  A    between atoms: C_13  and  C_8 
ROOT
ATOM      1  N   UNL d   1       0.282   0.634   0.015  0.00  0.00    -0.047 N 
ATOM      2  C   UNL d   1       0.285  -0.747   0.010  0.00  0.00     0.708 A 
ATOM      3  C   UNL d   1      -0.869   1.427   0.013  0.00  0.00     0.284 A 
ATOM      4  C   UNL d   1      -2.140   0.653   0.009  0.00  0.00     0.107 A 
ATOM      5  N   UNL d   1      -0.901  -1.391   0.006  0.00  0.00    -0.189 N 
ATOM      6  N   UNL d   1       1.515  -1.192   0.010  0.00  0.00    -0.184 N 
ATOM      7  HN  UNL d   1       1.845  -2.157   0.008  1.00  0.00     0.185 HD
ATOM      8  C   UNL d   1      -2.090  -0.691   0.007  0.00  0.00     0.065 A 
ATOM      9  N   UNL d   1       1.554   1.105   0.016  0.00  0.00    -0.272 N 
ATOM     10  HN  UNL d   1       1.888   2.069   0.019  1.00  0.00     0.189 HD
ATOM     11  C   UNL d   1       2.251  -0.035   0.011  0.00  0.00     0.216 A 
ATOM     12  O   UNL d   1      -0.823   2.650   0.014  0.00  0.00    -0.266 OA
ATOM     13  H   UNL d   1      -0.942  -2.407  -0.006  0.00  0.00     0.184 HD
ENDROOT
BRANCH   8  14
ATOM     14  C   UNL d   1      -3.356  -1.437   0.010  0.00  0.00    -0.009 A 
ATOM     15  C   UNL d   1      -3.974  -1.791  -1.197  0.00  0.00     0.014 A 
ATOM     16  C   UNL d   1      -5.236  -2.388  -1.192  0.00  0.00     0.001 A 
ATOM     17  C   UNL d   1      -5.888  -2.633   0.016  0.00  0.00     0.000 A 
ATOM     18  C   UNL d   1      -5.271  -2.303   1.222  0.00  0.00     0.001 A 
ATOM     19  C   UNL d   1      -4.006  -1.712   1.220  0.00  0.00     0.014 A 
ENDBRANCH   8  14
TORSDOF 1
