REMARK  1 active torsions:
REMARK  status: ('A' for Active; 'I' for Inactive)
REMARK    1  A    between atoms: C_12  and  C_6 
ROOT
ATOM      1  C   UNL d   1       1.730   1.526   0.242  0.00  0.00     0.026 C 
ATOM      2  N   UNL d   1       0.945   1.501  -0.791  0.00  0.00    -0.357 N 
ATOM      3  HN  UNL d   1       1.148   2.086  -1.602  1.00  0.00     0.166 HD
ATOM      4  C   UNL d   1       1.631   0.498   1.351  0.00  0.00     0.055 C 
ATOM      5  S   UNL d   1       1.137  -1.845  -0.084  0.00  0.00    -0.117 SA
ATOM      6  C   UNL d   1       2.357  -0.690   0.660  0.00  0.00     0.095 C 
ATOM      7  C   UNL d   1       2.948   2.382   0.275  0.00  0.00    -0.007 A 
ATOM      8  C   UNL d   1      -0.196   0.659  -0.790  0.00  0.00     0.049 A 
ATOM      9  C   UNL d   1      -0.243  -0.739  -0.526  0.00  0.00     0.028 A 
ATOM     10  C   UNL d   1       2.035   1.010   2.728  0.00  0.00     0.017 C 
ATOM     11  C   UNL d   1       3.574   2.627   1.503  0.00  0.00    -0.046 A 
ATOM     12  C   UNL d   1       2.963   2.206   2.800  0.00  0.00     0.040 C 
ATOM     13  C   UNL d   1       3.534   2.829  -0.914  0.00  0.00     0.014 A 
ATOM     14  C   UNL d   1      -1.403   1.345  -1.000  0.00  0.00     0.031 A 
ATOM     15  C   UNL d   1      -1.501  -1.372  -0.458  0.00  0.00     0.021 A 
ATOM     16  C   UNL d   1       4.773   3.357   1.530  0.00  0.00     0.008 A 
ATOM     17  C   UNL d   1       4.741   3.531  -0.874  0.00  0.00     0.001 A 
ATOM     18  C   UNL d   1      -2.637   0.707  -0.898  0.00  0.00     0.002 A 
ATOM     19  C   UNL d   1      -2.686  -0.652  -0.620  0.00  0.00     0.002 A 
ATOM     20  C   UNL d   1       5.357   3.796   0.346  0.00  0.00     0.001 A 
ENDROOT
BRANCH   6  21
ATOM     21  C   UNL d   1       3.474  -1.347   1.442  0.00  0.00    -0.043 A 
ATOM     22  C   UNL d   1       4.805  -1.101   1.048  0.00  0.00     0.008 A 
ATOM     23  C   UNL d   1       5.879  -1.557   1.812  0.00  0.00     0.001 A 
ATOM     24  C   UNL d   1       5.639  -2.261   2.987  0.00  0.00     0.000 A 
ATOM     25  C   UNL d   1       4.327  -2.541   3.374  0.00  0.00     0.001 A 
ATOM     26  C   UNL d   1       3.250  -2.104   2.599  0.00  0.00     0.008 A 
ENDBRANCH   6  21
TORSDOF 1
