REMARK  6 active torsions:
REMARK  status: ('A' for Active; 'I' for Inactive)
REMARK    1  A    between atoms: C_9  and  N_1 
REMARK    2  A    between atoms: C_4  and  C_11 
REMARK    3  A    between atoms: C_20  and  C_5 
REMARK    4  A    between atoms: C_8  and  O_14 
REMARK    5  A    between atoms: C_12  and  C_8 
REMARK    6  A    between atoms: O_14  and  C_20 
ROOT
ATOM      1  N   UNL d   1      -3.015   4.518  -2.529  0.00  0.00    -0.351 N 
ATOM      2  HN  UNL d   1      -3.456   3.722  -2.989  1.00  0.00     0.166 HD
ATOM      3  C   UNL d   1      -2.266   4.447  -1.362  0.00  0.00     0.049 A 
ATOM      4  C   UNL d   1      -3.072   5.766  -2.956  0.00  0.00     0.075 A 
ATOM      5  S   UNL d   1      -2.244   6.914  -1.971  0.00  0.00    -0.084 SA
ATOM      6  C   UNL d   1      -1.751   5.652  -0.928  0.00  0.00     0.082 A 
ENDROOT
BRANCH   3   7
ATOM      7  C   UNL d   1      -2.045   3.178  -0.677  0.00  0.00    -0.009 A 
ATOM      8  C   UNL d   1      -2.006   1.987  -1.416  0.00  0.00     0.016 A 
ATOM      9  C   UNL d   1      -1.794   0.756  -0.784  0.00  0.00     0.037 A 
ATOM     10  C   UNL d   1      -1.632   0.717   0.609  0.00  0.00     0.102 A 
ATOM     11  C   UNL d   1      -1.673   1.894   1.363  0.00  0.00     0.037 A 
ATOM     12  C   UNL d   1      -1.879   3.119   0.718  0.00  0.00     0.016 A 
BRANCH  10  13
ATOM     13  N   UNL d   1      -1.424  -0.573   1.286  0.00  0.00    -0.116 N 
ATOM     14  O   UNL d   1      -1.299  -0.558   2.517  0.00  0.00    -0.532 OA
ATOM     15  O   UNL d   1      -1.388  -1.589   0.581  0.00  0.00    -0.532 OA
ENDBRANCH  10  13
ENDBRANCH   3   7
BRANCH   4  16
ATOM     16  C   UNL d   1      -3.827   6.260  -4.154  0.00  0.00     0.243 C 
BRANCH  16  17
ATOM     17  O   UNL d   1      -3.925   5.232  -5.158  0.00  0.00    -0.314 OA
BRANCH  17  18
ATOM     18  C   UNL d   1      -2.856   5.108  -5.990  0.00  0.00     0.266 C 
ATOM     19  O   UNL d   1      -1.804   5.721  -5.853  0.00  0.00    -0.264 OA
BRANCH  18  20
ATOM     20  C   UNL d   1      -3.154   4.184  -7.185  0.00  0.00     0.037 C 
ATOM     21  C   UNL d   1      -4.554   3.555  -7.115  0.00  0.00     0.025 C 
ATOM     22  C   UNL d   1      -3.042   5.030  -8.464  0.00  0.00     0.025 C 
ATOM     23  C   UNL d   1      -2.116   3.054  -7.251  0.00  0.00     0.025 C 
ENDBRANCH  18  20
ENDBRANCH  17  18
ENDBRANCH  16  17
ENDBRANCH   4  16
TORSDOF 6
