REMARK  7 active torsions:
REMARK  status: ('A' for Active; 'I' for Inactive)
REMARK    1  A    between atoms: C_12  and  C_2 
REMARK    2  A    between atoms: C_11  and  C_3 
REMARK    3  A    between atoms: S_7  and  C_11 
REMARK    4  A    between atoms: C_15  and  S_7 
REMARK    5  A    between atoms: O_22  and  C_12 
REMARK    6  A    between atoms: C_21  and  C_15 
REMARK    7  A    between atoms: C_29  and  O_22 
ROOT
ATOM      1  C   UNL d   1      -0.579   0.650   0.090  0.00  0.00     0.062 A 
ATOM      2  C   UNL d   1      -2.010   0.785   0.082  0.00  0.00     0.086 A 
ATOM      3  C   UNL d   1      -2.513  -0.512   0.090  0.00  0.00     0.085 A 
ATOM      4  C   UNL d   1      -0.324  -0.716   0.063  0.00  0.00     0.132 A 
ATOM      5  O   UNL d   1      -1.490  -1.413   0.051  0.00  0.00    -0.309 OA
ATOM      6  C   UNL d   1       0.541   1.511   0.073  0.00  0.00     0.172 A 
ATOM      7  C   UNL d   1       0.957  -1.268   0.035  0.00  0.00     0.192 A 
ATOM      8  C   UNL d   1       1.831   0.981   0.047  0.00  0.00     0.197 A 
ATOM      9  C   UNL d   1       2.037  -0.390   0.030  0.00  0.00     0.199 A 
ATOM     10  F   UNL d   1       0.398   2.841   0.057  0.00  0.00    -0.202 F 
ATOM     11  F   UNL d   1       1.149  -2.593  -0.010  0.00  0.00    -0.200 F 
ATOM     12  F   UNL d   1       2.885   1.811   0.021  0.00  0.00    -0.199 F 
ATOM     13  F   UNL d   1       3.285  -0.874  -0.015  0.00  0.00    -0.199 F 
ENDROOT
BRANCH   3  14
ATOM     14  C   UNL d   1      -3.874  -1.109   0.122  0.00  0.00     0.206 C 
BRANCH  14  15
ATOM     15  S   UNL d   1      -4.345  -1.351   1.835  0.00  0.00     0.154 S 
ATOM     16  O   UNL d   1      -3.368  -2.226   2.461  0.00  0.00    -0.227 OA
ATOM     17  O   UNL d   1      -4.638  -0.043   2.395  0.00  0.00    -0.227 OA
BRANCH  15  18
ATOM     18  C   UNL d   1      -5.878  -2.268   1.680  0.00  0.00     0.179 C 
BRANCH  18  19
ATOM     19  C   UNL d   1      -6.452  -2.536   3.049  0.00  0.00    -0.044 A 
ATOM     20  C   UNL d   1      -7.340  -1.622   3.639  0.00  0.00     0.010 A 
ATOM     21  C   UNL d   1      -7.867  -1.863   4.911  0.00  0.00     0.024 A 
ATOM     22  C   UNL d   1      -7.509  -3.016   5.604  0.00  0.00     0.034 A 
ATOM     23  C   UNL d   1      -6.628  -3.932   5.036  0.00  0.00     0.024 A 
ATOM     24 CL   UNL d   1      -8.156  -3.307   7.172  0.00  0.00    -0.084 Cl
ATOM     25  C   UNL d   1      -6.101  -3.692   3.763  0.00  0.00     0.010 A 
ENDBRANCH  18  19
ENDBRANCH  15  18
ENDBRANCH  14  15
ENDBRANCH   3  14
BRANCH   2  26
ATOM     26  C   UNL d   1      -2.808   1.997   0.019  0.00  0.00     0.296 C 
ATOM     27  O   UNL d   1      -3.936   2.021  -0.456  0.00  0.00    -0.259 OA
BRANCH  26  28
ATOM     28  O   UNL d   1      -2.114   3.080   0.452  0.00  0.00    -0.318 OA
BRANCH  28  29
ATOM     29  C   UNL d   1      -2.582   4.371   0.043  0.00  0.00     0.174 C 
ATOM     30  C   UNL d   1      -1.827   4.767  -1.215  0.00  0.00     0.034 C 
ENDBRANCH  28  29
ENDBRANCH  26  28
ENDBRANCH   2  26
TORSDOF 7
