REMARK  4 active torsions:
REMARK  status: ('A' for Active; 'I' for Inactive)
REMARK    1  A    between atoms: N_12  and  C_4 
REMARK    2  A    between atoms: C_13  and  C_6 
REMARK    3  A    between atoms: C_14  and  N_12 
REMARK    4  A    between atoms: C_15  and  N_12 
ROOT
ATOM      1  C   UNL d   1       0.007   0.863  -0.009  0.00  0.00     0.043 A 
ATOM      2  C   UNL d   1      -0.079  -0.519   0.055  0.00  0.00     0.089 A 
ATOM      3  C   UNL d   1      -1.313   1.435   0.006  0.00  0.00     0.038 A 
ATOM      4  C   UNL d   1       1.308   1.413  -0.121  0.00  0.00     0.117 A 
ATOM      5  S   UNL d   1      -1.684  -1.090   0.123  0.00  0.00    -0.071 SA
ATOM      6  C   UNL d   1      -2.323   0.495   0.070  0.00  0.00     0.018 A 
ATOM      7  N   UNL d   1       2.350   0.541  -0.149  0.00  0.00    -0.338 N 
ATOM      8  HN  UNL d   1       3.305   0.888  -0.241  1.00  0.00     0.168 HD
ATOM      9  N   UNL d   1       0.941  -1.391   0.049  0.00  0.00    -0.346 N 
ATOM     10  HN  UNL d   1       0.829  -2.403   0.116  1.00  0.00     0.167 HD
ATOM     11  C   UNL d   1       2.119  -0.777  -0.055  0.00  0.00     0.182 A 
ENDROOT
BRANCH   6  12
ATOM     12  C   UNL d   1      -3.769   0.719   0.117  0.00  0.00    -0.019 A 
ATOM     13  C   UNL d   1      -4.631   0.124  -0.815  0.00  0.00     0.013 A 
ATOM     14  C   UNL d   1      -6.006   0.366  -0.765  0.00  0.00     0.001 A 
ATOM     15  C   UNL d   1      -6.532   1.207   0.212  0.00  0.00     0.000 A 
ATOM     16  C   UNL d   1      -5.683   1.811   1.141  0.00  0.00     0.001 A 
ATOM     17  C   UNL d   1      -4.310   1.573   1.091  0.00  0.00     0.013 A 
ENDBRANCH   6  12
BRANCH   4  18
ATOM     18  N   UNL d   1       1.553   2.776  -0.314  0.00  0.00    -0.367 N 
BRANCH  18  19
ATOM     19  C   UNL d   1       1.050   3.705   0.698  0.00  0.00     0.120 C 
ATOM     20  C   UNL d   1       0.306   4.844   0.007  0.00  0.00     0.026 C 
ENDBRANCH  18  19
BRANCH  18  21
ATOM     21  C   UNL d   1       2.843   3.114  -0.927  0.00  0.00     0.120 C 
ATOM     22  C   UNL d   1       2.775   2.884  -2.431  0.00  0.00     0.026 C 
ENDBRANCH  18  21
ENDBRANCH   4  18
TORSDOF 4
