REMARK  6 active torsions:
REMARK  status: ('A' for Active; 'I' for Inactive)
REMARK    1  A    between atoms: N_2  and  S_1 
REMARK    2  A    between atoms: C_4  and  S_1 
REMARK    3  A    between atoms: C_10  and  N_2 
REMARK    4  A    between atoms: C_11  and  N_2 
REMARK    5  A    between atoms: C_3  and  C_5 
REMARK    6  A    between atoms: C_17  and  C_11 
ROOT
ATOM      1  N   UNL d   1       0.516   1.337  -1.060  0.00  0.00    -0.268 N 
ENDROOT
BRANCH   1   2
ATOM      2  S   UNL d   1       0.806  -0.096  -0.182  0.00  0.00     0.265 S 
ATOM      3  O   UNL d   1       0.712  -1.248  -1.049  0.00  0.00    -0.200 OA
ATOM      4  O   UNL d   1       0.057  -0.019   1.057  0.00  0.00    -0.200 OA
BRANCH   2   5
ATOM      5  C   UNL d   1       2.539   0.097   0.205  0.00  0.00     0.080 A 
ATOM      6  C   UNL d   1       3.478  -0.077  -0.822  0.00  0.00     0.041 A 
ATOM      7  C   UNL d   1       4.843   0.111  -0.564  0.00  0.00     0.049 A 
ATOM      8  C   UNL d   1       5.241   0.499   0.727  0.00  0.00     0.016 A 
ATOM      9  C   UNL d   1       4.302   0.641   1.753  0.00  0.00     0.002 A 
ATOM     10  C   UNL d   1       2.948   0.422   1.499  0.00  0.00     0.025 A 
BRANCH   7  11
ATOM     11  C   UNL d   1       5.881  -0.098  -1.641  0.00  0.00     0.417 C 
ATOM     12  F   UNL d   1       5.376  -0.628  -2.789  0.00  0.00    -0.166 F 
ATOM     13  F   UNL d   1       6.495   1.063  -2.002  0.00  0.00    -0.166 F 
ATOM     14  F   UNL d   1       6.876  -0.940  -1.247  0.00  0.00    -0.166 F 
ENDBRANCH   7  11
ENDBRANCH   2   5
ENDBRANCH   1   2
BRANCH   1  15
ATOM     15  C   UNL d   1      -0.465   1.218  -2.111  0.00  0.00     0.045 A 
ATOM     16  C   UNL d   1      -1.835   1.349  -1.865  0.00  0.00     0.033 A 
ATOM     17  C   UNL d   1      -2.748   1.212  -2.913  0.00  0.00     0.044 A 
ATOM     18  C   UNL d   1      -2.291   0.914  -4.195  0.00  0.00     0.116 A 
ATOM     19  C   UNL d   1      -0.935   0.748  -4.444  0.00  0.00     0.044 A 
ATOM     20  F   UNL d   1      -3.169   0.773  -5.194  0.00  0.00    -0.206 F 
ATOM     21  C   UNL d   1      -0.019   0.896  -3.400  0.00  0.00     0.033 A 
ENDBRANCH   1  15
BRANCH   1  22
ATOM     22  C   UNL d   1       0.521   2.594  -0.262  0.00  0.00     0.180 C 
BRANCH  22  23
ATOM     23  C   UNL d   1       1.377   3.652  -0.925  0.00  0.00    -0.036 A 
ATOM     24  C   UNL d   1       0.835   4.425  -1.963  0.00  0.00     0.048 A 
ATOM     25  C   UNL d   1       1.698   5.210  -2.690  0.00  0.00     0.105 A 
ATOM     26  O   UNL d   1       1.382   5.896  -3.822  0.00  0.00    -0.323 OA
ATOM     27  C   UNL d   1       3.038   5.299  -2.386  0.00  0.00     0.105 A 
ATOM     28  C   UNL d   1       2.710   6.127  -4.332  0.00  0.00     0.352 C 
ATOM     29  O   UNL d   1       3.717   6.045  -3.301  0.00  0.00    -0.323 OA
ATOM     30  C   UNL d   1       3.589   4.629  -1.319  0.00  0.00     0.040 A 
ATOM     31  C   UNL d   1       2.749   3.779  -0.595  0.00  0.00     0.012 A 
ENDBRANCH  22  23
ENDBRANCH   1  22
TORSDOF 6
