REMARK  2 active torsions:
REMARK  status: ('A' for Active; 'I' for Inactive)
REMARK    1  A    between atoms: C_5  and  C_15 
REMARK    2  A    between atoms: C_15  and  N_11 
ROOT
ATOM      1  N   UNL d   1      -4.341  -1.369   2.594  0.00  0.00    -0.351 N 
ATOM      2  HN  UNL d   1      -4.981  -0.591   2.435  1.00  0.00     0.166 HD
ATOM      3  C   UNL d   1      -4.694  -2.546   3.078  0.00  0.00     0.091 A 
ATOM      4  C   UNL d   1      -2.975  -1.338   2.330  0.00  0.00     0.045 A 
ATOM      5  S   UNL d   1      -3.407  -3.682   3.209  0.00  0.00    -0.081 SA
ATOM      6  C   UNL d   1      -6.060  -2.813   3.472  0.00  0.00     0.038 A 
ATOM      7  C   UNL d   1      -2.311  -2.517   2.606  0.00  0.00     0.078 A 
ATOM      8  S   UNL d   1      -6.574  -4.273   4.218  0.00  0.00    -0.099 SA
ATOM      9  C   UNL d   1      -7.129  -1.942   3.326  0.00  0.00     0.022 A 
ATOM     10  C   UNL d   1      -8.186  -3.728   4.360  0.00  0.00     0.050 A 
ATOM     11  C   UNL d   1      -8.351  -2.466   3.840  0.00  0.00     0.008 A 
ENDROOT
BRANCH   4  12
ATOM     12  C   UNL d   1      -2.370  -0.064   1.825  0.00  0.00     0.329 C 
BRANCH  12  13
ATOM     13  N   UNL d   1      -2.240  -0.061   0.355  0.00  0.00     0.095 N 
ATOM     14  C   UNL d   1      -3.516  -0.188  -0.376  0.00  0.00     0.287 C 
ATOM     15  C   UNL d   1      -4.492   0.958  -0.182  0.00  0.00     0.170 C 
ATOM     16  S   UNL d   1      -3.752   2.497  -0.668  0.00  0.00     0.147 S 
ATOM     17  C   UNL d   1      -2.153   2.450   0.104  0.00  0.00     0.170 C 
ATOM     18  O   UNL d   1      -4.506   3.569  -0.048  0.00  0.00    -0.228 OA
ATOM     19  O   UNL d   1      -3.556   2.475  -2.106  0.00  0.00    -0.228 OA
ATOM     20  C   UNL d   1      -1.482   1.108  -0.126  0.00  0.00     0.287 C 
ENDBRANCH  12  13
ENDBRANCH   4  12
TORSDOF 2
