REMARK  3 active torsions:
REMARK  status: ('A' for Active; 'I' for Inactive)
REMARK    1  A    between atoms: N_3  and  S_1 
REMARK    2  A    between atoms: C_4  and  S_1 
REMARK    3  A    between atoms: N_2  and  C_7 
ROOT
ATOM      1  C   UNL d   1       0.497  -0.581  -1.692  0.00  0.00     0.079 A 
ATOM      2  C   UNL d   1      -0.091  -1.750  -4.152  0.00  0.00     0.102 A 
ATOM      3  C   UNL d   1       1.355  -0.378  -2.781  0.00  0.00     0.028 A 
ATOM      4  C   UNL d   1      -0.646  -1.379  -1.824  0.00  0.00     0.028 A 
ATOM      5  C   UNL d   1      -0.947  -1.961  -3.060  0.00  0.00     0.037 A 
ATOM      6  C   UNL d   1       1.057  -0.956  -4.018  0.00  0.00     0.037 A 
ENDROOT
BRANCH   1   7
ATOM      7  S   UNL d   1       0.953   0.057  -0.083  0.00  0.00     0.260 S 
ATOM      8  O   UNL d   1       0.278  -0.759   0.903  0.00  0.00    -0.200 OA
ATOM      9  O   UNL d   1       2.396   0.192  -0.079  0.00  0.00    -0.200 OA
BRANCH   7  10
ATOM     10  N   UNL d   1       0.269   1.617  -0.051  0.00  0.00    -0.307 N 
ATOM     11  C   UNL d   1      -1.209   1.688   0.040  0.00  0.00     0.135 C 
ATOM     12  C   UNL d   1      -1.636   3.090   0.469  0.00  0.00     0.021 C 
ATOM     13  C   UNL d   1      -1.079   4.147  -0.478  0.00  0.00     0.003 C 
ATOM     14  C   UNL d   1       0.439   4.026  -0.563  0.00  0.00     0.021 C 
ATOM     15  C   UNL d   1       0.861   2.617  -0.972  0.00  0.00     0.135 C 
ENDBRANCH   7  10
ENDBRANCH   1   7
BRANCH   2  16
ATOM     16  N   UNL d   1      -0.389  -2.386  -5.444  0.00  0.00    -0.116 N 
ATOM     17  O   UNL d   1      -1.380  -3.126  -5.507  0.00  0.00    -0.532 OA
ATOM     18  O   UNL d   1       0.368  -2.140  -6.394  0.00  0.00    -0.532 OA
ENDBRANCH   2  16
TORSDOF 3
