REMARK  1 active torsions:
REMARK  status: ('A' for Active; 'I' for Inactive)
REMARK    1  A    between atoms: S_13  and  C_3 
ROOT
ATOM      1  N   UNL d   1      -0.419   0.342  -0.033  0.00  0.00    -0.288 N 
ATOM      2  C   UNL d   1      -0.301  -1.055  -0.054  0.00  0.00     0.135 A 
ATOM      3  C   UNL d   1       0.715   1.201   0.000  0.00  0.00     0.085 A 
ATOM      4  C   UNL d   1       1.001  -1.630  -0.068  0.00  0.00     0.096 A 
ATOM      5  N   UNL d   1      -1.467  -1.657  -0.032  0.00  0.00    -0.339 N 
ATOM      6  HN  UNL d   1      -1.641  -2.662  -0.027  1.00  0.00     0.167 HD
ATOM      7  C   UNL d   1       1.964   0.649  -0.011  0.00  0.00    -0.016 A 
ATOM      8  C   UNL d   1       2.100  -0.832  -0.065  0.00  0.00    -0.025 A 
ATOM      9  C   UNL d   1      -1.798   0.597  -0.037  0.00  0.00     0.068 A 
ATOM     10  C   UNL d   1      -2.398  -0.663  -0.018  0.00  0.00     0.061 A 
ATOM     11  C   UNL d   1       1.114  -3.063  -0.045  0.00  0.00     0.104 C 
ATOM     12  N   UNL d   1       1.267  -4.215  -0.015  0.00  0.00    -0.191 NA
ATOM     13  C   UNL d   1       3.231   1.488   0.047  0.00  0.00     0.042 C 
ATOM     14  C   UNL d   1       3.492  -1.447  -0.035  0.00  0.00     0.041 C 
ATOM     15  C   UNL d   1      -2.588   1.761  -0.055  0.00  0.00     0.032 A 
ATOM     16  C   UNL d   1      -3.798  -0.784   0.007  0.00  0.00     0.032 A 
ATOM     17  C   UNL d   1       4.522   0.757   0.385  0.00  0.00     0.005 C 
ATOM     18  C   UNL d   1       4.622  -0.512  -0.433  0.00  0.00     0.005 C 
ATOM     19  C   UNL d   1      -3.982   1.624  -0.034  0.00  0.00     0.002 A 
ATOM     20  C   UNL d   1      -4.582   0.371  -0.001  0.00  0.00     0.002 A 
ENDROOT
BRANCH   3  21
ATOM     21  S   UNL d   1       0.484   2.926   0.221  0.00  0.00    -0.116 SA
ATOM     22  C   UNL d   1       0.988   3.644  -1.358  0.00  0.00     0.097 C 
ENDBRANCH   3  21
TORSDOF 1
