REMARK  4 active torsions:
REMARK  status: ('A' for Active; 'I' for Inactive)
REMARK    1  A    between atoms: N_2  and  C_1 
REMARK    2  A    between atoms: N_5  and  C_1 
REMARK    3  A    between atoms: C_7  and  N_2 
REMARK    4  A    between atoms: C_12  and  N_5 
ROOT
ATOM      1  N   UNL d   1      -0.047   1.615  -1.905  0.00  0.00    -0.367 N 
ATOM      2  H   UNL d   1      -0.458   1.504  -2.825  0.00  0.00     0.161 HD
ENDROOT
BRANCH   1   3
ATOM      3  C   UNL d   1       1.299   1.831  -2.015  0.00  0.00     0.151 C 
ATOM      4  S   UNL d   1       2.401   2.127  -0.815  0.00  0.00    -0.047 SA
BRANCH   3   5
ATOM      5  N   UNL d   1       1.698   1.953  -3.350  0.00  0.00    -0.236 NA
ATOM      6  H   UNL d   1       2.072   2.896  -3.433  0.00  0.00     0.136 HD
BRANCH   5   7
ATOM      7  C   UNL d   1       2.727   1.041  -3.761  0.00  0.00     0.016 A 
ATOM      8  C   UNL d   1       4.051   1.486  -3.842  0.00  0.00     0.048 A 
ATOM      9  C   UNL d   1       5.086   0.562  -3.985  0.00  0.00     0.041 A 
ATOM     10 CL   UNL d   1       6.708   1.151  -3.891  0.00  0.00    -0.084 Cl
ATOM     11  C   UNL d   1       4.810  -0.805  -4.136  0.00  0.00    -0.040 A 
ATOM     12  C   UNL d   1       3.467  -1.227  -4.125  0.00  0.00     0.010 A 
ATOM     13  C   UNL d   1       5.901  -1.834  -4.217  0.00  0.00     0.050 C 
ATOM     14  C   UNL d   1       2.432  -0.309  -3.924  0.00  0.00     0.024 A 
ENDBRANCH   5   7
ENDBRANCH   3   5
ENDBRANCH   1   3
BRANCH   1  15
ATOM     15  C   UNL d   1      -0.915   1.142  -0.811  0.00  0.00     0.083 C 
ATOM     16  C   UNL d   1      -1.317   2.048   0.393  0.00  0.00     0.025 C 
ATOM     17  C   UNL d   1      -0.618   3.374   0.739  0.00  0.00     0.002 C 
ATOM     18  C   UNL d   1       0.552   3.421   1.747  0.00  0.00     0.000 C 
ATOM     19  C   UNL d   1       0.643   2.301   2.787  0.00  0.00     0.000 C 
ATOM     20  C   UNL d   1       2.070   1.993   3.281  0.00  0.00     0.000 C 
ATOM     21  C   UNL d   1       2.687   0.707   2.691  0.00  0.00     0.000 C 
ATOM     22  C   UNL d   1       1.926  -0.589   3.010  0.00  0.00     0.000 C 
ATOM     23  C   UNL d   1       1.982  -1.643   1.893  0.00  0.00     0.000 C 
ATOM     24  C   UNL d   1       1.269  -1.294   0.571  0.00  0.00     0.000 C 
ATOM     25  C   UNL d   1      -0.212  -0.961   0.713  0.00  0.00     0.002 C 
ATOM     26  C   UNL d   1      -0.859  -0.398  -0.562  0.00  0.00     0.025 C 
ENDBRANCH   1  15
TORSDOF 4
