REMARK  3 active torsions:
REMARK  status: ('A' for Active; 'I' for Inactive)
REMARK    1  A    between atoms: C_7  and  C_1 
REMARK    2  A    between atoms: C_5  and  C_2 
REMARK       I    between atoms: N_12  and  C_5 
REMARK       I    between atoms: C_11  and  N_6 
REMARK    3  A    between atoms: C_18  and  N_12 
ROOT
ATOM      1  C   UNL d   1       0.261  -2.563   0.597  0.00  0.00     0.261 C 
ATOM      2  N   UNL d   1       0.041  -3.866   0.192  0.00  0.00    -0.323 N 
ATOM      3  O   UNL d   1      -0.608  -1.716   0.753  0.00  0.00    -0.267 OA
ATOM      4  H   UNL d   1       0.818  -4.364  -0.225  0.00  0.00     0.169 HD
ENDROOT
BRANCH   1   5
ATOM      5  C   UNL d   1       1.657  -2.200   0.709  0.00  0.00     0.093 A 
ATOM      6  C   UNL d   1       2.644  -2.478   1.710  0.00  0.00     0.086 A 
ATOM      7  N   UNL d   1       3.776  -1.807   1.420  0.00  0.00    -0.259 N 
ATOM      8  O   UNL d   1       3.553  -1.119   0.257  0.00  0.00    -0.241 OA
ATOM      9  HN  UNL d   1       4.637  -1.811   1.965  1.00  0.00     0.195 HD
ATOM     10  C   UNL d   1       2.284  -1.334  -0.160  0.00  0.00     0.090 A 
ATOM     11  C   UNL d   1       1.881  -0.605  -1.377  0.00  0.00     0.080 C 
BRANCH   6  12
ATOM     12  C   UNL d   1       2.609  -3.267   2.949  0.00  0.00     0.037 A 
ATOM     13  C   UNL d   1       3.652  -4.181   3.243  0.00  0.00     0.048 A 
ATOM     14 CL   UNL d   1       4.869  -4.632   2.088  0.00  0.00    -0.083 Cl
ATOM     15  C   UNL d   1       3.752  -4.801   4.497  0.00  0.00     0.025 A 
ATOM     16  C   UNL d   1       2.795  -4.566   5.476  0.00  0.00     0.003 A 
ATOM     17  C   UNL d   1       1.733  -3.714   5.196  0.00  0.00     0.025 A 
ATOM     18  C   UNL d   1       1.646  -3.057   3.956  0.00  0.00     0.048 A 
ATOM     19 CL   UNL d   1       0.339  -1.935   3.809  0.00  0.00    -0.083 Cl
ENDBRANCH   6  12
ENDBRANCH   1   5
BRANCH   2  20
ATOM     20  C   UNL d   1      -1.224  -4.501   0.152  0.00  0.00     0.037 A 
ATOM     21  C   UNL d   1      -1.368  -5.651  -0.639  0.00  0.00     0.059 A 
ATOM     22  C   UNL d   1      -2.581  -6.331  -0.624  0.00  0.00     0.045 A 
ATOM     23  N   UNL d   1      -2.981  -7.469  -1.355  0.00  0.00    -0.317 N 
ATOM     24  C   UNL d   1      -3.624  -5.907   0.199  0.00  0.00    -0.029 A 
ATOM     25  C   UNL d   1      -2.249  -8.089  -2.351  0.00  0.00     0.220 C 
ATOM     26  C   UNL d   1      -4.357  -7.818  -0.954  0.00  0.00     0.137 A 
ATOM     27  O   UNL d   1      -1.115  -7.759  -2.700  0.00  0.00    -0.273 OA
ATOM     28  C   UNL d   1      -2.913  -9.272  -3.020  0.00  0.00     0.117 C 
ATOM     29  C   UNL d   1      -4.783  -6.848   0.151  0.00  0.00     0.061 A 
ATOM     30  C   UNL d   1      -3.513  -4.761   0.963  0.00  0.00     0.012 A 
ATOM     31  C   UNL d   1      -2.311  -4.051   0.926  0.00  0.00     0.030 A 
ENDBRANCH   2  20
TORSDOF 3
