REMARK  5 active torsions:
REMARK  status: ('A' for Active; 'I' for Inactive)
REMARK    1  A    between atoms: C_4  and  C_1 
REMARK    2  A    between atoms: C_2  and  N_3 
REMARK    3  A    between atoms: C_8  and  C_4 
REMARK    4  A    between atoms: O_18  and  C_4 
REMARK    5  A    between atoms: N_5  and  C_8 
ROOT
ATOM      1  N   UNL d   1      -1.399  -2.398  -0.089  0.00  0.00    -0.375 N 
ATOM      2  N   UNL d   1      -1.559   0.286  -1.315  0.00  0.00     0.094 N 
ATOM      3  C   UNL d   1      -0.208  -1.836  -0.755  0.00  0.00     0.153 C 
ATOM      4  C   UNL d   1      -2.292  -1.380   0.479  0.00  0.00     0.153 C 
ATOM      5  C   UNL d   1      -0.640  -0.772  -1.805  0.00  0.00     0.292 C 
ATOM      6  C   UNL d   1      -2.696  -0.367  -0.619  0.00  0.00     0.292 C 
ENDROOT
BRANCH   1   7
ATOM      7  C   UNL d   1      -1.281  -3.668   0.501  0.00  0.00     0.077 A 
ATOM      8  C   UNL d   1      -1.186  -4.822  -0.324  0.00  0.00     0.077 A 
ATOM      9 CL   UNL d   1      -1.213  -4.742  -2.056  0.00  0.00    -0.080 Cl
ATOM     10  C   UNL d   1      -1.128  -6.092   0.247  0.00  0.00     0.113 A 
ATOM     11  N   UNL d   1      -1.170  -6.332   1.573  0.00  0.00    -0.372 N 
ATOM     12  C   UNL d   1      -1.259  -5.239   2.360  0.00  0.00     0.113 A 
ATOM     13  HN  UNL d   1      -1.136  -7.276   1.957  1.00  0.00     0.164 HD
ATOM     14  C   UNL d   1      -1.304  -3.921   1.891  0.00  0.00     0.077 A 
ATOM     15 CL   UNL d   1      -1.311  -2.696   3.112  0.00  0.00    -0.080 Cl
ENDBRANCH   1   7
BRANCH   2  16
ATOM     16  C   UNL d   1      -0.902   1.293  -0.456  0.00  0.00     0.313 C 
BRANCH  16  17
ATOM     17  C   UNL d   1       0.064   2.252  -1.194  0.00  0.00     0.253 C 
BRANCH  17  18
ATOM     18  C   UNL d   1       0.630   3.295  -0.207  0.00  0.00     0.414 C 
ATOM     19  F   UNL d   1       0.135   3.147   1.043  0.00  0.00    -0.168 F 
ATOM     20  F   UNL d   1       0.329   4.556  -0.599  0.00  0.00    -0.168 F 
ATOM     21  F   UNL d   1       1.976   3.205  -0.120  0.00  0.00    -0.168 F 
ENDBRANCH  17  18
BRANCH  17  22
ATOM     22  O   UNL d   1      -0.591   2.863  -2.326  0.00  0.00    -0.385 OA
ATOM     23  H   UNL d   1      -1.274   3.468  -1.987  0.00  0.00     0.210 HD
ENDBRANCH  17  22
ENDBRANCH  16  17
ENDBRANCH   2  16
TORSDOF 5
