REMARK  6 active torsions:
REMARK  status: ('A' for Active; 'I' for Inactive)
REMARK    1  A    between atoms: C_8  and  C_3 
REMARK    2  A    between atoms: C_12  and  N_4 
REMARK    3  A    between atoms: C_13  and  C_5 
REMARK    4  A    between atoms: C_9  and  C_6 
REMARK    5  A    between atoms: O_15  and  C_9 
REMARK    6  A    between atoms: C_20  and  O_15 
ROOT
ATOM      1  C   UNL d   1      -1.621   2.210  -0.987  0.00  0.00     0.120 C 
ATOM      2  C   UNL d   1      -0.949   2.700   0.073  0.00  0.00     0.044 C 
ATOM      3  C   UNL d   1      -1.384   2.639  -2.320  0.00  0.00     0.105 C 
ATOM      4  N   UNL d   1      -1.193   2.995  -3.410  0.00  0.00    -0.191 NA
ENDROOT
BRANCH   1   5
ATOM      5  C   UNL d   1      -2.575   1.105  -0.720  0.00  0.00     0.303 C 
ATOM      6  O   UNL d   1      -2.788   0.637   0.389  0.00  0.00    -0.258 OA
BRANCH   5   7
ATOM      7  O   UNL d   1      -3.078   0.629  -1.886  0.00  0.00    -0.317 OA
BRANCH   7   8
ATOM      8  C   UNL d   1      -3.640  -0.691  -1.834  0.00  0.00     0.174 C 
ATOM      9  C   UNL d   1      -2.525  -1.685  -2.102  0.00  0.00     0.034 C 
ENDBRANCH   7   8
ENDBRANCH   5   7
ENDBRANCH   1   5
BRANCH   2  10
ATOM     10  C   UNL d   1       0.111   3.648   0.014  0.00  0.00     0.012 A 
ATOM     11  C   UNL d   1       1.516   3.434  -0.057  0.00  0.00     0.070 A 
ATOM     12  N   UNL d   1       2.155   4.611  -0.155  0.00  0.00    -0.293 N 
ATOM     13  N   UNL d   1       1.197   5.566  -0.041  0.00  0.00    -0.266 N 
ATOM     14  HN  UNL d   1       3.155   4.758  -0.289  1.00  0.00     0.187 HD
ATOM     15  C   UNL d   1      -0.060   5.008   0.044  0.00  0.00     0.130 A 
BRANCH  11  16
ATOM     16  C   UNL d   1       2.269   2.175  -0.017  0.00  0.00    -0.007 A 
ATOM     17  C   UNL d   1       3.458   2.031  -0.746  0.00  0.00     0.014 A 
ATOM     18  C   UNL d   1       4.211   0.855  -0.659  0.00  0.00     0.001 A 
ATOM     19  C   UNL d   1       3.781  -0.192   0.154  0.00  0.00     0.000 A 
ATOM     20  C   UNL d   1       2.599  -0.066   0.878  0.00  0.00     0.001 A 
ATOM     21  C   UNL d   1       1.850   1.110   0.795  0.00  0.00     0.014 A 
ENDBRANCH  11  16
BRANCH  13  22
ATOM     22  C   UNL d   1       1.539   6.947   0.003  0.00  0.00     0.056 A 
ATOM     23  C   UNL d   1       2.875   7.338  -0.177  0.00  0.00     0.031 A 
ATOM     24  C   UNL d   1       3.225   8.689  -0.128  0.00  0.00     0.002 A 
ATOM     25  C   UNL d   1       2.250   9.656   0.109  0.00  0.00     0.000 A 
ATOM     26  C   UNL d   1       0.923   9.276   0.293  0.00  0.00     0.002 A 
ATOM     27  C   UNL d   1       0.563   7.927   0.238  0.00  0.00     0.031 A 
ENDBRANCH  13  22
ENDBRANCH   2  10
TORSDOF 6
