REMARK  6 active torsions:
REMARK  status: ('A' for Active; 'I' for Inactive)
REMARK    1  A    between atoms: C_8  and  N_1 
REMARK    2  A    between atoms: C_11  and  C_4 
REMARK    3  A    between atoms: N_7  and  C_9 
REMARK    4  A    between atoms: C_19  and  C_11 
REMARK    5  A    between atoms: N_20  and  N_13 
REMARK    6  A    between atoms: C_21  and  N_20 
ROOT
ATOM      1  C   UNL d   1      -2.800  -0.270  -0.152  0.00  0.00     0.125 C 
ENDROOT
BRANCH   1   2
ATOM      2  C   UNL d   1      -1.321  -0.340  -0.097  0.00  0.00     0.119 C 
ATOM      3  N   UNL d   1      -0.467  -1.010  -0.963  0.00  0.00    -0.229 N 
ATOM      4  N   UNL d   1       0.759  -1.041  -0.384  0.00  0.00     0.000 NA
ATOM      5  N   UNL d   1       0.684  -0.270   0.686  0.00  0.00    -0.007 NA
ATOM      6  N   UNL d   1      -0.595   0.156   0.890  0.00  0.00    -0.273 N 
ATOM      7  HN  UNL d   1      -0.927   0.743   1.655  1.00  0.00     0.185 HD
BRANCH   3   8
ATOM      8  C   UNL d   1      -0.660  -1.576  -2.245  0.00  0.00     0.056 A 
ATOM      9  C   UNL d   1       0.178  -2.627  -2.656  0.00  0.00     0.032 A 
ATOM     10  C   UNL d   1       0.043  -3.181  -3.932  0.00  0.00     0.020 A 
ATOM     11  C   UNL d   1      -0.902  -2.659  -4.813  0.00  0.00     0.006 A 
ATOM     12  C   UNL d   1      -1.720  -1.600  -4.423  0.00  0.00     0.020 A 
ATOM     13  I   UNL d   1      -1.070  -3.442  -6.730  0.00  0.00    -0.045 I 
ATOM     14  C   UNL d   1      -1.607  -1.062  -3.135  0.00  0.00     0.032 A 
ENDBRANCH   3   8
ENDBRANCH   1   2
BRANCH   1  15
ATOM     15  C   UNL d   1      -3.408  -1.614   0.148  0.00  0.00     0.087 C 
ATOM     16  N   UNL d   1      -4.246  -2.154  -0.678  0.00  0.00    -0.315 N 
ATOM     17  HN  UNL d   1      -4.467  -1.738  -1.583  1.00  0.00     0.185 HD
BRANCH  16  18
ATOM     18  N   UNL d   1      -4.809  -3.314  -0.254  0.00  0.00    -0.301 N 
ATOM     19  H   UNL d   1      -4.441  -3.836   0.539  0.00  0.00     0.187 HD
BRANCH  18  20
ATOM     20  C   UNL d   1      -5.694  -4.017  -1.094  0.00  0.00     0.048 A 
ATOM     21  C   UNL d   1      -6.079  -3.531  -2.353  0.00  0.00     0.033 A 
ATOM     22  C   UNL d   1      -6.987  -4.230  -3.158  0.00  0.00     0.038 A 
ATOM     23  C   UNL d   1      -7.538  -5.430  -2.692  0.00  0.00     0.103 A 
ATOM     24  C   UNL d   1      -7.197  -5.919  -1.428  0.00  0.00     0.038 A 
ATOM     25  C   UNL d   1      -6.285  -5.208  -0.637  0.00  0.00     0.033 A 
BRANCH  23  26
ATOM     26  N   UNL d   1      -8.480  -6.177  -3.536  0.00  0.00    -0.116 N 
ATOM     27  O   UNL d   1      -8.758  -5.702  -4.651  0.00  0.00    -0.532 OA
ATOM     28  O   UNL d   1      -8.940  -7.235  -3.090  0.00  0.00    -0.532 OA
ENDBRANCH  23  26
ENDBRANCH  18  20
ENDBRANCH  16  18
ENDBRANCH   1  15
TORSDOF 6
