REMARK  6 active torsions:
REMARK  status: ('A' for Active; 'I' for Inactive)
REMARK    1  A    between atoms: C_4  and  C_1 
REMARK    2  A    between atoms: C_2  and  C_3 
REMARK       I    between atoms: N_6  and  C_4 
REMARK    3  A    between atoms: S_17  and  C_5 
REMARK    4  A    between atoms: C_19  and  N_6 
REMARK    5  A    between atoms: C_25  and  S_17 
REMARK    6  A    between atoms: C_18  and  C_19 
ROOT
ATOM      1  C   UNL d   1       0.706   1.386  -0.314  0.00  0.00     0.080 A 
ATOM      2  C   UNL d   1       1.368   0.155  -0.113  0.00  0.00     0.067 A 
ATOM      3  C   UNL d   1      -0.654   1.333  -0.702  0.00  0.00     0.086 A 
ATOM      4  N   UNL d   1      -1.356   0.169  -0.773  0.00  0.00    -0.360 N 
ATOM      5  HN  UNL d   1      -2.334   0.168  -1.064  1.00  0.00     0.166 HD
ATOM      6  C   UNL d   1      -0.738  -0.975  -0.452  0.00  0.00     0.089 A 
ATOM      7  C   UNL d   1       0.603  -1.031  -0.151  0.00  0.00     0.034 A 
ENDROOT
BRANCH   1   8
ATOM      8  C   UNL d   1       1.295   2.712   0.059  0.00  0.00     0.255 C 
ATOM      9  N   UNL d   1       2.594   3.001  -0.303  0.00  0.00    -0.353 N 
ATOM     10  H   UNL d   1       3.159   2.317  -0.789  0.00  0.00     0.163 HD
ATOM     11  O   UNL d   1       0.626   3.497   0.726  0.00  0.00    -0.268 OA
BRANCH   9  12
ATOM     12  C   UNL d   1       3.292   4.186   0.177  0.00  0.00     0.161 C 
BRANCH  12  13
ATOM     13  C   UNL d   1       4.250   3.848   1.302  0.00  0.00    -0.039 A 
ATOM     14  C   UNL d   1       5.528   3.335   1.030  0.00  0.00     0.034 A 
ATOM     15  C   UNL d   1       6.428   3.047   2.074  0.00  0.00     0.056 A 
ATOM     16 CL   UNL d   1       7.985   2.432   1.647  0.00  0.00    -0.083 Cl
ATOM     17  C   UNL d   1       6.048   3.265   3.401  0.00  0.00     0.055 A 
ATOM     18  C   UNL d   1       4.775   3.766   3.680  0.00  0.00     0.026 A 
ATOM     19 CL   UNL d   1       7.099   2.943   4.734  0.00  0.00    -0.083 Cl
ATOM     20  C   UNL d   1       3.880   4.045   2.639  0.00  0.00     0.010 A 
ENDBRANCH  12  13
ENDBRANCH   9  12
ENDBRANCH   1   8
BRANCH   2  21
ATOM     21  C   UNL d   1       2.829  -0.055   0.180  0.00  0.00     0.418 C 
ATOM     22  F   UNL d   1       3.671   0.902  -0.285  0.00  0.00    -0.166 F 
ATOM     23  F   UNL d   1       3.089  -0.205   1.503  0.00  0.00    -0.166 F 
ATOM     24  F   UNL d   1       3.288  -1.199  -0.416  0.00  0.00    -0.166 F 
ENDBRANCH   2  21
BRANCH   3  25
ATOM     25  S   UNL d   1      -1.551   2.753  -1.349  0.00  0.00    -0.112 SA
BRANCH  25  26
ATOM     26  C   UNL d   1      -3.296   2.197  -1.255  0.00  0.00     0.076 C 
ATOM     27  C   UNL d   1      -3.815   2.210   0.173  0.00  0.00     0.016 C 
ENDBRANCH  25  26
ENDBRANCH   3  25
TORSDOF 6
