REMARK  7 active torsions:
REMARK  status: ('A' for Active; 'I' for Inactive)
REMARK    1  A    between atoms: C_2  and  S_1 
REMARK    2  A    between atoms: N_7  and  S_1 
REMARK    3  A    between atoms: O_16  and  C_6 
REMARK    4  A    between atoms: C_13  and  N_7 
REMARK    5  A    between atoms: O_17  and  C_11 
REMARK    6  A    between atoms: C_12  and  C_14 
REMARK    7  A    between atoms: C_14  and  C_13 
ROOT
ATOM      1  S   UNL d   1       0.956  -0.216  -0.408  0.00  0.00     0.244 S 
ATOM      2  O   UNL d   1       0.543   1.130  -0.072  0.00  0.00    -0.206 OA
ATOM      3  O   UNL d   1       0.731  -0.747  -1.733  0.00  0.00    -0.206 OA
ENDROOT
BRANCH   1   4
ATOM      4  C   UNL d   1       0.271  -1.294   0.836  0.00  0.00     0.110 A 
ATOM      5  C   UNL d   1       0.081  -0.728   2.113  0.00  0.00     0.064 A 
ATOM      6  C   UNL d   1      -0.515  -1.468   3.130  0.00  0.00     0.069 A 
ATOM      7  C   UNL d   1      -0.897  -2.782   2.875  0.00  0.00     0.039 A 
ATOM      8  C   UNL d   1      -0.696  -3.353   1.616  0.00  0.00     0.041 A 
ATOM      9  C   UNL d   1      -0.132  -2.608   0.571  0.00  0.00     0.091 A 
BRANCH   6  10
ATOM     10  O   UNL d   1      -0.782  -1.030   4.396  0.00  0.00    -0.356 OA
ATOM     11  C   UNL d   1      -0.443   0.320   4.689  0.00  0.00     0.210 C 
ENDBRANCH   6  10
BRANCH   9  12
ATOM     12  O   UNL d   1       0.083  -3.135  -0.669  0.00  0.00    -0.354 OA
ATOM     13  C   UNL d   1      -0.714  -4.259  -1.036  0.00  0.00     0.210 C 
ENDBRANCH   9  12
ENDBRANCH   1   4
BRANCH   1  14
ATOM     14  N   UNL d   1       2.614  -0.273  -0.093  0.00  0.00    -0.215 NA
ATOM     15  H   UNL d   1       2.832   0.220   0.777  0.00  0.00     0.139 HD
BRANCH  14  16
ATOM     16  C   UNL d   1       3.295  -1.578  -0.215  0.00  0.00     0.110 C 
BRANCH  16  17
ATOM     17  C   UNL d   1       4.798  -1.414   0.052  0.00  0.00     0.072 C 
BRANCH  17  18
ATOM     18  C   UNL d   1       5.106  -0.844   1.419  0.00  0.00     0.010 A 
ATOM     19  N   UNL d   1       4.214  -1.078   2.415  0.00  0.00    -0.369 N 
ATOM     20  C   UNL d   1       4.481  -0.558   3.632  0.00  0.00     0.088 A 
ATOM     21  HN  UNL d   1       3.370  -1.627   2.249  1.00  0.00     0.165 HD
ATOM     22  C   UNL d   1       5.601   0.203   3.912  0.00  0.00     0.017 A 
ATOM     23  C   UNL d   1       6.511   0.430   2.886  0.00  0.00     0.003 A 
ATOM     24  C   UNL d   1       6.269  -0.107   1.624  0.00  0.00     0.025 A 
ENDBRANCH  17  18
ENDBRANCH  16  17
ENDBRANCH  14  16
ENDBRANCH   1  14
TORSDOF 7
