REMARK  2 active torsions:
REMARK  status: ('A' for Active; 'I' for Inactive)
REMARK    1  A    between atoms: N_11  and  C_9 
REMARK    2  A    between atoms: N_12  and  N_11 
ROOT
ATOM      1  C   UNL d   1      -0.456   1.040   0.013  0.00  0.00     0.160 A 
ATOM      2  C   UNL d   1      -0.926  -0.239  -0.006  0.00  0.00     0.164 A 
ATOM      3  N   UNL d   1      -1.461   1.952   0.043  0.00  0.00    -0.172 N 
ATOM      4  HN  UNL d   1      -1.373   2.967   0.083  1.00  0.00     0.186 HD
ATOM      5  N   UNL d   1       0.891   1.316   0.014  0.00  0.00    -0.287 N 
ATOM      6  N   UNL d   1       1.292  -1.039   0.013  0.00  0.00    -0.269 N 
ATOM      7  C   UNL d   1       1.807   0.267   0.011  0.00  0.00     0.332 A 
ATOM      8  C   UNL d   1      -0.066  -1.373   0.001  0.00  0.00     0.282 A 
ATOM      9  C   UNL d   1      -2.577   1.248   0.008  0.00  0.00     0.701 A 
ATOM     10  N   UNL d   1      -2.291  -0.110  -0.019  0.00  0.00    -0.177 N 
ATOM     11  O   UNL d   1       3.027   0.484   0.009  0.00  0.00    -0.246 OA
ATOM     12  O   UNL d   1      -0.471  -2.533  -0.002  0.00  0.00    -0.265 OA
ATOM     13  C   UNL d   1       1.393   2.676   0.014  0.00  0.00     0.163 C 
ATOM     14  C   UNL d   1       2.223  -2.150   0.023  0.00  0.00     0.164 C 
ATOM     15  C   UNL d   1      -3.259  -1.179   0.026  0.00  0.00     0.176 C 
ENDROOT
BRANCH   9  16
ATOM     16  N   UNL d   1      -3.859   1.698   0.007  0.00  0.00    -0.132 N 
ATOM     17  H   UNL d   1      -4.573   1.106  -0.397  0.00  0.00     0.205 HD
BRANCH  16  18
ATOM     18  N   UNL d   1      -4.199   2.912   0.521  0.00  0.00    -0.295 N 
ATOM     19  C   UNL d   1      -5.429   3.327   0.477  0.00  0.00    -0.004 C 
ATOM     20  C   UNL d   1      -6.605   2.617  -0.151  0.00  0.00     0.064 C 
ATOM     21  C   UNL d   1      -5.741   4.661   1.124  0.00  0.00     0.064 C 
ATOM     22  HN  UNL d   1      -3.481   3.501   0.944  1.00  0.00     0.186 HD
ENDBRANCH  16  18
ENDBRANCH   9  16
TORSDOF 2
