REMARK  4 active torsions:
REMARK  status: ('A' for Active; 'I' for Inactive)
REMARK    1  A    between atoms: N_4  and  C_1 
REMARK    2  A    between atoms: N_5  and  C_1 
REMARK    3  A    between atoms: C_9  and  N_4 
REMARK    4  A    between atoms: C_14  and  N_5 
ROOT
ATOM      1  N   UNL d   1       0.343   0.056   1.254  0.00  0.00    -0.333 N 
ATOM      2  H   UNL d   1      -0.349  -0.676   1.384  0.00  0.00     0.168 HD
ENDROOT
BRANCH   1   3
ATOM      3  C   UNL d   1       0.964  -0.040   0.031  0.00  0.00     0.172 C 
ATOM      4  S   UNL d   1       2.607  -0.122  -0.271  0.00  0.00    -0.041 SA
BRANCH   3   5
ATOM      5  N   UNL d   1       0.135  -0.188  -1.048  0.00  0.00    -0.362 N 
ATOM      6  H   UNL d   1       0.631  -0.438  -1.895  0.00  0.00     0.162 HD
BRANCH   5   7
ATOM      7  C   UNL d   1      -1.200   0.366  -1.216  0.00  0.00     0.083 C 
ATOM      8  C   UNL d   1      -2.287  -0.626  -0.829  0.00  0.00     0.025 C 
ATOM      9  C   UNL d   1      -3.531  -0.170  -1.587  0.00  0.00     0.002 C 
ATOM     10  C   UNL d   1      -3.042   0.724  -2.726  0.00  0.00     0.002 C 
ATOM     11  C   UNL d   1      -1.523   0.633  -2.690  0.00  0.00     0.025 C 
ENDBRANCH   5   7
ENDBRANCH   3   5
ENDBRANCH   1   3
BRANCH   1  12
ATOM     12  C   UNL d   1       0.880   0.595   2.447  0.00  0.00     0.035 A 
ATOM     13  C   UNL d   1       0.528   0.011   3.674  0.00  0.00     0.043 A 
ATOM     14  C   UNL d   1       1.063   0.536   4.877  0.00  0.00    -0.006 A 
ATOM     15  C   UNL d   1       0.964   0.170   6.252  0.00  0.00     0.030 A 
ATOM     16  C   UNL d   1       1.894   1.644   4.813  0.00  0.00     0.042 A 
ATOM     17  C   UNL d   1       1.734   1.050   6.976  0.00  0.00     0.089 A 
ATOM     18  N   UNL d   1       2.291   1.944   6.101  0.00  0.00    -0.365 N 
ATOM     19  H   UNL d   1       2.909   2.702   6.349  0.00  0.00     0.165 HD
ATOM     20  C   UNL d   1       2.213   2.281   3.606  0.00  0.00     0.033 A 
ATOM     21  C   UNL d   1       1.685   1.734   2.428  0.00  0.00     0.032 A 
ENDBRANCH   1  12
TORSDOF 4
