REMARK  5 active torsions:
REMARK  status: ('A' for Active; 'I' for Inactive)
REMARK    1  A    between atoms: C_11  and  C_3 
REMARK    2  A    between atoms: C_5  and  O_9 
REMARK    3  A    between atoms: C_7  and  C_5 
REMARK    4  A    between atoms: C_14  and  C_8 
REMARK    5  A    between atoms: O_9  and  C_14 
ROOT
ATOM      1  N   UNL d   1       1.093   0.435  -0.007  0.00  0.00    -0.270 N 
ATOM      2  HN  UNL d   1       2.066   0.736  -0.064  1.00  0.00     0.194 HD
ATOM      3  C   UNL d   1       0.055   1.204  -0.061  0.00  0.00     0.045 A 
ATOM      4  O   UNL d   1       0.645  -0.894   0.144  0.00  0.00    -0.272 OA
ATOM      5  C   UNL d   1      -1.256   0.509   0.025  0.00  0.00     0.096 A 
ATOM      6  C   UNL d   1      -0.788  -0.927   0.061  0.00  0.00     0.182 A 
ENDROOT
BRANCH   6   7
ATOM      7  C   UNL d   1      -1.340  -1.745   1.230  0.00  0.00     0.213 C 
BRANCH   7   8
ATOM      8  O   UNL d   1      -0.997  -1.151   2.499  0.00  0.00    -0.315 OA
BRANCH   8   9
ATOM      9  C   UNL d   1      -2.014  -0.656   3.242  0.00  0.00     0.293 C 
ATOM     10  O   UNL d   1      -3.191  -0.634   2.919  0.00  0.00    -0.259 OA
BRANCH   9  11
ATOM     11  C   UNL d   1      -1.511  -0.118   4.535  0.00  0.00     0.039 A 
ATOM     12  C   UNL d   1      -2.454   0.314   5.480  0.00  0.00     0.019 A 
ATOM     13  C   UNL d   1      -2.039   0.816   6.717  0.00  0.00     0.025 A 
ATOM     14  C   UNL d   1      -0.679   0.889   7.011  0.00  0.00     0.034 A 
ATOM     15  C   UNL d   1       0.269   0.473   6.077  0.00  0.00     0.025 A 
ATOM     16 CL   UNL d   1      -0.169   1.496   8.538  0.00  0.00    -0.084 Cl
ATOM     17  C   UNL d   1      -0.144  -0.030   4.838  0.00  0.00     0.019 A 
ENDBRANCH   9  11
ENDBRANCH   8   9
ENDBRANCH   7   8
ENDBRANCH   6   7
BRANCH   3  18
ATOM     18  C   UNL d   1       0.140   2.678  -0.194  0.00  0.00    -0.012 A 
ATOM     19  C   UNL d   1       1.397   3.287  -0.276  0.00  0.00     0.013 A 
ATOM     20  C   UNL d   1       1.497   4.674  -0.404  0.00  0.00     0.001 A 
ATOM     21  C   UNL d   1       0.344   5.455  -0.452  0.00  0.00     0.000 A 
ATOM     22  C   UNL d   1      -0.910   4.855  -0.367  0.00  0.00     0.001 A 
ATOM     23  C   UNL d   1      -1.015   3.468  -0.237  0.00  0.00     0.013 A 
ENDBRANCH   3  18
TORSDOF 5
