REMARK  7 active torsions:
REMARK  status: ('A' for Active; 'I' for Inactive)
REMARK    1  A    between atoms: N_4  and  C_1 
REMARK    2  A    between atoms: N_8  and  C_1 
REMARK       I    between atoms: C_2  and  N_3 
REMARK    3  A    between atoms: C_6  and  C_2 
REMARK    4  A    between atoms: N_3  and  N_4 
REMARK    5  A    between atoms: C_17  and  N_8 
REMARK    6  A    between atoms: C_11  and  C_17 
REMARK    7  A    between atoms: O_16  and  C_13 
ROOT
ATOM      1  C   UNL d   1       0.134  -1.770  -3.208  0.00  0.00     0.270 C 
ATOM      2  N   UNL d   1       0.934  -1.076  -2.320  0.00  0.00    -0.264 N 
ATOM      3  O   UNL d   1      -0.990  -2.174  -2.917  0.00  0.00    -0.266 OA
ATOM      4  H   UNL d   1       1.934  -0.959  -2.468  0.00  0.00     0.190 HD
ENDROOT
BRANCH   2   5
ATOM      5  N   UNL d   1       0.504  -1.043  -0.988  0.00  0.00    -0.274 N 
ATOM      6  H   UNL d   1      -0.498  -1.175  -0.855  0.00  0.00     0.189 HD
BRANCH   5   7
ATOM      7  C   UNL d   1       1.278  -0.543   0.022  0.00  0.00     0.186 C 
ATOM      8  S   UNL d   1       2.787   0.149  -0.173  0.00  0.00    -0.040 SA
BRANCH   7   9
ATOM      9  N   UNL d   1       0.777  -0.682   1.286  0.00  0.00    -0.363 N 
ATOM     10  H   UNL d   1       1.393  -0.321   2.005  0.00  0.00     0.162 HD
BRANCH   9  11
ATOM     11  C   UNL d   1      -0.162  -1.702   1.708  0.00  0.00     0.148 C 
BRANCH  11  12
ATOM     12  C   UNL d   1      -1.555  -1.159   1.646  0.00  0.00    -0.018 C 
ATOM     13  C   UNL d   1      -2.541  -1.706   0.921  0.00  0.00     0.008 C 
ENDBRANCH  11  12
ENDBRANCH   9  11
ENDBRANCH   7   9
ENDBRANCH   5   7
ENDBRANCH   2   5
BRANCH   1  14
ATOM     14  C   UNL d   1       0.720  -2.059  -4.542  0.00  0.00     0.033 A 
ATOM     15  C   UNL d   1       0.290  -3.212  -5.213  0.00  0.00     0.020 A 
ATOM     16  C   UNL d   1       0.808  -3.526  -6.469  0.00  0.00     0.037 A 
ATOM     17  C   UNL d   1       1.744  -2.682  -7.057  0.00  0.00     0.065 A 
ATOM     18  C   UNL d   1       2.175  -1.528  -6.408  0.00  0.00     0.037 A 
ATOM     19  C   UNL d   1       1.661  -1.213  -5.145  0.00  0.00     0.020 A 
BRANCH  17  20
ATOM     20  O   UNL d   1       2.213  -3.023  -8.290  0.00  0.00    -0.361 OA
ATOM     21  H   UNL d   1       2.813  -2.326  -8.603  0.00  0.00     0.217 HD
ENDBRANCH  17  20
ENDBRANCH   1  14
TORSDOF 7
