REMARK  3 active torsions:
REMARK  status: ('A' for Active; 'I' for Inactive)
REMARK    1  A    between atoms: C_2  and  S_1 
REMARK    2  A    between atoms: N_3  and  S_1 
REMARK    3  A    between atoms: C_12  and  N_3 
ROOT
ATOM      1  C   UNL d   1       0.305  -4.872   0.858  0.00  0.00    -0.006 A 
ATOM      2  N   UNL d   1       1.690  -6.543   0.351  0.00  0.00    -0.365 N 
ATOM      3  C   UNL d   1       1.613  -5.173   0.477  0.00  0.00     0.042 A 
ATOM      4  C   UNL d   1       0.472  -7.112   0.620  0.00  0.00     0.089 A 
ATOM      5  C   UNL d   1       0.927  -2.533   0.918  0.00  0.00     0.023 A 
ATOM      6  C   UNL d   1      -0.043  -3.527   1.087  0.00  0.00     0.038 A 
ATOM      7  C   UNL d   1      -0.406  -6.100   0.931  0.00  0.00     0.030 A 
ATOM      8  C   UNL d   1       2.590  -4.189   0.289  0.00  0.00     0.032 A 
ATOM      9  C   UNL d   1       2.216  -2.858   0.503  0.00  0.00     0.027 A 
ATOM     10  H   UNL d   1       2.526  -7.051   0.099  0.00  0.00     0.165 HD
ENDROOT
BRANCH   5  11
ATOM     11  N   UNL d   1       0.586  -1.168   1.155  0.00  0.00    -0.181 NA
ATOM     12  H   UNL d   1      -0.064  -1.011   1.924  0.00  0.00     0.146 HD
BRANCH  11  13
ATOM     13  S   UNL d   1       0.133  -0.230  -0.182  0.00  0.00     0.252 S 
ATOM     14  O   UNL d   1      -0.217   1.078   0.330  0.00  0.00    -0.205 OA
ATOM     15  O   UNL d   1       1.103  -0.391  -1.245  0.00  0.00    -0.205 OA
BRANCH  13  16
ATOM     16  C   UNL d   1      -1.391  -0.874  -0.848  0.00  0.00     0.115 A 
ATOM     17  S   UNL d   1      -2.713  -0.983   0.237  0.00  0.00    -0.089 SA
ATOM     18  C   UNL d   1      -3.733  -1.642  -0.970  0.00  0.00     0.051 A 
ATOM     19  C   UNL d   1      -3.092  -1.749  -2.184  0.00  0.00     0.009 A 
ATOM     20  C   UNL d   1      -1.740  -1.304  -2.114  0.00  0.00     0.033 A 
ENDBRANCH  13  16
ENDBRANCH  11  13
ENDBRANCH   5  11
TORSDOF 3
