REMARK  1 active torsions:
REMARK  status: ('A' for Active; 'I' for Inactive)
REMARK    1  A    between atoms: C_2  and  C_1 
ROOT
ATOM      1  C   UNL d   1       0.011  -1.800   0.006  0.00  0.00    -0.022 A 
ATOM      2  N   UNL d   1       0.008   1.001   0.002  0.00  0.00    -0.364 N 
ATOM      3  HN  UNL d   1       0.006   2.021   0.005  1.00  0.00     0.165 HD
ATOM      4  C   UNL d   1       1.209  -1.082  -0.006  0.00  0.00     0.037 A 
ATOM      5  C   UNL d   1      -1.190  -1.087   0.005  0.00  0.00     0.037 A 
ATOM      6  C   UNL d   1      -1.151   0.304   0.000  0.00  0.00     0.006 A 
ATOM      7  C   UNL d   1       1.168   0.308   0.000  0.00  0.00     0.006 A 
ATOM      8  C   UNL d   1      -2.425   1.094   0.007  0.00  0.00     0.068 C 
ATOM      9  C   UNL d   1       2.432   1.113   0.016  0.00  0.00     0.068 C 
ENDROOT
BRANCH   1  10
ATOM     10  C   UNL d   1       0.005  -3.266   0.021  0.00  0.00    -0.019 A 
ATOM     11  C   UNL d   1       0.999  -4.002   0.642  0.00  0.00     0.061 A 
ATOM     12  S   UNL d   1       0.756  -5.692   0.520  0.00  0.00    -0.113 SA
ATOM     13  C   UNL d   1      -0.695  -5.473  -0.351  0.00  0.00     0.050 A 
ATOM     14  C   UNL d   1      -0.982  -4.139  -0.549  0.00  0.00     0.020 A 
ENDBRANCH   1  10
TORSDOF 1
