REMARK  9 active torsions:
REMARK  status: ('A' for Active; 'I' for Inactive)
REMARK       I    between atoms: N_3  and  C_1 
REMARK    1  A    between atoms: C_5  and  C_1 
REMARK       I    between atoms: C_2  and  N_4 
REMARK    2  A    between atoms: C_14  and  C_2 
REMARK    3  A    between atoms: N_4  and  N_3 
REMARK    4  A    between atoms: C_9  and  C_18 
REMARK    5  A    between atoms: S_12  and  C_14 
REMARK    6  A    between atoms: C_18  and  S_12 
REMARK    7  A    between atoms: C_24  and  C_17 
REMARK    8  A    between atoms: C_25  and  C_24 
REMARK    9  A    between atoms: C_26  and  C_25 
ROOT
ATOM      1  C   UNL d   1       0.188  -1.427  -3.368  0.00  0.00     0.245 C 
ATOM      2  N   UNL d   1       0.935  -0.996  -2.298  0.00  0.00    -0.267 N 
ATOM      3  O   UNL d   1      -1.077  -1.391  -3.329  0.00  0.00    -0.271 OA
ATOM      4  H   UNL d   1       1.958  -1.001  -2.276  0.00  0.00     0.190 HD
ENDROOT
BRANCH   2   5
ATOM      5  N   UNL d   1       0.268  -0.604  -1.138  0.00  0.00    -0.263 N 
ATOM      6  C   UNL d   1       0.990  -0.141  -0.042  0.00  0.00     0.270 C 
ATOM      7  O   UNL d   1       2.208  -0.044  -0.047  0.00  0.00    -0.266 OA
ATOM      8  H   UNL d   1      -0.742  -0.566  -1.206  0.00  0.00     0.190 HD
BRANCH   6   9
ATOM      9  C   UNL d   1       0.183   0.251   1.139  0.00  0.00     0.033 A 
ATOM     10  C   UNL d   1      -1.082  -0.288   1.404  0.00  0.00     0.017 A 
ATOM     11  C   UNL d   1      -1.814   0.125   2.509  0.00  0.00     0.008 A 
ATOM     12  C   UNL d   1      -1.294   1.095   3.386  0.00  0.00    -0.058 A 
ATOM     13  C   UNL d   1      -0.014   1.599   3.146  0.00  0.00     0.008 A 
ATOM     14  C   UNL d   1       0.727   1.191   2.039  0.00  0.00     0.017 A 
BRANCH  12  15
ATOM     15  C   UNL d   1      -2.111   1.554   4.574  0.00  0.00     0.038 C 
BRANCH  15  16
ATOM     16  C   UNL d   1      -2.411   3.058   4.592  0.00  0.00     0.004 C 
BRANCH  16  17
ATOM     17  C   UNL d   1      -3.235   3.526   3.390  0.00  0.00    -0.004 C 
ATOM     18  C   UNL d   1      -3.507   5.021   3.456  0.00  0.00     0.005 C 
ENDBRANCH  16  17
ENDBRANCH  15  16
ENDBRANCH  12  15
ENDBRANCH   6   9
ENDBRANCH   2   5
BRANCH   1  19
ATOM     19  C   UNL d   1       0.957  -1.981  -4.538  0.00  0.00     0.178 C 
BRANCH  19  20
ATOM     20  S   UNL d   1       0.573  -1.140  -6.106  0.00  0.00    -0.155 SA
BRANCH  20  21
ATOM     21  C   UNL d   1       1.145   0.553  -5.756  0.00  0.00     0.113 C 
BRANCH  21  22
ATOM     22  C   UNL d   1       2.571   0.741  -5.262  0.00  0.00    -0.038 C 
ATOM     23  C   UNL d   1       3.706   0.016  -5.728  0.00  0.00    -0.019 C 
ATOM     24  C   UNL d   1       4.881   0.055  -4.950  0.00  0.00    -0.025 C 
ATOM     25  C   UNL d   1       3.798  -0.714  -6.927  0.00  0.00     0.013 C 
ATOM     26  C   UNL d   1       5.883  -0.890  -5.116  0.00  0.00     0.012 C 
ATOM     27  C   UNL d   1       5.030   1.002  -3.925  0.00  0.00     0.012 C 
ATOM     28  C   UNL d   1       5.691  -1.855  -6.077  0.00  0.00     0.001 C 
ATOM     29  C   UNL d   1       4.864  -1.579  -7.147  0.00  0.00     0.001 C 
ATOM     30  C   UNL d   1       3.979   1.831  -3.588  0.00  0.00     0.001 C 
ATOM     31  C   UNL d   1       2.752   1.681  -4.240  0.00  0.00     0.009 C 
ENDBRANCH  21  22
ENDBRANCH  20  21
ENDBRANCH  19  20
ENDBRANCH   1  19
TORSDOF 9
