REMARK  3 active torsions:
REMARK  status: ('A' for Active; 'I' for Inactive)
REMARK    1  A    between atoms: C_6  and  C_1 
REMARK    2  A    between atoms: C_8  and  C_6 
REMARK    3  A    between atoms: C_13  and  C_9 
ROOT
ATOM      1  C   UNL d   1       0.041  -1.694  -0.083  0.00  0.00     0.065 A 
ATOM      2  C   UNL d   1       1.107  -0.871  -0.008  0.00  0.00     0.102 A 
ATOM      3  C   UNL d   1       0.679   0.513   0.039  0.00  0.00     0.010 A 
ATOM      4  O   UNL d   1       2.447  -1.175   0.037  0.00  0.00    -0.308 OA
ATOM      5  C   UNL d   1      -1.165  -0.831  -0.084  0.00  0.00    -0.008 A 
ATOM      6  C   UNL d   1      -0.772   0.526   0.005  0.00  0.00    -0.012 A 
ATOM      7  C   UNL d   1       3.368  -0.116   0.059  0.00  0.00     0.086 A 
ATOM      8  C   UNL d   1       1.566   1.514   0.077  0.00  0.00     0.018 A 
ATOM      9  C   UNL d   1       2.973   1.175   0.066  0.00  0.00     0.039 A 
ATOM     10  C   UNL d   1      -2.515  -1.137  -0.184  0.00  0.00     0.013 A 
ATOM     11  C   UNL d   1      -1.682   1.569   0.026  0.00  0.00     0.013 A 
ATOM     12  C   UNL d   1      -3.447  -0.089  -0.158  0.00  0.00     0.001 A 
ATOM     13  C   UNL d   1      -3.035   1.249  -0.051  0.00  0.00     0.001 A 
ENDROOT
BRANCH   1  14
ATOM     14  C   UNL d   1       0.178  -3.168  -0.126  0.00  0.00     0.269 C 
ATOM     15  O   UNL d   1       1.143  -3.669  -0.713  0.00  0.00    -0.282 OA
BRANCH  14  16
ATOM     16  C   UNL d   1      -0.894  -4.020   0.534  0.00  0.00     0.456 C 
ATOM     17  F   UNL d   1      -1.627  -3.361   1.475  0.00  0.00    -0.163 F 
ATOM     18  F   UNL d   1      -1.791  -4.498  -0.375  0.00  0.00    -0.163 F 
ATOM     19  F   UNL d   1      -0.380  -5.112   1.168  0.00  0.00    -0.163 F 
ENDBRANCH  14  16
ENDBRANCH   1  14
BRANCH   7  20
ATOM     20  C   UNL d   1       4.790  -0.517   0.022  0.00  0.00    -0.002 A 
ATOM     21  C   UNL d   1       5.787   0.243   0.657  0.00  0.00     0.014 A 
ATOM     22  C   UNL d   1       7.132  -0.130   0.585  0.00  0.00     0.001 A 
ATOM     23  C   UNL d   1       7.501  -1.278  -0.109  0.00  0.00     0.000 A 
ATOM     24  C   UNL d   1       6.524  -2.059  -0.723  0.00  0.00     0.001 A 
ATOM     25  C   UNL d   1       5.178  -1.685  -0.652  0.00  0.00     0.014 A 
ENDBRANCH   7  20
TORSDOF 3
