REMARK  8 active torsions:
REMARK  status: ('A' for Active; 'I' for Inactive)
REMARK    1  A    between atoms: C_19  and  N_1 
REMARK    2  A    between atoms: C_2  and  N_13 
REMARK    3  A    between atoms: C_18  and  N_3 
REMARK    4  A    between atoms: C_17  and  C_4 
REMARK    5  A    between atoms: S_15  and  C_7 
REMARK       I    between atoms: N_13  and  C_16 
REMARK    6  A    between atoms: C_21  and  S_15 
REMARK    7  A    between atoms: C_16  and  C_21 
REMARK    8  A    between atoms: C_22  and  C_19 
ROOT
ATOM      1  S   UNL d   1      -2.740  -0.774   1.305  0.00  0.00    -0.083 SA
ENDROOT
BRANCH   1   2
ATOM      2  C   UNL d   1      -1.090  -0.868   0.779  0.00  0.00     0.163 C 
ATOM      3  N   UNL d   1      -0.045  -0.205   1.371  0.00  0.00    -0.307 N 
ATOM      4  C   UNL d   1       1.043  -0.414   0.542  0.00  0.00     0.135 C 
ATOM      5  N   UNL d   1       0.683  -1.288  -0.384  0.00  0.00    -0.283 N 
ATOM      6  N   UNL d   1      -0.655  -1.550  -0.251  0.00  0.00    -0.278 N 
ATOM      7  HN  UNL d   1       1.302  -1.700  -1.083  1.00  0.00     0.188 HD
ATOM      8  HN  UNL d   1      -1.212  -2.163  -0.847  1.00  0.00     0.189 HD
BRANCH   3   9
ATOM      9  C   UNL d   1      -0.048   0.412   2.689  0.00  0.00     0.159 C 
BRANCH   9  10
ATOM     10  C   UNL d   1      -0.445   1.859   2.666  0.00  0.00    -0.017 C 
ATOM     11  C   UNL d   1       0.038   2.771   3.521  0.00  0.00     0.008 C 
ENDBRANCH   9  10
ENDBRANCH   3   9
BRANCH   4  12
ATOM     12  C   UNL d   1       2.364   0.220   0.604  0.00  0.00     0.010 A 
ATOM     13  C   UNL d   1       3.508  -0.527   0.282  0.00  0.00     0.017 A 
ATOM     14  C   UNL d   1       4.768   0.080   0.213  0.00  0.00     0.025 A 
ATOM     15  C   UNL d   1       4.893   1.443   0.464  0.00  0.00     0.034 A 
ATOM     16  C   UNL d   1       3.772   2.201   0.787  0.00  0.00     0.025 A 
ATOM     17 CL   UNL d   1       6.430   2.205   0.340  0.00  0.00    -0.084 Cl
ATOM     18  C   UNL d   1       2.513   1.592   0.846  0.00  0.00     0.017 A 
ENDBRANCH   4  12
ENDBRANCH   1   2
BRANCH   1  19
ATOM     19  C   UNL d   1      -3.494  -1.989   0.180  0.00  0.00     0.185 C 
BRANCH  19  20
ATOM     20  C   UNL d   1      -5.002  -2.132   0.332  0.00  0.00     0.233 C 
ATOM     21  N   UNL d   1      -5.672  -1.005   0.773  0.00  0.00    -0.311 N 
ATOM     22  H   UNL d   1      -5.136  -0.154   0.919  0.00  0.00     0.170 HD
ATOM     23  O   UNL d   1      -5.557  -3.161  -0.056  0.00  0.00    -0.272 OA
BRANCH  21  24
ATOM     24  C   UNL d   1      -7.060  -0.942   0.821  0.00  0.00     0.132 C 
ATOM     25  N   UNL d   1      -7.798   0.239   0.704  0.00  0.00    -0.240 N 
ATOM     26  N   UNL d   1      -9.109   0.036   1.005  0.00  0.00    -0.297 N 
ATOM     27  C   UNL d   1      -9.241  -1.294   1.048  0.00  0.00     0.026 C 
ATOM     28  HN  UNL d   1      -9.829   0.741   1.162  1.00  0.00     0.187 HD
ATOM     29  C   UNL d   1      -7.992  -1.943   0.980  0.00  0.00     0.076 C 
ATOM     30  C   UNL d   1     -10.581  -1.920   1.148  0.00  0.00     0.070 C 
BRANCH  25  31
ATOM     31  C   UNL d   1      -7.365   1.505   0.211  0.00  0.00     0.058 A 
ATOM     32  C   UNL d   1      -6.257   1.607  -0.644  0.00  0.00     0.031 A 
ATOM     33  C   UNL d   1      -5.858   2.850  -1.134  0.00  0.00     0.002 A 
ATOM     34  C   UNL d   1      -6.569   3.997  -0.793  0.00  0.00     0.000 A 
ATOM     35  C   UNL d   1      -7.695   3.898   0.029  0.00  0.00     0.002 A 
ATOM     36  C   UNL d   1      -8.104   2.657   0.522  0.00  0.00     0.031 A 
ENDBRANCH  25  31
ENDBRANCH  21  24
ENDBRANCH  19  20
ENDBRANCH   1  19
TORSDOF 8
