REMARK  6 active torsions:
REMARK  status: ('A' for Active; 'I' for Inactive)
REMARK    1  A    between atoms: N_3  and  C_1 
REMARK    2  A    between atoms: C_2  and  N_3 
REMARK    3  A    between atoms: N_6  and  C_2 
REMARK    4  A    between atoms: C_9  and  C_4 
REMARK    5  A    between atoms: C_10  and  C_5 
REMARK    6  A    between atoms: C_8  and  N_6 
ROOT
ATOM      1  N   UNL d   1       2.868  -0.348   1.421  0.00  0.00    -0.332 N 
ATOM      2  H   UNL d   1       2.598  -1.206   1.888  0.00  0.00     0.168 HD
ENDROOT
BRANCH   1   3
ATOM      3  C   UNL d   1       4.217  -0.177   1.525  0.00  0.00     0.176 C 
ATOM      4  S   UNL d   1       5.253   0.373   0.327  0.00  0.00    -0.041 SA
BRANCH   3   5
ATOM      5  N   UNL d   1       4.812  -0.608   2.685  0.00  0.00    -0.333 N 
ATOM      6  H   UNL d   1       5.826  -0.566   2.594  0.00  0.00     0.168 HD
BRANCH   5   7
ATOM      7  C   UNL d   1       4.360  -1.114   3.924  0.00  0.00     0.034 A 
ATOM      8  C   UNL d   1       5.342  -1.698   4.746  0.00  0.00     0.036 A 
ATOM      9  C   UNL d   1       5.027  -2.263   5.995  0.00  0.00    -0.060 A 
ATOM     10  C   UNL d   1       6.088  -2.919   6.829  0.00  0.00     0.048 C 
ATOM     11  C   UNL d   1       3.700  -2.241   6.424  0.00  0.00     0.007 A 
ATOM     12  C   UNL d   1       2.719  -1.639   5.633  0.00  0.00     0.003 A 
ATOM     13  C   UNL d   1       3.049  -1.067   4.394  0.00  0.00     0.029 A 
ENDBRANCH   5   7
ENDBRANCH   3   5
ENDBRANCH   1   3
BRANCH   1  14
ATOM     14  C   UNL d   1       1.991  -0.035   0.336  0.00  0.00     0.047 C 
ATOM     15  C   UNL d   1       1.206  -1.135  -0.090  0.00  0.00    -0.027 C 
ATOM     16  C   UNL d   1      -0.190  -1.009  -0.083  0.00  0.00     0.010 C 
ATOM     17  C   UNL d   1      -0.783   0.227   0.151  0.00  0.00     0.001 C 
ATOM     18  C   UNL d   1       0.016   1.361   0.260  0.00  0.00     0.010 C 
ATOM     19  C   UNL d   1       1.418   1.258   0.317  0.00  0.00    -0.027 C 
BRANCH  15  20
ATOM     20  C   UNL d   1       1.905  -2.298  -0.806  0.00  0.00     0.013 C 
ATOM     21  C   UNL d   1       2.633  -3.281   0.105  0.00  0.00     0.015 C 
ATOM     22  C   UNL d   1       0.989  -3.078  -1.766  0.00  0.00     0.015 C 
ENDBRANCH  15  20
BRANCH  19  23
ATOM     23  C   UNL d   1       2.265   2.504   0.086  0.00  0.00     0.013 C 
ATOM     24  C   UNL d   1       2.313   2.797  -1.425  0.00  0.00     0.015 C 
ATOM     25  C   UNL d   1       1.807   3.753   0.840  0.00  0.00     0.015 C 
ENDBRANCH  19  23
ENDBRANCH   1  14
TORSDOF 6
