REMARK  3 active torsions:
REMARK  status: ('A' for Active; 'I' for Inactive)
REMARK       I    between atoms: N_3  and  C_1 
REMARK       I    between atoms: N_5  and  C_1 
REMARK    1  A    between atoms: N_2  and  C_6 
REMARK    2  A    between atoms: C_4  and  N_3 
REMARK    3  A    between atoms: C_14  and  N_5 
ROOT
ATOM      1  C   UNL d   1       1.101  -1.272   1.550  0.00  0.00     0.325 C 
ATOM      2  N   UNL d   1       2.370  -0.749   1.374  0.00  0.00    -0.309 N 
ATOM      3  N   UNL d   1       0.226  -0.792   0.587  0.00  0.00    -0.309 N 
ATOM      4  O   UNL d   1       0.776  -2.039   2.451  0.00  0.00    -0.247 OA
ATOM      5  H   UNL d   1       2.435   0.044   0.755  0.00  0.00     0.170 HD
ATOM      6  H   UNL d   1       0.630  -0.542  -0.302  0.00  0.00     0.170 HD
ENDROOT
BRANCH   3   7
ATOM      7  C   UNL d   1      -1.179  -0.915   0.639  0.00  0.00     0.036 A 
ATOM      8  C   UNL d   1      -1.868  -1.185   1.819  0.00  0.00     0.032 A 
ATOM      9  C   UNL d   1      -3.262  -1.301   1.825  0.00  0.00     0.031 A 
ATOM     10  C   UNL d   1      -4.022  -1.147   0.663  0.00  0.00     0.030 A 
ATOM     11  C   UNL d   1      -3.313  -0.848  -0.512  0.00  0.00     0.031 A 
ATOM     12  C   UNL d   1      -1.915  -0.724  -0.529  0.00  0.00     0.032 A 
BRANCH  10  13
ATOM     13  N   UNL d   1      -5.393  -1.325   0.652  0.00  0.00    -0.381 N 
ATOM     14  C   UNL d   1      -6.072  -2.144   1.657  0.00  0.00     0.123 C 
ATOM     15  C   UNL d   1      -7.079  -3.048   0.944  0.00  0.00     0.020 C 
ATOM     16  C   UNL d   1      -8.032  -2.245   0.061  0.00  0.00     0.003 C 
ATOM     17  C   UNL d   1      -7.271  -1.316  -0.887  0.00  0.00     0.020 C 
ATOM     18  C   UNL d   1      -6.267  -0.450  -0.130  0.00  0.00     0.123 C 
ENDBRANCH  10  13
ENDBRANCH   3   7
BRANCH   2  19
ATOM     19  C   UNL d   1       3.491  -0.995   2.200  0.00  0.00     0.037 A 
ATOM     20  C   UNL d   1       3.550  -2.034   3.133  0.00  0.00     0.036 A 
ATOM     21  C   UNL d   1       4.666  -2.200   3.964  0.00  0.00    -0.059 A 
ATOM     22  C   UNL d   1       4.702  -3.303   4.981  0.00  0.00     0.048 C 
ATOM     23  C   UNL d   1       5.741  -1.313   3.847  0.00  0.00     0.013 A 
ATOM     24  C   UNL d   1       5.710  -0.278   2.905  0.00  0.00    -0.059 A 
ATOM     25  C   UNL d   1       4.588  -0.134   2.076  0.00  0.00     0.036 A 
ATOM     26  C   UNL d   1       6.868   0.671   2.807  0.00  0.00     0.048 C 
ENDBRANCH   2  19
TORSDOF 3
