REMARK  2 active torsions:
REMARK  status: ('A' for Active; 'I' for Inactive)
REMARK    1  A    between atoms: C_8  and  N_1 
REMARK    2  A    between atoms: C_6  and  C_9 
ROOT
ATOM      1  C   UNL d   1      -0.390  -2.542  -0.001  0.00  0.00     0.132 A 
ATOM      2  C   UNL d   1      -0.772  -5.291  -0.027  0.00  0.00     0.063 A 
ATOM      3  N   UNL d   1      -1.179  -3.095  -0.948  0.00  0.00    -0.350 N 
ATOM      4  HN  UNL d   1      -1.637  -2.512  -1.648  1.00  0.00     0.166 HD
ATOM      5  C   UNL d   1      -1.350  -4.438  -0.949  0.00  0.00     0.106 A 
ATOM      6  C   UNL d   1       0.008  -4.710   0.975  0.00  0.00     0.021 A 
ATOM      7  C   UNL d   1       0.202  -3.327   0.988  0.00  0.00     0.051 A 
ENDROOT
BRANCH   1   8
ATOM      8  N   UNL d   1      -0.131  -1.159  -0.049  0.00  0.00    -0.181 N 
ATOM      9  C   UNL d   1      -0.632  -0.253  -0.960  0.00  0.00     0.394 A 
ATOM     10  O   UNL d   1      -0.007   0.932  -0.684  0.00  0.00    -0.245 OA
ATOM     11  O   UNL d   1      -1.449  -0.370  -1.857  0.00  0.00    -0.236 OA
ATOM     12  C   UNL d   1       0.817   0.645   0.339  0.00  0.00     0.140 A 
ATOM     13  N   UNL d   1       0.792  -0.571   0.781  0.00  0.00    -0.271 N 
ATOM     14  C   UNL d   1       1.657   1.757   0.838  0.00  0.00     0.099 C 
ATOM     15  HN  UNL d   1       1.321  -0.986   1.548  1.00  0.00     0.189 HD
ENDBRANCH   1   8
BRANCH   2  16
ATOM     16  C   UNL d   1      -0.962  -6.773  -0.125  0.00  0.00     0.418 C 
ATOM     17  F   UNL d   1      -1.735  -7.158  -1.178  0.00  0.00    -0.166 F 
ATOM     18  F   UNL d   1       0.219  -7.436  -0.271  0.00  0.00    -0.166 F 
ATOM     19  F   UNL d   1      -1.550  -7.300   0.983  0.00  0.00    -0.166 F 
ENDBRANCH   2  16
TORSDOF 2
