REMARK  5 active torsions:
REMARK  status: ('A' for Active; 'I' for Inactive)
REMARK    1  A    between atoms: N_8  and  C_1 
REMARK    2  A    between atoms: C_19  and  N_2 
REMARK    3  A    between atoms: C_7  and  S_18 
REMARK       I    between atoms: C_17  and  N_8 
REMARK    4  A    between atoms: C_23  and  C_17 
REMARK    5  A    between atoms: S_18  and  C_23 
ROOT
ATOM      1  C   UNL d   1       0.810  -0.802  -0.188  0.00  0.00     0.152 C 
ATOM      2  N   UNL d   1       0.746   0.219  -1.141  0.00  0.00    -0.239 N 
ATOM      3  N   UNL d   1      -0.319   1.037  -0.918  0.00  0.00    -0.302 N 
ATOM      4  HN  UNL d   1      -0.531   1.925  -1.374  1.00  0.00     0.186 HD
ATOM      5  C   UNL d   1      -0.369  -0.724   0.525  0.00  0.00     0.107 C 
ATOM      6  C   UNL d   1      -1.022   0.418   0.029  0.00  0.00     0.134 C 
ATOM      7  C   UNL d   1      -0.773  -1.478   1.666  0.00  0.00     0.105 C 
ATOM      8  N   UNL d   1      -1.118  -2.016   2.635  0.00  0.00    -0.191 NA
ENDROOT
BRANCH   1   9
ATOM      9  N   UNL d   1       1.935  -1.592  -0.005  0.00  0.00    -0.310 N 
ATOM     10  C   UNL d   1       1.857  -2.973   0.029  0.00  0.00     0.233 C 
ATOM     11  O   UNL d   1       0.801  -3.598  -0.057  0.00  0.00    -0.272 OA
ATOM     12  H   UNL d   1       2.837  -1.219  -0.300  0.00  0.00     0.170 HD
BRANCH  10  13
ATOM     13  C   UNL d   1       3.206  -3.697   0.071  0.00  0.00     0.184 C 
BRANCH  13  14
ATOM     14  S   UNL d   1       4.619  -2.534   0.213  0.00  0.00    -0.101 SA
BRANCH  14  15
ATOM     15  C   UNL d   1       6.011  -3.653   0.329  0.00  0.00     0.091 A 
ATOM     16  C   UNL d   1       7.318  -3.179   0.507  0.00  0.00     0.084 A 
ATOM     17  C   UNL d   1       8.364  -4.114   0.580  0.00  0.00    -0.037 A 
ATOM     18  C   UNL d   1       7.579  -1.773   0.611  0.00  0.00     0.103 C 
ATOM     19  C   UNL d   1       9.809  -3.736   0.768  0.00  0.00     0.050 C 
ATOM     20  C   UNL d   1       8.050  -5.476   0.480  0.00  0.00     0.033 A 
ATOM     21  C   UNL d   1       6.728  -5.864   0.308  0.00  0.00     0.006 A 
ATOM     22  N   UNL d   1       5.716  -4.972   0.226  0.00  0.00    -0.353 N 
ATOM     23  C   UNL d   1       6.374  -7.317   0.209  0.00  0.00     0.068 C 
ATOM     24  HN  UNL d   1       4.754  -5.283   0.091  1.00  0.00     0.166 HD
ATOM     25  N   UNL d   1       7.811  -0.636   0.698  0.00  0.00    -0.191 NA
ENDBRANCH  14  15
ENDBRANCH  13  14
ENDBRANCH  10  13
ENDBRANCH   1   9
BRANCH   2  26
ATOM     26  C   UNL d   1       1.585   0.440  -2.270  0.00  0.00     0.058 A 
ATOM     27  C   UNL d   1       2.297  -0.611  -2.869  0.00  0.00     0.031 A 
ATOM     28  C   UNL d   1       3.074  -0.372  -4.006  0.00  0.00     0.002 A 
ATOM     29  C   UNL d   1       3.145   0.908  -4.548  0.00  0.00     0.000 A 
ATOM     30  C   UNL d   1       2.434   1.955  -3.962  0.00  0.00     0.002 A 
ATOM     31  C   UNL d   1       1.646   1.721  -2.833  0.00  0.00     0.031 A 
ENDBRANCH   2  26
TORSDOF 5
