REMARK  7 active torsions:
REMARK  status: ('A' for Active; 'I' for Inactive)
REMARK    1  A    between atoms: C_14  and  N_1 
REMARK    2  A    between atoms: S_13  and  C_2 
REMARK    3  A    between atoms: N_7  and  C_9 
REMARK    4  A    between atoms: C_16  and  C_8 
REMARK    5  A    between atoms: C_25  and  C_14 
REMARK    6  A    between atoms: C_20  and  O_24 
REMARK    7  A    between atoms: O_24  and  C_25 
ROOT
ATOM      1  N   UNL d   1       1.432  -1.011  -0.134  0.00  0.00    -0.291 N 
ATOM      2  C   UNL d   1       0.107  -1.333  -0.060  0.00  0.00     0.149 A 
ATOM      3  C   UNL d   1       0.079   0.768  -0.027  0.00  0.00     0.104 A 
ATOM      4  N   UNL d   1      -0.727  -0.343   0.008  0.00  0.00    -0.332 N 
ATOM      5  HN  UNL d   1      -1.744  -0.381   0.072  1.00  0.00     0.168 HD
ATOM      6  C   UNL d   1       1.502   0.354  -0.112  0.00  0.00     0.276 A 
ATOM      7  C   UNL d   1      -0.275   2.056  -0.006  0.00  0.00     0.046 C 
ATOM      8  O   UNL d   1       2.465   1.097  -0.154  0.00  0.00    -0.265 OA
ENDROOT
BRANCH   1   9
ATOM      9  C   UNL d   1       2.584  -1.913  -0.238  0.00  0.00     0.161 C 
BRANCH   9  10
ATOM     10  C   UNL d   1       3.954  -1.229  -0.302  0.00  0.00     0.196 C 
BRANCH  10  11
ATOM     11  O   UNL d   1       4.997  -2.203  -0.411  0.00  0.00    -0.349 OA
BRANCH  11  12
ATOM     12  C   UNL d   1       6.274  -1.697  -0.454  0.00  0.00     0.070 A 
ATOM     13  C   UNL d   1       6.618  -0.342  -0.427  0.00  0.00     0.060 A 
ATOM     14  C   UNL d   1       7.961   0.038  -0.469  0.00  0.00     0.036 A 
ATOM     15 CL   UNL d   1       8.374   1.710  -0.425  0.00  0.00    -0.084 Cl
ATOM     16  C   UNL d   1       8.970  -0.918  -0.543  0.00  0.00     0.024 A 
ATOM     17  C   UNL d   1       8.633  -2.270  -0.574  0.00  0.00     0.004 A 
ATOM     18  C   UNL d   1       7.290  -2.655  -0.530  0.00  0.00     0.037 A 
ENDBRANCH  11  12
ENDBRANCH  10  11
ENDBRANCH   9  10
ENDBRANCH   1   9
BRANCH   2  19
ATOM     19  S   UNL d   1      -0.387  -2.994  -0.068  0.00  0.00    -0.098 SA
ATOM     20  C   UNL d   1      -2.186  -2.822   0.052  0.00  0.00     0.099 C 
ENDBRANCH   2  19
BRANCH   7  21
ATOM     21  C   UNL d   1      -1.662   2.497   0.069  0.00  0.00    -0.034 A 
ATOM     22  C   UNL d   1      -2.251   2.737   1.316  0.00  0.00     0.014 A 
ATOM     23  C   UNL d   1      -3.578   3.163   1.394  0.00  0.00     0.037 A 
ATOM     24  C   UNL d   1      -4.313   3.349   0.216  0.00  0.00     0.102 A 
ATOM     25  C   UNL d   1      -3.732   3.104  -1.036  0.00  0.00     0.037 A 
ATOM     26  C   UNL d   1      -2.405   2.676  -1.104  0.00  0.00     0.014 A 
BRANCH  24  27
ATOM     27  N   UNL d   1      -5.705   3.807   0.293  0.00  0.00    -0.116 N 
ATOM     28  O   UNL d   1      -6.181   4.017   1.417  0.00  0.00    -0.532 OA
ATOM     29  O   UNL d   1      -6.322   3.958  -0.771  0.00  0.00    -0.532 OA
ENDBRANCH  24  27
ENDBRANCH   7  21
TORSDOF 7
