REMARK  1 active torsions:
REMARK  status: ('A' for Active; 'I' for Inactive)
REMARK    1  A    between atoms: C_9  and  C_4 
ROOT
ATOM      1  S   UNL d   1       0.680   1.805   0.875  0.00  0.00    -0.118 SA
ATOM      2  N   UNL d   1       1.014  -1.381   0.001  0.00  0.00    -0.349 N 
ATOM      3  C   UNL d   1       2.278  -0.933  -0.163  0.00  0.00     0.079 C 
ATOM      4  C   UNL d   1       1.768   1.613  -0.573  0.00  0.00     0.091 C 
ATOM      5  C   UNL d   1       2.751   0.506  -0.215  0.00  0.00     0.089 C 
ATOM      6  C   UNL d   1      -0.523   0.552   0.507  0.00  0.00     0.028 A 
ATOM      7  C   UNL d   1      -0.249  -0.780   0.175  0.00  0.00     0.050 A 
ATOM      8  S   UNL d   1       3.448  -2.149  -0.316  0.00  0.00    -0.065 SA
ATOM      9  C   UNL d   1      -1.863   0.982   0.591  0.00  0.00     0.021 A 
ATOM     10  C   UNL d   1      -1.336  -1.658  -0.013  0.00  0.00     0.031 A 
ATOM     11  C   UNL d   1      -2.658  -1.217   0.059  0.00  0.00     0.002 A 
ATOM     12  C   UNL d   1      -2.923   0.111   0.349  0.00  0.00     0.002 A 
ATOM     13  H   UNL d   1       0.985  -2.394  -0.077  0.00  0.00     0.166 HD
ENDROOT
BRANCH   4  14
ATOM     14  C   UNL d   1       1.070   1.577  -1.929  0.00  0.00    -0.044 A 
ATOM     15  C   UNL d   1       0.010   2.466  -2.205  0.00  0.00     0.008 A 
ATOM     16  C   UNL d   1      -0.667   2.439  -3.427  0.00  0.00     0.001 A 
ATOM     17  C   UNL d   1      -0.269   1.556  -4.421  0.00  0.00     0.000 A 
ATOM     18  C   UNL d   1       0.810   0.706  -4.195  0.00  0.00     0.001 A 
ATOM     19  C   UNL d   1       1.476   0.720  -2.964  0.00  0.00     0.008 A 
ENDBRANCH   4  14
TORSDOF 1
