REMARK  8 active torsions:
REMARK  status: ('A' for Active; 'I' for Inactive)
REMARK    1  A    between atoms: C_2  and  S_1 
REMARK    2  A    between atoms: N_9  and  S_1 
REMARK    3  A    between atoms: C_8  and  C_3 
REMARK    4  A    between atoms: S_4  and  C_10 
REMARK    5  A    between atoms: N_15  and  S_4 
REMARK    6  A    between atoms: O_20  and  C_8 
REMARK    7  A    between atoms: C_19  and  N_9 
REMARK    8  A    between atoms: C_21  and  C_19 
ROOT
ATOM      1  N   UNL d   1       0.410   1.487  -0.416  0.00  0.00    -0.210 NA
ATOM      2  H   UNL d   1      -0.609   1.518  -0.471  0.00  0.00     0.140 HD
ENDROOT
BRANCH   1   3
ATOM      3  S   UNL d   1       0.932  -0.007   0.148  0.00  0.00     0.264 S 
ATOM      4  O   UNL d   1       0.554  -0.997  -0.837  0.00  0.00    -0.204 OA
ATOM      5  O   UNL d   1       2.280   0.114   0.654  0.00  0.00    -0.204 OA
BRANCH   3   6
ATOM      6  C   UNL d   1      -0.063  -0.434   1.577  0.00  0.00     0.186 A 
ATOM      7  C   UNL d   1      -0.032  -1.569   2.372  0.00  0.00     0.071 A 
ATOM      8  C   UNL d   1      -1.076  -1.472   3.333  0.00  0.00     0.072 A 
ATOM      9  C   UNL d   1      -1.680  -0.253   3.089  0.00  0.00     0.067 A 
ATOM     10  O   UNL d   1      -1.078   0.379   2.039  0.00  0.00    -0.301 OA
ATOM     11  C   UNL d   1      -2.819   0.458   3.716  0.00  0.00     0.078 C 
BRANCH   8  12
ATOM     12  C   UNL d   1      -1.457  -2.440   4.349  0.00  0.00     0.295 C 
ATOM     13  O   UNL d   1      -2.375  -2.273   5.140  0.00  0.00    -0.259 OA
BRANCH  12  14
ATOM     14  O   UNL d   1      -0.667  -3.552   4.299  0.00  0.00    -0.322 OA
ATOM     15  C   UNL d   1      -0.995  -4.563   5.251  0.00  0.00     0.213 C 
ENDBRANCH  12  14
ENDBRANCH   8  12
ENDBRANCH   3   6
ENDBRANCH   1   3
BRANCH   1  16
ATOM     16  C   UNL d   1       0.992   2.663   0.240  0.00  0.00     0.143 C 
BRANCH  16  17
ATOM     17  C   UNL d   1       0.424   3.934  -0.350  0.00  0.00    -0.044 A 
ATOM     18  C   UNL d   1      -0.167   4.902   0.473  0.00  0.00     0.010 A 
ATOM     19  C   UNL d   1      -0.700   6.068  -0.080  0.00  0.00     0.025 A 
ATOM     20  C   UNL d   1      -0.629   6.272  -1.460  0.00  0.00     0.074 A 
ATOM     21  C   UNL d   1      -0.046   5.319  -2.296  0.00  0.00     0.025 A 
ATOM     22  C   UNL d   1       0.488   4.157  -1.737  0.00  0.00     0.010 A 
BRANCH  20  23
ATOM     23  S   UNL d   1      -1.304   7.749  -2.158  0.00  0.00     0.239 S 
ATOM     24  O   UNL d   1      -1.585   7.534  -3.558  0.00  0.00    -0.206 OA
ATOM     25  O   UNL d   1      -2.275   8.305  -1.245  0.00  0.00    -0.206 OA
BRANCH  23  26
ATOM     26  N   UNL d   1       0.025   8.773  -2.101  0.00  0.00    -0.225 NA
ATOM     27  H   UNL d   1       0.298   9.042  -3.046  0.00  0.00     0.136 HD
ATOM     28  H   UNL d   1      -0.163   9.557  -1.478  0.00  0.00     0.136 HD
ENDBRANCH  23  26
ENDBRANCH  20  23
ENDBRANCH  16  17
ENDBRANCH   1  16
TORSDOF 8
