REMARK  2 active torsions:
REMARK  status: ('A' for Active; 'I' for Inactive)
REMARK    1  A    between atoms: C_7  and  C_2 
REMARK    2  A    between atoms: C_8  and  C_4 
ROOT
ATOM      1  C   UNL d   1      -0.468  -0.384   0.012  0.00  0.00     0.125 A 
ATOM      2  C   UNL d   1       0.271  -1.521  -0.035  0.00  0.00     0.026 A 
ATOM      3  C   UNL d   1       0.237   0.934   0.071  0.00  0.00     0.267 A 
ATOM      4  C   UNL d   1       2.359  -0.236   0.041  0.00  0.00     0.053 A 
ATOM      5  N   UNL d   1       1.607   0.904   0.083  0.00  0.00    -0.321 N 
ATOM      6  C   UNL d   1       1.734  -1.421  -0.012  0.00  0.00     0.047 A 
ATOM      7  C   UNL d   1      -1.894  -0.336   0.037  0.00  0.00     0.106 C 
ATOM      8  N   UNL d   1      -3.054  -0.301   0.076  0.00  0.00    -0.191 NA
ATOM      9  O   UNL d   1      -0.363   2.003   0.105  0.00  0.00    -0.266 OA
ATOM     10  H   UNL d   1       2.072   1.805   0.121  0.00  0.00     0.169 HD
ENDROOT
BRANCH   2  11
ATOM     11  C   UNL d   1      -0.380  -2.804  -0.122  0.00  0.00     0.086 A 
ATOM     12  O   UNL d   1      -1.569  -3.013  -0.787  0.00  0.00    -0.322 OA
ATOM     13  C   UNL d   1      -1.900  -4.322  -0.696  0.00  0.00     0.142 A 
ATOM     14  C   UNL d   1      -0.940  -5.007   0.001  0.00  0.00     0.027 A 
ATOM     15  C   UNL d   1       0.031  -4.044   0.366  0.00  0.00     0.040 A 
ENDBRANCH   2  11
BRANCH   4  16
ATOM     16  C   UNL d   1       3.786  -0.140   0.035  0.00  0.00     0.031 A 
ATOM     17  S   UNL d   1       4.591   1.161   0.842  0.00  0.00    -0.100 SA
ATOM     18  C   UNL d   1       6.138   0.593   0.401  0.00  0.00     0.050 A 
ATOM     19  C   UNL d   1       6.070  -0.555  -0.350  0.00  0.00     0.008 A 
ATOM     20  C   UNL d   1       4.724  -0.974  -0.559  0.00  0.00     0.021 A 
ENDBRANCH   4  16
TORSDOF 2
