REMARK  3 active torsions:
REMARK  status: ('A' for Active; 'I' for Inactive)
REMARK    1  A    between atoms: C_10  and  C_5 
REMARK    2  A    between atoms: N_11  and  C_8 
REMARK    3  A    between atoms: O_12  and  C_9 
ROOT
ATOM      1  N   UNL d   1      -0.292   1.111   0.075  0.00  0.00    -0.322 N 
ATOM      2  HN  UNL d   1      -0.814   1.987   0.086  1.00  0.00     0.169 HD
ATOM      3  N   UNL d   1       1.752  -0.038  -0.053  0.00  0.00    -0.311 N 
ATOM      4  HN  UNL d   1       2.770  -0.040  -0.124  1.00  0.00     0.170 HD
ATOM      5  C   UNL d   1       1.043   1.085   0.030  0.00  0.00     0.094 A 
ATOM      6  N   UNL d   1      -0.290  -1.235   0.032  0.00  0.00    -0.298 N 
ATOM      7  HN  UNL d   1      -0.794  -2.122   0.029  1.00  0.00     0.172 HD
ATOM      8  C   UNL d   1      -0.898  -0.065   0.103  0.00  0.00     0.159 A 
ATOM      9  C   UNL d   1       1.035  -1.157  -0.037  0.00  0.00     0.226 A 
ENDROOT
BRANCH   5  10
ATOM     10  C   UNL d   1       1.790   2.418   0.035  0.00  0.00     0.008 C 
ATOM     11  C   UNL d   1       1.985   2.896  -1.413  0.00  0.00     0.022 C 
ATOM     12  C   UNL d   1       0.988   3.476   0.819  0.00  0.00     0.022 C 
ATOM     13  C   UNL d   1       3.172   2.278   0.704  0.00  0.00     0.022 C 
ENDBRANCH   5  10
BRANCH   9  14
ATOM     14  O   UNL d   1       1.791  -2.310  -0.092  0.00  0.00    -0.327 OA
ATOM     15  C   UNL d   1       1.010  -3.497  -0.062  0.00  0.00     0.213 C 
ENDBRANCH   9  14
BRANCH   8  16
ATOM     16  N   UNL d   1      -2.275  -0.059   0.189  0.00  0.00    -0.274 NA
ATOM     17  H   UNL d   1      -2.665  -0.908  -0.191  0.00  0.00     0.127 HD
ATOM     18  H   UNL d   1      -2.645   0.819  -0.147  0.00  0.00     0.127 HD
ENDBRANCH   8  16
TORSDOF 3
