REMARK  7 active torsions:
REMARK  status: ('A' for Active; 'I' for Inactive)
REMARK    1  A    between atoms: N_3  and  S_1 
REMARK    2  A    between atoms: C_12  and  S_1 
REMARK    3  A    between atoms: S_2  and  N_6 
REMARK    4  A    between atoms: C_5  and  S_2 
REMARK    5  A    between atoms: C_4  and  N_3 
REMARK    6  A    between atoms: N_6  and  C_29 
REMARK    7  A    between atoms: N_13  and  C_14 
REMARK       I    between atoms: C_20  and  N_13 
ROOT
ATOM      1  C   UNL d   1       0.520   1.691  -0.188  0.00  0.00     0.075 A 
ATOM      2  C   UNL d   1      -0.858   1.909  -0.309  0.00  0.00     0.027 A 
ATOM      3  C   UNL d   1       1.414   2.764  -0.206  0.00  0.00     0.027 A 
ATOM      4  C   UNL d   1      -0.438   4.269  -0.588  0.00  0.00     0.042 A 
ATOM      5  C   UNL d   1      -1.335   3.205  -0.523  0.00  0.00     0.031 A 
ATOM      6  C   UNL d   1       0.931   4.056  -0.419  0.00  0.00     0.031 A 
ENDROOT
BRANCH   4   7
ATOM      7  N   UNL d   1      -0.875   5.565  -0.944  0.00  0.00    -0.281 N 
ATOM      8  H   UNL d   1      -1.048   5.787  -1.923  0.00  0.00     0.179 HD
BRANCH   7   9
ATOM      9  S   UNL d   1      -1.568   6.594   0.173  0.00  0.00     0.263 S 
ATOM     10  O   UNL d   1      -1.953   7.780  -0.561  0.00  0.00    -0.200 OA
ATOM     11  O   UNL d   1      -2.527   5.866   0.973  0.00  0.00    -0.200 OA
BRANCH   9  12
ATOM     12  C   UNL d   1      -0.190   7.031   1.205  0.00  0.00     0.081 A 
ATOM     13  C   UNL d   1       0.025   6.338   2.397  0.00  0.00     0.051 A 
ATOM     14  C   UNL d   1       1.095   6.705   3.217  0.00  0.00     0.062 A 
ATOM     15 CL   UNL d   1       1.333   5.817   4.684  0.00  0.00    -0.082 Cl
ATOM     16  C   UNL d   1       1.946   7.775   2.872  0.00  0.00     0.056 A 
ATOM     17  C   UNL d   1       1.707   8.455   1.673  0.00  0.00     0.033 A 
ATOM     18  C   UNL d   1       0.641   8.092   0.842  0.00  0.00     0.027 A 
BRANCH  16  19
ATOM     19  N   UNL d   1       3.016   8.104   3.742  0.00  0.00    -0.326 N 
ATOM     20  C   UNL d   1       3.829   9.219   3.681  0.00  0.00     0.218 C 
ATOM     21  O   UNL d   1       3.716  10.159   2.901  0.00  0.00    -0.274 OA
ATOM     22  C   UNL d   1       4.944   9.209   4.698  0.00  0.00     0.117 C 
ATOM     23  H   UNL d   1       3.128   7.482   4.537  0.00  0.00     0.169 HD
ENDBRANCH  16  19
ENDBRANCH   9  12
ENDBRANCH   7   9
ENDBRANCH   4   7
BRANCH   1  24
ATOM     24  S   UNL d   1       1.138   0.039   0.053  0.00  0.00     0.248 S 
ATOM     25  O   UNL d   1       2.393   0.168   0.763  0.00  0.00    -0.205 OA
ATOM     26  O   UNL d   1       0.071  -0.770   0.602  0.00  0.00    -0.205 OA
BRANCH  24  27
ATOM     27  N   UNL d   1       1.533  -0.467  -1.489  0.00  0.00    -0.151 NA
ATOM     28  H   UNL d   1       2.318  -1.109  -1.454  0.00  0.00     0.149 HD
BRANCH  27  29
ATOM     29  C   UNL d   1       0.469  -1.007  -2.206  0.00  0.00     0.171 A 
ATOM     30  N   UNL d   1      -0.418  -0.164  -2.735  0.00  0.00    -0.336 N 
ATOM     31  C   UNL d   1      -1.424  -0.736  -3.427  0.00  0.00     0.009 A 
ATOM     32  HN  UNL d   1      -0.341   0.847  -2.624  1.00  0.00     0.168 HD
ATOM     33  C   UNL d   1      -2.421   0.172  -4.081  0.00  0.00     0.068 C 
ATOM     34  C   UNL d   1      -1.552  -2.109  -3.548  0.00  0.00     0.049 A 
ATOM     35  C   UNL d   1      -0.575  -2.881  -2.944  0.00  0.00     0.009 A 
ATOM     36  N   UNL d   1       0.468  -2.339  -2.284  0.00  0.00    -0.336 N 
ATOM     37  C   UNL d   1      -0.655  -4.377  -3.002  0.00  0.00     0.068 C 
ATOM     38  HN  UNL d   1       1.207  -2.908  -1.872  1.00  0.00     0.168 HD
ENDBRANCH  27  29
ENDBRANCH  24  27
ENDBRANCH   1  24
TORSDOF 7
