REMARK  6 active torsions:
REMARK  status: ('A' for Active; 'I' for Inactive)
REMARK    1  A    between atoms: C_7  and  C_1 
REMARK    2  A    between atoms: C_9  and  C_4 
REMARK    3  A    between atoms: C_5  and  C_9 
REMARK       I    between atoms: N_15  and  C_7 
REMARK    4  A    between atoms: C_20  and  N_15 
REMARK    5  A    between atoms: C_16  and  C_19 
REMARK    6  A    between atoms: C_19  and  C_20 
ROOT
ATOM      1  C   UNL d   1       1.323   0.866  -0.106  0.00  0.00     0.107 A 
ATOM      2  N   UNL d   1       1.370  -0.425   0.442  0.00  0.00    -0.349 N 
ATOM      3  HN  UNL d   1       2.208  -0.874   0.810  1.00  0.00     0.166 HD
ATOM      4  C   UNL d   1       0.169  -0.971   0.410  0.00  0.00     0.055 A 
ATOM      5  C   UNL d   1       0.084   1.226  -0.611  0.00  0.00     0.086 A 
ATOM      6  S   UNL d   1      -1.048  -0.021  -0.357  0.00  0.00    -0.086 SA
ENDROOT
BRANCH   1   7
ATOM      7  C   UNL d   1       2.474   1.769  -0.129  0.00  0.00     0.268 C 
ATOM      8  O   UNL d   1       2.356   2.979  -0.304  0.00  0.00    -0.266 OA
ATOM      9  N   UNL d   1       3.685   1.140   0.045  0.00  0.00    -0.355 N 
ATOM     10  H   UNL d   1       3.671   0.124   0.063  0.00  0.00     0.162 HD
BRANCH   9  11
ATOM     11  C   UNL d   1       4.952   1.848  -0.040  0.00  0.00     0.129 C 
BRANCH  11  12
ATOM     12  C   UNL d   1       5.823   1.651   1.197  0.00  0.00     0.076 C 
BRANCH  12  13
ATOM     13  C   UNL d   1       6.377   0.254   1.295  0.00  0.00     0.010 A 
ATOM     14  N   UNL d   1       7.533   0.005   0.633  0.00  0.00    -0.369 N 
ATOM     15  C   UNL d   1       8.041  -1.244   0.721  0.00  0.00     0.088 A 
ATOM     16  HN  UNL d   1       8.001   0.731   0.090  1.00  0.00     0.165 HD
ATOM     17  C   UNL d   1       7.444  -2.270   1.432  0.00  0.00     0.017 A 
ATOM     18  C   UNL d   1       6.251  -2.003   2.091  0.00  0.00     0.003 A 
ATOM     19  C   UNL d   1       5.706  -0.725   2.024  0.00  0.00     0.025 A 
ENDBRANCH  12  13
ENDBRANCH  11  12
ENDBRANCH   9  11
ENDBRANCH   1   7
BRANCH   4  20
ATOM     20  C   UNL d   1      -0.196  -2.300   1.022  0.00  0.00     0.107 C 
BRANCH  20  21
ATOM     21  C   UNL d   1       0.072  -3.475   0.106  0.00  0.00    -0.009 A 
ATOM     22  C   UNL d   1       1.323  -4.123   0.098  0.00  0.00     0.042 A 
ATOM     23 CL   UNL d   1       2.593  -3.696   1.193  0.00  0.00    -0.084 Cl
ATOM     24  C   UNL d   1       1.592  -5.167  -0.796  0.00  0.00     0.024 A 
ATOM     25  C   UNL d   1       0.624  -5.584  -1.704  0.00  0.00     0.003 A 
ATOM     26  C   UNL d   1      -0.623  -4.971  -1.704  0.00  0.00     0.024 A 
ATOM     27  C   UNL d   1      -0.902  -3.935  -0.806  0.00  0.00     0.042 A 
ATOM     28 CL   UNL d   1      -2.504  -3.283  -0.863  0.00  0.00    -0.084 Cl
ENDBRANCH  20  21
ENDBRANCH   4  20
TORSDOF 6
