REMARK  1 active torsions:
REMARK  status: ('A' for Active; 'I' for Inactive)
REMARK    1  A    between atoms: C_2  and  N_1 
ROOT
ATOM      1  C   UNL d   1      -0.743  -2.478   0.018  0.00  0.00     0.038 A 
ATOM      2  C   UNL d   1      -0.275  -3.361   1.006  0.00  0.00     0.033 A 
ATOM      3  C   UNL d   1      -1.625  -2.963  -0.963  0.00  0.00     0.033 A 
ATOM      4  C   UNL d   1      -1.550  -5.158   0.030  0.00  0.00     0.116 A 
ATOM      5  C   UNL d   1      -2.025  -4.304  -0.955  0.00  0.00     0.044 A 
ATOM      6  C   UNL d   1      -0.681  -4.699   1.010  0.00  0.00     0.044 A 
ATOM      7  F   UNL d   1      -1.935  -6.440   0.036  0.00  0.00    -0.206 F 
ENDROOT
BRANCH   1   8
ATOM      8  N   UNL d   1      -0.327  -1.108   0.008  0.00  0.00    -0.333 N 
ATOM      9  C   UNL d   1       0.573  -0.511   0.874  0.00  0.00     0.096 A 
ATOM     10  C   UNL d   1       0.721   0.817   0.540  0.00  0.00     0.019 A 
ATOM     11  C   UNL d   1      -0.116   1.064  -0.563  0.00  0.00     0.019 A 
ATOM     12  C   UNL d   1      -0.744  -0.123  -0.871  0.00  0.00     0.096 A 
ENDBRANCH   1   8
TORSDOF 1
