REMARK  5 active torsions:
REMARK  status: ('A' for Active; 'I' for Inactive)
REMARK    1  A    between atoms: C_2  and  N_1 
REMARK    2  A    between atoms: C_8  and  C_3 
REMARK    3  A    between atoms: C_4  and  C_7 
REMARK    4  A    between atoms: C_6  and  C_8 
REMARK    5  A    between atoms: N_18  and  C_10 
ROOT
ATOM      1  C   UNL d   1       0.280   0.817   0.861  0.00  0.00     0.117 A 
ATOM      2  C   UNL d   1       0.594   2.175   0.985  0.00  0.00     0.047 A 
ATOM      3  C   UNL d   1      -0.938   0.290   1.331  0.00  0.00     0.053 A 
ATOM      4  C   UNL d   1      -1.879   1.136   1.935  0.00  0.00     0.050 A 
ATOM      5  C   UNL d   1      -0.341   3.005   1.626  0.00  0.00     0.019 A 
ATOM      6  C   UNL d   1      -1.564   2.495   2.081  0.00  0.00     0.017 A 
ENDROOT
BRANCH   2   7
ATOM      7  C   UNL d   1       1.905   2.729   0.545  0.00  0.00     0.185 C 
ATOM      8  O   UNL d   1       2.912   2.039   0.620  0.00  0.00    -0.287 OA
BRANCH   7   9
ATOM      9  C   UNL d   1       1.924   4.144   0.075  0.00  0.00     0.072 C 
ATOM     10  C   UNL d   1       3.075   4.807  -0.099  0.00  0.00     0.088 C 
BRANCH  10  11
ATOM     11  N   UNL d   1       3.276   6.137  -0.451  0.00  0.00    -0.398 N 
ATOM     12  C   UNL d   1       2.218   7.139  -0.570  0.00  0.00     0.148 C 
ATOM     13  C   UNL d   1       4.624   6.686  -0.636  0.00  0.00     0.148 C 
ENDBRANCH  10  11
ENDBRANCH   7   9
ENDBRANCH   2   7
BRANCH   1  14
ATOM     14  N   UNL d   1       1.159  -0.094   0.153  0.00  0.00    -0.115 N 
ATOM     15  O   UNL d   1       1.312   0.113  -1.058  0.00  0.00    -0.532 OA
ATOM     16  O   UNL d   1       1.572  -1.075   0.785  0.00  0.00    -0.532 OA
ENDBRANCH   1  14
BRANCH   4  17
ATOM     17  C   UNL d   1      -3.216   0.618   2.416  0.00  0.00     0.417 C 
ATOM     18  F   UNL d   1      -3.412  -0.702   2.153  0.00  0.00    -0.166 F 
ATOM     19  F   UNL d   1      -3.377   0.767   3.758  0.00  0.00    -0.166 F 
ATOM     20  F   UNL d   1      -4.258   1.276   1.836  0.00  0.00    -0.166 F 
ENDBRANCH   4  17
TORSDOF 5
