REMARK  3 active torsions:
REMARK  status: ('A' for Active; 'I' for Inactive)
REMARK    1  A    between atoms: N_2  and  S_1 
REMARK    2  A    between atoms: C_9  and  S_1 
REMARK    3  A    between atoms: C_4  and  N_2 
ROOT
ATOM      1  N   UNL d   1       4.383  -1.230  -2.566  0.00  0.00    -0.191 NA
ATOM      2  C   UNL d   1       0.940  -0.295  -2.817  0.00  0.00     0.063 A 
ATOM      3  C   UNL d   1       3.381  -0.774  -2.931  0.00  0.00     0.102 C 
ATOM      4  C   UNL d   1       2.172  -0.232  -3.485  0.00  0.00     0.071 A 
ATOM      5  C   UNL d   1       2.222   0.298  -4.786  0.00  0.00     0.025 A 
ATOM      6  C   UNL d   1      -0.217   0.181  -3.449  0.00  0.00     0.031 A 
ATOM      7  C   UNL d   1       1.062   0.757  -5.413  0.00  0.00     0.002 A 
ATOM      8  C   UNL d   1      -0.156   0.702  -4.743  0.00  0.00     0.002 A 
ENDROOT
BRANCH   2   9
ATOM      9  N   UNL d   1       0.797  -0.846  -1.508  0.00  0.00    -0.279 N 
ATOM     10  H   UNL d   1       0.038  -1.509  -1.350  0.00  0.00     0.179 HD
BRANCH   9  11
ATOM     11  S   UNL d   1       1.097   0.104  -0.143  0.00  0.00     0.263 S 
ATOM     12  O   UNL d   1       2.451   0.608  -0.208  0.00  0.00    -0.200 OA
ATOM     13  O   UNL d   1       0.622  -0.664   0.988  0.00  0.00    -0.200 OA
BRANCH  11  14
ATOM     14  C   UNL d   1      -0.003   1.488  -0.344  0.00  0.00     0.079 A 
ATOM     15  C   UNL d   1      -1.319   1.406   0.121  0.00  0.00     0.025 A 
ATOM     16  C   UNL d   1      -2.175   2.495  -0.051  0.00  0.00     0.002 A 
ATOM     17  C   UNL d   1      -1.710   3.659  -0.668  0.00  0.00     0.000 A 
ATOM     18  C   UNL d   1      -0.386   3.747  -1.098  0.00  0.00     0.002 A 
ATOM     19  C   UNL d   1       0.476   2.665  -0.929  0.00  0.00     0.025 A 
ENDBRANCH  11  14
ENDBRANCH   9  11
ENDBRANCH   2   9
TORSDOF 3
