REMARK  4 active torsions:
REMARK  status: ('A' for Active; 'I' for Inactive)
REMARK    1  A    between atoms: C_2  and  S_1 
REMARK    2  A    between atoms: C_5  and  S_1 
REMARK    3  A    between atoms: C_3  and  C_2 
REMARK    4  A    between atoms: C_4  and  C_3 
ROOT
ATOM      1  C   UNL d   1       0.491   1.409   0.663  0.00  0.00     0.229 C 
ENDROOT
BRANCH   1   2
ATOM      2  S   UNL d   1       0.853  -0.141  -0.134  0.00  0.00     0.182 S 
ATOM      3  O   UNL d   1       0.041  -1.183   0.458  0.00  0.00    -0.222 OA
ATOM      4  O   UNL d   1       2.287  -0.280  -0.316  0.00  0.00    -0.222 OA
BRANCH   2   5
ATOM      5  C   UNL d   1       0.205   0.119  -1.785  0.00  0.00     0.059 A 
ATOM      6  C   UNL d   1       0.791   1.092  -2.603  0.00  0.00     0.025 A 
ATOM      7  C   UNL d   1       0.269   1.322  -3.877  0.00  0.00     0.025 A 
ATOM      8  C   UNL d   1      -0.816   0.569  -4.330  0.00  0.00     0.034 A 
ATOM      9  C   UNL d   1      -1.375  -0.424  -3.525  0.00  0.00     0.025 A 
ATOM     10 CL   UNL d   1      -1.468   0.870  -5.893  0.00  0.00    -0.084 Cl
ATOM     11  C   UNL d   1      -0.864  -0.655  -2.246  0.00  0.00     0.025 A 
ENDBRANCH   2   5
ENDBRANCH   1   2
BRANCH   1  12
ATOM     12  C   UNL d   1       0.983   1.435   2.086  0.00  0.00     0.178 C 
ATOM     13  O   UNL d   1       1.585   0.502   2.602  0.00  0.00    -0.291 OA
BRANCH  12  14
ATOM     14  C   UNL d   1       0.786   2.675   2.898  0.00  0.00     0.071 A 
ATOM     15  C   UNL d   1       0.632   2.632   4.295  0.00  0.00     0.051 A 
ATOM     16 CL   UNL d   1       0.360   1.172   5.184  0.00  0.00    -0.083 Cl
ATOM     17  C   UNL d   1       0.634   3.818   5.048  0.00  0.00     0.025 A 
ATOM     18  C   UNL d   1       0.773   5.056   4.424  0.00  0.00     0.005 A 
ATOM     19  C   UNL d   1       0.868   5.112   3.040  0.00  0.00     0.043 A 
ATOM     20  C   UNL d   1       0.867   3.934   2.292  0.00  0.00     0.132 A 
ATOM     21  F   UNL d   1       0.975   4.064   0.964  0.00  0.00    -0.205 F 
ENDBRANCH  12  14
ENDBRANCH   1  12
TORSDOF 4
