REMARK  6 active torsions:
REMARK  status: ('A' for Active; 'I' for Inactive)
REMARK    1  A    between atoms: C_2  and  S_1 
REMARK    2  A    between atoms: N_7  and  S_1 
REMARK    3  A    between atoms: C_8  and  C_3 
REMARK    4  A    between atoms: C_11  and  N_7 
REMARK    5  A    between atoms: O_13  and  C_8 
REMARK    6  A    between atoms: C_14  and  C_11 
ROOT
ATOM      1  S   UNL d   1       1.389  -0.030  -0.201  0.00  0.00     0.283 S 
ATOM      2  O   UNL d   1       1.005   1.276   0.304  0.00  0.00    -0.198 OA
ATOM      3  O   UNL d   1       2.773  -0.352  -0.449  0.00  0.00    -0.198 OA
ENDROOT
BRANCH   1   4
ATOM      4  C   UNL d   1       0.626  -0.072  -1.831  0.00  0.00     0.191 A 
ATOM      5  C   UNL d   1       0.016   0.945  -2.554  0.00  0.00     0.071 A 
ATOM      6  C   UNL d   1      -0.370   0.432  -3.821  0.00  0.00     0.072 A 
ATOM      7  C   UNL d   1       0.019  -0.897  -3.803  0.00  0.00     0.067 A 
ATOM      8  O   UNL d   1       0.602  -1.209  -2.611  0.00  0.00    -0.301 OA
ATOM      9  C   UNL d   1      -0.059  -1.991  -4.796  0.00  0.00     0.078 C 
BRANCH   6  10
ATOM     10  C   UNL d   1      -1.015   1.126  -4.923  0.00  0.00     0.295 C 
ATOM     11  O   UNL d   1      -1.309   0.591  -5.986  0.00  0.00    -0.259 OA
BRANCH  10  12
ATOM     12  O   UNL d   1      -1.254   2.438  -4.629  0.00  0.00    -0.322 OA
ATOM     13  C   UNL d   1      -1.892   3.171  -5.675  0.00  0.00     0.213 C 
ENDBRANCH  10  12
ENDBRANCH   6  10
ENDBRANCH   1   4
BRANCH   1  14
ATOM     14  N   UNL d   1       0.652  -1.208   0.761  0.00  0.00    -0.305 N 
ATOM     15  C   UNL d   1       0.268  -0.810   2.120  0.00  0.00     0.163 C 
BRANCH  14  16
ATOM     16  C   UNL d   1       1.037  -2.623   0.600  0.00  0.00     0.173 C 
BRANCH  16  17
ATOM     17  C   UNL d   1       2.399  -3.024   1.124  0.00  0.00    -0.040 A 
ATOM     18  C   UNL d   1       2.622  -3.292   2.483  0.00  0.00     0.009 A 
ATOM     19  C   UNL d   1       3.884  -3.699   2.930  0.00  0.00     0.001 A 
ATOM     20  C   UNL d   1       4.937  -3.836   2.027  0.00  0.00     0.000 A 
ATOM     21  C   UNL d   1       4.735  -3.552   0.680  0.00  0.00     0.001 A 
ATOM     22  C   UNL d   1       3.475  -3.154   0.234  0.00  0.00     0.009 A 
ENDBRANCH  16  17
ENDBRANCH  14  16
ENDBRANCH   1  14
TORSDOF 6
