REMARK  8 active torsions:
REMARK  status: ('A' for Active; 'I' for Inactive)
REMARK    1  A    between atoms: C_8  and  N_1 
REMARK    2  A    between atoms: S_9  and  C_2 
REMARK    3  A    between atoms: O_15  and  C_3 
REMARK    4  A    between atoms: C_13  and  C_8 
REMARK    5  A    between atoms: C_12  and  S_9 
REMARK    6  A    between atoms: C_10  and  C_12 
REMARK    7  A    between atoms: C_11  and  C_10 
REMARK    8  A    between atoms: O_21  and  C_18 
ROOT
ATOM      1  N   UNL d   1      -0.195  -1.309  -0.025  0.00  0.00    -0.282 N 
ATOM      2  C   UNL d   1       1.092  -0.834   0.005  0.00  0.00     0.165 A 
ATOM      3  C   UNL d   1      -0.971  -0.191   0.187  0.00  0.00     0.241 A 
ATOM      4  N   UNL d   1       1.095   0.439   0.325  0.00  0.00    -0.277 N 
ATOM      5  HN  UNL d   1       1.920   1.024   0.456  1.00  0.00     0.189 HD
ATOM      6  N   UNL d   1      -0.213   0.843   0.453  0.00  0.00    -0.263 N 
ATOM      7  HN  UNL d   1      -0.534   1.777   0.708  1.00  0.00     0.190 HD
ENDROOT
BRANCH   2   8
ATOM      8  S   UNL d   1       2.502  -1.746  -0.391  0.00  0.00    -0.085 SA
BRANCH   8   9
ATOM      9  C   UNL d   1       3.587  -1.268   0.981  0.00  0.00     0.166 C 
BRANCH   9  10
ATOM     10  C   UNL d   1       4.979  -1.861   0.841  0.00  0.00     0.169 C 
ATOM     11  O   UNL d   1       5.348  -2.532  -0.122  0.00  0.00    -0.291 OA
BRANCH  10  12
ATOM     12  C   UNL d   1       5.959  -1.606   1.946  0.00  0.00     0.011 A 
ATOM     13  C   UNL d   1       5.612  -0.914   3.112  0.00  0.00     0.018 A 
ATOM     14  C   UNL d   1       6.562  -0.700   4.119  0.00  0.00     0.037 A 
ATOM     15  C   UNL d   1       7.868  -1.165   3.964  0.00  0.00     0.068 A 
ATOM     16  C   UNL d   1       8.211  -1.874   2.814  0.00  0.00     0.037 A 
ATOM     17  C   UNL d   1       7.267  -2.088   1.806  0.00  0.00     0.018 A 
BRANCH  15  18
ATOM     18  O   UNL d   1       8.870  -1.016   4.882  0.00  0.00    -0.356 OA
ATOM     19  C   UNL d   1       8.765   0.126   5.727  0.00  0.00     0.210 C 
ENDBRANCH  15  18
ENDBRANCH  10  12
ENDBRANCH   9  10
ENDBRANCH   8   9
ENDBRANCH   2   8
BRANCH   1  20
ATOM     20  C   UNL d   1      -0.702  -2.679  -0.041  0.00  0.00     0.124 C 
ATOM     21  C   UNL d   1       0.099  -3.684   0.796  0.00  0.00     0.038 C 
BRANCH  20  22
ATOM     22  C   UNL d   1      -1.003  -3.220  -1.432  0.00  0.00    -0.035 A 
ATOM     23  C   UNL d   1      -0.306  -2.829  -2.584  0.00  0.00     0.009 A 
ATOM     24  C   UNL d   1      -0.558  -3.443  -3.815  0.00  0.00     0.001 A 
ATOM     25  C   UNL d   1      -1.514  -4.450  -3.916  0.00  0.00     0.000 A 
ATOM     26  C   UNL d   1      -2.231  -4.837  -2.789  0.00  0.00     0.001 A 
ATOM     27  C   UNL d   1      -1.980  -4.226  -1.559  0.00  0.00     0.009 A 
ENDBRANCH  20  22
ENDBRANCH   1  20
BRANCH   3  28
ATOM     28  O   UNL d   1      -2.294  -0.144   0.171  0.00  0.00    -0.331 OA
ATOM     29  H   UNL d   1      -2.618  -0.816  -0.451  0.00  0.00     0.221 HD
ENDBRANCH   3  28
TORSDOF 8
