REMARK  3 active torsions:
REMARK  status: ('A' for Active; 'I' for Inactive)
REMARK    1  A    between atoms: N_2  and  S_1 
REMARK    2  A    between atoms: C_10  and  S_1 
REMARK    3  A    between atoms: N_3  and  C_6 
ROOT
ATOM      1  N   UNL d   1       0.416  -0.848  -1.384  0.00  0.00    -0.271 N 
ATOM      2  C   UNL d   1       0.506  -2.233  -1.670  0.00  0.00     0.051 A 
ATOM      3  C   UNL d   1      -0.283  -2.521  -2.786  0.00  0.00    -0.027 A 
ATOM      4  C   UNL d   1       0.678  -4.705  -2.926  0.00  0.00     0.103 A 
ATOM      5  C   UNL d   1      -0.600  -0.221  -2.262  0.00  0.00     0.146 C 
ATOM      6  C   UNL d   1      -0.216  -3.751  -3.430  0.00  0.00     0.045 A 
ATOM      7  C   UNL d   1       1.376  -3.180  -1.157  0.00  0.00     0.033 A 
ATOM      8  C   UNL d   1      -1.124  -1.345  -3.177  0.00  0.00     0.062 C 
ATOM      9  C   UNL d   1       1.456  -4.433  -1.782  0.00  0.00     0.038 A 
ENDROOT
BRANCH   1  10
ATOM     10  S   UNL d   1       0.911  -0.079   0.014  0.00  0.00     0.265 S 
ATOM     11  O   UNL d   1       1.017   1.334  -0.296  0.00  0.00    -0.200 OA
ATOM     12  O   UNL d   1       2.029  -0.781   0.608  0.00  0.00    -0.200 OA
BRANCH  10  13
ATOM     13  C   UNL d   1      -0.467  -0.251   1.131  0.00  0.00     0.080 A 
ATOM     14  C   UNL d   1      -0.568  -1.385   1.941  0.00  0.00     0.025 A 
ATOM     15  C   UNL d   1      -1.571  -1.449   2.910  0.00  0.00     0.002 A 
ATOM     16  C   UNL d   1      -2.459  -0.383   3.075  0.00  0.00     0.000 A 
ATOM     17  C   UNL d   1      -2.349   0.752   2.271  0.00  0.00     0.002 A 
ATOM     18  C   UNL d   1      -1.350   0.824   1.301  0.00  0.00     0.025 A 
ENDBRANCH  10  13
ENDBRANCH   1  10
BRANCH   4  19
ATOM     19  N   UNL d   1       0.844  -5.987  -3.626  0.00  0.00    -0.116 N 
ATOM     20  O   UNL d   1       0.177  -6.170  -4.655  0.00  0.00    -0.532 OA
ATOM     21  O   UNL d   1       1.644  -6.805  -3.152  0.00  0.00    -0.532 OA
ENDBRANCH   4  19
TORSDOF 3
