REMARK  7 active torsions:
REMARK  status: ('A' for Active; 'I' for Inactive)
REMARK    1  A    between atoms: C_10  and  N_1 
REMARK    2  A    between atoms: C_13  and  C_2 
REMARK    3  A    between atoms: S_9  and  C_5 
REMARK    4  A    between atoms: C_8  and  C_18 
REMARK       I    between atoms: N_14  and  C_8 
REMARK    5  A    between atoms: C_18  and  S_9 
REMARK    6  A    between atoms: N_11  and  N_14 
REMARK    7  A    between atoms: C_20  and  C_19 
ROOT
ATOM      1  N   UNL d   1      -0.319  -1.340   0.001  0.00  0.00    -0.275 N 
ATOM      2  C   UNL d   1       0.936  -0.712  -0.016  0.00  0.00     0.139 A 
ATOM      3  N   UNL d   1       0.750   0.598  -0.031  0.00  0.00    -0.282 N 
ATOM      4  HN  UNL d   1       1.489   1.301  -0.016  1.00  0.00     0.188 HD
ATOM      5  C   UNL d   1      -1.226  -0.287  -0.049  0.00  0.00     0.168 A 
ATOM      6  N   UNL d   1      -0.589   0.857  -0.070  0.00  0.00    -0.278 N 
ATOM      7  HN  UNL d   1      -1.020   1.781  -0.110  1.00  0.00     0.189 HD
ENDROOT
BRANCH   5   8
ATOM      8  S   UNL d   1      -2.960  -0.430   0.113  0.00  0.00    -0.083 SA
BRANCH   8   9
ATOM      9  C   UNL d   1      -3.466   1.301  -0.112  0.00  0.00     0.186 C 
BRANCH   9  10
ATOM     10  C   UNL d   1      -4.966   1.556  -0.047  0.00  0.00     0.245 C 
ATOM     11  N   UNL d   1      -5.795   0.460   0.134  0.00  0.00    -0.270 N 
ATOM     12  H   UNL d   1      -5.402  -0.469   0.241  0.00  0.00     0.190 HD
ATOM     13  O   UNL d   1      -5.386   2.712  -0.161  0.00  0.00    -0.271 OA
BRANCH  11  14
ATOM     14  N   UNL d   1      -7.138   0.662   0.268  0.00  0.00    -0.308 N 
ATOM     15  C   UNL d   1      -7.882  -0.379   0.454  0.00  0.00     0.118 C 
ATOM     16  HN  UNL d   1      -7.539   1.599   0.224  1.00  0.00     0.186 HD
BRANCH  15  17
ATOM     17  C   UNL d   1      -9.345  -0.240   0.647  0.00  0.00    -0.019 A 
ATOM     18  C   UNL d   1      -9.945   1.025   0.635  0.00  0.00     0.014 A 
ATOM     19  C   UNL d   1     -11.321   1.151   0.844  0.00  0.00     0.024 A 
ATOM     20  C   UNL d   1     -12.094   0.013   1.065  0.00  0.00     0.034 A 
ATOM     21  C   UNL d   1     -11.504  -1.252   1.072  0.00  0.00     0.024 A 
ATOM     22 CL   UNL d   1     -13.787   0.168   1.335  0.00  0.00    -0.084 Cl
ATOM     23  C   UNL d   1     -10.125  -1.383   0.862  0.00  0.00     0.014 A 
ENDBRANCH  15  17
ENDBRANCH  11  14
ENDBRANCH   9  10
ENDBRANCH   8   9
ENDBRANCH   5   8
BRANCH   1  24
ATOM     24  C   UNL d   1      -0.589  -2.737   0.061  0.00  0.00     0.043 A 
ATOM     25  C   UNL d   1       0.191  -3.574   0.872  0.00  0.00     0.030 A 
ATOM     26  C   UNL d   1      -0.013  -4.955   0.856  0.00  0.00     0.002 A 
ATOM     27  C   UNL d   1      -1.011  -5.505   0.056  0.00  0.00     0.000 A 
ATOM     28  C   UNL d   1      -1.810  -4.676  -0.730  0.00  0.00     0.002 A 
ATOM     29  C   UNL d   1      -1.599  -3.296  -0.734  0.00  0.00     0.030 A 
ENDBRANCH   1  24
BRANCH   2  30
ATOM     30  C   UNL d   1       2.270  -1.335  -0.059  0.00  0.00     0.013 A 
ATOM     31  C   UNL d   1       2.554  -2.469  -0.828  0.00  0.00     0.032 A 
ATOM     32  C   UNL d   1       3.821  -3.027  -0.753  0.00  0.00     0.088 A 
ATOM     33  N   UNL d   1       4.824  -2.516  -0.012  0.00  0.00    -0.375 N 
ATOM     34  C   UNL d   1       4.555  -1.384   0.671  0.00  0.00     0.088 A 
ATOM     35  HN  UNL d   1       5.740  -2.962   0.030  1.00  0.00     0.164 HD
ATOM     36  C   UNL d   1       3.314  -0.767   0.677  0.00  0.00     0.032 A 
ENDBRANCH   2  30
TORSDOF 7
