REMARK  3 active torsions:
REMARK  status: ('A' for Active; 'I' for Inactive)
REMARK    1  A    between atoms: C_6  and  N_1 
REMARK    2  A    between atoms: C_9  and  C_2 
REMARK    3  A    between atoms: C_8  and  C_10 
ROOT
ATOM      1  N   UNL d   1      -0.186  -1.321  -0.262  0.00  0.00    -0.239 N 
ATOM      2  C   UNL d   1       0.982  -0.703   0.031  0.00  0.00     0.149 A 
ATOM      3  N   UNL d   1       0.857   0.566   0.252  0.00  0.00    -0.238 N 
ATOM      4  HN  UNL d   1       1.598   1.231   0.472  1.00  0.00     0.196 HD
ATOM      5  C   UNL d   1      -1.148  -0.369  -0.121  0.00  0.00     0.395 A 
ATOM      6  O   UNL d   1      -0.534   0.837   0.124  0.00  0.00    -0.179 OA
ATOM      7  O   UNL d   1      -2.361  -0.518  -0.151  0.00  0.00    -0.235 OA
ENDROOT
BRANCH   1   8
ATOM      8  C   UNL d   1      -0.488  -2.686  -0.147  0.00  0.00     0.047 A 
ATOM      9  C   UNL d   1      -0.529  -3.309   1.107  0.00  0.00     0.046 A 
ATOM     10  C   UNL d   1      -0.854  -4.671   1.208  0.00  0.00     0.050 A 
ATOM     11  C   UNL d   1      -1.090  -5.404   0.033  0.00  0.00     0.016 A 
ATOM     12  C   UNL d   1      -1.051  -4.780  -1.215  0.00  0.00     0.003 A 
ATOM     13  C   UNL d   1      -0.775  -3.417  -1.303  0.00  0.00     0.030 A 
BRANCH  10  14
ATOM     14  C   UNL d   1      -0.974  -5.354   2.551  0.00  0.00     0.417 C 
ATOM     15  F   UNL d   1      -0.806  -4.510   3.606  0.00  0.00    -0.166 F 
ATOM     16  F   UNL d   1      -2.189  -5.940   2.729  0.00  0.00    -0.166 F 
ATOM     17  F   UNL d   1      -0.052  -6.343   2.712  0.00  0.00    -0.166 F 
ENDBRANCH  10  14
ENDBRANCH   1   8
BRANCH   2  18
ATOM     18  C   UNL d   1       2.290  -1.382   0.057  0.00  0.00     0.026 A 
ATOM     19  C   UNL d   1       3.287  -0.882   0.886  0.00  0.00     0.102 A 
ATOM     20  N   UNL d   1       4.536  -1.408   0.973  0.00  0.00    -0.374 N 
ATOM     21  C   UNL d   1       4.809  -2.464   0.178  0.00  0.00     0.087 A 
ATOM     22  HN  UNL d   1       5.234  -1.023   1.609  1.00  0.00     0.164 HD
ATOM     23  C   UNL d   1       3.894  -3.018  -0.701  0.00  0.00     0.018 A 
ATOM     24  C   UNL d   1       2.617  -2.460  -0.768  0.00  0.00     0.018 A 
ENDBRANCH   2  18
TORSDOF 3
