REMARK  3 active torsions:
REMARK  status: ('A' for Active; 'I' for Inactive)
REMARK    1  A    between atoms: C_7  and  C_1 
REMARK       I    between atoms: N_12  and  C_7 
REMARK    2  A    between atoms: C_17  and  N_12 
REMARK    3  A    between atoms: C_14  and  C_17 
ROOT
ATOM      1  C   UNL d   1      -0.072  -4.695  -0.195  0.00  0.00     0.262 C 
ATOM      2  N   UNL d   1       0.570  -3.546  -0.584  0.00  0.00    -0.354 N 
ATOM      3  O   UNL d   1       0.433  -5.408   0.674  0.00  0.00    -0.267 OA
ATOM      4  H   UNL d   1       0.102  -2.915  -1.226  0.00  0.00     0.162 HD
ENDROOT
BRANCH   2   5
ATOM      5  C   UNL d   1       1.715  -3.041   0.144  0.00  0.00     0.157 C 
BRANCH   5   6
ATOM      6  C   UNL d   1       3.036  -3.848  -0.013  0.00  0.00     0.171 C 
ATOM      7  O   UNL d   1       3.402  -4.063  -1.391  0.00  0.00    -0.339 OA
ATOM      8  C   UNL d   1       3.804  -2.890  -1.979  0.00  0.00     0.102 C 
ATOM      9  C   UNL d   1       3.722  -2.830  -3.366  0.00  0.00     0.039 C 
ATOM     10  C   UNL d   1       4.158  -1.761  -1.233  0.00  0.00     0.102 C 
ATOM     11  C   UNL d   1       3.837  -1.594  -3.999  0.00  0.00     0.003 C 
ATOM     12  C   UNL d   1       4.050  -0.438  -3.244  0.00  0.00     0.003 C 
ATOM     13  C   UNL d   1       4.241  -0.524  -1.863  0.00  0.00     0.039 C 
ATOM     14  O   UNL d   1       4.324  -1.782   0.132  0.00  0.00    -0.346 OA
ATOM     15  C   UNL d   1       4.191  -3.111   0.667  0.00  0.00     0.209 C 
ENDBRANCH   5   6
ENDBRANCH   2   5
BRANCH   1  16
ATOM     16  C   UNL d   1      -1.347  -4.983  -0.799  0.00  0.00     0.114 A 
ATOM     17  C   UNL d   1      -2.243  -6.011  -0.535  0.00  0.00     0.046 A 
ATOM     18  N   UNL d   1      -3.408  -5.977  -1.297  0.00  0.00    -0.298 N 
ATOM     19  C   UNL d   1      -2.113  -7.114   0.454  0.00  0.00     0.071 C 
ATOM     20  N   UNL d   1      -3.426  -4.954  -2.131  0.00  0.00    -0.269 N 
ATOM     21  HN  UNL d   1      -4.160  -6.662  -1.221  1.00  0.00     0.187 HD
ATOM     22  S   UNL d   1      -2.051  -4.015  -2.027  0.00  0.00     0.009 SA
ATOM     23  HN  UNL d   1      -4.197  -4.758  -2.769  1.00  0.00     0.195 HD
ENDBRANCH   1  16
TORSDOF 3
