REMARK  3 active torsions:
REMARK  status: ('A' for Active; 'I' for Inactive)
REMARK    1  A    between atoms: C_6  and  C_1 
REMARK    2  A    between atoms: S_9  and  C_2 
REMARK    3  A    between atoms: O_10  and  N_7 
ROOT
ATOM      1  C   UNL d   1       1.496   0.772   0.001  0.00  0.00     0.005 A 
ATOM      2  C   UNL d   1       0.212   1.317  -0.005  0.00  0.00     0.052 A 
ATOM      3  S   UNL d   1      -0.991   0.060  -0.008  0.00  0.00    -0.094 SA
ATOM      4  C   UNL d   1       0.161  -1.178  -0.002  0.00  0.00     0.052 A 
ATOM      5  C   UNL d   1       1.437  -0.677   0.002  0.00  0.00     0.022 A 
ENDROOT
BRANCH   1   6
ATOM      6  C   UNL d   1       2.767   1.474   0.006  0.00  0.00     0.127 C 
ATOM      7  N   UNL d   1       3.863   0.777   0.011  0.00  0.00    -0.280 N 
ATOM      8  HN  UNL d   1       3.911  -0.242   0.012  1.00  0.00     0.193 HD
BRANCH   7   9
ATOM      9  O   UNL d   1       4.967   1.636   0.015  0.00  0.00    -0.290 OA
ATOM     10  H   UNL d   1       5.715   1.007   0.020  0.00  0.00     0.244 HD
ENDBRANCH   7   9
ENDBRANCH   1   6
BRANCH   2  11
ATOM     11  S   UNL d   1      -0.468   2.943  -0.011  0.00  0.00    -0.126 SA
ATOM     12  C   UNL d   1       0.851   4.145  -0.013  0.00  0.00     0.096 C 
ENDBRANCH   2  11
TORSDOF 3
