REMARK  3 active torsions:
REMARK  status: ('A' for Active; 'I' for Inactive)
REMARK    1  A    between atoms: C_21  and  N_1 
REMARK    2  A    between atoms: N_16  and  C_5 
REMARK       I    between atoms: C_13  and  N_16 
REMARK       I    between atoms: N_19  and  C_13 
REMARK    3  A    between atoms: C_17  and  N_19 
ROOT
ATOM      1  C   UNL d   1      -0.681   3.184  -0.959  0.00  0.00     0.325 C 
ATOM      2  N   UNL d   1      -1.042   2.205  -0.089  0.00  0.00    -0.305 N 
ATOM      3  N   UNL d   1      -1.538   4.212  -1.191  0.00  0.00    -0.309 N 
ATOM      4  O   UNL d   1       0.390   3.258  -1.558  0.00  0.00    -0.247 OA
ATOM      5  H   UNL d   1      -1.965   2.225   0.288  0.00  0.00     0.171 HD
ATOM      6  H   UNL d   1      -1.027   4.907  -1.728  0.00  0.00     0.170 HD
ENDROOT
BRANCH   2   7
ATOM      7  C   UNL d   1      -0.297   1.068   0.202  0.00  0.00     0.077 C 
ATOM      8  C   UNL d   1       1.063   0.821   0.105  0.00  0.00     0.059 C 
ATOM      9  N   UNL d   1       1.218  -0.547   0.331  0.00  0.00    -0.259 N 
ATOM     10  C   UNL d   1       2.208   1.766  -0.033  0.00  0.00     0.073 C 
ATOM     11  N   UNL d   1       0.101  -1.065   0.915  0.00  0.00    -0.302 N 
ATOM     12  C   UNL d   1      -0.811  -0.107   0.786  0.00  0.00     0.139 C 
ATOM     13  HN  UNL d   1      -0.010  -1.980   1.352  1.00  0.00     0.186 HD
BRANCH   9  14
ATOM     14  C   UNL d   1       2.340  -1.395   0.081  0.00  0.00     0.056 A 
ATOM     15  C   UNL d   1       2.421  -2.637   0.732  0.00  0.00     0.031 A 
ATOM     16  C   UNL d   1       3.542  -3.452   0.561  0.00  0.00     0.002 A 
ATOM     17  C   UNL d   1       4.580  -3.046  -0.276  0.00  0.00     0.000 A 
ATOM     18  C   UNL d   1       4.481  -1.845  -0.973  0.00  0.00     0.002 A 
ATOM     19  C   UNL d   1       3.358  -1.028  -0.809  0.00  0.00     0.031 A 
ENDBRANCH   9  14
ENDBRANCH   2   7
BRANCH   3  20
ATOM     20  C   UNL d   1      -2.896   4.500  -0.993  0.00  0.00     0.038 A 
ATOM     21  C   UNL d   1      -3.878   3.559  -0.639  0.00  0.00     0.062 A 
ATOM     22  C   UNL d   1      -5.226   4.018  -0.660  0.00  0.00     0.069 A 
ATOM     23  N   UNL d   1      -6.314   3.256  -0.465  0.00  0.00    -0.310 N 
ATOM     24  C   UNL d   1      -5.558   5.455  -0.949  0.00  0.00     0.067 A 
ATOM     25  S   UNL d   1      -7.629   4.250  -0.688  0.00  0.00     0.068 SA
ATOM     26  HN  UNL d   1      -6.331   2.265  -0.228  1.00  0.00     0.176 HD
ATOM     27  N   UNL d   1      -6.875   5.709  -0.945  0.00  0.00    -0.310 N 
ATOM     28  HN  UNL d   1      -7.324   6.615  -1.073  1.00  0.00     0.176 HD
ATOM     29  C   UNL d   1      -4.542   6.392  -1.215  0.00  0.00     0.035 A 
ATOM     30  C   UNL d   1      -3.243   5.858  -1.282  0.00  0.00     0.032 A 
ENDBRANCH   3  20
TORSDOF 3
