REMARK  3 active torsions:
REMARK  status: ('A' for Active; 'I' for Inactive)
REMARK    1  A    between atoms: C_10  and  C_3 
REMARK    2  A    between atoms: C_12  and  N_6 
REMARK    3  A    between atoms: O_15  and  C_10 
ROOT
ATOM      1  C   UNL d   1       0.194   0.770  -0.007  0.00  0.00     0.058 A 
ATOM      2  C   UNL d   1       0.173  -0.604  -0.093  0.00  0.00     0.186 A 
ATOM      3  C   UNL d   1       1.562   1.130   0.107  0.00  0.00     0.139 C 
ATOM      4  N   UNL d   1       2.315   0.014   0.230  0.00  0.00    -0.285 N 
ATOM      5  HN  UNL d   1       3.313  -0.031   0.436  1.00  0.00     0.188 HD
ATOM      6  N   UNL d   1       1.478  -1.035   0.024  0.00  0.00    -0.232 N 
ATOM      7  C   UNL d   1      -1.081   1.410  -0.043  0.00  0.00    -0.039 A 
ATOM      8  O   UNL d   1      -0.873  -1.410  -0.208  0.00  0.00    -0.255 OA
ATOM      9  C   UNL d   1      -2.100  -0.830  -0.259  0.00  0.00     0.290 A 
ATOM     10  C   UNL d   1      -2.185   0.649  -0.157  0.00  0.00     0.090 A 
ATOM     11  O   UNL d   1      -3.129  -1.489  -0.378  0.00  0.00    -0.260 OA
ATOM     12  C   UNL d   1      -1.170   2.892   0.125  0.00  0.00     0.049 C 
ENDROOT
BRANCH   6  13
ATOM     13  C   UNL d   1       1.998  -2.357  -0.039  0.00  0.00     0.059 A 
ATOM     14  C   UNL d   1       1.293  -3.391  -0.667  0.00  0.00     0.031 A 
ATOM     15  C   UNL d   1       1.834  -4.678  -0.717  0.00  0.00     0.002 A 
ATOM     16  C   UNL d   1       3.067  -4.946  -0.124  0.00  0.00     0.000 A 
ATOM     17  C   UNL d   1       3.775  -3.922   0.503  0.00  0.00     0.002 A 
ATOM     18  C   UNL d   1       3.253  -2.627   0.533  0.00  0.00     0.031 A 
ENDBRANCH   6  13
BRANCH   3  19
ATOM     19  C   UNL d   1       2.207   2.457   0.101  0.00  0.00     0.312 C 
ATOM     20  O   UNL d   1       1.616   3.507  -0.128  0.00  0.00    -0.258 OA
BRANCH  19  21
ATOM     21  O   UNL d   1       3.552   2.391   0.345  0.00  0.00    -0.321 OA
ATOM     22  C   UNL d   1       4.247   3.635   0.276  0.00  0.00     0.213 C 
ENDBRANCH  19  21
ENDBRANCH   3  19
TORSDOF 3
