REMARK  8 active torsions:
REMARK  status: ('A' for Active; 'I' for Inactive)
REMARK    1  A    between atoms: C_14  and  C_2 
REMARK    2  A    between atoms: C_5  and  C_13 
REMARK    3  A    between atoms: C_7  and  O_11 
REMARK    4  A    between atoms: C_15  and  C_7 
REMARK    5  A    between atoms: O_11  and  N_9 
REMARK    6  A    between atoms: C_12  and  C_26 
REMARK    7  A    between atoms: N_27  and  C_12 
REMARK    8  A    between atoms: C_26  and  C_28 
ROOT
ATOM      1  N   UNL d   1       4.636  -4.981  -2.099  0.00  0.00    -0.250 N 
ATOM      2  HN  UNL d   1       4.579  -5.551  -2.942  1.00  0.00     0.196 HD
ATOM      3  C   UNL d   1       5.636  -5.032  -1.277  0.00  0.00     0.080 C 
ENDROOT
BRANCH   3   4
ATOM      4  C   UNL d   1       6.738  -6.045  -1.597  0.00  0.00     0.110 C 
BRANCH   4   5
ATOM      5  C   UNL d   1       7.842  -5.528  -2.493  0.00  0.00    -0.051 A 
ATOM      6  C   UNL d   1       9.178  -5.554  -2.067  0.00  0.00     0.008 A 
ATOM      7  C   UNL d   1      10.219  -5.194  -2.936  0.00  0.00     0.014 A 
ATOM      8  C   UNL d   1       9.949  -4.803  -4.254  0.00  0.00    -0.008 A 
ATOM      9  C   UNL d   1       8.611  -4.750  -4.670  0.00  0.00     0.014 A 
ATOM     10  C   UNL d   1       7.572  -5.113  -3.803  0.00  0.00     0.008 A 
BRANCH   8  11
ATOM     11  C   UNL d   1      11.013  -4.469  -5.197  0.00  0.00     0.063 A 
ATOM     12  N   UNL d   1      10.777  -3.632  -6.286  0.00  0.00    -0.292 N 
ATOM     13  N   UNL d   1      11.857  -3.466  -7.032  0.00  0.00    -0.061 NA
ATOM     14  HN  UNL d   1       9.875  -3.198  -6.484  1.00  0.00     0.183 HD
ATOM     15  S   UNL d   1      13.176  -4.319  -6.462  0.00  0.00    -0.010 SA
ATOM     16  C   UNL d   1      12.306  -4.964  -5.130  0.00  0.00     0.096 A 
ENDBRANCH   8  11
ENDBRANCH   4   5
ENDBRANCH   3   4
BRANCH   3  17
ATOM     17  N   UNL d   1       5.773  -4.270  -0.142  0.00  0.00    -0.290 NA
ATOM     18  H   UNL d   1       5.175  -3.453  -0.121  0.00  0.00     0.125 HD
ATOM     19  H   UNL d   1       6.721  -4.094   0.171  0.00  0.00     0.125 HD
ENDBRANCH   3  17
BRANCH   1  20
ATOM     20  O   UNL d   1       3.627  -4.060  -1.718  0.00  0.00    -0.194 OA
BRANCH  20  21
ATOM     21  C   UNL d   1       2.584  -4.193  -2.600  0.00  0.00     0.315 C 
ATOM     22  O   UNL d   1       2.530  -4.968  -3.550  0.00  0.00    -0.257 OA
BRANCH  21  23
ATOM     23  C   UNL d   1       1.443  -3.278  -2.307  0.00  0.00     0.041 A 
ATOM     24  C   UNL d   1       0.322  -3.371  -3.150  0.00  0.00     0.018 A 
ATOM     25  C   UNL d   1      -0.797  -2.555  -2.961  0.00  0.00     0.017 A 
ATOM     26  C   UNL d   1      -0.821  -1.620  -1.920  0.00  0.00     0.048 A 
ATOM     27  C   UNL d   1       0.299  -1.524  -1.074  0.00  0.00     0.017 A 
ATOM     28  C   UNL d   1       1.425  -2.347  -1.262  0.00  0.00     0.018 A 
BRANCH  26  29
ATOM     29  C   UNL d   1      -2.031  -0.738  -1.707  0.00  0.00     0.417 C 
ATOM     30  F   UNL d   1      -3.034  -0.960  -2.604  0.00  0.00    -0.166 F 
ATOM     31  F   UNL d   1      -2.591  -0.910  -0.477  0.00  0.00    -0.166 F 
ATOM     32  F   UNL d   1      -1.735   0.587  -1.802  0.00  0.00    -0.166 F 
ENDBRANCH  26  29
ENDBRANCH  21  23
ENDBRANCH  20  21
ENDBRANCH   1  20
TORSDOF 8
