REMARK  7 active torsions:
REMARK  status: ('A' for Active; 'I' for Inactive)
REMARK    1  A    between atoms: C_2  and  C_1 
REMARK       I    between atoms: N_5  and  C_2 
REMARK    2  A    between atoms: C_4  and  C_3 
REMARK    3  A    between atoms: C_12  and  N_5 
REMARK    4  A    between atoms: C_23  and  N_5 
REMARK    5  A    between atoms: O_18  and  C_10 
REMARK    6  A    between atoms: C_16  and  C_12 
REMARK    7  A    between atoms: O_24  and  C_17 
ROOT
ATOM      1  C   UNL d   1       1.026   2.451   0.236  0.00  0.00     0.256 C 
ATOM      2  N   UNL d   1       0.473   3.729   0.043  0.00  0.00    -0.344 N 
ATOM      3  O   UNL d   1       2.228   2.226   0.345  0.00  0.00    -0.267 OA
ENDROOT
BRANCH   1   4
ATOM      4  C   UNL d   1       0.150   1.269   0.317  0.00  0.00     0.062 A 
ATOM      5  C   UNL d   1       0.119   0.397   1.417  0.00  0.00     0.069 A 
ATOM      6  C   UNL d   1      -0.753  -0.707   1.356  0.00  0.00     0.073 A 
ATOM      7  C   UNL d   1      -1.542  -0.890   0.237  0.00  0.00     0.142 A 
ATOM      8  N   UNL d   1      -1.482  -0.092  -0.850  0.00  0.00    -0.346 N 
ATOM      9  C   UNL d   1      -0.616   0.943  -0.793  0.00  0.00     0.108 A 
ATOM     10  HN  UNL d   1      -2.061  -0.262  -1.672  1.00  0.00     0.167 HD
BRANCH   5  11
ATOM     11  C   UNL d   1       0.983   0.543   2.638  0.00  0.00     0.418 C 
ATOM     12  F   UNL d   1       1.540   1.763   2.834  0.00  0.00    -0.166 F 
ATOM     13  F   UNL d   1       0.266   0.301   3.778  0.00  0.00    -0.166 F 
ATOM     14  F   UNL d   1       1.998  -0.365   2.661  0.00  0.00    -0.166 F 
ENDBRANCH   5  11
BRANCH   7  15
ATOM     15  O   UNL d   1      -2.409  -1.961   0.257  0.00  0.00    -0.341 OA
ATOM     16  C   UNL d   1      -3.355  -1.925  -0.810  0.00  0.00     0.211 C 
ENDBRANCH   7  15
ENDBRANCH   1   4
BRANCH   2  17
ATOM     17  C   UNL d   1       1.393   4.869   0.188  0.00  0.00     0.164 C 
BRANCH  17  18
ATOM     18  C   UNL d   1       1.372   5.889  -0.929  0.00  0.00    -0.040 A 
ATOM     19  C   UNL d   1       0.913   7.197  -0.702  0.00  0.00     0.011 A 
ATOM     20  C   UNL d   1       1.007   8.178  -1.702  0.00  0.00     0.037 A 
ATOM     21  C   UNL d   1       1.563   7.865  -2.939  0.00  0.00     0.068 A 
ATOM     22  C   UNL d   1       1.995   6.559  -3.178  0.00  0.00     0.037 A 
ATOM     23  C   UNL d   1       1.898   5.578  -2.187  0.00  0.00     0.011 A 
BRANCH  21  24
ATOM     24  O   UNL d   1       1.760   8.735  -3.979  0.00  0.00    -0.356 OA
ATOM     25  C   UNL d   1       1.251  10.054  -3.830  0.00  0.00     0.210 C 
ENDBRANCH  21  24
ENDBRANCH  17  18
ENDBRANCH   2  17
BRANCH   2  26
ATOM     26  C   UNL d   1      -0.968   4.030   0.081  0.00  0.00     0.122 C 
ATOM     27  C   UNL d   1      -1.585   4.290  -1.288  0.00  0.00     0.026 C 
ENDBRANCH   2  26
TORSDOF 7
