REMARK  0 active torsions:
REMARK  status: ('A' for Active; 'I' for Inactive)
REMARK       I    between atoms: C_6  and  N_1 
ROOT
ATOM      1  N   UNL d   1       1.637  -1.099  -0.001  0.00  0.00    -0.225 N 
ATOM      2  C   UNL d   1       2.370   0.099  -0.000  0.00  0.00     0.380 A 
ATOM      3  C   UNL d   1       0.296  -0.720   0.000  0.00  0.00     0.082 A 
ATOM      4  O   UNL d   1       1.531   1.222   0.000  0.00  0.00    -0.258 OA
ATOM      5  C   UNL d   1       0.274   0.658  -0.000  0.00  0.00     0.108 A 
ATOM      6  C   UNL d   1       2.071  -2.422  -0.002  0.00  0.00     0.229 C 
ATOM      7  O   UNL d   1       3.585   0.237   0.000  0.00  0.00    -0.237 OA
ATOM      8  C   UNL d   1      -0.882  -1.446   0.001  0.00  0.00     0.039 A 
ATOM      9  O   UNL d   1       1.303  -3.392  -0.004  0.00  0.00    -0.273 OA
ATOM     10  C   UNL d   1      -0.901   1.382  -0.000  0.00  0.00     0.040 A 
ATOM     11  C   UNL d   1      -2.100  -0.744   0.002  0.00  0.00    -0.060 A 
ATOM     12  C   UNL d   1      -2.099   0.668   0.001  0.00  0.00     0.009 A 
ATOM     13  C   UNL d   1       3.553  -2.712  -0.002  0.00  0.00     0.118 C 
ATOM     14  C   UNL d   1      -3.410  -1.479   0.007  0.00  0.00     0.048 C 
ENDROOT
TORSDOF 0
