REMARK  4 active torsions:
REMARK  status: ('A' for Active; 'I' for Inactive)
REMARK    1  A    between atoms: C_8  and  N_1 
REMARK    2  A    between atoms: C_7  and  C_2 
REMARK    3  A    between atoms: N_12  and  C_9 
REMARK    4  A    between atoms: C_13  and  N_12 
ROOT
ATOM      1  N   UNL d   1       4.888  -1.041  -0.041  0.00  0.00    -0.225 N 
ATOM      2  C   UNL d   1       3.561  -0.632  -0.191  0.00  0.00     0.139 C 
ATOM      3  N   UNL d   1       4.790   1.073   0.284  0.00  0.00    -0.007 NA
ATOM      4  N   UNL d   1       5.600   0.032   0.384  0.00  0.00     0.001 NA
ATOM      5  N   UNL d   1       3.529   0.685  -0.084  0.00  0.00    -0.270 N 
ATOM      6  HN  UNL d   1       2.725   1.291  -0.243  1.00  0.00     0.185 HD
ENDROOT
BRANCH   2   7
ATOM      7  C   UNL d   1       2.498  -1.564  -0.289  0.00  0.00     0.068 C 
ATOM      8  C   UNL d   1       1.324  -1.292  -0.872  0.00  0.00     0.092 C 
BRANCH   8   9
ATOM      9  N   UNL d   1       0.879  -0.145  -1.477  0.00  0.00    -0.366 N 
ATOM     10  H   UNL d   1       1.486   0.667  -1.386  0.00  0.00     0.165 HD
BRANCH   9  11
ATOM     11  C   UNL d   1      -0.358   0.061  -2.114  0.00  0.00     0.031 A 
ATOM     12  C   UNL d   1      -0.817   1.372  -2.311  0.00  0.00     0.031 A 
ATOM     13  C   UNL d   1      -2.076   1.624  -2.870  0.00  0.00     0.021 A 
ATOM     14  C   UNL d   1      -2.893   0.561  -3.242  0.00  0.00     0.011 A 
ATOM     15  C   UNL d   1      -2.457  -0.748  -3.071  0.00  0.00     0.021 A 
ATOM     16 BR   UNL d   1      -4.604   0.891  -3.971  0.00  0.00    -0.051 Br
ATOM     17  C   UNL d   1      -1.198  -0.991  -2.511  0.00  0.00     0.031 A 
ENDBRANCH   9  11
ENDBRANCH   8   9
ENDBRANCH   2   7
BRANCH   1  18
ATOM     18  C   UNL d   1       5.531  -2.279  -0.315  0.00  0.00     0.056 A 
ATOM     19  C   UNL d   1       4.990  -3.193  -1.228  0.00  0.00     0.032 A 
ATOM     20  C   UNL d   1       5.671  -4.377  -1.526  0.00  0.00     0.009 A 
ATOM     21  C   UNL d   1       6.902  -4.662  -0.926  0.00  0.00    -0.062 A 
ATOM     22  C   UNL d   1       7.434  -3.756  -0.002  0.00  0.00     0.009 A 
ATOM     23  C   UNL d   1       7.628  -5.929  -1.272  0.00  0.00     0.048 C 
ATOM     24  C   UNL d   1       6.764  -2.563   0.291  0.00  0.00     0.032 A 
ENDBRANCH   1  18
TORSDOF 4
