REMARK  7 active torsions:
REMARK  status: ('A' for Active; 'I' for Inactive)
REMARK    1  A    between atoms: C_2  and  C_1 
REMARK    2  A    between atoms: C_16  and  N_3 
REMARK    3  A    between atoms: N_20  and  C_4 
REMARK    4  A    between atoms: S_17  and  C_10 
REMARK    5  A    between atoms: C_22  and  C_16 
REMARK    6  A    between atoms: C_21  and  S_17 
REMARK    7  A    between atoms: C_24  and  C_21 
ROOT
ATOM      1  C   UNL d   1       3.994   0.106  -0.113  0.00  0.00     0.144 A 
ATOM      2  N   UNL d   1       4.638   0.646   0.986  0.00  0.00    -0.306 N 
ATOM      3  N   UNL d   1       4.908  -0.457  -0.889  0.00  0.00    -0.282 N 
ATOM      4  HN  UNL d   1       4.720  -0.978  -1.745  1.00  0.00     0.188 HD
ATOM      5  C   UNL d   1       5.980   0.449   0.759  0.00  0.00     0.163 A 
ATOM      6  N   UNL d   1       6.149  -0.225  -0.352  0.00  0.00    -0.278 N 
ATOM      7  HN  UNL d   1       7.042  -0.523  -0.747  1.00  0.00     0.189 HD
ENDROOT
BRANCH   1   8
ATOM      8  C   UNL d   1       2.594   0.138  -0.478  0.00  0.00     0.079 A 
ATOM      9  C   UNL d   1       1.913  -0.776  -1.281  0.00  0.00     0.060 A 
ATOM     10  C   UNL d   1       0.587  -0.332  -1.679  0.00  0.00     0.031 A 
ATOM     11  C   UNL d   1      -0.439  -0.823  -2.543  0.00  0.00    -0.045 A 
ATOM     12  C   UNL d   1       0.316   0.883  -1.051  0.00  0.00     0.088 A 
ATOM     13  C   UNL d   1      -1.601  -0.030  -2.679  0.00  0.00     0.032 A 
ATOM     14  C   UNL d   1      -0.416  -2.085  -3.367  0.00  0.00     0.049 C 
ATOM     15  C   UNL d   1      -1.728   1.169  -1.993  0.00  0.00     0.006 A 
ATOM     16  N   UNL d   1      -0.793   1.641  -1.158  0.00  0.00    -0.354 N 
ATOM     17  C   UNL d   1      -2.945   2.022  -2.200  0.00  0.00     0.068 C 
ATOM     18  HN  UNL d   1      -0.912   2.513  -0.641  1.00  0.00     0.166 HD
ATOM     19  S   UNL d   1       1.578   1.445  -0.072  0.00  0.00    -0.065 SA
BRANCH   9  20
ATOM     20  N   UNL d   1       2.496  -1.941  -1.671  0.00  0.00    -0.397 N 
ATOM     21  H   UNL d   1       3.506  -2.043  -1.537  0.00  0.00     0.156 HD
ATOM     22  H   UNL d   1       2.198  -2.434  -2.501  0.00  0.00     0.156 HD
ENDBRANCH   9  20
ENDBRANCH   1   8
BRANCH   2  23
ATOM     23  C   UNL d   1       4.037   1.134   2.216  0.00  0.00     0.171 C 
BRANCH  23  24
ATOM     24  C   UNL d   1       3.830   2.631   2.303  0.00  0.00    -0.040 A 
ATOM     25  C   UNL d   1       4.163   3.539   1.287  0.00  0.00     0.009 A 
ATOM     26  C   UNL d   1       3.913   4.906   1.443  0.00  0.00     0.001 A 
ATOM     27  C   UNL d   1       3.338   5.387   2.616  0.00  0.00     0.000 A 
ATOM     28  C   UNL d   1       3.003   4.501   3.636  0.00  0.00     0.001 A 
ATOM     29  C   UNL d   1       3.245   3.135   3.479  0.00  0.00     0.009 A 
ENDBRANCH  23  24
ENDBRANCH   2  23
BRANCH   5  30
ATOM     30  S   UNL d   1       7.236   1.019   1.807  0.00  0.00    -0.088 SA
BRANCH  30  31
ATOM     31  C   UNL d   1       8.727   0.537   0.879  0.00  0.00     0.121 C 
BRANCH  31  32
ATOM     32  C   UNL d   1       9.992   0.940   1.607  0.00  0.00    -0.049 A 
ATOM     33  C   UNL d   1      10.634   0.038   2.471  0.00  0.00     0.008 A 
ATOM     34  C   UNL d   1      11.800   0.410   3.146  0.00  0.00     0.001 A 
ATOM     35  C   UNL d   1      12.334   1.684   2.971  0.00  0.00     0.000 A 
ATOM     36  C   UNL d   1      11.702   2.591   2.122  0.00  0.00     0.001 A 
ATOM     37  C   UNL d   1      10.536   2.221   1.443  0.00  0.00     0.008 A 
ENDBRANCH  31  32
ENDBRANCH  30  31
ENDBRANCH   5  30
TORSDOF 7
