REMARK  3 active torsions:
REMARK  status: ('A' for Active; 'I' for Inactive)
REMARK    1  A    between atoms: C_7  and  C_1 
REMARK    2  A    between atoms: C_8  and  C_5 
REMARK       I    between atoms: N_10  and  C_7 
REMARK    3  A    between atoms: N_11  and  N_10 
ROOT
ATOM      1  C   UNL d   1      -0.167  -1.112   0.007  0.00  0.00     0.098 A 
ATOM      2  S   UNL d   1       1.371  -0.345  -0.011  0.00  0.00    -0.064 SA
ATOM      3  N   UNL d   1      -0.695   1.164   0.051  0.00  0.00    -0.352 N 
ATOM      4  HN  UNL d   1      -1.293   1.988   0.104  1.00  0.00     0.166 HD
ATOM      5  C   UNL d   1       0.621   1.200  -0.009  0.00  0.00     0.085 A 
ATOM      6  C   UNL d   1      -1.158  -0.144   0.032  0.00  0.00     0.029 A 
ATOM      7  C   UNL d   1      -2.632  -0.350   0.028  0.00  0.00     0.070 C 
ENDROOT
BRANCH   1   8
ATOM      8  C   UNL d   1      -0.304  -2.559   0.002  0.00  0.00     0.274 C 
ATOM      9  O   UNL d   1      -1.383  -3.144   0.086  0.00  0.00    -0.266 OA
ATOM     10  N   UNL d   1       0.893  -3.276  -0.105  0.00  0.00    -0.289 N 
ATOM     11  H   UNL d   1       1.760  -2.770  -0.270  0.00  0.00     0.183 HD
BRANCH  10  12
ATOM     12  N   UNL d   1       0.891  -4.686  -0.179  0.00  0.00    -0.247 NA
ATOM     13  H   UNL d   1      -0.092  -4.983  -0.261  0.00  0.00     0.143 HD
ATOM     14  H   UNL d   1       1.189  -5.051   0.730  0.00  0.00     0.143 HD
ENDBRANCH  10  12
ENDBRANCH   1   8
BRANCH   5  15
ATOM     15  C   UNL d   1       1.407   2.443  -0.053  0.00  0.00    -0.002 A 
ATOM     16  C   UNL d   1       2.663   2.527  -0.675  0.00  0.00     0.014 A 
ATOM     17  C   UNL d   1       3.345   3.745  -0.750  0.00  0.00     0.001 A 
ATOM     18  C   UNL d   1       2.783   4.895  -0.201  0.00  0.00     0.000 A 
ATOM     19  C   UNL d   1       1.543   4.829   0.429  0.00  0.00     0.001 A 
ATOM     20  C   UNL d   1       0.861   3.612   0.500  0.00  0.00     0.014 A 
ENDBRANCH   5  15
TORSDOF 3
