REMARK  7 active torsions:
REMARK  status: ('A' for Active; 'I' for Inactive)
REMARK    1  A    between atoms: C_3  and  C_1 
REMARK    2  A    between atoms: C_7  and  C_2 
REMARK    3  A    between atoms: C_5  and  O_22 
REMARK    4  A    between atoms: C_6  and  C_5 
REMARK    5  A    between atoms: O_24  and  C_7 
REMARK    6  A    between atoms: C_17  and  C_10 
REMARK    7  A    between atoms: O_22  and  N_14 
ROOT
ATOM      1  C   UNL d   1       2.731   1.580   0.013  0.00  0.00     0.088 A 
ATOM      2  O   UNL d   1       3.759   1.609  -0.895  0.00  0.00    -0.308 OA
ATOM      3  C   UNL d   1       3.024   2.455   1.046  0.00  0.00     0.041 A 
ATOM      4  C   UNL d   1       4.685   2.510  -0.446  0.00  0.00     0.093 A 
ATOM      5  C   UNL d   1       4.263   3.055   0.748  0.00  0.00     0.041 A 
ENDROOT
BRANCH   4   6
ATOM      6  C   UNL d   1       5.872   2.773  -1.213  0.00  0.00     0.151 C 
ATOM      7  N   UNL d   1       6.692   3.682  -0.788  0.00  0.00    -0.266 N 
ATOM      8  HN  UNL d   1       6.557   4.229   0.062  1.00  0.00     0.194 HD
BRANCH   7   9
ATOM      9  O   UNL d   1       7.796   3.815  -1.654  0.00  0.00    -0.195 OA
BRANCH   9  10
ATOM     10  C   UNL d   1       8.637   4.809  -1.183  0.00  0.00     0.322 C 
ATOM     11  O   UNL d   1       8.438   5.488  -0.178  0.00  0.00    -0.257 OA
BRANCH  10  12
ATOM     12  C   UNL d   1       9.815   4.957  -2.030  0.00  0.00     0.082 A 
ATOM     13  S   UNL d   1      10.075   4.013  -3.437  0.00  0.00    -0.096 SA
ATOM     14  C   UNL d   1      11.565   4.783  -3.768  0.00  0.00     0.050 A 
ATOM     15  C   UNL d   1      11.869   5.745  -2.832  0.00  0.00     0.009 A 
ATOM     16  C   UNL d   1      10.859   5.846  -1.832  0.00  0.00     0.026 A 
ENDBRANCH  10  12
ENDBRANCH   9  10
ENDBRANCH   7   9
ENDBRANCH   4   6
BRANCH   1  17
ATOM     17  C   UNL d   1       1.457   0.786  -0.095  0.00  0.00     0.021 A 
ATOM     18  C   UNL d   1       1.148  -0.122  -1.098  0.00  0.00     0.093 A 
ATOM     19  S   UNL d   1      -0.458  -0.736  -0.895  0.00  0.00    -0.095 SA
ATOM     20  C   UNL d   1      -0.728   0.187   0.505  0.00  0.00     0.051 A 
ATOM     21  C   UNL d   1       0.374   0.937   0.838  0.00  0.00     0.023 A 
BRANCH  18  22
ATOM     22  C   UNL d   1       1.952  -0.630  -2.197  0.00  0.00     0.300 C 
ATOM     23  O   UNL d   1       3.169  -0.782  -2.199  0.00  0.00    -0.259 OA
BRANCH  22  24
ATOM     24  O   UNL d   1       1.152  -0.941  -3.263  0.00  0.00    -0.322 OA
ATOM     25  C   UNL d   1       1.831  -1.492  -4.390  0.00  0.00     0.213 C 
ENDBRANCH  22  24
ENDBRANCH  18  22
ENDBRANCH   1  17
TORSDOF 7
