REMARK  6 active torsions:
REMARK  status: ('A' for Active; 'I' for Inactive)
REMARK    1  A    between atoms: C_9  and  N_5 
REMARK    2  A    between atoms: C_12  and  C_6 
REMARK    3  A    between atoms: C_13  and  C_8 
REMARK    4  A    between atoms: C_10  and  C_9 
REMARK    5  A    between atoms: O_15  and  C_10 
REMARK    6  A    between atoms: C_20  and  O_15 
ROOT
ATOM      1  N   UNL d   1      -0.612   1.327   0.074  0.00  0.00    -0.291 N 
ATOM      2  HN  UNL d   1      -1.110   2.215   0.135  1.00  0.00     0.187 HD
ATOM      3  N   UNL d   1       0.696  -1.159  -0.061  0.00  0.00    -0.304 N 
ATOM      4  HN  UNL d   1       1.172  -2.061  -0.098  1.00  0.00     0.171 HD
ATOM      5  N   UNL d   1      -1.283   0.135   0.083  0.00  0.00    -0.233 N 
ATOM      6  C   UNL d   1       0.683   1.284  -0.015  0.00  0.00     0.086 C 
ATOM      7  C   UNL d   1      -0.668  -1.107  -0.082  0.00  0.00     0.342 C 
ATOM      8  C   UNL d   1       1.388  -0.066   0.007  0.00  0.00     0.075 C 
ATOM      9  O   UNL d   1      -1.338  -2.133  -0.214  0.00  0.00    -0.245 OA
ENDROOT
BRANCH   5  10
ATOM     10  C   UNL d   1      -2.739   0.209   0.089  0.00  0.00     0.265 C 
BRANCH  10  11
ATOM     11  C   UNL d   1      -3.373   0.189  -1.293  0.00  0.00     0.278 C 
ATOM     12  O   UNL d   1      -4.588   0.233  -1.464  0.00  0.00    -0.263 OA
BRANCH  11  13
ATOM     13  O   UNL d   1      -2.457   0.072  -2.294  0.00  0.00    -0.321 OA
BRANCH  13  14
ATOM     14  C   UNL d   1      -2.975  -0.298  -3.578  0.00  0.00     0.174 C 
ATOM     15  C   UNL d   1      -3.012  -1.813  -3.656  0.00  0.00     0.034 C 
ENDBRANCH  13  14
ENDBRANCH  11  13
ENDBRANCH  10  11
ENDBRANCH   5  10
BRANCH   6  16
ATOM     16  C   UNL d   1       1.392   2.586  -0.133  0.00  0.00    -0.006 A 
ATOM     17  C   UNL d   1       0.914   3.663   0.628  0.00  0.00     0.014 A 
ATOM     18  C   UNL d   1       1.576   4.890   0.604  0.00  0.00     0.001 A 
ATOM     19  C   UNL d   1       2.718   5.047  -0.178  0.00  0.00     0.000 A 
ATOM     20  C   UNL d   1       3.172   3.993  -0.971  0.00  0.00     0.001 A 
ATOM     21  C   UNL d   1       2.493   2.772  -0.974  0.00  0.00     0.014 A 
ENDBRANCH   6  16
BRANCH   8  22
ATOM     22  C   UNL d   1       2.869  -0.199   0.114  0.00  0.00    -0.007 A 
ATOM     23  C   UNL d   1       3.501  -1.201  -0.636  0.00  0.00     0.014 A 
ATOM     24  C   UNL d   1       4.893  -1.303  -0.643  0.00  0.00     0.001 A 
ATOM     25  C   UNL d   1       5.660  -0.405   0.097  0.00  0.00     0.000 A 
ATOM     26  C   UNL d   1       5.035   0.557   0.889  0.00  0.00     0.001 A 
ATOM     27  C   UNL d   1       3.641   0.640   0.925  0.00  0.00     0.014 A 
ENDBRANCH   8  22
TORSDOF 6
