REMARK  9 active torsions:
REMARK  status: ('A' for Active; 'I' for Inactive)
REMARK    1  A    between atoms: N_8  and  C_1 
REMARK       I    between atoms: C_10  and  N_8 
REMARK    2  A    between atoms: C_19  and  C_10 
REMARK    3  A    between atoms: O_18  and  C_16 
REMARK    4  A    between atoms: C_21  and  C_19 
REMARK    5  A    between atoms: C_25  and  C_21 
REMARK    6  A    between atoms: C_22  and  C_23 
REMARK    7  A    between atoms: C_23  and  C_24 
REMARK    8  A    between atoms: C_24  and  C_26 
REMARK    9  A    between atoms: C_26  and  C_25 
ROOT
ATOM      1  C   UNL d   1      -3.223   0.906  -0.071  0.00  0.00     0.152 A 
ATOM      2  C   UNL d   1      -1.627  -0.551   0.290  0.00  0.00     0.058 A 
ATOM      3  N   UNL d   1      -2.988  -0.310   0.366  0.00  0.00    -0.335 N 
ATOM      4  HN  UNL d   1      -3.691  -0.967   0.706  1.00  0.00     0.168 HD
ATOM      5  C   UNL d   1      -0.881   0.471  -0.266  0.00  0.00     0.014 A 
ATOM      6  S   UNL d   1      -1.865   1.809  -0.604  0.00  0.00    -0.056 SA
ATOM      7  C   UNL d   1      -0.931  -1.761   0.727  0.00  0.00    -0.002 A 
ATOM      8  C   UNL d   1       0.483  -1.732   0.811  0.00  0.00    -0.043 A 
ATOM      9  C   UNL d   1      -1.608  -2.941   1.042  0.00  0.00     0.017 A 
ATOM     10  C   UNL d   1       0.581   0.410  -0.532  0.00  0.00     0.053 C 
ATOM     11  C   UNL d   1       1.181  -2.880   1.204  0.00  0.00     0.044 A 
ATOM     12  C   UNL d   1       1.247  -0.446   0.551  0.00  0.00     0.045 C 
ATOM     13  C   UNL d   1       0.504  -4.066   1.492  0.00  0.00     0.068 A 
ATOM     14  C   UNL d   1      -0.891  -4.092   1.418  0.00  0.00     0.037 A 
ENDROOT
BRANCH   1  15
ATOM     15  N   UNL d   1      -4.385   1.615  -0.195  0.00  0.00    -0.307 N 
ATOM     16  C   UNL d   1      -5.636   1.070  -0.056  0.00  0.00     0.223 C 
ATOM     17  O   UNL d   1      -5.900  -0.095   0.233  0.00  0.00    -0.273 OA
ATOM     18  H   UNL d   1      -4.275   2.572  -0.490  0.00  0.00     0.171 HD
BRANCH  16  19
ATOM     19  C   UNL d   1      -6.755   2.081  -0.283  0.00  0.00     0.103 C 
BRANCH  19  20
ATOM     20  C   UNL d   1      -6.699   2.733  -1.667  0.00  0.00     0.009 C 
BRANCH  20  21
ATOM     21  C   UNL d   1      -7.880   3.675  -1.920  0.00  0.00     0.000 C 
BRANCH  21  22
ATOM     22  C   UNL d   1      -7.758   4.332  -3.299  0.00  0.00     0.000 C 
BRANCH  22  23
ATOM     23  C   UNL d   1      -8.914   5.291  -3.585  0.00  0.00     0.000 C 
BRANCH  23  24
ATOM     24  C   UNL d   1      -8.769   5.936  -4.967  0.00  0.00    -0.000 C 
BRANCH  24  25
ATOM     25  C   UNL d   1      -9.923   6.896  -5.259  0.00  0.00    -0.005 C 
ATOM     26  C   UNL d   1      -9.784   7.538  -6.630  0.00  0.00     0.005 C 
ENDBRANCH  24  25
ENDBRANCH  23  24
ENDBRANCH  22  23
ENDBRANCH  21  22
ENDBRANCH  20  21
ENDBRANCH  19  20
ENDBRANCH  16  19
ENDBRANCH   1  15
BRANCH  13  27
ATOM     27  O   UNL d   1       1.329  -5.102   1.831  0.00  0.00    -0.356 OA
ATOM     28  C   UNL d   1       0.728  -6.362   2.087  0.00  0.00     0.210 C 
ENDBRANCH  13  27
TORSDOF 9
