REMARK  6 active torsions:
REMARK  status: ('A' for Active; 'I' for Inactive)
REMARK       I    between atoms: C_2  and  N_1 
REMARK    1  A    between atoms: C_3  and  C_2 
REMARK    2  A    between atoms: C_6  and  C_4 
REMARK    3  A    between atoms: C_8  and  C_6 
REMARK       I    between atoms: N_14  and  C_8 
REMARK    4  A    between atoms: C_9  and  C_13 
REMARK    5  A    between atoms: O_26  and  C_9 
REMARK    6  A    between atoms: C_18  and  N_14 
ROOT
ATOM      1  N   UNL d   1      -1.513  -1.757   0.060  0.00  0.00    -0.332 N 
ATOM      2  C   UNL d   1      -2.341  -2.609   0.800  0.00  0.00     0.257 C 
ATOM      3  C   UNL d   1      -0.048  -1.683   0.328  0.00  0.00     0.188 C 
ATOM      4  C   UNL d   1       0.255  -0.486   1.267  0.00  0.00     0.241 C 
ATOM      5  N   UNL d   1      -0.507   0.650   1.084  0.00  0.00    -0.358 N 
ATOM      6  O   UNL d   1      -1.917  -3.440   1.602  0.00  0.00    -0.267 OA
ATOM      7  O   UNL d   1       1.229  -0.429   2.017  0.00  0.00    -0.271 OA
ATOM      8  C   UNL d   1      -1.999  -0.501  -0.534  0.00  0.00     0.147 C 
ATOM      9  C   UNL d   1      -1.827   0.630   0.482  0.00  0.00     0.142 C 
ATOM     10  H   UNL d   1      -0.263   1.408   1.710  0.00  0.00     0.162 HD
ENDROOT
BRANCH   3  11
ATOM     11  C   UNL d   1       0.709  -2.934   0.783  0.00  0.00     0.138 C 
BRANCH  11  12
ATOM     12  C   UNL d   1       0.817  -3.943  -0.337  0.00  0.00     0.224 C 
ATOM     13  N   UNL d   1       0.419  -5.213   0.036  0.00  0.00    -0.327 N 
ATOM     14  H   UNL d   1      -0.052  -5.284   0.932  0.00  0.00     0.169 HD
ATOM     15  O   UNL d   1       1.254  -3.613  -1.436  0.00  0.00    -0.273 OA
BRANCH  13  16
ATOM     16  C   UNL d   1       0.427  -6.379  -0.760  0.00  0.00     0.035 A 
ATOM     17  C   UNL d   1       1.031  -6.467  -2.019  0.00  0.00     0.047 A 
ATOM     18  C   UNL d   1       0.929  -7.645  -2.777  0.00  0.00     0.041 A 
ATOM     19  C   UNL d   1       0.250  -8.752  -2.253  0.00  0.00     0.018 A 
ATOM     20  C   UNL d   1      -0.325  -8.681  -0.985  0.00  0.00     0.003 A 
ATOM     21  C   UNL d   1      -0.232  -7.502  -0.243  0.00  0.00     0.029 A 
BRANCH  18  22
ATOM     22  C   UNL d   1       1.493  -7.767  -4.151  0.00  0.00     0.293 C 
ATOM     23  O   UNL d   1       1.585  -8.831  -4.744  0.00  0.00    -0.259 OA
BRANCH  22  24
ATOM     24  O   UNL d   1       1.809  -6.549  -4.645  0.00  0.00    -0.323 OA
ATOM     25  C   UNL d   1       2.212  -6.538  -6.016  0.00  0.00     0.213 C 
ENDBRANCH  22  24
ENDBRANCH  18  22
ENDBRANCH  13  16
ENDBRANCH  11  12
ENDBRANCH   3  11
BRANCH   2  26
ATOM     26  C   UNL d   1      -3.818  -2.522   0.685  0.00  0.00     0.070 A 
ATOM     27  C   UNL d   1      -4.476  -2.526  -0.545  0.00  0.00     0.135 A 
ATOM     28  C   UNL d   1      -5.862  -2.405  -0.618  0.00  0.00     0.085 A 
ATOM     29  F   UNL d   1      -3.786  -2.621  -1.690  0.00  0.00    -0.205 F 
ATOM     30  C   UNL d   1      -6.598  -2.333   0.558  0.00  0.00     0.119 A 
ATOM     31  C   UNL d   1      -5.973  -2.392   1.800  0.00  0.00     0.043 A 
ATOM     32  F   UNL d   1      -7.928  -2.209   0.494  0.00  0.00    -0.206 F 
ATOM     33  C   UNL d   1      -4.579  -2.489   1.868  0.00  0.00     0.023 A 
ENDBRANCH   2  26
TORSDOF 6
