REMARK  2 active torsions:
REMARK  status: ('A' for Active; 'I' for Inactive)
REMARK    1  A    between atoms: C_12  and  N_4 
REMARK    2  A    between atoms: C_20  and  C_14 
ROOT
ATOM      1  C   UNL d   1       0.729  -0.829  -0.172  0.00  0.00     0.173 A 
ATOM      2  C   UNL d   1       0.456   0.525  -0.238  0.00  0.00     0.090 A 
ATOM      3  C   UNL d   1       1.928  -1.569   0.139  0.00  0.00     0.285 C 
ATOM      4  N   UNL d   1       2.820  -0.787   0.870  0.00  0.00    -0.303 N 
ATOM      5  C   UNL d   1      -0.974   0.645  -0.312  0.00  0.00     0.051 A 
ATOM      6  C   UNL d   1      -1.455  -0.665  -0.245  0.00  0.00     0.162 A 
ATOM      7  O   UNL d   1      -0.428  -1.545  -0.250  0.00  0.00    -0.285 OA
ATOM      8  N   UNL d   1       1.354   1.576  -0.160  0.00  0.00    -0.322 N 
ATOM      9  N   UNL d   1      -2.728  -1.070  -0.132  0.00  0.00    -0.335 N 
ATOM     10  HN  UNL d   1      -2.994  -2.055  -0.115  1.00  0.00     0.168 HD
ATOM     11  C   UNL d   1      -1.938   1.677  -0.360  0.00  0.00    -0.043 A 
ATOM     12  C   UNL d   1       2.709   1.562   0.008  0.00  0.00     0.240 C 
ATOM     13  C   UNL d   1      -3.628  -0.072  -0.044  0.00  0.00     0.044 A 
ATOM     14  C   UNL d   1       3.501   0.265   0.131  0.00  0.00     0.235 C 
ATOM     15  C   UNL d   1      -3.280   1.274  -0.198  0.00  0.00     0.038 A 
ATOM     16  O   UNL d   1       2.067  -2.769  -0.074  0.00  0.00    -0.265 OA
ATOM     17  O   UNL d   1       3.298   2.646  -0.070  0.00  0.00    -0.271 OA
ATOM     18  C   UNL d   1      -1.666   3.150  -0.482  0.00  0.00     0.049 C 
ATOM     19  H   UNL d   1       0.987   2.514  -0.226  0.00  0.00     0.169 HD
ENDROOT
BRANCH   4  20
ATOM     20  C   UNL d   1       3.546  -1.385   1.928  0.00  0.00     0.044 A 
ATOM     21  C   UNL d   1       3.278  -0.963   3.245  0.00  0.00    -0.035 A 
ATOM     22  C   UNL d   1       2.282   0.116   3.573  0.00  0.00     0.050 C 
ATOM     23  C   UNL d   1       3.972  -1.570   4.301  0.00  0.00     0.009 A 
ATOM     24  C   UNL d   1       4.890  -2.591   4.057  0.00  0.00     0.001 A 
ATOM     25  C   UNL d   1       5.135  -3.014   2.752  0.00  0.00     0.002 A 
ATOM     26  C   UNL d   1       4.466  -2.411   1.686  0.00  0.00     0.030 A 
ENDBRANCH   4  20
BRANCH  13  27
ATOM     27  C   UNL d   1      -5.011  -0.495   0.279  0.00  0.00    -0.009 A 
ATOM     28  C   UNL d   1      -5.876   0.313   1.045  0.00  0.00     0.013 A 
ATOM     29  C   UNL d   1      -7.174  -0.100   1.360  0.00  0.00     0.001 A 
ATOM     30  C   UNL d   1      -7.636  -1.337   0.924  0.00  0.00     0.000 A 
ATOM     31  C   UNL d   1      -6.798  -2.164   0.183  0.00  0.00     0.001 A 
ATOM     32  C   UNL d   1      -5.500  -1.748  -0.132  0.00  0.00     0.013 A 
ENDBRANCH  13  27
TORSDOF 2
