REMARK  3 active torsions:
REMARK  status: ('A' for Active; 'I' for Inactive)
REMARK    1  A    between atoms: C_6  and  C_1 
REMARK    2  A    between atoms: O_13  and  C_6 
REMARK    3  A    between atoms: C_16  and  O_13 
ROOT
ATOM      1  C   UNL d   1       2.617   1.427   0.013  0.00  0.00     0.115 A 
ATOM      2  C   UNL d   1       3.046   0.008  -0.011  0.00  0.00     0.304 A 
ATOM      3  C   UNL d   1       1.312   1.759   0.022  0.00  0.00     0.038 A 
ATOM      4  O   UNL d   1       2.038  -0.951   0.025  0.00  0.00    -0.274 OA
ATOM      5  C   UNL d   1       0.284   0.728   0.028  0.00  0.00     0.001 A 
ATOM      6  C   UNL d   1       0.680  -0.607   0.024  0.00  0.00     0.089 A 
ATOM      7  O   UNL d   1       4.215  -0.352  -0.089  0.00  0.00    -0.259 OA
ATOM      8  C   UNL d   1      -1.083   1.016   0.024  0.00  0.00     0.038 A 
ATOM      9  C   UNL d   1      -0.234  -1.655   0.010  0.00  0.00     0.040 A 
ATOM     10  C   UNL d   1      -2.013  -0.032   0.014  0.00  0.00     0.035 A 
ATOM     11  C   UNL d   1      -1.594  -1.363   0.005  0.00  0.00     0.026 A 
ATOM     12 CL   UNL d   1      -3.697   0.322   0.010  0.00  0.00    -0.084 Cl
ENDROOT
BRANCH   1  13
ATOM     13  C   UNL d   1       3.593   2.541  -0.075  0.00  0.00     0.299 C 
ATOM     14  O   UNL d   1       3.312   3.662  -0.476  0.00  0.00    -0.259 OA
BRANCH  13  15
ATOM     15  O   UNL d   1       4.830   2.126   0.281  0.00  0.00    -0.318 OA
BRANCH  15  16
ATOM     16  C   UNL d   1       5.930   2.846  -0.292  0.00  0.00     0.174 C 
ATOM     17  C   UNL d   1       6.204   2.279  -1.675  0.00  0.00     0.034 C 
ENDBRANCH  15  16
ENDBRANCH  13  15
ENDBRANCH   1  13
TORSDOF 3
