REMARK  4 active torsions:
REMARK  status: ('A' for Active; 'I' for Inactive)
REMARK    1  A    between atoms: C_6  and  C_1 
REMARK    2  A    between atoms: C_8  and  N_2 
REMARK    3  A    between atoms: C_9  and  C_4 
REMARK       I    between atoms: N_7  and  C_6 
REMARK    4  A    between atoms: C_11  and  N_7 
ROOT
ATOM      1  C   UNL d   1      -0.225   1.070  -0.001  0.00  0.00     0.057 C 
ATOM      2  N   UNL d   1       0.926  -0.886   0.197  0.00  0.00    -0.314 N 
ATOM      3  C   UNL d   1       1.026   0.504   0.250  0.00  0.00     0.029 C 
ATOM      4  C   UNL d   1      -0.435  -1.225   0.080  0.00  0.00     0.051 C 
ATOM      5  C   UNL d   1      -1.130  -0.027  -0.061  0.00  0.00     0.050 C 
ATOM      6  C   UNL d   1       2.308   1.211   0.581  0.00  0.00     0.070 C 
ENDROOT
BRANCH   1   7
ATOM      7  C   UNL d   1      -0.466   2.532  -0.124  0.00  0.00     0.258 C 
ATOM      8  N   UNL d   1      -1.792   2.899  -0.308  0.00  0.00    -0.323 N 
ATOM      9  H   UNL d   1      -2.471   2.159  -0.362  0.00  0.00     0.169 HD
ATOM     10  O   UNL d   1       0.464   3.318  -0.063  0.00  0.00    -0.267 OA
BRANCH   8  11
ATOM     11  C   UNL d   1      -2.305   4.222  -0.317  0.00  0.00     0.035 A 
ATOM     12  C   UNL d   1      -1.518   5.374  -0.217  0.00  0.00     0.031 A 
ATOM     13  C   UNL d   1      -2.104   6.641  -0.105  0.00  0.00     0.026 A 
ATOM     14  C   UNL d   1      -3.488   6.766  -0.107  0.00  0.00     0.034 A 
ATOM     15  C   UNL d   1      -4.288   5.639  -0.268  0.00  0.00     0.026 A 
ATOM     16 CL   UNL d   1      -4.210   8.312   0.111  0.00  0.00    -0.084 Cl
ATOM     17  C   UNL d   1      -3.699   4.373  -0.381  0.00  0.00     0.031 A 
ENDBRANCH   8  11
ENDBRANCH   1   7
BRANCH   2  18
ATOM     18  C   UNL d   1       2.044  -1.785   0.159  0.00  0.00     0.039 A 
ATOM     19  C   UNL d   1       2.031  -2.999   0.856  0.00  0.00     0.030 A 
ATOM     20  C   UNL d   1       2.984  -3.981   0.566  0.00  0.00     0.002 A 
ATOM     21  C   UNL d   1       3.993  -3.727  -0.361  0.00  0.00     0.000 A 
ATOM     22  C   UNL d   1       4.075  -2.478  -0.974  0.00  0.00     0.002 A 
ATOM     23  C   UNL d   1       3.102  -1.510  -0.721  0.00  0.00     0.030 A 
ENDBRANCH   2  18
BRANCH   4  24
ATOM     24  C   UNL d   1      -1.006  -2.594   0.059  0.00  0.00    -0.009 C 
ATOM     25  C   UNL d   1      -0.402  -3.648  -0.642  0.00  0.00     0.014 C 
ATOM     26  C   UNL d   1      -0.784  -4.974  -0.421  0.00  0.00     0.001 C 
ATOM     27  C   UNL d   1      -1.867  -5.256   0.404  0.00  0.00     0.000 C 
ATOM     28  C   UNL d   1      -2.582  -4.209   0.979  0.00  0.00     0.001 C 
ATOM     29  C   UNL d   1      -2.149  -2.887   0.816  0.00  0.00     0.014 C 
ENDBRANCH   4  24
TORSDOF 4
