REMARK  3 active torsions:
REMARK  status: ('A' for Active; 'I' for Inactive)
REMARK    1  A    between atoms: C_8  and  C_3 
REMARK    2  A    between atoms: C_9  and  C_4 
REMARK    3  A    between atoms: O_10  and  C_9 
ROOT
ATOM      1  N   UNL d   1       0.934   0.102   0.744  0.00  0.00    -0.321 N 
ATOM      2  HN  UNL d   1       1.563   0.152   1.545  1.00  0.00     0.169 HD
ATOM      3  C   UNL d   1       0.640  -0.934  -0.015  0.00  0.00     0.182 A 
ATOM      4  C   UNL d   1       0.172   1.099   0.177  0.00  0.00     0.127 A 
ATOM      5  N   UNL d   1      -0.571   0.720  -0.870  0.00  0.00    -0.245 N 
ATOM      6  HN  UNL d   1      -1.209   1.283  -1.432  1.00  0.00     0.196 HD
ATOM      7  O   UNL d   1      -0.259  -0.634  -1.004  0.00  0.00    -0.217 OA
ENDROOT
BRANCH   3   8
ATOM      8  C   UNL d   1       1.118  -2.311   0.052  0.00  0.00     0.017 A 
ATOM      9  C   UNL d   1       1.970  -2.700   1.097  0.00  0.00     0.016 A 
ATOM     10  C   UNL d   1       2.445  -4.012   1.184  0.00  0.00     0.001 A 
ATOM     11  C   UNL d   1       2.075  -4.952   0.225  0.00  0.00     0.000 A 
ATOM     12  C   UNL d   1       1.230  -4.583  -0.819  0.00  0.00     0.001 A 
ATOM     13  C   UNL d   1       0.754  -3.271  -0.905  0.00  0.00     0.016 A 
ENDBRANCH   3   8
BRANCH   4  14
ATOM     14  C   UNL d   1       0.187   2.490   0.705  0.00  0.00     0.242 C 
BRANCH  14  15
ATOM     15  O   UNL d   1       1.427   2.821   1.343  0.00  0.00    -0.393 OA
ATOM     16  H   UNL d   1       1.790   1.974   1.666  0.00  0.00     0.209 HD
ENDBRANCH  14  15
ENDBRANCH   4  14
TORSDOF 3
