REMARK  8 active torsions:
REMARK  status: ('A' for Active; 'I' for Inactive)
REMARK    1  A    between atoms: N_2  and  C_1 
REMARK    2  A    between atoms: C_4  and  C_6 
REMARK    3  A    between atoms: O_21  and  C_5 
REMARK       I    between atoms: C_6  and  N_11 
REMARK    4  A    between atoms: S_13  and  C_8 
REMARK    5  A    between atoms: C_9  and  C_20 
REMARK       I    between atoms: N_14  and  C_9 
REMARK    6  A    between atoms: O_24  and  C_10 
REMARK    7  A    between atoms: N_11  and  N_14 
REMARK    8  A    between atoms: C_20  and  S_13 
ROOT
ATOM      1  C   UNL d   1      -5.441  -0.658  -0.451  0.00  0.00     0.245 C 
ATOM      2  N   UNL d   1      -5.904   0.536  -0.959  0.00  0.00    -0.267 N 
ATOM      3  O   UNL d   1      -6.224  -1.563  -0.141  0.00  0.00    -0.271 OA
ATOM      4  H   UNL d   1      -5.301   1.279  -1.311  0.00  0.00     0.190 HD
ENDROOT
BRANCH   1   5
ATOM      5  C   UNL d   1      -3.932  -0.872  -0.375  0.00  0.00     0.184 C 
BRANCH   5   6
ATOM      6  S   UNL d   1      -2.985   0.628   0.054  0.00  0.00    -0.118 SA
BRANCH   6   7
ATOM      7  C   UNL d   1      -1.345  -0.080   0.340  0.00  0.00     0.037 A 
ATOM      8  C   UNL d   1      -0.787   0.090   1.624  0.00  0.00     0.060 A 
ATOM      9  C   UNL d   1       0.491  -0.393   1.958  0.00  0.00     0.102 A 
ATOM     10  C   UNL d   1       1.197  -1.072   0.965  0.00  0.00     0.138 A 
ATOM     11  C   UNL d   1       0.678  -1.232  -0.333  0.00  0.00     0.077 A 
ATOM     12  C   UNL d   1      -0.593  -0.736  -0.654  0.00  0.00     0.087 A 
BRANCH   9  13
ATOM     13  O   UNL d   1       0.825  -0.159   3.261  0.00  0.00    -0.353 OA
ATOM     14  C   UNL d   1       2.187   0.066   3.606  0.00  0.00     0.210 C 
ENDBRANCH   9  13
BRANCH  10  15
ATOM     15  N   UNL d   1       2.467  -1.722   1.222  0.00  0.00    -0.113 N 
ATOM     16  O   UNL d   1       3.427  -1.375   0.524  0.00  0.00    -0.532 OA
ATOM     17  O   UNL d   1       2.491  -2.610   2.087  0.00  0.00    -0.532 OA
ENDBRANCH  10  15
BRANCH  12  18
ATOM     18  O   UNL d   1      -1.163  -0.849  -1.894  0.00  0.00    -0.355 OA
ATOM     19  C   UNL d   1      -0.419  -1.507  -2.915  0.00  0.00     0.210 C 
ENDBRANCH  12  18
ENDBRANCH   6   7
ENDBRANCH   5   6
ENDBRANCH   1   5
BRANCH   2  20
ATOM     20  N   UNL d   1      -7.297   0.710  -1.092  0.00  0.00    -0.263 N 
ATOM     21  C   UNL d   1      -7.787   1.623  -2.007  0.00  0.00     0.276 C 
ATOM     22  O   UNL d   1      -7.046   2.351  -2.665  0.00  0.00    -0.266 OA
ATOM     23  H   UNL d   1      -7.884   0.044  -0.589  0.00  0.00     0.190 HD
BRANCH  21  24
ATOM     24  C   UNL d   1      -9.264   1.696  -2.162  0.00  0.00     0.110 A 
ATOM     25  C   UNL d   1     -10.134   1.375  -1.120  0.00  0.00     0.135 A 
ATOM     26  F   UNL d   1      -9.665   0.956   0.065  0.00  0.00    -0.205 F 
ATOM     27  C   UNL d   1     -11.522   1.486  -1.267  0.00  0.00     0.043 A 
ATOM     28  C   UNL d   1     -12.063   1.922  -2.474  0.00  0.00     0.006 A 
ATOM     29  C   UNL d   1     -11.208   2.242  -3.527  0.00  0.00     0.043 A 
ATOM     30  C   UNL d   1      -9.822   2.132  -3.366  0.00  0.00     0.135 A 
ATOM     31  F   UNL d   1      -9.052   2.433  -4.421  0.00  0.00    -0.205 F 
ENDBRANCH  21  24
ENDBRANCH   2  20
TORSDOF 8
