REMARK  2 active torsions:
REMARK  status: ('A' for Active; 'I' for Inactive)
REMARK    1  A    between atoms: N_8  and  C_1 
REMARK       I    between atoms: C_10  and  N_8 
REMARK    2  A    between atoms: O_18  and  C_16 
ROOT
ATOM      1  C   UNL d   1      -3.182   0.837  -0.115  0.00  0.00     0.152 A 
ATOM      2  C   UNL d   1      -1.073   0.232   0.036  0.00  0.00     0.058 A 
ATOM      3  N   UNL d   1      -1.944   1.295  -0.132  0.00  0.00    -0.335 N 
ATOM      4  HN  UNL d   1      -1.673   2.272  -0.249  1.00  0.00     0.168 HD
ATOM      5  C   UNL d   1      -1.677  -0.991   0.239  0.00  0.00     0.014 A 
ATOM      6  S   UNL d   1      -3.360  -0.833   0.206  0.00  0.00    -0.056 SA
ATOM      7  C   UNL d   1       0.385   0.288  -0.002  0.00  0.00    -0.002 A 
ATOM      8  C   UNL d   1       1.103  -0.926  -0.132  0.00  0.00    -0.043 A 
ATOM      9  C   UNL d   1       1.091   1.490   0.107  0.00  0.00     0.017 A 
ATOM     10  C   UNL d   1      -0.961  -2.276   0.456  0.00  0.00     0.053 C 
ATOM     11  C   UNL d   1       2.501  -0.907  -0.159  0.00  0.00     0.044 A 
ATOM     12  C   UNL d   1       0.366  -2.240  -0.315  0.00  0.00     0.045 C 
ATOM     13  C   UNL d   1       3.204   0.294  -0.028  0.00  0.00     0.068 A 
ATOM     14  C   UNL d   1       2.495   1.491   0.098  0.00  0.00     0.037 A 
ENDROOT
BRANCH   1  15
ATOM     15  N   UNL d   1      -4.268   1.659  -0.296  0.00  0.00    -0.307 N 
ATOM     16  C   UNL d   1      -5.575   1.254  -0.468  0.00  0.00     0.219 C 
ATOM     17  O   UNL d   1      -5.996   0.106  -0.558  0.00  0.00    -0.274 OA
ATOM     18  C   UNL d   1      -6.547   2.404  -0.565  0.00  0.00     0.117 C 
ATOM     19  H   UNL d   1      -4.021   2.632  -0.400  0.00  0.00     0.171 HD
ENDBRANCH   1  15
BRANCH  13  20
ATOM     20  O   UNL d   1       4.562   0.146  -0.049  0.00  0.00    -0.356 OA
ATOM     21  C   UNL d   1       5.347   1.305   0.195  0.00  0.00     0.210 C 
ENDBRANCH  13  20
TORSDOF 2
