REMARK  4 active torsions:
REMARK  status: ('A' for Active; 'I' for Inactive)
REMARK    1  A    between atoms: C_7  and  C_2 
REMARK    2  A    between atoms: O_15  and  C_8 
REMARK    3  A    between atoms: O_16  and  C_9 
REMARK    4  A    between atoms: O_17  and  C_10 
ROOT
ATOM      1  C   UNL d   1      -3.064  -1.275   0.169  0.00  0.00     0.015 A 
ATOM      2  C   UNL d   1      -5.369  -2.889   0.446  0.00  0.00     0.135 A 
ATOM      3  C   UNL d   1      -4.372  -2.887   1.448  0.00  0.00     0.105 A 
ATOM      4  C   UNL d   1      -5.219  -2.020  -0.659  0.00  0.00     0.105 A 
ATOM      5  C   UNL d   1      -3.253  -2.052   1.311  0.00  0.00     0.055 A 
ATOM      6  C   UNL d   1      -4.061  -1.242  -0.803  0.00  0.00     0.055 A 
ENDROOT
BRANCH   1   7
ATOM      7  C   UNL d   1      -1.882  -0.402   0.026  0.00  0.00     0.134 A 
ATOM      8  N   UNL d   1      -0.623  -0.738   0.455  0.00  0.00    -0.311 N 
ATOM      9  C   UNL d   1       0.145   0.376   0.193  0.00  0.00     0.194 A 
ATOM     10  C   UNL d   1      -0.102  -1.994   0.971  0.00  0.00     0.160 C 
ATOM     11  N   UNL d   1      -0.694   1.284  -0.422  0.00  0.00    -0.274 N 
ATOM     12  S   UNL d   1       1.747   0.660   0.511  0.00  0.00    -0.039 SA
ATOM     13  N   UNL d   1      -1.957   0.782  -0.518  0.00  0.00    -0.282 N 
ATOM     14  H   UNL d   1      -0.453   2.213  -0.749  0.00  0.00     0.189 HD
ATOM     15  HN  UNL d   1      -2.778   1.231  -0.924  1.00  0.00     0.188 HD
ENDBRANCH   1   7
BRANCH   3  16
ATOM     16  O   UNL d   1      -4.540  -3.693   2.544  0.00  0.00    -0.353 OA
ATOM     17  C   UNL d   1      -3.466  -3.819   3.469  0.00  0.00     0.210 C 
ENDBRANCH   3  16
BRANCH   4  18
ATOM     18  O   UNL d   1      -6.099  -1.868  -1.707  0.00  0.00    -0.353 OA
ATOM     19  C   UNL d   1      -7.485  -1.950  -1.392  0.00  0.00     0.210 C 
ENDBRANCH   4  18
BRANCH   2  20
ATOM     20  O   UNL d   1      -6.490  -3.676   0.417  0.00  0.00    -0.351 OA
ATOM     21  C   UNL d   1      -6.727  -4.639   1.427  0.00  0.00     0.210 C 
ENDBRANCH   2  20
TORSDOF 4
