REMARK  3 active torsions:
REMARK  status: ('A' for Active; 'I' for Inactive)
REMARK    1  A    between atoms: S_8  and  C_2 
REMARK    2  A    between atoms: C_11  and  S_8 
REMARK    3  A    between atoms: C_13  and  C_11 
ROOT
ATOM      1  C   UNL d   1       0.867   0.263   0.023  0.00  0.00     0.084 A 
ATOM      2  C   UNL d   1       0.070   1.419   0.046  0.00  0.00     0.091 A 
ATOM      3  N   UNL d   1      -1.287   1.371   0.044  0.00  0.00    -0.353 N 
ATOM      4  HN  UNL d   1      -1.843   2.226   0.060  1.00  0.00     0.166 HD
ATOM      5  C   UNL d   1       0.237  -0.993  -0.001  0.00  0.00    -0.037 A 
ATOM      6  C   UNL d   1       2.297   0.358   0.024  0.00  0.00     0.103 C 
ATOM      7  N   UNL d   1       3.459   0.386   0.025  0.00  0.00    -0.191 NA
ATOM      8  C   UNL d   1      -1.884   0.151   0.021  0.00  0.00     0.006 A 
ATOM      9  C   UNL d   1      -1.161  -1.036  -0.002  0.00  0.00     0.033 A 
ATOM     10  C   UNL d   1       0.985  -2.300  -0.019  0.00  0.00     0.050 C 
ATOM     11  C   UNL d   1      -3.385   0.116   0.017  0.00  0.00     0.068 C 
ENDROOT
BRANCH   2  12
ATOM     12  S   UNL d   1       0.840   3.041   0.081  0.00  0.00    -0.106 SA
BRANCH  12  13
ATOM     13  C   UNL d   1      -0.588   4.174   0.114  0.00  0.00     0.119 C 
BRANCH  13  14
ATOM     14  C   UNL d   1      -0.095   5.608   0.162  0.00  0.00    -0.048 A 
ATOM     15  C   UNL d   1       0.208   6.299  -1.024  0.00  0.00     0.011 A 
ATOM     16  C   UNL d   1       0.723   7.596  -0.978  0.00  0.00     0.043 A 
ATOM     17  C   UNL d   1       0.940   8.205   0.252  0.00  0.00     0.116 A 
ATOM     18  C   UNL d   1       0.653   7.541   1.437  0.00  0.00     0.043 A 
ATOM     19  F   UNL d   1       1.441   9.448   0.294  0.00  0.00    -0.206 F 
ATOM     20  C   UNL d   1       0.139   6.243   1.394  0.00  0.00     0.011 A 
ENDBRANCH  13  14
ENDBRANCH  12  13
ENDBRANCH   2  12
TORSDOF 3
