REMARK  7 active torsions:
REMARK  status: ('A' for Active; 'I' for Inactive)
REMARK    1  A    between atoms: C1*_7  and  N_1 
REMARK    2  A    between atoms: C2*_12  and  O2*_26 
REMARK    3  A    between atoms: N_25  and  C_13 
REMARK    4  A    between atoms: C3*_16  and  O3*_27 
REMARK    5  A    between atoms: C4*_17  and  C5*_28 
REMARK    6  A    between atoms: C_24  and  N_18 
REMARK    7  A    between atoms: O5*_29  and  C5*_28 
ROOT
ATOM      1  N   UNL d   1       1.614  -1.200  -0.027  0.00  0.00    -0.135 N 
ATOM      2  C   UNL d   1       0.338  -0.706  -0.027  0.00  0.00     0.174 A 
ATOM      3  C   UNL d   1       2.478  -0.108  -0.011  0.00  0.00     0.687 A 
ATOM      4  C   UNL d   1       0.480   0.662   0.003  0.00  0.00     0.163 A 
ATOM      5  N   UNL d   1       1.799   1.024   0.029  0.00  0.00    -0.182 N 
ATOM      6  HN  UNL d   1       2.179   1.970   0.070  1.00  0.00     0.184 HD
ATOM      7  N   UNL d   1      -0.806  -1.432  -0.010  0.00  0.00    -0.173 N 
ATOM      8  HN  UNL d   1      -0.822  -2.452  -0.031  1.00  0.00     0.186 HD
ATOM      9  C   UNL d   1      -0.725   1.466   0.036  0.00  0.00     0.290 A 
ATOM     10  N   UNL d   1      -1.876   0.682   0.031  0.00  0.00    -0.154 N 
ATOM     11  C   UNL d   1      -1.885  -0.700   0.036  0.00  0.00     0.680 A 
ATOM     12  N   UNL d   1       3.829  -0.236   0.069  0.00  0.00    -0.214 N 
ATOM     13  N   UNL d   1       6.327   0.759  -0.981  0.00  0.00    -0.378 N 
ATOM     14  O   UNL d   1      -0.771   2.691   0.071  0.00  0.00    -0.265 OA
ATOM     15  C   UNL d   1       4.597   0.806   0.797  0.00  0.00     0.161 C 
ATOM     16  C   UNL d   1       4.584  -0.982  -0.958  0.00  0.00     0.161 C 
ATOM     17  C   UNL d   1       5.495  -0.095  -1.834  0.00  0.00     0.143 C 
ATOM     18  C   UNL d   1       5.535   1.639  -0.105  0.00  0.00     0.143 C 
ATOM     19  H   UNL d   1      -2.736   1.194   0.083  0.00  0.00     0.187 HD
ENDROOT
BRANCH   1  20
ATOM     20  C1* UNL d   1       1.954  -2.605   0.060  0.00  0.00     0.279 C 
ATOM     21  C2* UNL d   1       1.480  -3.472  -1.127  0.00  0.00     0.199 C 
ATOM     22  C3* UNL d   1       0.530  -4.485  -0.495  0.00  0.00     0.182 C 
ATOM     23  C4* UNL d   1       0.952  -4.497   0.967  0.00  0.00     0.179 C 
ATOM     24  O4* UNL d   1       1.398  -3.166   1.272  0.00  0.00    -0.353 OA
BRANCH  21  25
ATOM     25  O2* UNL d   1       2.576  -4.170  -1.759  0.00  0.00    -0.388 OA
ATOM     26  H2* UNL d   1       3.179  -4.503  -1.069  0.00  0.00     0.210 HD
ENDBRANCH  21  25
BRANCH  22  27
ATOM     27  O3* UNL d   1       0.649  -5.788  -1.068  0.00  0.00    -0.390 OA
ATOM     28  H3* UNL d   1       1.414  -5.760  -1.677  0.00  0.00     0.210 HD
ENDBRANCH  22  27
BRANCH  23  29
ATOM     29  C5* UNL d   1      -0.171  -4.885   1.925  0.00  0.00     0.198 C 
BRANCH  29  30
ATOM     30  O5* UNL d   1      -1.284  -3.995   1.811  0.00  0.00    -0.398 OA
ATOM     31  H5* UNL d   1      -0.910  -3.089   1.781  0.00  0.00     0.209 HD
ENDBRANCH  29  30
ENDBRANCH  23  29
ENDBRANCH   1  20
BRANCH  11  32
ATOM     32  N   UNL d   1      -3.095  -1.301   0.104  0.00  0.00    -0.234 N 
ATOM     33  H   UNL d   1      -3.951  -0.819  -0.119  0.00  0.00     0.174 HD
ATOM     34  H   UNL d   1      -3.099  -2.311  -0.009  0.00  0.00     0.174 HD
ENDBRANCH  11  32
BRANCH  13  35
ATOM     35  C   UNL d   1       7.701   0.809  -1.073  0.00  0.00     0.030 A 
ATOM     36  C   UNL d   1       8.374   0.560  -2.280  0.00  0.00     0.029 A 
ATOM     37  C   UNL d   1       9.771   0.597  -2.375  0.00  0.00     0.002 A 
ATOM     38  C   UNL d   1      10.539   0.878  -1.252  0.00  0.00     0.000 A 
ATOM     39  C   UNL d   1       9.905   1.122  -0.040  0.00  0.00     0.002 A 
ATOM     40  C   UNL d   1       8.506   1.090   0.042  0.00  0.00     0.029 A 
ENDBRANCH  13  35
TORSDOF 7
