REMARK  1 active torsions:
REMARK  status: ('A' for Active; 'I' for Inactive)
REMARK    1  A    between atoms: C_3  and  C_4 
ROOT
ATOM      1  C   UNL d   1      -2.045   0.329   0.101  0.00  0.00     0.018 C 
ATOM      2  C   UNL d   1      -1.109  -0.827   0.046  0.00  0.00     0.193 C 
ATOM      3  C   UNL d   1      -3.338   0.125  -0.206  0.00  0.00     0.027 C 
ATOM      4  C   UNL d   1       0.326  -0.478   0.045  0.00  0.00     0.048 A 
ATOM      5  O   UNL d   1      -0.198   1.884  -0.176  0.00  0.00    -0.346 OA
ATOM      6  C   UNL d   1       0.704   0.861  -0.076  0.00  0.00     0.083 A 
ATOM      7  C   UNL d   1      -1.418   1.617   0.526  0.00  0.00     0.218 C 
ATOM      8  O   UNL d   1      -1.485  -1.992   0.017  0.00  0.00    -0.287 OA
ATOM      9  C   UNL d   1       1.301  -1.478   0.120  0.00  0.00     0.018 A 
ATOM     10  C   UNL d   1       2.053   1.202  -0.147  0.00  0.00     0.038 A 
ATOM     11  C   UNL d   1       2.654  -1.131   0.076  0.00  0.00     0.001 A 
ATOM     12  C   UNL d   1       3.028   0.208  -0.059  0.00  0.00     0.003 A 
ENDROOT
BRANCH   3  13
ATOM     13  C   UNL d   1      -4.346   1.130  -0.192  0.00  0.00    -0.008 A 
ATOM     14  C   UNL d   1      -4.711   1.869  -1.294  0.00  0.00     0.100 A 
ATOM     15  N   UNL d   1      -5.713   2.719  -0.908  0.00  0.00    -0.364 N 
ATOM     16  C   UNL d   1      -6.000   2.547   0.428  0.00  0.00     0.043 A 
ATOM     17  H   UNL d   1      -6.183   3.379  -1.513  0.00  0.00     0.165 HD
ATOM     18  C   UNL d   1      -5.145   1.552   0.909  0.00  0.00     0.002 A 
ATOM     19  C   UNL d   1      -6.945   3.188   1.238  0.00  0.00     0.030 A 
ATOM     20  C   UNL d   1      -5.233   1.188   2.269  0.00  0.00     0.014 A 
ATOM     21  C   UNL d   1      -6.169   1.825   3.092  0.00  0.00     0.001 A 
ATOM     22  C   UNL d   1      -7.013   2.807   2.581  0.00  0.00     0.002 A 
ENDBRANCH   3  13
TORSDOF 1
