REMARK  5 active torsions:
REMARK  status: ('A' for Active; 'I' for Inactive)
REMARK    1  A    between atoms: C_8  and  C_1 
REMARK    2  A    between atoms: C_2  and  C_9 
REMARK       I    between atoms: N_4  and  C_2 
REMARK    3  A    between atoms: C_3  and  O_7 
REMARK    4  A    between atoms: C_6  and  N_4 
REMARK    5  A    between atoms: O_7  and  C_5 
ROOT
ATOM      1  C   UNL d   1      -0.305  -1.611   4.318  0.00  0.00     0.256 C 
ATOM      2  N   UNL d   1      -0.605  -1.486   5.658  0.00  0.00    -0.321 N 
ATOM      3  O   UNL d   1      -0.453  -2.711   3.777  0.00  0.00    -0.267 OA
ATOM      4  H   UNL d   1      -0.737  -2.383   6.114  0.00  0.00     0.169 HD
ENDROOT
BRANCH   2   5
ATOM      5  C   UNL d   1      -0.814  -0.331   6.427  0.00  0.00     0.069 A 
ATOM      6  C   UNL d   1      -0.207  -0.195   7.688  0.00  0.00     0.106 A 
ATOM      7  C   UNL d   1      -0.192   1.066   8.298  0.00  0.00     0.063 A 
ATOM      8  C   UNL d   1      -0.834   2.151   7.702  0.00  0.00     0.036 A 
ATOM      9  C   UNL d   1      -1.535   1.989   6.511  0.00  0.00     0.026 A 
ATOM     10 CL   UNL d   1      -0.710   3.713   8.409  0.00  0.00    -0.084 Cl
ATOM     11  C   UNL d   1      -1.533   0.745   5.880  0.00  0.00     0.034 A 
BRANCH   6  12
ATOM     12  O   UNL d   1       0.632  -1.103   8.270  0.00  0.00    -0.253 OA
BRANCH  12  13
ATOM     13  C   UNL d   1       0.187  -2.438   8.463  0.00  0.00     0.530 C 
ATOM     14  F   UNL d   1      -0.967  -2.728   7.826  0.00  0.00    -0.144 F 
ATOM     15  F   UNL d   1       1.142  -3.277   8.009  0.00  0.00    -0.144 F 
ATOM     16  F   UNL d   1       0.014  -2.663   9.782  0.00  0.00    -0.144 F 
ENDBRANCH  12  13
ENDBRANCH   6  12
ENDBRANCH   2   5
BRANCH   1  17
ATOM     17  C   UNL d   1       0.293  -0.494   3.526  0.00  0.00     0.033 A 
ATOM     18  C   UNL d   1       1.001   0.564   4.112  0.00  0.00     0.033 A 
ATOM     19  C   UNL d   1       1.477   1.637   3.342  0.00  0.00     0.048 A 
ATOM     20  C   UNL d   1       1.373   1.562   1.948  0.00  0.00     0.016 A 
ATOM     21  C   UNL d   1       0.751   0.468   1.345  0.00  0.00     0.002 A 
ATOM     22  C   UNL d   1       0.193  -0.542   2.131  0.00  0.00     0.017 A 
BRANCH  19  23
ATOM     23  C   UNL d   1       2.055   2.860   4.012  0.00  0.00     0.417 C 
ATOM     24  F   UNL d   1       1.863   2.875   5.361  0.00  0.00    -0.166 F 
ATOM     25  F   UNL d   1       1.495   4.012   3.549  0.00  0.00    -0.166 F 
ATOM     26  F   UNL d   1       3.395   2.985   3.820  0.00  0.00    -0.166 F 
ENDBRANCH  19  23
ENDBRANCH   1  17
TORSDOF 5
