REMARK  3 active torsions:
REMARK  status: ('A' for Active; 'I' for Inactive)
REMARK    1  A    between atoms: C_14  and  N_1 
REMARK    2  A    between atoms: N_8  and  N_15 
REMARK    3  A    between atoms: N_15  and  C_18 
ROOT
ATOM      1  C   UNL d   1       6.809  -5.613  -0.969  0.00  0.00     0.209 C 
ATOM      2  N   UNL d   1       5.722  -4.906  -0.935  0.00  0.00    -0.282 N 
ATOM      3  HN  UNL d   1       4.864  -5.264  -1.354  1.00  0.00     0.188 HD
ATOM      4  N   UNL d   1       9.024  -4.716   0.049  0.00  0.00    -0.189 NA
ATOM      5  N   UNL d   1       6.600  -7.965  -2.054  0.00  0.00    -0.189 NA
ATOM      6  C   UNL d   1       8.041  -5.125  -0.423  0.00  0.00     0.130 C 
ATOM      7  C   UNL d   1       6.676  -6.905  -1.577  0.00  0.00     0.130 C 
ENDROOT
BRANCH   2   8
ATOM      8  N   UNL d   1       5.734  -3.678  -0.334  0.00  0.00    -0.299 N 
ATOM      9  H   UNL d   1       6.340  -3.508   0.472  0.00  0.00     0.187 HD
BRANCH   8  10
ATOM     10  C   UNL d   1       4.503  -2.991  -0.222  0.00  0.00     0.048 A 
ATOM     11  C   UNL d   1       4.340  -2.052   0.805  0.00  0.00     0.033 A 
ATOM     12  C   UNL d   1       3.163  -1.306   0.923  0.00  0.00     0.034 A 
ATOM     13  C   UNL d   1       2.135  -1.460  -0.010  0.00  0.00     0.056 A 
ATOM     14  C   UNL d   1       2.271  -2.420  -1.023  0.00  0.00     0.034 A 
ATOM     15  C   UNL d   1       3.455  -3.164  -1.134  0.00  0.00     0.033 A 
BRANCH  13  16
ATOM     16  N   UNL d   1       0.946  -0.681   0.072  0.00  0.00    -0.261 N 
ATOM     17  N   UNL d   1      -0.224  -1.190  -0.404  0.00  0.00    -0.298 N 
ATOM     18  C   UNL d   1      -1.168  -0.346   0.019  0.00  0.00     0.024 C 
ATOM     19  HN  UNL d   1      -0.352  -2.034  -0.963  1.00  0.00     0.187 HD
ATOM     20  C   UNL d   1      -2.606  -0.629  -0.205  0.00  0.00     0.070 C 
ATOM     21  C   UNL d   1      -0.611   0.787   0.635  0.00  0.00     0.052 C 
ATOM     22  C   UNL d   1       0.754   0.590   0.604  0.00  0.00     0.032 C 
ATOM     23  C   UNL d   1       1.816   1.562   0.972  0.00  0.00     0.070 C 
ENDBRANCH  13  16
ENDBRANCH   8  10
ENDBRANCH   2   8
TORSDOF 3
