REMARK  2 active torsions:
REMARK  status: ('A' for Active; 'I' for Inactive)
REMARK    1  A    between atoms: C_7  and  C_2 
REMARK    2  A    between atoms: C_8  and  N_3 
REMARK       I    between atoms: N_11  and  C_7 
ROOT
ATOM      1  C   UNL d   1       0.981  -0.814  -0.104  0.00  0.00     0.138 A 
ATOM      2  C   UNL d   1      -0.341  -1.226  -0.020  0.00  0.00     0.093 A 
ATOM      3  N   UNL d   1       0.981   0.578   0.052  0.00  0.00    -0.240 N 
ATOM      4  N   UNL d   1      -0.268   1.037   0.346  0.00  0.00    -0.302 N 
ATOM      5  HN  UNL d   1      -0.541   1.986   0.602  1.00  0.00     0.186 HD
ATOM      6  C   UNL d   1      -1.051  -0.033   0.225  0.00  0.00     0.128 A 
ATOM      7  N   UNL d   1       2.102  -1.578  -0.233  0.00  0.00    -0.383 N 
ATOM      8  H   UNL d   1       1.982  -2.593  -0.154  0.00  0.00     0.157 HD
ATOM      9  H   UNL d   1       2.975  -1.269   0.190  0.00  0.00     0.157 HD
ENDROOT
BRANCH   3  10
ATOM     10  C   UNL d   1       2.071   1.488  -0.035  0.00  0.00     0.058 A 
ATOM     11  C   UNL d   1       3.189   1.205  -0.831  0.00  0.00     0.031 A 
ATOM     12  C   UNL d   1       4.258   2.102  -0.880  0.00  0.00     0.002 A 
ATOM     13  C   UNL d   1       4.220   3.278  -0.133  0.00  0.00     0.000 A 
ATOM     14  C   UNL d   1       3.101   3.575   0.644  0.00  0.00     0.002 A 
ATOM     15  C   UNL d   1       2.018   2.693   0.679  0.00  0.00     0.031 A 
ENDBRANCH   3  10
BRANCH   2  16
ATOM     16  C   UNL d   1      -0.809  -2.596  -0.105  0.00  0.00     0.254 C 
ATOM     17  O   UNL d   1      -0.062  -3.565  -0.235  0.00  0.00    -0.268 OA
ATOM     18  N   UNL d   1      -2.156  -2.790  -0.003  0.00  0.00    -0.366 N 
ATOM     19  H   UNL d   1      -2.831  -2.054   0.131  0.00  0.00     0.159 HD
ATOM     20  H   UNL d   1      -2.482  -3.747  -0.029  0.00  0.00     0.159 HD
ENDBRANCH   2  16
TORSDOF 2
