REMARK  7 active torsions:
REMARK  status: ('A' for Active; 'I' for Inactive)
REMARK    1  A    between atoms: C_3  and  N_1 
REMARK    2  A    between atoms: C_2  and  C_6 
REMARK    3  A    between atoms: O_14  and  C_2 
REMARK    4  A    between atoms: O_12  and  C_16 
REMARK    5  A    between atoms: C_13  and  O_12 
REMARK    6  A    between atoms: C_21  and  O_14 
REMARK    7  A    between atoms: C_16  and  C_15 
ROOT
ATOM      1  C   UNL d   1      -3.747   8.323   4.605  0.00  0.00     0.039 A 
ATOM      2  C   UNL d   1      -3.598   7.044   5.156  0.00  0.00     0.020 A 
ATOM      3  C   UNL d   1      -3.259   8.589   3.323  0.00  0.00     0.020 A 
ATOM      4  C   UNL d   1      -2.400   6.329   3.175  0.00  0.00     0.069 A 
ATOM      5  C   UNL d   1      -2.603   7.588   2.603  0.00  0.00     0.038 A 
ATOM      6  C   UNL d   1      -2.929   6.051   4.437  0.00  0.00     0.038 A 
ENDROOT
BRANCH   4   7
ATOM      7  O   UNL d   1      -1.695   5.307   2.597  0.00  0.00    -0.347 OA
BRANCH   7   8
ATOM      8  C   UNL d   1      -0.748   5.712   1.609  0.00  0.00     0.214 C 
BRANCH   8   9
ATOM      9  C   UNL d   1       0.281   4.623   1.424  0.00  0.00    -0.034 A 
ATOM     10  C   UNL d   1      -0.082   3.387   0.869  0.00  0.00     0.012 A 
ATOM     11  C   UNL d   1       0.878   2.393   0.663  0.00  0.00     0.037 A 
ATOM     12  C   UNL d   1       2.211   2.636   1.021  0.00  0.00     0.102 A 
ATOM     13  C   UNL d   1       2.586   3.860   1.589  0.00  0.00     0.037 A 
ATOM     14  C   UNL d   1       1.618   4.846   1.791  0.00  0.00     0.012 A 
BRANCH  12  15
ATOM     15  N   UNL d   1       3.227   1.603   0.793  0.00  0.00    -0.116 N 
ATOM     16  O   UNL d   1       4.395   1.860   1.119  0.00  0.00    -0.532 OA
ATOM     17  O   UNL d   1       2.860   0.534   0.283  0.00  0.00    -0.532 OA
ENDBRANCH  12  15
ENDBRANCH   8   9
ENDBRANCH   7   8
ENDBRANCH   4   7
BRANCH   1  18
ATOM     18  C   UNL d   1      -4.329   9.443   5.380  0.00  0.00     0.293 C 
ATOM     19  O   UNL d   1      -4.046  10.612   5.185  0.00  0.00    -0.259 OA
BRANCH  18  20
ATOM     20  O   UNL d   1      -5.148   8.953   6.340  0.00  0.00    -0.318 OA
BRANCH  20  21
ATOM     21  C   UNL d   1      -5.510   9.876   7.375  0.00  0.00     0.174 C 
ATOM     22  C   UNL d   1      -4.519   9.702   8.511  0.00  0.00     0.034 C 
ENDBRANCH  20  21
ENDBRANCH  18  20
ENDBRANCH   1  18
TORSDOF 7
