REMARK  6 active torsions:
REMARK  status: ('A' for Active; 'I' for Inactive)
REMARK    1  A    between atoms: N_2  and  C_1 
REMARK    2  A    between atoms: N_3  and  C_1 
REMARK    3  A    between atoms: C_12  and  N_3 
REMARK    4  A    between atoms: C_4  and  C_8 
REMARK    5  A    between atoms: O_14  and  C_4 
REMARK    6  A    between atoms: C_20  and  O_14 
ROOT
ATOM      1  N   UNL d   1      -0.061   0.963   0.768  0.00  0.00    -0.358 N 
ATOM      2  C   UNL d   1       0.432   2.327   0.932  0.00  0.00     0.126 C 
ATOM      3  C   UNL d   1      -1.014   0.544   1.783  0.00  0.00     0.126 C 
ATOM      4  C   UNL d   1      -1.901   2.948   1.740  0.00  0.00     0.088 C 
ATOM      5  C   UNL d   1      -2.248   1.445   1.687  0.00  0.00     0.034 C 
ATOM      6  C   UNL d   1      -0.720   3.317   0.828  0.00  0.00     0.034 C 
ENDROOT
BRANCH   1   7
ATOM      7  C   UNL d   1       0.702   0.075   0.030  0.00  0.00     0.174 C 
ATOM      8  S   UNL d   1       1.599  -1.173   0.680  0.00  0.00    -0.041 SA
BRANCH   7   9
ATOM      9  N   UNL d   1       0.794   0.363  -1.314  0.00  0.00    -0.333 N 
ATOM     10  H   UNL d   1       1.621   0.011  -1.780  0.00  0.00     0.168 HD
BRANCH   9  11
ATOM     11  C   UNL d   1      -0.280   0.728  -2.160  0.00  0.00     0.034 A 
ATOM     12  C   UNL d   1       0.014   1.256  -3.422  0.00  0.00     0.032 A 
ATOM     13  C   UNL d   1      -1.016   1.569  -4.312  0.00  0.00     0.044 A 
ATOM     14  C   UNL d   1      -2.339   1.335  -3.955  0.00  0.00     0.116 A 
ATOM     15  C   UNL d   1      -2.650   0.791  -2.713  0.00  0.00     0.044 A 
ATOM     16  F   UNL d   1      -3.321   1.616  -4.818  0.00  0.00    -0.206 F 
ATOM     17  C   UNL d   1      -1.618   0.488  -1.823  0.00  0.00     0.032 A 
ENDBRANCH   9  11
ENDBRANCH   7   9
ENDBRANCH   1   7
BRANCH   4  18
ATOM     18  C   UNL d   1      -1.652   3.340   3.182  0.00  0.00     0.263 C 
ATOM     19  O   UNL d   1      -0.575   3.686   3.650  0.00  0.00    -0.265 OA
BRANCH  18  20
ATOM     20  O   UNL d   1      -2.798   3.150   3.894  0.00  0.00    -0.322 OA
BRANCH  20  21
ATOM     21  C   UNL d   1      -2.625   2.965   5.303  0.00  0.00     0.174 C 
ATOM     22  C   UNL d   1      -2.251   1.513   5.551  0.00  0.00     0.034 C 
ENDBRANCH  20  21
ENDBRANCH  18  20
ENDBRANCH   4  18
TORSDOF 6
