REMARK  4 active torsions:
REMARK  status: ('A' for Active; 'I' for Inactive)
REMARK    1  A    between atoms: N_8  and  C_1 
REMARK    2  A    between atoms: C_14  and  N_8 
REMARK    3  A    between atoms: C_15  and  N_10 
REMARK    4  A    between atoms: C_20  and  C_15 
ROOT
ATOM      1  N   UNL d   1       5.202   1.044   0.202  0.00  0.00     0.092 N 
ATOM      2  C   UNL d   1       3.239   3.231  -0.124  0.00  0.00     0.086 C 
ATOM      3  C   UNL d   1       4.183   2.805  -1.252  0.00  0.00     0.055 C 
ATOM      4  C   UNL d   1       3.898   2.918   1.219  0.00  0.00     0.055 C 
ATOM      5  C   UNL d   1       4.633   1.352  -1.113  0.00  0.00     0.275 C 
ATOM      6  C   UNL d   1       4.327   1.453   1.310  0.00  0.00     0.275 C 
ENDROOT
BRANCH   2   7
ATOM      7  N   UNL d   1       1.948   2.548  -0.243  0.00  0.00    -0.371 N 
ATOM      8  H   UNL d   1       1.821   1.891  -1.000  0.00  0.00     0.161 HD
BRANCH   7   9
ATOM      9  C   UNL d   1       0.792   3.150   0.229  0.00  0.00     0.115 A 
ATOM     10  C   UNL d   1      -0.485   2.592   0.013  0.00  0.00     0.042 A 
ATOM     11  C   UNL d   1      -1.562   3.303   0.520  0.00  0.00     0.088 A 
ATOM     12  C   UNL d   1      -0.940   1.386  -0.632  0.00  0.00     0.025 A 
ATOM     13  S   UNL d   1      -3.062   2.555   0.204  0.00  0.00    -0.083 SA
ATOM     14  N   UNL d   1      -1.508   4.461   1.198  0.00  0.00    -0.346 N 
ATOM     15  C   UNL d   1      -2.313   1.248  -0.599  0.00  0.00     0.053 A 
ATOM     16  C   UNL d   1      -0.255   4.886   1.362  0.00  0.00     0.182 A 
ATOM     17  HN  UNL d   1      -2.328   4.957   1.546  1.00  0.00     0.167 HD
ATOM     18  N   UNL d   1       0.875   4.304   0.928  0.00  0.00    -0.338 N 
ATOM     19  HN  UNL d   1       1.782   4.726   1.124  1.00  0.00     0.168 HD
ENDBRANCH   7   9
ENDBRANCH   2   7
BRANCH   1  20
ATOM     20  C   UNL d   1       5.617  -0.374   0.315  0.00  0.00     0.311 C 
BRANCH  20  21
ATOM     21  C   UNL d   1       4.499  -1.402   0.238  0.00  0.00    -0.030 A 
ATOM     22  C   UNL d   1       4.053  -1.889  -1.000  0.00  0.00     0.009 A 
ATOM     23  C   UNL d   1       2.939  -2.727  -1.077  0.00  0.00     0.001 A 
ATOM     24  C   UNL d   1       2.273  -3.109   0.086  0.00  0.00     0.000 A 
ATOM     25  C   UNL d   1       2.734  -2.673   1.326  0.00  0.00     0.001 A 
ATOM     26  C   UNL d   1       3.844  -1.831   1.403  0.00  0.00     0.009 A 
ENDBRANCH  20  21
ENDBRANCH   1  20
TORSDOF 4
