REMARK  6 active torsions:
REMARK  status: ('A' for Active; 'I' for Inactive)
REMARK    1  A    between atoms: N_7  and  C_1 
REMARK    2  A    between atoms: C_2  and  S_14 
REMARK    3  A    between atoms: C_18  and  C_3 
REMARK    4  A    between atoms: C_19  and  C_6 
REMARK    5  A    between atoms: S_14  and  C_8 
REMARK    6  A    between atoms: N_13  and  C_11 
ROOT
ATOM      1  C   UNL d   1       4.667   1.809  -0.036  0.00  0.00     0.193 A 
ATOM      2  C   UNL d   1       4.987   3.822   0.578  0.00  0.00     0.080 A 
ATOM      3  N   UNL d   1       4.292   2.670   0.890  0.00  0.00    -0.328 N 
ATOM      4  HN  UNL d   1       3.639   2.520   1.660  1.00  0.00     0.168 HD
ATOM      5  C   UNL d   1       5.769   3.608  -0.546  0.00  0.00     0.116 A 
ATOM      6  O   UNL d   1       5.530   2.323  -0.963  0.00  0.00    -0.284 OA
ENDROOT
BRANCH   1   7
ATOM      7  S   UNL d   1       4.243   0.118   0.008  0.00  0.00    -0.044 SA
BRANCH   7   8
ATOM      8  C   UNL d   1       2.724   0.147  -0.934  0.00  0.00     0.044 A 
ATOM      9  C   UNL d   1       2.536  -0.579  -2.115  0.00  0.00     0.121 A 
ATOM     10  C   UNL d   1       1.291  -0.654  -2.754  0.00  0.00     0.063 A 
ATOM     11  C   UNL d   1       0.184   0.003  -2.208  0.00  0.00     0.063 A 
ATOM     12  C   UNL d   1       0.326   0.728  -1.012  0.00  0.00     0.061 A 
ATOM     13 CL   UNL d   1      -1.244  -0.043  -3.182  0.00  0.00    -0.082 Cl
ATOM     14  C   UNL d   1       1.599   0.795  -0.395  0.00  0.00     0.053 A 
BRANCH   9  15
ATOM     15  N   UNL d   1       3.633  -1.286  -2.742  0.00  0.00    -0.114 N 
ATOM     16  O   UNL d   1       4.566  -0.602  -3.184  0.00  0.00    -0.532 OA
ATOM     17  O   UNL d   1       3.521  -2.514  -2.843  0.00  0.00    -0.532 OA
ENDBRANCH   9  15
BRANCH  12  18
ATOM     18  N   UNL d   1      -0.759   1.394  -0.363  0.00  0.00    -0.331 N 
ATOM     19  C   UNL d   1      -2.089   1.025  -0.346  0.00  0.00     0.096 A 
ATOM     20  C   UNL d   1      -2.810   1.941   0.390  0.00  0.00     0.019 A 
ATOM     21  C   UNL d   1      -1.895   2.890   0.884  0.00  0.00     0.019 A 
ATOM     22  C   UNL d   1      -0.646   2.521   0.434  0.00  0.00     0.096 A 
ENDBRANCH  12  18
ENDBRANCH   7   8
ENDBRANCH   1   7
BRANCH   2  23
ATOM     23  C   UNL d   1       4.954   5.021   1.400  0.00  0.00    -0.006 A 
ATOM     24  C   UNL d   1       4.931   4.897   2.795  0.00  0.00     0.014 A 
ATOM     25  C   UNL d   1       5.032   6.029   3.609  0.00  0.00     0.001 A 
ATOM     26  C   UNL d   1       5.149   7.295   3.036  0.00  0.00     0.000 A 
ATOM     27  C   UNL d   1       5.125   7.434   1.651  0.00  0.00     0.001 A 
ATOM     28  C   UNL d   1       5.008   6.304   0.837  0.00  0.00     0.014 A 
ENDBRANCH   2  23
BRANCH   5  29
ATOM     29  C   UNL d   1       6.772   4.345  -1.305  0.00  0.00     0.000 A 
ATOM     30  C   UNL d   1       6.840   4.229  -2.700  0.00  0.00     0.014 A 
ATOM     31  C   UNL d   1       7.764   4.978  -3.434  0.00  0.00     0.001 A 
ATOM     32  C   UNL d   1       8.632   5.852  -2.783  0.00  0.00     0.000 A 
ATOM     33  C   UNL d   1       8.594   5.961  -1.396  0.00  0.00     0.001 A 
ATOM     34  C   UNL d   1       7.680   5.201  -0.663  0.00  0.00     0.014 A 
ENDBRANCH   5  29
TORSDOF 6
