REMARK  4 active torsions:
REMARK  status: ('A' for Active; 'I' for Inactive)
REMARK    1  A    between atoms: C_12  and  N_3 
REMARK    2  A    between atoms: C_13  and  C_12 
REMARK       I    between atoms: N_20  and  C_13 
REMARK    3  A    between atoms: C_14  and  C_19 
REMARK    4  A    between atoms: N_15  and  N_20 
ROOT
ATOM      1  N   UNL d   1      -1.063   0.451   1.298  0.00  0.00    -0.046 N 
ATOM      2  C   UNL d   1      -1.220  -0.904   1.035  0.00  0.00     0.710 A 
ATOM      3  N   UNL d   1      -0.194  -1.593   0.454  0.00  0.00    -0.175 N 
ATOM      4  C   UNL d   1       0.085   1.201   1.021  0.00  0.00     0.290 A 
ATOM      5  C   UNL d   1       1.175   0.386   0.456  0.00  0.00     0.036 A 
ATOM      6  C   UNL d   1       0.999  -0.921   0.222  0.00  0.00     0.041 A 
ATOM      7  N   UNL d   1      -2.421  -1.296   1.405  0.00  0.00    -0.184 N 
ATOM      8  HN  UNL d   1      -2.840  -2.223   1.334  1.00  0.00     0.185 HD
ATOM      9  N   UNL d   1      -2.195   0.942   1.867  0.00  0.00    -0.272 N 
ATOM     10  HN  UNL d   1      -2.399   1.891   2.180  1.00  0.00     0.189 HD
ATOM     11  C   UNL d   1      -2.966  -0.144   1.909  0.00  0.00     0.216 A 
ATOM     12  O   UNL d   1       0.157   2.401   1.254  0.00  0.00    -0.265 OA
ATOM     13  C   UNL d   1       2.528   0.879   0.111  0.00  0.00     0.047 C 
ATOM     14  C   UNL d   1       2.267  -1.542  -0.275  0.00  0.00     0.059 C 
ATOM     15  C   UNL d   1       3.305  -0.430  -0.056  0.00  0.00     0.011 C 
ENDROOT
BRANCH   3  16
ATOM     16  C   UNL d   1      -0.497  -2.941  -0.055  0.00  0.00     0.252 C 
BRANCH  16  17
ATOM     17  C   UNL d   1      -1.487  -2.889  -1.228  0.00  0.00     0.254 C 
ATOM     18  N   UNL d   1      -2.810  -3.017  -0.817  0.00  0.00    -0.269 N 
ATOM     19  H   UNL d   1      -3.023  -2.822   0.163  0.00  0.00     0.190 HD
ATOM     20  O   UNL d   1      -1.109  -2.754  -2.390  0.00  0.00    -0.270 OA
BRANCH  18  21
ATOM     21  N   UNL d   1      -3.827  -2.971  -1.733  0.00  0.00    -0.308 N 
ATOM     22  C   UNL d   1      -5.021  -3.076  -1.236  0.00  0.00     0.126 C 
ATOM     23  HN  UNL d   1      -3.659  -2.863  -2.733  1.00  0.00     0.186 HD
BRANCH  22  24
ATOM     24  C   UNL d   1      -6.191  -3.015  -2.076  0.00  0.00     0.021 A 
ATOM     25  S   UNL d   1      -7.729  -3.313  -1.387  0.00  0.00    -0.101 SA
ATOM     26  C   UNL d   1      -8.518  -3.076  -2.885  0.00  0.00     0.050 A 
ATOM     27  C   UNL d   1      -7.632  -2.767  -3.892  0.00  0.00     0.008 A 
ATOM     28  C   UNL d   1      -6.284  -2.736  -3.425  0.00  0.00     0.021 A 
ENDBRANCH  22  24
ENDBRANCH  18  21
ENDBRANCH  16  17
ENDBRANCH   3  16
TORSDOF 4
