REMARK  7 active torsions:
REMARK  status: ('A' for Active; 'I' for Inactive)
REMARK    1  A    between atoms: C_7  and  N_1 
REMARK    2  A    between atoms: C_3  and  C_8 
REMARK    3  A    between atoms: C_12  and  C_17 
REMARK    4  A    between atoms: O_19  and  C_12 
REMARK    5  A    between atoms: C_20  and  C_16 
REMARK    6  A    between atoms: C_17  and  C_20 
REMARK    7  A    between atoms: C_24  and  O_19 
ROOT
ATOM      1  N   UNL d   1       1.745  -0.923   5.291  0.00  0.00    -0.260 NA
ATOM      2  C   UNL d   1       0.458  -0.336   4.878  0.00  0.00     0.239 A 
ATOM      3  O   UNL d   1       0.465   1.113   4.989  0.00  0.00    -0.324 OA
ATOM      4  C   UNL d   1       2.512   0.243   5.475  0.00  0.00     0.045 A 
ATOM      5  C   UNL d   1       1.757   1.391   5.337  0.00  0.00     0.092 A 
ATOM      6  C   UNL d   1       3.854   0.317   5.795  0.00  0.00     0.033 A 
ATOM      7  C   UNL d   1       2.287   2.652   5.495  0.00  0.00     0.039 A 
ATOM      8  C   UNL d   1       4.437   1.585   5.967  0.00  0.00    -0.056 A 
ATOM      9  C   UNL d   1       3.643   2.745   5.814  0.00  0.00     0.010 A 
ATOM     10  H   UNL d   1       2.166  -1.524   4.591  0.00  0.00     0.130 HD
ENDROOT
BRANCH   2  11
ATOM     11  C   UNL d   1       0.118  -0.762   3.454  0.00  0.00    -0.012 A 
ATOM     12  C   UNL d   1      -0.619  -1.936   3.227  0.00  0.00     0.047 A 
ATOM     13  C   UNL d   1      -0.912  -2.339   1.914  0.00  0.00     0.103 A 
ATOM     14  C   UNL d   1      -0.472  -1.584   0.819  0.00  0.00     0.036 A 
ATOM     15  C   UNL d   1       0.271  -0.427   1.040  0.00  0.00     0.003 A 
ATOM     16  C   UNL d   1       0.569  -0.024   2.344  0.00  0.00     0.011 A 
BRANCH  13  17
ATOM     17  N   UNL d   1      -1.681  -3.568   1.681  0.00  0.00    -0.116 N 
ATOM     18  O   UNL d   1      -2.035  -4.221   2.674  0.00  0.00    -0.532 OA
ATOM     19  O   UNL d   1      -1.930  -3.882   0.509  0.00  0.00    -0.532 OA
ENDBRANCH  13  17
ENDBRANCH   2  11
BRANCH   8  20
ATOM     20  C   UNL d   1       5.887   1.718   6.373  0.00  0.00     0.048 C 
BRANCH  20  21
ATOM     21  C   UNL d   1       6.855   1.130   5.351  0.00  0.00     0.116 C 
BRANCH  21  22
ATOM     22  C   UNL d   1       8.283   1.413   5.749  0.00  0.00     0.259 C 
ATOM     23  O   UNL d   1       8.633   2.021   6.747  0.00  0.00    -0.265 OA
BRANCH  22  24
ATOM     24  O   UNL d   1       9.116   0.955   4.770  0.00  0.00    -0.322 OA
BRANCH  24  25
ATOM     25  C   UNL d   1      10.443   1.497   4.799  0.00  0.00     0.174 C 
ATOM     26  C   UNL d   1      10.433   2.795   4.011  0.00  0.00     0.034 C 
ENDBRANCH  24  25
ENDBRANCH  22  24
ENDBRANCH  21  22
ENDBRANCH  20  21
ENDBRANCH   8  20
TORSDOF 7
