REMARK  5 active torsions:
REMARK  status: ('A' for Active; 'I' for Inactive)
REMARK    1  A    between atoms: C_6  and  N_1 
REMARK    2  A    between atoms: C_7  and  C_4 
REMARK    3  A    between atoms: C_13  and  C_7 
REMARK    4  A    between atoms: O_23  and  C_11 
REMARK    5  A    between atoms: O_24  and  C_17 
ROOT
ATOM      1  N   UNL d   1       0.152  -1.246  -0.083  0.00  0.00    -0.262 N 
ATOM      2  C   UNL d   1       1.007  -0.162   0.060  0.00  0.00     0.153 A 
ATOM      3  C   UNL d   1      -1.205  -0.963  -0.217  0.00  0.00     0.271 A 
ATOM      4  C   UNL d   1      -1.436   0.501  -0.053  0.00  0.00     0.077 A 
ATOM      5  S   UNL d   1       0.070   1.329   0.067  0.00  0.00    -0.054 SA
ATOM      6  S   UNL d   1       2.679  -0.129   0.117  0.00  0.00    -0.052 SA
ATOM      7  O   UNL d   1      -2.099  -1.773  -0.418  0.00  0.00    -0.266 OA
ENDROOT
BRANCH   4   8
ATOM      8  C   UNL d   1      -2.615   1.129   0.052  0.00  0.00     0.036 C 
BRANCH   8   9
ATOM      9  C   UNL d   1      -3.926   0.478   0.076  0.00  0.00    -0.032 A 
ATOM     10  C   UNL d   1      -4.592   0.159  -1.113  0.00  0.00     0.051 A 
ATOM     11  C   UNL d   1      -5.878  -0.407  -1.094  0.00  0.00     0.102 A 
ATOM     12  C   UNL d   1      -6.476  -0.689   0.148  0.00  0.00     0.101 A 
ATOM     13  C   UNL d   1      -5.795  -0.380   1.333  0.00  0.00     0.040 A 
ATOM     14  C   UNL d   1      -4.528   0.199   1.302  0.00  0.00     0.014 A 
BRANCH  11  15
ATOM     15  O   UNL d   1      -6.603  -0.660  -2.228  0.00  0.00    -0.353 OA
ATOM     16  C   UNL d   1      -6.029  -0.315  -3.482  0.00  0.00     0.210 C 
ENDBRANCH  11  15
BRANCH  12  17
ATOM     17  O   UNL d   1      -7.730  -1.197   0.378  0.00  0.00    -0.353 OA
ATOM     18  C   UNL d   1      -8.263  -2.081  -0.598  0.00  0.00     0.210 C 
ENDBRANCH  12  17
ENDBRANCH   8   9
ENDBRANCH   4   8
BRANCH   1  19
ATOM     19  C   UNL d   1       0.576  -2.602  -0.114  0.00  0.00     0.047 A 
ATOM     20  C   UNL d   1       1.299  -3.152   0.953  0.00  0.00     0.075 A 
ATOM     21  C   UNL d   1       1.629  -4.505   0.938  0.00  0.00     0.157 A 
ATOM     22  F   UNL d   1       2.278  -5.030   1.985  0.00  0.00    -0.203 F 
ATOM     23  C   UNL d   1       1.270  -5.310  -0.136  0.00  0.00     0.154 A 
ATOM     24  C   UNL d   1       0.560  -4.780  -1.206  0.00  0.00     0.048 A 
ATOM     25  F   UNL d   1       1.591  -6.611  -0.142  0.00  0.00    -0.203 F 
ATOM     26  C   UNL d   1       0.200  -3.429  -1.187  0.00  0.00     0.033 A 
ENDBRANCH   1  19
TORSDOF 5
