REMARK  2 active torsions:
REMARK  status: ('A' for Active; 'I' for Inactive)
REMARK    1  A    between atoms: C_7  and  C_2 
REMARK    2  A    between atoms: C_6  and  C_8 
ROOT
ATOM      1  C   UNL d   1       0.566  -0.671   0.032  0.00  0.00     0.227 A 
ATOM      2  C   UNL d   1       1.948  -0.270  -0.456  0.00  0.00     0.068 A 
ATOM      3  C   UNL d   1       1.753  -0.714   0.965  0.00  0.00     0.063 A 
ATOM      4  C   UNL d   1      -0.019  -1.919  -0.593  0.00  0.00     0.170 C 
ATOM      5  N   UNL d   1      -0.539   0.272   0.454  0.00  0.00     0.106 N 
ATOM      6  C   UNL d   1      -1.512  -1.781  -0.817  0.00  0.00     0.061 C 
ATOM      7  C   UNL d   1      -1.479  -0.479   1.332  0.00  0.00     0.275 C 
ATOM      8  C   UNL d   1      -1.300   0.726  -0.727  0.00  0.00     0.275 C 
ATOM      9  O   UNL d   1       0.641  -2.916  -0.854  0.00  0.00    -0.295 OA
ATOM     10  C   UNL d   1      -1.732  -0.471  -1.591  0.00  0.00     0.042 C 
ATOM     11  C   UNL d   1      -2.132  -1.658   0.579  0.00  0.00     0.042 C 
ENDROOT
BRANCH   2  12
ATOM     12  C   UNL d   1       2.309   1.129  -0.884  0.00  0.00    -0.051 A 
ATOM     13  C   UNL d   1       3.091   1.994  -0.103  0.00  0.00     0.008 A 
ATOM     14  C   UNL d   1       3.572   3.206  -0.616  0.00  0.00     0.017 A 
ATOM     15  C   UNL d   1       3.288   3.588  -1.935  0.00  0.00     0.047 A 
ATOM     16  C   UNL d   1       2.473   2.758  -2.710  0.00  0.00     0.017 A 
ATOM     17  C   UNL d   1       2.000   1.550  -2.188  0.00  0.00     0.008 A 
BRANCH  15  18
ATOM     18  C   UNL d   1       3.892   4.845  -2.513  0.00  0.00     0.417 C 
ATOM     19  F   UNL d   1       3.550   5.066  -3.812  0.00  0.00    -0.166 F 
ATOM     20  F   UNL d   1       3.521   5.966  -1.834  0.00  0.00    -0.166 F 
ATOM     21  F   UNL d   1       5.254   4.826  -2.486  0.00  0.00    -0.166 F 
ENDBRANCH  15  18
ENDBRANCH   2  12
TORSDOF 2
