REMARK  5 active torsions:
REMARK  status: ('A' for Active; 'I' for Inactive)
REMARK    1  A    between atoms: C_2  and  C_1 
REMARK    2  A    between atoms: C_10  and  C_2 
REMARK    3  A    between atoms: C_13  and  N_3 
REMARK    4  A    between atoms: C_15  and  C_10 
REMARK    5  A    between atoms: N_12  and  C_11 
ROOT
ATOM      1  C   UNL d   1      -0.563  -2.842   0.053  0.00  0.00     0.077 C 
ATOM      2  C   UNL d   1       0.442  -3.737  -0.085  0.00  0.00     0.105 C 
ENDROOT
BRANCH   1   3
ATOM      3  C   UNL d   1      -0.205  -1.483   0.246  0.00  0.00     0.160 A 
ATOM      4  N   UNL d   1       0.193  -0.618  -0.785  0.00  0.00    -0.222 N 
ATOM      5  N   UNL d   1       0.441   0.591  -0.208  0.00  0.00    -0.219 N 
ATOM      6  N   UNL d   1       0.194   0.462   1.082  0.00  0.00    -0.226 N 
ATOM      7  HN  UNL d   1       0.758   1.436  -0.684  1.00  0.00     0.210 HD
ATOM      8  N   UNL d   1      -0.214  -0.800   1.376  0.00  0.00    -0.267 N 
ATOM      9  HN  UNL d   1       0.295   1.211   1.767  1.00  0.00     0.210 HD
ATOM     10  HN  UNL d   1      -0.477  -1.153   2.296  1.00  0.00     0.190 HD
BRANCH   4  11
ATOM     11  C   UNL d   1       0.306  -0.748  -2.208  0.00  0.00     0.060 A 
ATOM     12  C   UNL d   1       0.084  -1.948  -2.895  0.00  0.00     0.031 A 
ATOM     13  C   UNL d   1       0.191  -2.003  -4.291  0.00  0.00     0.002 A 
ATOM     14  C   UNL d   1       0.510  -0.862  -5.020  0.00  0.00     0.000 A 
ATOM     15  C   UNL d   1       0.724   0.340  -4.356  0.00  0.00     0.002 A 
ATOM     16  C   UNL d   1       0.626   0.398  -2.962  0.00  0.00     0.031 A 
ENDBRANCH   4  11
ENDBRANCH   1   3
BRANCH   1  17
ATOM     17  C   UNL d   1      -1.978  -3.288   0.301  0.00  0.00     0.197 C 
ATOM     18  O   UNL d   1      -2.229  -4.410   0.747  0.00  0.00    -0.286 OA
BRANCH  17  19
ATOM     19  C   UNL d   1      -3.140  -2.380   0.102  0.00  0.00     0.015 A 
ATOM     20  C   UNL d   1      -3.201  -1.384  -0.877  0.00  0.00     0.015 A 
ATOM     21  C   UNL d   1      -4.343  -0.585  -1.003  0.00  0.00     0.001 A 
ATOM     22  C   UNL d   1      -5.448  -0.801  -0.182  0.00  0.00     0.000 A 
ATOM     23  C   UNL d   1      -5.418  -1.819   0.766  0.00  0.00     0.001 A 
ATOM     24  C   UNL d   1      -4.270  -2.601   0.909  0.00  0.00     0.015 A 
ENDBRANCH  17  19
ENDBRANCH   1  17
BRANCH   2  25
ATOM     25  N   UNL d   1       0.475  -5.097  -0.354  0.00  0.00    -0.389 N 
ATOM     26  C   UNL d   1      -0.490  -5.824  -1.186  0.00  0.00     0.122 C 
ATOM     27  C   UNL d   1      -0.792  -7.090  -0.403  0.00  0.00     0.021 C 
ATOM     28  C   UNL d   1       0.550  -7.411   0.228  0.00  0.00     0.021 C 
ATOM     29  C   UNL d   1       1.124  -6.038   0.577  0.00  0.00     0.122 C 
ENDBRANCH   2  25
TORSDOF 5
