REMARK  4 active torsions:
REMARK  status: ('A' for Active; 'I' for Inactive)
REMARK    1  A    between atoms: N_2  and  C_1 
REMARK    2  A    between atoms: C_4  and  C_1 
REMARK    3  A    between atoms: O_13  and  C_4 
REMARK    4  A    between atoms: C_14  and  O_13 
ROOT
ATOM      1  C   UNL d   1       1.208   0.306   0.464  0.00  0.00     0.291 C 
ATOM      2  C   UNL d   1       2.311   1.193   0.082  0.00  0.00     0.095 C 
ATOM      3  N   UNL d   1       3.237   1.824  -0.233  0.00  0.00    -0.195 NA
ENDROOT
BRANCH   1   4
ATOM      4  N   UNL d   1       1.368  -0.047   1.893  0.00  0.00    -0.348 N 
ATOM      5  C   UNL d   1       1.560  -1.260   2.276  0.00  0.00     0.192 C 
ATOM      6  C   UNL d   1       1.725  -2.347   1.354  0.00  0.00     0.129 C 
ATOM      7  C   UNL d   1       1.581  -1.445   3.703  0.00  0.00     0.129 C 
ATOM      8  N   UNL d   1       1.859  -3.198   0.573  0.00  0.00    -0.189 NA
ATOM      9  N   UNL d   1       1.579  -1.619   4.852  0.00  0.00    -0.189 NA
ATOM     10  HN  UNL d   1       1.324   0.692   2.594  1.00  0.00     0.162 HD
ENDBRANCH   1   4
BRANCH   1  11
ATOM     11  C   UNL d   1      -0.142   0.993   0.313  0.00  0.00     0.295 C 
ATOM     12  O   UNL d   1      -0.344   2.152  -0.019  0.00  0.00    -0.262 OA
BRANCH  11  13
ATOM     13  O   UNL d   1      -1.108   0.087   0.651  0.00  0.00    -0.319 OA
BRANCH  13  14
ATOM     14  C   UNL d   1      -2.449   0.579   0.766  0.00  0.00     0.174 C 
ATOM     15  C   UNL d   1      -3.040  -0.105   1.982  0.00  0.00     0.034 C 
ENDBRANCH  13  14
ENDBRANCH  11  13
ENDBRANCH   1  11
TORSDOF 4
