REMARK  6 active torsions:
REMARK  status: ('A' for Active; 'I' for Inactive)
REMARK    1  A    between atoms: C_4  and  S_1 
REMARK    2  A    between atoms: N_7  and  S_1 
REMARK       I    between atoms: C_2  and  N_9 
REMARK       I    between atoms: N_3  and  C_2 
REMARK    3  A    between atoms: C_14  and  N_7 
REMARK    4  A    between atoms: N_9  and  C_20 
REMARK    5  A    between atoms: O_19  and  C_13 
REMARK    6  A    between atoms: C_20  and  C_14 
ROOT
ATOM      1  N   UNL d   1       2.696  -0.160   0.068  0.00  0.00    -0.214 NA
ATOM      2  H   UNL d   1       3.082   0.744  -0.208  0.00  0.00     0.140 HD
ENDROOT
BRANCH   1   3
ATOM      3  S   UNL d   1       1.005  -0.123  -0.058  0.00  0.00     0.241 S 
ATOM      4  O   UNL d   1       0.701  -0.071  -1.472  0.00  0.00    -0.206 OA
ATOM      5  O   UNL d   1       0.446  -1.138   0.806  0.00  0.00    -0.206 OA
BRANCH   3   6
ATOM      6  C   UNL d   1       0.598   1.479   0.612  0.00  0.00     0.074 A 
ATOM      7  C   UNL d   1       0.546   2.587  -0.243  0.00  0.00     0.027 A 
ATOM      8  C   UNL d   1       0.129   3.831   0.247  0.00  0.00     0.038 A 
ATOM      9  C   UNL d   1      -0.241   3.964   1.587  0.00  0.00     0.068 A 
ATOM     10  C   UNL d   1      -0.203   2.845   2.425  0.00  0.00     0.038 A 
ATOM     11  C   UNL d   1       0.219   1.602   1.948  0.00  0.00     0.027 A 
BRANCH   9  12
ATOM     12  O   UNL d   1      -0.710   5.109   2.169  0.00  0.00    -0.356 OA
ATOM     13  C   UNL d   1      -0.293   6.333   1.576  0.00  0.00     0.210 C 
ENDBRANCH   9  12
ENDBRANCH   3   6
ENDBRANCH   1   3
BRANCH   1  14
ATOM     14  C   UNL d   1       3.251  -0.653   1.354  0.00  0.00     0.124 C 
BRANCH  14  15
ATOM     15  C   UNL d   1       4.789  -0.651   1.273  0.00  0.00     0.139 C 
BRANCH  15  16
ATOM     16  N   UNL d   1       5.478  -1.197   2.433  0.00  0.00    -0.342 N 
ATOM     17  C   UNL d   1       5.317  -0.628   3.668  0.00  0.00     0.318 C 
ATOM     18  N   UNL d   1       6.058  -1.187   4.686  0.00  0.00    -0.330 N 
ATOM     19  O   UNL d   1       4.538   0.304   3.849  0.00  0.00    -0.247 OA
ATOM     20  C   UNL d   1       6.882  -2.401   4.628  0.00  0.00     0.153 C 
ATOM     21  C   UNL d   1       5.825  -0.723   6.057  0.00  0.00     0.153 C 
ATOM     22  C   UNL d   1       6.288  -3.489   5.532  0.00  0.00     0.187 C 
ATOM     23  O   UNL d   1       6.119  -3.010   6.877  0.00  0.00    -0.388 OA
ATOM     24  C   UNL d   1       5.250  -1.863   6.905  0.00  0.00     0.187 C 
ATOM     25  H   UNL d   1       6.415  -1.514   2.249  0.00  0.00     0.164 HD
ENDBRANCH  15  16
ENDBRANCH  14  15
ENDBRANCH   1  14
TORSDOF 6
