REMARK  5 active torsions:
REMARK  status: ('A' for Active; 'I' for Inactive)
REMARK    1  A    between atoms: C_3  and  C_1 
REMARK    2  A    between atoms: C_13  and  C_2 
REMARK    3  A    between atoms: C_15  and  C_4 
REMARK    4  A    between atoms: C_22  and  C_8 
REMARK    5  A    between atoms: C_11  and  C_12 
ROOT
ATOM      1  C   UNL d   1       0.226  -2.794   0.035  0.00  0.00     0.089 A 
ATOM      2  N   UNL d   1       0.925  -3.304   1.026  0.00  0.00    -0.348 N 
ATOM      3  HN  UNL d   1       1.189  -2.803   1.875  1.00  0.00     0.166 HD
ATOM      4  C   UNL d   1       1.251  -4.623   0.746  0.00  0.00     0.057 A 
ATOM      5  S   UNL d   1      -0.178  -3.912  -1.215  0.00  0.00    -0.081 SA
ATOM      6  C   UNL d   1       0.802  -5.096  -0.466  0.00  0.00     0.082 A 
ENDROOT
BRANCH   1   7
ATOM      7  C   UNL d   1      -0.093  -1.341  -0.044  0.00  0.00     0.059 A 
ATOM      8  C   UNL d   1       0.666  -0.212   0.410  0.00  0.00     0.084 A 
ATOM      9  N   UNL d   1       0.025   0.918   0.073  0.00  0.00    -0.259 N 
ATOM     10  O   UNL d   1      -1.148   0.551  -0.545  0.00  0.00    -0.241 OA
ATOM     11  HN  UNL d   1       0.347   1.871   0.244  1.00  0.00     0.195 HD
ATOM     12  C   UNL d   1      -1.214  -0.799  -0.635  0.00  0.00     0.088 A 
ATOM     13  C   UNL d   1      -2.433  -1.345  -1.266  0.00  0.00     0.080 C 
BRANCH   8  14
ATOM     14  C   UNL d   1       1.989  -0.144   1.061  0.00  0.00     0.037 A 
ATOM     15  C   UNL d   1       3.097  -0.866   0.572  0.00  0.00     0.048 A 
ATOM     16 CL   UNL d   1       3.102  -1.707  -0.946  0.00  0.00    -0.083 Cl
ATOM     17  C   UNL d   1       4.332  -0.856   1.247  0.00  0.00     0.025 A 
ATOM     18  C   UNL d   1       4.521  -0.048   2.363  0.00  0.00     0.003 A 
ATOM     19  C   UNL d   1       3.473   0.748   2.807  0.00  0.00     0.025 A 
ATOM     20  C   UNL d   1       2.213   0.689   2.180  0.00  0.00     0.048 A 
ATOM     21 CL   UNL d   1       0.992   1.699   2.889  0.00  0.00    -0.083 Cl
ENDBRANCH   8  14
ENDBRANCH   1   7
BRANCH   4  22
ATOM     22  C   UNL d   1       2.034  -5.434   1.725  0.00  0.00     0.033 C 
ATOM     23  S   UNL d   1       2.925  -6.830   1.371  0.00  0.00    -0.083 SA
ATOM     24  C   UNL d   1       3.504  -6.968   2.993  0.00  0.00     0.100 C 
ATOM     25  C   UNL d   1       2.867  -6.054   3.830  0.00  0.00    -0.003 C 
ATOM     26  C   UNL d   1       2.085  -5.122   3.059  0.00  0.00     0.034 C 
BRANCH  24  27
ATOM     27  C   UNL d   1       4.553  -7.998   3.281  0.00  0.00     0.424 C 
ATOM     28  F   UNL d   1       5.134  -8.500   2.157  0.00  0.00    -0.166 F 
ATOM     29  F   UNL d   1       5.568  -7.493   4.032  0.00  0.00    -0.166 F 
ATOM     30  F   UNL d   1       4.054  -9.068   3.952  0.00  0.00    -0.166 F 
ENDBRANCH  24  27
BRANCH  25  31
ATOM     31  C   UNL d   1       3.022  -5.994   5.290  0.00  0.00    -0.025 A 
ATOM     32  C   UNL d   1       3.078  -7.148   6.080  0.00  0.00     0.012 A 
ATOM     33  C   UNL d   1       3.204  -7.060   7.471  0.00  0.00     0.001 A 
ATOM     34  C   UNL d   1       3.225  -5.816   8.092  0.00  0.00     0.000 A 
ATOM     35  C   UNL d   1       3.121  -4.659   7.328  0.00  0.00     0.001 A 
ATOM     36  C   UNL d   1       3.026  -4.746   5.934  0.00  0.00     0.012 A 
ENDBRANCH  25  31
ENDBRANCH   4  22
TORSDOF 5
