REMARK  7 active torsions:
REMARK  status: ('A' for Active; 'I' for Inactive)
REMARK    1  A    between atoms: C_14  and  N_4 
REMARK    2  A    between atoms: C_23  and  N_11 
REMARK    3  A    between atoms: C_19  and  C_12 
REMARK    4  A    between atoms: C_15  and  C_14 
REMARK    5  A    between atoms: C_18  and  C_15 
REMARK    6  A    between atoms: C_30  and  C_23 
REMARK    7  A    between atoms: C_31  and  C_30 
ROOT
ATOM      1  N   UNL d   1       1.144  -0.823   0.103  0.00  0.00    -0.203 N 
ATOM      2  C   UNL d   1       1.004   0.534  -0.181  0.00  0.00     0.136 A 
ATOM      3  C   UNL d   1      -1.254  -1.088   0.206  0.00  0.00     0.062 A 
ATOM      4  N   UNL d   1      -0.259   1.079  -0.272  0.00  0.00    -0.319 N 
ATOM      5  C   UNL d   1      -1.329   0.216  -0.069  0.00  0.00     0.118 A 
ATOM      6  C   UNL d   1       0.070  -1.718   0.320  0.00  0.00     0.278 A 
ATOM      7  N   UNL d   1       2.446  -1.192   0.228  0.00  0.00    -0.289 N 
ATOM      8  HN  UNL d   1       2.809  -2.114   0.467  1.00  0.00     0.188 HD
ATOM      9  C   UNL d   1       2.284   1.025  -0.281  0.00  0.00     0.082 A 
ATOM     10  C   UNL d   1      -2.783   0.535  -0.038  0.00  0.00     0.271 C 
ATOM     11  N   UNL d   1      -3.436  -0.581   0.484  0.00  0.00    -0.342 N 
ATOM     12  C   UNL d   1       3.154  -0.073  -0.032  0.00  0.00     0.062 A 
ATOM     13  C   UNL d   1      -2.556  -1.736   0.480  0.00  0.00     0.173 C 
ATOM     14  O   UNL d   1       0.240  -2.896   0.608  0.00  0.00    -0.265 OA
ATOM     15  O   UNL d   1      -3.291   1.579  -0.406  0.00  0.00    -0.266 OA
ENDROOT
BRANCH   4  16
ATOM     16  C   UNL d   1      -0.409   2.528  -0.029  0.00  0.00     0.215 C 
BRANCH  16  17
ATOM     17  C   UNL d   1       0.080   3.432  -1.155  0.00  0.00     0.177 C 
ATOM     18  O   UNL d   1       0.216   3.081  -2.328  0.00  0.00    -0.291 OA
BRANCH  17  19
ATOM     19  C   UNL d   1       0.461   4.821  -0.754  0.00  0.00     0.012 A 
ATOM     20  C   UNL d   1       1.361   5.537  -1.554  0.00  0.00     0.018 A 
ATOM     21  C   UNL d   1       1.877   6.755  -1.105  0.00  0.00     0.043 A 
ATOM     22  C   UNL d   1       1.482   7.258   0.130  0.00  0.00     0.116 A 
ATOM     23  C   UNL d   1       0.540   6.594   0.904  0.00  0.00     0.043 A 
ATOM     24  F   UNL d   1       2.023   8.395   0.587  0.00  0.00    -0.206 F 
ATOM     25  C   UNL d   1       0.014   5.382   0.456  0.00  0.00     0.018 A 
ENDBRANCH  17  19
ENDBRANCH  16  17
ENDBRANCH   4  16
BRANCH  12  26
ATOM     26  C   UNL d   1       4.627  -0.067  -0.018  0.00  0.00    -0.008 A 
ATOM     27  C   UNL d   1       5.352   0.939  -0.675  0.00  0.00     0.014 A 
ATOM     28  C   UNL d   1       6.752   0.945  -0.655  0.00  0.00     0.001 A 
ATOM     29  C   UNL d   1       7.444  -0.057   0.020  0.00  0.00     0.000 A 
ATOM     30  C   UNL d   1       6.740  -1.062   0.678  0.00  0.00     0.001 A 
ATOM     31  C   UNL d   1       5.341  -1.069   0.658  0.00  0.00     0.014 A 
ENDBRANCH  12  26
BRANCH  11  32
ATOM     32  C   UNL d   1      -4.890  -0.652   0.451  0.00  0.00     0.126 C 
BRANCH  32  33
ATOM     33  C   UNL d   1      -5.570  -1.646   1.395  0.00  0.00     0.020 C 
BRANCH  33  34
ATOM     34  C   UNL d   1      -5.322  -1.466   2.895  0.00  0.00    -0.003 C 
ATOM     35  C   UNL d   1      -5.872  -0.177   3.488  0.00  0.00     0.005 C 
ENDBRANCH  33  34
ENDBRANCH  32  33
ENDBRANCH  11  32
TORSDOF 7
