REMARK  6 active torsions:
REMARK  status: ('A' for Active; 'I' for Inactive)
REMARK    1  A    between atoms: C_3  and  C_1 
REMARK    2  A    between atoms: C_12  and  N_2 
REMARK    3  A    between atoms: S_16  and  C_6 
REMARK    4  A    between atoms: C_23  and  S_16 
REMARK    5  A    between atoms: C_21  and  C_23 
REMARK    6  A    between atoms: C_22  and  C_21 
ROOT
ATOM      1  N   UNL d   1      -0.076  10.908  -0.903  0.00  0.00    -0.191 NA
ATOM      2  C   UNL d   1       0.309   9.815  -0.801  0.00  0.00     0.099 C 
ATOM      3  C   UNL d   1       1.728   5.818  -0.509  0.00  0.00     0.011 A 
ATOM      4  C   UNL d   1       2.539   6.898  -0.121  0.00  0.00     0.017 A 
ATOM      5  C   UNL d   1       0.434   6.075  -0.978  0.00  0.00     0.017 A 
ATOM      6  C   UNL d   1       0.783   8.467  -0.683  0.00  0.00     0.044 A 
ATOM      7  C   UNL d   1      -0.033   7.395  -1.067  0.00  0.00     0.023 A 
ATOM      8  C   UNL d   1       2.068   8.213  -0.200  0.00  0.00     0.023 A 
ENDROOT
BRANCH   3   9
ATOM      9  C   UNL d   1       2.309   4.442  -0.449  0.00  0.00     0.169 C 
ATOM     10  O   UNL d   1       3.534   4.343  -0.509  0.00  0.00    -0.291 OA
BRANCH   9  11
ATOM     11  C   UNL d   1       1.362   3.259  -0.281  0.00  0.00     0.166 C 
BRANCH  11  12
ATOM     12  S   UNL d   1       2.273   1.681  -0.233  0.00  0.00    -0.085 SA
BRANCH  12  13
ATOM     13  C   UNL d   1       0.995   0.528  -0.075  0.00  0.00     0.163 A 
ATOM     14  N   UNL d   1       1.139  -0.838   0.007  0.00  0.00    -0.305 N 
ATOM     15  C   UNL d   1      -0.149  -1.351  -0.002  0.00  0.00     0.145 A 
ATOM     16  N   UNL d   1      -0.998  -0.344  -0.105  0.00  0.00    -0.282 N 
ATOM     17  N   UNL d   1      -0.283   0.829  -0.141  0.00  0.00    -0.278 N 
ATOM     18  HN  UNL d   1      -2.014  -0.423  -0.150  1.00  0.00     0.188 HD
ATOM     19  HN  UNL d   1      -0.676   1.768  -0.207  1.00  0.00     0.189 HD
BRANCH  14  20
ATOM     20  C   UNL d   1       2.340  -1.655   0.049  0.00  0.00     0.094 A 
ATOM     21  C   UNL d   1       3.023  -1.923   1.375  0.00  0.00     0.028 A 
ATOM     22  C   UNL d   1       3.773  -1.242   0.274  0.00  0.00     0.028 A 
ENDBRANCH  14  20
BRANCH  15  23
ATOM     23  C   UNL d   1      -0.575  -2.714   0.144  0.00  0.00     0.092 A 
ATOM     24  C   UNL d   1      -1.677  -3.365  -0.405  0.00  0.00     0.044 A 
ATOM     25  N   UNL d   1      -1.807  -4.705  -0.040  0.00  0.00    -0.298 N 
ATOM     26  C   UNL d   1      -2.715  -2.829  -1.320  0.00  0.00     0.071 C 
ATOM     27  N   UNL d   1      -0.869  -5.082   0.806  0.00  0.00    -0.269 N 
ATOM     28  HN  UNL d   1      -2.542  -5.321  -0.387  1.00  0.00     0.187 HD
ATOM     29  S   UNL d   1       0.166  -3.846   1.208  0.00  0.00     0.007 SA
ATOM     30  HN  UNL d   1      -0.788  -6.030   1.174  1.00  0.00     0.195 HD
ENDBRANCH  15  23
ENDBRANCH  12  13
ENDBRANCH  11  12
ENDBRANCH   9  11
ENDBRANCH   3   9
TORSDOF 6
