REMARK  4 active torsions:
REMARK  status: ('A' for Active; 'I' for Inactive)
REMARK    1  A    between atoms: C_6  and  C_1 
REMARK    2  A    between atoms: O_14  and  C_2 
REMARK    3  A    between atoms: C_10  and  N_4 
REMARK    4  A    between atoms: C_9  and  C_10 
ROOT
ATOM      1  N   UNL d   1      -1.429   4.033   0.025  0.00  0.00    -0.388 N 
ATOM      2  HN  UNL d   1      -1.483   5.051   0.016  1.00  0.00     0.159 HD
ATOM      3  C   UNL d   1      -0.267   3.467   0.031  0.00  0.00     0.014 C 
ATOM      4  C   UNL d   1      -0.030   1.969   0.047  0.00  0.00     0.068 C 
ENDROOT
BRANCH   3   5
ATOM      5  C   UNL d   1       0.951   4.369   0.025  0.00  0.00     0.022 A 
ATOM      6  C   UNL d   1       0.815   5.772   0.039  0.00  0.00     0.099 A 
ATOM      7  C   UNL d   1       1.952   6.595   0.043  0.00  0.00     0.069 A 
ATOM      8 CL   UNL d   1       1.821   8.318   0.062  0.00  0.00    -0.081 Cl
ATOM      9  C   UNL d   1       3.228   6.037   0.032  0.00  0.00     0.050 A 
ATOM     10  C   UNL d   1       3.365   4.654   0.015  0.00  0.00     0.036 A 
ATOM     11  C   UNL d   1       2.243   3.821   0.010  0.00  0.00     0.040 A 
ATOM     12 CL   UNL d   1       4.938   3.955   0.002  0.00  0.00    -0.084 Cl
BRANCH   6  13
ATOM     13  O   UNL d   1      -0.416   6.380   0.049  0.00  0.00    -0.358 OA
ATOM     14  H   UNL d   1      -1.096   5.668   0.020  0.00  0.00     0.217 HD
ENDBRANCH   6  13
ENDBRANCH   3   5
BRANCH   1  15
ATOM     15  C   UNL d   1      -2.677   3.254   0.032  0.00  0.00     0.160 C 
BRANCH  15  16
ATOM     16  C   UNL d   1      -3.183   2.919   1.419  0.00  0.00    -0.019 A 
ATOM     17  C   UNL d   1      -3.948   1.770   1.685  0.00  0.00     0.042 A 
ATOM     18 CL   UNL d   1      -4.340   0.621   0.455  0.00  0.00    -0.084 Cl
ATOM     19  C   UNL d   1      -4.440   1.519   2.972  0.00  0.00     0.024 A 
ATOM     20  C   UNL d   1      -4.195   2.418   4.008  0.00  0.00     0.002 A 
ATOM     21  C   UNL d   1      -3.464   3.575   3.757  0.00  0.00     0.001 A 
ATOM     22  C   UNL d   1      -2.969   3.825   2.475  0.00  0.00     0.010 A 
ENDBRANCH  15  16
ENDBRANCH   1  15
TORSDOF 4
