REMARK  10 active torsions:
REMARK  status: ('A' for Active; 'I' for Inactive)
REMARK    1  A    between atoms: C_7  and  C_1 
REMARK    2  A    between atoms: C_8  and  C_2 
REMARK    3  A    between atoms: C_9  and  C_2 
REMARK    4  A    between atoms: C_3  and  N_11 
REMARK    5  A    between atoms: N_11  and  C_4 
REMARK    6  A    between atoms: O_15  and  C_7 
REMARK    7  A    between atoms: O_17  and  C_8 
REMARK    8  A    between atoms: O_16  and  C_9 
REMARK    9  A    between atoms: C_20  and  O_16 
REMARK   10  A    between atoms: C_19  and  O_17 
ROOT
ATOM      1  C   UNL d   1      -3.193  -4.511  -0.076  0.00  0.00     0.129 C 
ATOM      2  C   UNL d   1      -2.235  -3.562  -0.067  0.00  0.00     0.112 C 
ENDROOT
BRANCH   2   3
ATOM      3  N   UNL d   1      -2.337  -2.185  -0.000  0.00  0.00    -0.363 N 
ATOM      4  H   UNL d   1      -1.909  -1.795   0.844  0.00  0.00     0.165 HD
BRANCH   3   5
ATOM      5  C   UNL d   1      -2.528  -1.325  -1.044  0.00  0.00     0.056 A 
ATOM      6  C   UNL d   1      -2.522   0.116  -0.909  0.00  0.00     0.079 A 
ATOM      7  C   UNL d   1      -2.696   0.723  -2.154  0.00  0.00    -0.003 A 
ATOM      8  S   UNL d   1      -2.905  -0.415  -3.414  0.00  0.00    -0.103 SA
ATOM      9  C   UNL d   1      -2.716   2.182  -2.493  0.00  0.00     0.057 C 
ATOM     10  C   UNL d   1      -2.747  -1.728  -2.343  0.00  0.00     0.080 A 
BRANCH   6  11
ATOM     11  C   UNL d   1      -2.372   0.894   0.331  0.00  0.00     0.296 C 
ATOM     12  O   UNL d   1      -2.466   2.117   0.379  0.00  0.00    -0.259 OA
BRANCH  11  13
ATOM     13  O   UNL d   1      -2.136   0.118   1.431  0.00  0.00    -0.322 OA
ATOM     14  C   UNL d   1      -2.090   0.853   2.655  0.00  0.00     0.213 C 
ENDBRANCH  11  13
ENDBRANCH   6  11
ENDBRANCH   3   5
ENDBRANCH   2   3
BRANCH   1  15
ATOM     15  C   UNL d   1      -4.646  -4.233   0.021  0.00  0.00     0.300 C 
ATOM     16  O   UNL d   1      -5.511  -5.004  -0.375  0.00  0.00    -0.259 OA
BRANCH  15  17
ATOM     17  O   UNL d   1      -4.896  -3.027   0.593  0.00  0.00    -0.318 OA
BRANCH  17  18
ATOM     18  C   UNL d   1      -6.269  -2.619   0.627  0.00  0.00     0.174 C 
ATOM     19  C   UNL d   1      -6.745  -2.179  -0.747  0.00  0.00     0.034 C 
ENDBRANCH  17  18
ENDBRANCH  15  17
ENDBRANCH   1  15
BRANCH   1  20
ATOM     20  C   UNL d   1      -2.715  -5.897  -0.294  0.00  0.00     0.300 C 
ATOM     21  O   UNL d   1      -1.677  -6.178  -0.877  0.00  0.00    -0.259 OA
BRANCH  20  22
ATOM     22  O   UNL d   1      -3.588  -6.794   0.225  0.00  0.00    -0.318 OA
BRANCH  22  23
ATOM     23  C   UNL d   1      -3.436  -8.150  -0.220  0.00  0.00     0.174 C 
ATOM     24  C   UNL d   1      -4.193  -8.330  -1.524  0.00  0.00     0.034 C 
ENDBRANCH  22  23
ENDBRANCH  20  22
ENDBRANCH   1  20
TORSDOF 10
