REMARK  2 active torsions:
REMARK  status: ('A' for Active; 'I' for Inactive)
REMARK    1  A    between atoms: C_11  and  N_4 
REMARK    2  A    between atoms: C_8  and  N_7 
ROOT
ATOM      1  C   UNL d   1      -0.471  -1.527   0.250  0.00  0.00     0.168 C 
ATOM      2  S   UNL d   1       1.205  -1.083   0.526  0.00  0.00    -0.021 SA
ATOM      3  C   UNL d   1       0.818   0.529  -0.016  0.00  0.00     0.167 C 
ATOM      4  N   UNL d   1      -1.191  -0.366  -0.011  0.00  0.00    -0.237 N 
ATOM      5  N   UNL d   1      -0.431   0.761  -0.256  0.00  0.00    -0.271 N 
ATOM      6  HN  UNL d   1      -0.804   1.653  -0.582  1.00  0.00     0.189 HD
ATOM      7  N   UNL d   1       1.883   1.377  -0.110  0.00  0.00    -0.334 N 
ATOM      8  S   UNL d   1      -0.952  -3.128   0.208  0.00  0.00    -0.050 SA
ATOM      9  H   UNL d   1       2.709   1.162   0.434  0.00  0.00     0.168 HD
ENDROOT
BRANCH   7  10
ATOM     10  C   UNL d   1       1.949   2.542  -0.895  0.00  0.00     0.057 A 
ATOM     11  C   UNL d   1       1.242   2.630  -2.104  0.00  0.00     0.055 A 
ATOM     12  C   UNL d   1       1.262   3.802  -2.858  0.00  0.00     0.036 A 
ATOM     13 CL   UNL d   1       0.422   3.861  -4.358  0.00  0.00    -0.084 Cl
ATOM     14  C   UNL d   1       1.961   4.919  -2.410  0.00  0.00     0.026 A 
ATOM     15  C   UNL d   1       2.668   4.853  -1.207  0.00  0.00     0.028 A 
ATOM     16  C   UNL d   1       2.670   3.670  -0.462  0.00  0.00     0.060 A 
ATOM     17 CL   UNL d   1       3.568   3.633   1.015  0.00  0.00    -0.082 Cl
ENDBRANCH   7  10
BRANCH   4  18
ATOM     18  C   UNL d   1      -2.604  -0.179   0.017  0.00  0.00     0.058 A 
ATOM     19  C   UNL d   1      -3.426  -0.954   0.852  0.00  0.00     0.031 A 
ATOM     20  C   UNL d   1      -4.809  -0.781   0.870  0.00  0.00     0.002 A 
ATOM     21  C   UNL d   1      -5.403   0.178   0.058  0.00  0.00     0.000 A 
ATOM     22  C   UNL d   1      -4.605   0.988  -0.744  0.00  0.00     0.002 A 
ATOM     23  C   UNL d   1      -3.214   0.826  -0.751  0.00  0.00     0.031 A 
ENDBRANCH   4  18
TORSDOF 2
