REMARK  1 active torsions:
REMARK  status: ('A' for Active; 'I' for Inactive)
REMARK    1  A    between atoms: C_5  and  C_3 
ROOT
ATOM      1  N   UNL d   1       0.914   0.508  -0.041  0.00  0.00    -0.322 N 
ATOM      2  C   UNL d   1       1.727  -0.601  -0.134  0.00  0.00     0.044 A 
ATOM      3  C   UNL d   1       1.097  -1.936  -0.362  0.00  0.00     0.165 C 
ATOM      4  N   UNL d   1      -0.312  -2.020  -0.005  0.00  0.00    -0.374 N 
ATOM      5  C   UNL d   1      -0.498   0.428  -0.033  0.00  0.00     0.065 A 
ATOM      6  C   UNL d   1      -1.070  -0.854   0.057  0.00  0.00     0.056 A 
ATOM      7  C   UNL d   1       1.717   1.622   0.059  0.00  0.00     0.097 A 
ATOM      8  C   UNL d   1       3.044  -0.187  -0.065  0.00  0.00     0.029 A 
ATOM      9  C   UNL d   1       3.035   1.218   0.065  0.00  0.00     0.020 A 
ATOM     10  C   UNL d   1      -1.296   1.579  -0.061  0.00  0.00     0.032 A 
ATOM     11  C   UNL d   1      -2.464  -0.951   0.117  0.00  0.00     0.031 A 
ATOM     12  C   UNL d   1      -2.684   1.454  -0.013  0.00  0.00     0.002 A 
ATOM     13  C   UNL d   1      -3.268   0.191   0.083  0.00  0.00     0.002 A 
ATOM     14  H   UNL d   1      -0.599  -2.780   0.599  0.00  0.00     0.160 HD
ENDROOT
BRANCH   3  15
ATOM     15  C   UNL d   1       1.861  -3.090   0.291  0.00  0.00    -0.027 A 
ATOM     16  C   UNL d   1       2.347  -4.127  -0.544  0.00  0.00     0.042 A 
ATOM     17  C   UNL d   1       3.092  -5.155   0.081  0.00  0.00     0.067 A 
ATOM     18  N   UNL d   1       3.648  -6.208  -0.538  0.00  0.00    -0.310 N 
ATOM     19  C   UNL d   1       3.333  -5.140   1.565  0.00  0.00     0.067 A 
ATOM     20  S   UNL d   1       4.413  -7.091   0.644  0.00  0.00     0.068 SA
ATOM     21  HN  UNL d   1       3.609  -6.423  -1.534  1.00  0.00     0.176 HD
ATOM     22  N   UNL d   1       4.065  -6.182   1.991  0.00  0.00    -0.310 N 
ATOM     23  HN  UNL d   1       4.351  -6.376   2.950  1.00  0.00     0.176 HD
ATOM     24  C   UNL d   1       2.815  -4.101   2.373  0.00  0.00     0.033 A 
ATOM     25  C   UNL d   1       2.084  -3.101   1.702  0.00  0.00     0.012 A 
ENDBRANCH   3  15
TORSDOF 1
