REMARK  4 active torsions:
REMARK  status: ('A' for Active; 'I' for Inactive)
REMARK    1  A    between atoms: C_3  and  S_1 
REMARK    2  A    between atoms: O_6  and  S_1 
REMARK    3  A    between atoms: N_4  and  C_2 
REMARK    4  A    between atoms: C_5  and  O_6 
ROOT
ATOM      1  S   UNL d   1       1.486  -0.356   1.378  0.00  0.00     0.304 S 
ATOM      2  O   UNL d   1       1.716  -0.780   2.749  0.00  0.00    -0.193 OA
ATOM      3  O   UNL d   1       2.607  -0.107   0.486  0.00  0.00    -0.193 OA
ENDROOT
BRANCH   1   4
ATOM      4  C   UNL d   1       0.669   1.221   1.488  0.00  0.00     0.108 A 
ATOM      5  C   UNL d   1      -0.577   1.525   0.941  0.00  0.00     0.059 A 
ATOM      6  C   UNL d   1      -1.077   2.832   1.060  0.00  0.00     0.049 A 
ATOM      7 CL   UNL d   1      -1.577   0.426   0.072  0.00  0.00    -0.083 Cl
ATOM      8  C   UNL d   1      -0.333   3.822   1.702  0.00  0.00     0.035 A 
ATOM      9  C   UNL d   1       0.915   3.527   2.236  0.00  0.00     0.025 A 
ATOM     10 CL   UNL d   1      -0.956   5.421   1.820  0.00  0.00    -0.084 Cl
ATOM     11  C   UNL d   1       1.414   2.229   2.133  0.00  0.00     0.029 A 
ENDBRANCH   1   4
BRANCH   1  12
ATOM     12  O   UNL d   1       0.478  -1.419   0.688  0.00  0.00    -0.227 OA
BRANCH  12  13
ATOM     13  C   UNL d   1       0.846  -2.676   0.273  0.00  0.00     0.122 A 
ATOM     14  C   UNL d   1      -0.168  -3.622   0.060  0.00  0.00     0.138 A 
ATOM     15  C   UNL d   1       0.088  -4.869  -0.533  0.00  0.00     0.045 A 
ATOM     16  C   UNL d   1       1.390  -5.194  -0.922  0.00  0.00    -0.059 A 
ATOM     17  C   UNL d   1       2.419  -4.285  -0.655  0.00  0.00     0.010 A 
ATOM     18  C   UNL d   1       1.662  -6.474  -1.656  0.00  0.00     0.048 C 
ATOM     19  C   UNL d   1       2.151  -3.041  -0.064  0.00  0.00     0.041 A 
BRANCH  14  20
ATOM     20  N   UNL d   1      -1.539  -3.329   0.451  0.00  0.00    -0.113 N 
ATOM     21  O   UNL d   1      -1.725  -2.874   1.588  0.00  0.00    -0.532 OA
ATOM     22  O   UNL d   1      -2.429  -3.589  -0.371  0.00  0.00    -0.532 OA
ENDBRANCH  14  20
ENDBRANCH  12  13
ENDBRANCH   1  12
TORSDOF 4
