REMARK  5 active torsions:
REMARK  status: ('A' for Active; 'I' for Inactive)
REMARK    1  A    between atoms: C_2  and  C_1 
REMARK       I    between atoms: N_4  and  C_1 
REMARK       I    between atoms: C_3  and  N_5 
REMARK       I    between atoms: N_6  and  C_3 
REMARK    2  A    between atoms: C_10  and  N_4 
REMARK    3  A    between atoms: N_5  and  C_11 
REMARK    4  A    between atoms: C_12  and  N_6 
REMARK    5  A    between atoms: O_15  and  C_7 
ROOT
ATOM      1  C   UNL d   1      -1.320   1.212   0.269  0.00  0.00     0.035 A 
ATOM      2  C   UNL d   1      -4.120   1.328   0.683  0.00  0.00     0.036 A 
ATOM      3  C   UNL d   1      -2.124   0.094   0.045  0.00  0.00     0.032 A 
ATOM      4  C   UNL d   1      -1.941   2.414   0.615  0.00  0.00     0.032 A 
ATOM      5  C   UNL d   1      -3.327   2.469   0.820  0.00  0.00     0.032 A 
ATOM      6  C   UNL d   1      -3.511   0.152   0.242  0.00  0.00     0.032 A 
ENDROOT
BRANCH   2   7
ATOM      7  N   UNL d   1      -5.493   1.265   1.024  0.00  0.00    -0.309 N 
ATOM      8  C   UNL d   1      -6.213   2.246   1.687  0.00  0.00     0.325 C 
ATOM      9  N   UNL d   1      -7.452   1.780   2.110  0.00  0.00    -0.309 N 
ATOM     10  O   UNL d   1      -5.786   3.373   1.916  0.00  0.00    -0.247 OA
ATOM     11  H   UNL d   1      -7.699   0.834   1.862  0.00  0.00     0.170 HD
ATOM     12  H   UNL d   1      -5.939   0.371   0.898  0.00  0.00     0.170 HD
BRANCH   9  13
ATOM     13  C   UNL d   1      -8.359   2.461   2.957  0.00  0.00     0.036 A 
ATOM     14  C   UNL d   1      -8.165   3.772   3.409  0.00  0.00     0.032 A 
ATOM     15  C   UNL d   1      -9.063   4.365   4.298  0.00  0.00     0.044 A 
ATOM     16  C   UNL d   1     -10.167   3.651   4.733  0.00  0.00     0.116 A 
ATOM     17  C   UNL d   1     -10.398   2.359   4.282  0.00  0.00     0.044 A 
ATOM     18  F   UNL d   1     -11.017   4.213   5.602  0.00  0.00    -0.206 F 
ATOM     19  C   UNL d   1      -9.496   1.762   3.391  0.00  0.00     0.032 A 
ENDBRANCH   9  13
ENDBRANCH   2   7
BRANCH   1  20
ATOM     20  N   UNL d   1       0.091   1.207   0.176  0.00  0.00    -0.323 N 
ATOM     21  C   UNL d   1       0.895   0.101  -0.037  0.00  0.00     0.259 C 
ATOM     22  O   UNL d   1       0.508  -1.058  -0.174  0.00  0.00    -0.267 OA
ATOM     23  H   UNL d   1       0.536   2.110   0.278  0.00  0.00     0.169 HD
BRANCH  21  24
ATOM     24  C   UNL d   1       2.363   0.337  -0.161  0.00  0.00     0.065 A 
ATOM     25  C   UNL d   1       3.127  -0.567  -0.921  0.00  0.00     0.081 A 
ATOM     26  C   UNL d   1       4.490  -0.365  -1.117  0.00  0.00     0.037 A 
ATOM     27  C   UNL d   1       5.119   0.730  -0.531  0.00  0.00     0.003 A 
ATOM     28  C   UNL d   1       4.386   1.611   0.265  0.00  0.00     0.001 A 
ATOM     29  C   UNL d   1       3.012   1.416   0.456  0.00  0.00     0.020 A 
BRANCH  25  30
ATOM     30  O   UNL d   1       2.598  -1.686  -1.511  0.00  0.00    -0.360 OA
ATOM     31  H   UNL d   1       1.689  -1.809  -1.151  0.00  0.00     0.217 HD
ENDBRANCH  25  30
ENDBRANCH  21  24
ENDBRANCH   1  20
TORSDOF 5
