REMARK  3 active torsions:
REMARK  status: ('A' for Active; 'I' for Inactive)
REMARK    1  A    between atoms: C_2  and  C_1 
REMARK       I    between atoms: N_5  and  C_2 
REMARK    2  A    between atoms: C_13  and  N_5 
REMARK    3  A    between atoms: O_21  and  C_16 
ROOT
ATOM      1  C   UNL d   1       0.144   3.082  -0.313  0.00  0.00     0.259 C 
ATOM      2  N   UNL d   1      -1.109   3.497   0.103  0.00  0.00    -0.323 N 
ATOM      3  O   UNL d   1       1.043   3.833  -0.692  0.00  0.00    -0.267 OA
ATOM      4  H   UNL d   1      -1.722   2.783   0.482  0.00  0.00     0.169 HD
ENDROOT
BRANCH   1   5
ATOM      5  C   UNL d   1       0.468   1.620  -0.239  0.00  0.00     0.069 A 
ATOM      6  C   UNL d   1      -0.434   0.591   0.084  0.00  0.00     0.096 A 
ATOM      7  C   UNL d   1       0.025  -0.736   0.209  0.00  0.00     0.003 A 
ATOM      8  O   UNL d   1      -1.758   0.890   0.292  0.00  0.00    -0.325 OA
ATOM      9  C   UNL d   1      -0.910  -1.828   0.640  0.00  0.00     0.212 C 
ATOM     10  C   UNL d   1       1.360  -1.047  -0.074  0.00  0.00     0.054 A 
ATOM     11  O   UNL d   1      -2.110  -1.285   1.172  0.00  0.00    -0.362 OA
ATOM     12  C   UNL d   1      -2.597  -0.270   0.308  0.00  0.00     0.345 C 
ATOM     13  C   UNL d   1       2.236  -0.036  -0.434  0.00  0.00     0.118 A 
ATOM     14  C   UNL d   1       1.810   1.281  -0.505  0.00  0.00     0.062 A 
ATOM     15  F   UNL d   1       3.513  -0.333  -0.703  0.00  0.00    -0.206 F 
ENDBRANCH   1   5
BRANCH   2  16
ATOM     16  C   UNL d   1      -1.537   4.841   0.220  0.00  0.00     0.035 A 
ATOM     17  C   UNL d   1      -0.845   5.920  -0.340  0.00  0.00     0.032 A 
ATOM     18  C   UNL d   1      -1.236   7.239  -0.088  0.00  0.00     0.039 A 
ATOM     19  C   UNL d   1      -2.329   7.497   0.733  0.00  0.00     0.068 A 
ATOM     20  C   UNL d   1      -3.084   6.428   1.217  0.00  0.00     0.039 A 
ATOM     21  C   UNL d   1      -2.693   5.107   0.962  0.00  0.00     0.032 A 
BRANCH  19  22
ATOM     22  O   UNL d   1      -2.743   8.749   1.095  0.00  0.00    -0.356 OA
ATOM     23  C   UNL d   1      -1.688   9.698   1.242  0.00  0.00     0.210 C 
ENDBRANCH  19  22
ENDBRANCH   2  16
TORSDOF 3
