REMARK  5 active torsions:
REMARK  status: ('A' for Active; 'I' for Inactive)
REMARK    1  A    between atoms: O_2  and  S_1 
REMARK    2  A    between atoms: C_10  and  S_1 
REMARK    3  A    between atoms: C_3  and  O_2 
REMARK    4  A    between atoms: O_19  and  C_11 
REMARK    5  A    between atoms: O_20  and  C_13 
ROOT
ATOM      1  C   UNL d   1       0.622  -1.730   2.078  0.00  0.00     0.162 A 
ATOM      2  N   UNL d   1       1.916  -2.093   1.962  0.00  0.00    -0.339 N 
ATOM      3  HN  UNL d   1       2.549  -1.584   1.344  1.00  0.00     0.168 HD
ATOM      4  C   UNL d   1       1.530  -3.889   3.569  0.00  0.00    -0.001 A 
ATOM      5  C   UNL d   1       0.191  -3.483   3.668  0.00  0.00    -0.017 A 
ATOM      6  C   UNL d   1       2.356  -3.154   2.689  0.00  0.00     0.018 A 
ATOM      7  C   UNL d   1       1.954  -4.995   4.348  0.00  0.00     0.054 A 
ATOM      8  C   UNL d   1       1.082  -5.693   5.200  0.00  0.00     0.102 A 
ATOM      9  C   UNL d   1      -0.685  -4.193   4.502  0.00  0.00     0.052 A 
ATOM     10  C   UNL d   1      -0.260  -5.292   5.264  0.00  0.00     0.102 A 
ATOM     11  C   UNL d   1      -0.256  -2.381   2.930  0.00  0.00     0.069 A 
ATOM     12  C   UNL d   1       3.798  -3.525   2.479  0.00  0.00     0.069 C 
ENDROOT
BRANCH   1  13
ATOM     13  O   UNL d   1       0.293  -0.661   1.294  0.00  0.00    -0.211 OA
BRANCH  13  14
ATOM     14  S   UNL d   1      -1.249  -0.410   0.852  0.00  0.00     0.304 S 
ATOM     15  O   UNL d   1      -1.905   0.340   1.907  0.00  0.00    -0.193 OA
ATOM     16  O   UNL d   1      -1.823  -1.650   0.360  0.00  0.00    -0.193 OA
BRANCH  14  17
ATOM     17  C   UNL d   1      -1.136   0.655  -0.567  0.00  0.00     0.086 A 
ATOM     18  C   UNL d   1      -0.312   0.280  -1.632  0.00  0.00     0.026 A 
ATOM     19  C   UNL d   1      -0.301   1.052  -2.793  0.00  0.00     0.008 A 
ATOM     20  C   UNL d   1      -1.107   2.197  -2.894  0.00  0.00    -0.062 A 
ATOM     21  C   UNL d   1      -1.907   2.573  -1.806  0.00  0.00     0.008 A 
ATOM     22  C   UNL d   1      -1.129   2.982  -4.173  0.00  0.00     0.048 C 
ATOM     23  C   UNL d   1      -1.923   1.806  -0.641  0.00  0.00     0.026 A 
ENDBRANCH  14  17
ENDBRANCH  13  14
ENDBRANCH   1  13
BRANCH  10  24
ATOM     24  O   UNL d   1      -1.286  -5.834   5.995  0.00  0.00    -0.353 OA
ATOM     25  C   UNL d   1      -1.024  -6.952   6.828  0.00  0.00     0.210 C 
ENDBRANCH  10  24
BRANCH   8  26
ATOM     26  O   UNL d   1       1.483  -6.750   5.971  0.00  0.00    -0.353 OA
ATOM     27  C   UNL d   1       2.854  -7.124   5.958  0.00  0.00     0.210 C 
ENDBRANCH   8  26
TORSDOF 5
