REMARK  4 active torsions:
REMARK  status: ('A' for Active; 'I' for Inactive)
REMARK    1  A    between atoms: C_2  and  C_1 
REMARK    2  A    between atoms: O_14  and  C_2 
REMARK    3  A    between atoms: C_7  and  C_8 
REMARK    4  A    between atoms: C_16  and  O_14 
ROOT
ATOM      1  C   UNL d   1      -2.892  -1.640  -1.285  0.00  0.00     0.051 A 
ATOM      2  C   UNL d   1      -2.686  -2.493  -0.184  0.00  0.00     0.094 A 
ATOM      3  C   UNL d   1      -4.172  -1.073  -1.444  0.00  0.00     0.018 A 
ATOM      4  C   UNL d   1      -3.716  -2.756   0.730  0.00  0.00     0.038 A 
ATOM      5  C   UNL d   1      -5.205  -1.352  -0.543  0.00  0.00     0.001 A 
ATOM      6  C   UNL d   1      -4.978  -2.196   0.538  0.00  0.00     0.003 A 
ENDROOT
BRANCH   2   7
ATOM      7  O   UNL d   1      -1.385  -3.007   0.052  0.00  0.00    -0.273 OA
BRANCH   7   8
ATOM      8  C   UNL d   1      -1.210  -4.348   0.407  0.00  0.00     0.317 C 
ATOM      9  O   UNL d   1      -2.127  -5.160   0.473  0.00  0.00    -0.257 OA
BRANCH   8  10
ATOM     10  C   UNL d   1       0.179  -4.696   0.721  0.00  0.00     0.138 A 
ATOM     11  N   UNL d   1       0.427  -5.982   1.225  0.00  0.00    -0.288 N 
ATOM     12  N   UNL d   1       1.705  -6.197   1.468  0.00  0.00    -0.269 N 
ATOM     13  HN  UNL d   1      -0.303  -6.676   1.385  1.00  0.00     0.188 HD
ATOM     14  S   UNL d   1       2.661  -4.889   1.099  0.00  0.00    -0.001 SA
ATOM     15  HN  UNL d   1       2.068  -7.074   1.842  1.00  0.00     0.195 HD
ATOM     16  C   UNL d   1       1.328  -3.917   0.595  0.00  0.00     0.031 A 
ATOM     17  C   UNL d   1       1.588  -2.537   0.113  0.00  0.00     0.060 C 
ENDBRANCH   8  10
ENDBRANCH   7   8
ENDBRANCH   2   7
BRANCH   1  18
ATOM     18  C   UNL d   1      -1.833  -1.342  -2.244  0.00  0.00     0.176 A 
ATOM     19  N   UNL d   1      -0.555  -1.675  -2.255  0.00  0.00    -0.278 N 
ATOM     20  N   UNL d   1      -0.012  -1.143  -3.405  0.00  0.00    -0.288 N 
ATOM     21  HN  UNL d   1      -0.063  -2.221  -1.547  1.00  0.00     0.189 HD
ATOM     22  C   UNL d   1      -0.997  -0.532  -4.020  0.00  0.00     0.251 A 
ATOM     23  HN  UNL d   1       0.958  -1.211  -3.715  1.00  0.00     0.188 HD
ATOM     24  O   UNL d   1      -2.179  -0.603  -3.352  0.00  0.00    -0.285 OA
ENDBRANCH   1  18
TORSDOF 4
