REMARK  6 active torsions:
REMARK  status: ('A' for Active; 'I' for Inactive)
REMARK    1  A    between atoms: C_4  and  N_1 
REMARK    2  A    between atoms: C_6  and  C_4 
REMARK    3  A    between atoms: S_5  and  C_6 
REMARK    4  A    between atoms: C_8  and  S_5 
REMARK    5  A    between atoms: C_7  and  C_6 
REMARK    6  A    between atoms: C_9  and  C_7 
ROOT
ATOM      1  C   UNL d   1       3.855  -0.038  -0.056  0.00  0.00     0.145 C 
ENDROOT
BRANCH   1   2
ATOM      2  S   UNL d   1       4.516   1.026  -1.423  0.00  0.00    -0.111 SA
BRANCH   2   3
ATOM      3  C   UNL d   1       3.796   0.223  -2.842  0.00  0.00     0.001 A 
ATOM      4  C   UNL d   1       2.549   0.629  -3.329  0.00  0.00     0.018 A 
ATOM      5  C   UNL d   1       1.998   0.011  -4.454  0.00  0.00     0.001 A 
ATOM      6  C   UNL d   1       2.699  -1.002  -5.105  0.00  0.00     0.000 A 
ATOM      7  C   UNL d   1       3.949  -1.398  -4.634  0.00  0.00     0.001 A 
ATOM      8  C   UNL d   1       4.498  -0.787  -3.505  0.00  0.00     0.018 A 
ENDBRANCH   2   3
ENDBRANCH   1   2
BRANCH   1   9
ATOM      9  C   UNL d   1       2.335  -0.038  -0.056  0.00  0.00    -0.062 C 
BRANCH   9  10
ATOM     10  N   UNL d   1       1.074  -0.038  -0.056  0.00  0.00    -0.369 N 
ATOM     11  HN2 UNL d   1       2.094  -0.038  -0.056  1.00  0.00     0.165 HD
ATOM     12  HN1 UNL d   1       0.054  -0.038  -0.056  1.00  0.00     0.165 HD
ENDBRANCH   9  10
ENDBRANCH   1   9
BRANCH   1  13
ATOM     13  C   UNL d   1       4.384   0.542   1.269  0.00  0.00     0.067 C 
BRANCH  13  14
ATOM     14  C   UNL d   1       4.013  -0.266   2.495  0.00  0.00    -0.056 A 
ATOM     15  C   UNL d   1       4.803  -1.347   2.905  0.00  0.00     0.007 A 
ATOM     16  C   UNL d   1       4.463  -2.075   4.047  0.00  0.00     0.001 A 
ATOM     17  C   UNL d   1       3.330  -1.735   4.785  0.00  0.00     0.000 A 
ATOM     18  C   UNL d   1       2.533  -0.668   4.380  0.00  0.00     0.001 A 
ATOM     19  C   UNL d   1       2.872   0.064   3.241  0.00  0.00     0.007 A 
ENDBRANCH  13  14
ENDBRANCH   1  13
TORSDOF 6
