REMARK  5 active torsions:
REMARK  status: ('A' for Active; 'I' for Inactive)
REMARK    1  A    between atoms: C_14  and  N_2 
REMARK    2  A    between atoms: C_11  and  C_4 
REMARK    3  A    between atoms: C_13  and  N_5 
REMARK    4  A    between atoms: C_17  and  C_11 
REMARK    5  A    between atoms: C_20  and  C_12 
ROOT
ATOM      1  C   UNL d   1       0.759  -1.236   0.178  0.00  0.00     0.247 C 
ATOM      2  N   UNL d   1      -0.012  -0.054   0.462  0.00  0.00    -0.265 N 
ATOM      3  S   UNL d   1       0.667  -1.666  -1.618  0.00  0.00    -0.039 SA
ATOM      4  C   UNL d   1       0.708  -3.319  -1.140  0.00  0.00     0.141 C 
ATOM      5  N   UNL d   1       0.399  -2.492   0.878  0.00  0.00    -0.241 N 
ATOM      6  N   UNL d   1       0.535  -3.653   0.095  0.00  0.00    -0.284 N 
ATOM      7  HN  UNL d   1       0.501  -4.609   0.448  1.00  0.00     0.188 HD
ATOM      8  S   UNL d   1       2.536  -0.734   0.435  0.00  0.00    -0.056 SA
ATOM      9  C   UNL d   1       0.654   1.099   0.058  0.00  0.00     0.268 C 
ATOM     10  C   UNL d   1       2.126   0.949   0.258  0.00  0.00     0.074 C 
ATOM     11  C   UNL d   1       3.046   1.924   0.366  0.00  0.00     0.035 C 
ATOM     12  O   UNL d   1       0.113   2.099  -0.399  0.00  0.00    -0.266 OA
ENDROOT
BRANCH   2  13
ATOM     13  C   UNL d   1      -1.370   0.031   0.874  0.00  0.00     0.041 A 
ATOM     14  C   UNL d   1      -2.329  -0.943   0.602  0.00  0.00     0.030 A 
ATOM     15  C   UNL d   1      -3.651  -0.769   1.038  0.00  0.00     0.002 A 
ATOM     16  C   UNL d   1      -4.021   0.354   1.781  0.00  0.00     0.000 A 
ATOM     17  C   UNL d   1      -3.073   1.320   2.081  0.00  0.00     0.002 A 
ATOM     18  C   UNL d   1      -1.765   1.161   1.623  0.00  0.00     0.030 A 
ENDBRANCH   2  13
BRANCH   5  19
ATOM     19  C   UNL d   1       0.317  -2.688   2.261  0.00  0.00     0.055 A 
ATOM     20  C   UNL d   1      -0.340  -3.829   2.769  0.00  0.00     0.032 A 
ATOM     21  C   UNL d   1      -0.367  -4.134   4.138  0.00  0.00     0.009 A 
ATOM     22  C   UNL d   1       0.300  -3.319   5.050  0.00  0.00    -0.062 A 
ATOM     23  C   UNL d   1       0.886  -2.143   4.582  0.00  0.00     0.009 A 
ATOM     24  C   UNL d   1       0.363  -3.681   6.505  0.00  0.00     0.048 C 
ATOM     25  C   UNL d   1       0.872  -1.827   3.216  0.00  0.00     0.032 A 
ENDBRANCH   5  19
BRANCH   4  26
ATOM     26  C   UNL d   1       0.955  -4.172  -2.340  0.00  0.00     0.216 C 
ATOM     27  O   UNL d   1       0.219  -4.027  -3.317  0.00  0.00    -0.284 OA
BRANCH  26  28
ATOM     28  C   UNL d   1       2.044  -5.189  -2.389  0.00  0.00     0.017 A 
ATOM     29  C   UNL d   1       2.824  -5.547  -1.283  0.00  0.00     0.015 A 
ATOM     30  C   UNL d   1       3.796  -6.556  -1.409  0.00  0.00     0.001 A 
ATOM     31  C   UNL d   1       3.997  -7.198  -2.630  0.00  0.00     0.000 A 
ATOM     32  C   UNL d   1       3.244  -6.833  -3.739  0.00  0.00     0.001 A 
ATOM     33  C   UNL d   1       2.273  -5.833  -3.618  0.00  0.00     0.015 A 
ENDBRANCH  26  28
ENDBRANCH   4  26
BRANCH  11  34
ATOM     34  C   UNL d   1       2.883   3.392   0.292  0.00  0.00    -0.035 A 
ATOM     35  C   UNL d   1       1.739   4.083   0.713  0.00  0.00     0.011 A 
ATOM     36  C   UNL d   1       1.625   5.466   0.557  0.00  0.00     0.001 A 
ATOM     37  C   UNL d   1       2.693   6.198   0.054  0.00  0.00     0.000 A 
ATOM     38  C   UNL d   1       3.873   5.545  -0.289  0.00  0.00     0.001 A 
ATOM     39  C   UNL d   1       3.965   4.153  -0.175  0.00  0.00     0.011 A 
ENDBRANCH  11  34
TORSDOF 5
