REMARK  6 active torsions:
REMARK  status: ('A' for Active; 'I' for Inactive)
REMARK    1  A    between atoms: N_7  and  C_1 
REMARK    2  A    between atoms: O_13  and  C_2 
REMARK    3  A    between atoms: C_9  and  C_3 
REMARK    4  A    between atoms: C_12  and  N_4 
REMARK    5  A    between atoms: O_16  and  C_9 
REMARK    6  A    between atoms: C_15  and  N_10 
ROOT
ATOM      1  C   UNL d   1      -1.989  -3.267   0.279  0.00  0.00     0.135 C 
ATOM      2  C   UNL d   1      -2.179  -4.590   0.596  0.00  0.00     0.193 C 
ATOM      3  C   UNL d   1      -3.267  -2.707   0.081  0.00  0.00     0.156 C 
ATOM      4  N   UNL d   1      -3.532  -4.837   0.373  0.00  0.00    -0.232 N 
ATOM      5  N   UNL d   1      -4.210  -3.672   0.133  0.00  0.00    -0.284 N 
ATOM      6  HN  UNL d   1      -5.217  -3.556   0.018  1.00  0.00     0.188 HD
ENDROOT
BRANCH   1   7
ATOM      7  N   UNL d   1      -0.729  -2.650   0.250  0.00  0.00    -0.294 N 
ATOM      8  N   UNL d   1      -0.132  -2.429  -0.841  0.00  0.00    -0.300 N 
ATOM      9  HN  UNL d   1       0.888  -2.438  -0.876  1.00  0.00     0.187 HD
ATOM     10  HN  UNL d   1      -0.287  -2.374   1.127  1.00  0.00     0.187 HD
BRANCH   8  11
ATOM     11  C   UNL d   1      -0.875  -2.169  -2.013  0.00  0.00     0.048 A 
ATOM     12  C   UNL d   1      -0.899  -0.863  -2.524  0.00  0.00     0.031 A 
ATOM     13  C   UNL d   1      -1.697  -0.538  -3.625  0.00  0.00     0.009 A 
ATOM     14  C   UNL d   1      -2.493  -1.516  -4.231  0.00  0.00    -0.062 A 
ATOM     15  C   UNL d   1      -2.405  -2.837  -3.779  0.00  0.00     0.009 A 
ATOM     16  C   UNL d   1      -3.443  -1.138  -5.329  0.00  0.00     0.048 C 
ATOM     17  C   UNL d   1      -1.572  -3.163  -2.705  0.00  0.00     0.031 A 
ENDBRANCH   8  11
ENDBRANCH   1   7
BRANCH   2  18
ATOM     18  O   UNL d   1      -1.306  -5.503   1.026  0.00  0.00    -0.343 OA
ATOM     19  H   UNL d   1      -0.472  -5.029   1.214  0.00  0.00     0.219 HD
ENDBRANCH   2  18
BRANCH   3  20
ATOM     20  C   UNL d   1      -3.574  -1.294  -0.157  0.00  0.00     0.313 C 
ATOM     21  O   UNL d   1      -2.797  -0.384   0.093  0.00  0.00    -0.257 OA
BRANCH  20  22
ATOM     22  O   UNL d   1      -4.816  -1.096  -0.697  0.00  0.00    -0.321 OA
ATOM     23  C   UNL d   1      -5.104   0.274  -0.982  0.00  0.00     0.213 C 
ENDBRANCH  20  22
ENDBRANCH   3  20
BRANCH   4  24
ATOM     24  C   UNL d   1      -4.231  -6.084   0.374  0.00  0.00     0.059 A 
ATOM     25  C   UNL d   1      -5.635  -6.093   0.315  0.00  0.00     0.031 A 
ATOM     26  C   UNL d   1      -6.341  -7.300   0.335  0.00  0.00     0.002 A 
ATOM     27  C   UNL d   1      -5.655  -8.512   0.400  0.00  0.00     0.000 A 
ATOM     28  C   UNL d   1      -4.263  -8.516   0.431  0.00  0.00     0.002 A 
ATOM     29  C   UNL d   1      -3.553  -7.312   0.417  0.00  0.00     0.031 A 
ENDBRANCH   4  24
TORSDOF 6
