REMARK  6 active torsions:
REMARK  status: ('A' for Active; 'I' for Inactive)
REMARK    1  A    between atoms: C_11  and  C_3 
REMARK    2  A    between atoms: C_15  and  N_6 
REMARK    3  A    between atoms: C_14  and  C_11 
REMARK    4  A    between atoms: C_17  and  C_12 
REMARK    5  A    between atoms: C_25  and  C_17 
REMARK    6  A    between atoms: O_34  and  C_26 
ROOT
ATOM      1  N   UNL d   1      -0.255   0.545   0.057  0.00  0.00    -0.062 N 
ATOM      2  C   UNL d   1       0.063  -0.812   0.158  0.00  0.00     0.730 A 
ATOM      3  C   UNL d   1      -1.639   0.665  -0.052  0.00  0.00     0.212 A 
ATOM      4  N   UNL d   1       1.239  -1.324   0.253  0.00  0.00    -0.151 N 
ATOM      5  HN  UNL d   1       1.411  -2.327   0.322  1.00  0.00     0.188 HD
ATOM      6  N   UNL d   1      -1.195  -1.417   0.080  0.00  0.00    -0.083 N 
ATOM      7  N   UNL d   1      -2.251  -0.514  -0.077  0.00  0.00    -0.259 N 
ATOM      8  HN  UNL d   1      -3.246  -0.712  -0.184  1.00  0.00     0.190 HD
ATOM      9  N   UNL d   1       0.694   1.539  -0.031  0.00  0.00    -0.276 N 
ATOM     10  HN  UNL d   1       0.459   2.523  -0.158  1.00  0.00     0.188 HD
ATOM     11  C   UNL d   1       1.927   1.106   0.063  0.00  0.00     0.099 A 
ATOM     12  C   UNL d   1       2.242  -0.384   0.253  0.00  0.00     0.284 A 
ATOM     13  O   UNL d   1       3.420  -0.704   0.363  0.00  0.00    -0.265 OA
ENDROOT
BRANCH  11  14
ATOM     14  C   UNL d   1       3.106   2.041  -0.028  0.00  0.00     0.103 C 
BRANCH  14  15
ATOM     15  C   UNL d   1       3.589   2.505   1.323  0.00  0.00    -0.052 A 
ATOM     16  C   UNL d   1       4.529   1.759   2.051  0.00  0.00     0.010 A 
ATOM     17  C   UNL d   1       4.956   2.183   3.314  0.00  0.00     0.037 A 
ATOM     18  C   UNL d   1       4.451   3.361   3.861  0.00  0.00     0.068 A 
ATOM     19  C   UNL d   1       3.537   4.121   3.129  0.00  0.00     0.037 A 
ATOM     20  C   UNL d   1       3.095   3.689   1.877  0.00  0.00     0.010 A 
BRANCH  18  21
ATOM     21  O   UNL d   1       4.811   3.883   5.072  0.00  0.00    -0.356 OA
ATOM     22  C   UNL d   1       5.134   2.921   6.071  0.00  0.00     0.210 C 
ENDBRANCH  18  21
ENDBRANCH  14  15
ENDBRANCH  11  14
BRANCH   3  23
ATOM     23  C   UNL d   1      -2.400   1.966  -0.051  0.00  0.00     0.236 C 
ATOM     24  O   UNL d   1      -1.928   2.893   0.604  0.00  0.00    -0.283 OA
BRANCH  23  25
ATOM     25  C   UNL d   1      -3.673   1.999  -0.752  0.00  0.00     0.059 A 
ATOM     26  S   UNL d   1      -4.865   3.125  -0.233  0.00  0.00    -0.098 SA
ATOM     27  C   UNL d   1      -6.005   2.557  -1.370  0.00  0.00     0.050 A 
ATOM     28  C   UNL d   1      -5.485   1.564  -2.167  0.00  0.00     0.009 A 
ATOM     29  C   UNL d   1      -4.139   1.244  -1.813  0.00  0.00     0.023 A 
ENDBRANCH  23  25
ENDBRANCH   3  23
BRANCH   6  30
ATOM     30  C   UNL d   1      -1.413  -2.813   0.061  0.00  0.00     0.074 A 
ATOM     31  C   UNL d   1      -0.592  -3.669   0.813  0.00  0.00     0.032 A 
ATOM     32  C   UNL d   1      -0.698  -5.055   0.716  0.00  0.00     0.009 A 
ATOM     33  C   UNL d   1      -1.631  -5.627  -0.148  0.00  0.00    -0.062 A 
ATOM     34  C   UNL d   1      -2.496  -4.790  -0.862  0.00  0.00     0.009 A 
ATOM     35  C   UNL d   1      -1.668  -7.119  -0.302  0.00  0.00     0.048 C 
ATOM     36  C   UNL d   1      -2.399  -3.396  -0.746  0.00  0.00     0.032 A 
ENDBRANCH   6  30
TORSDOF 6
