REMARK  8 active torsions:
REMARK  status: ('A' for Active; 'I' for Inactive)
REMARK    1  A    between atoms: C_3  and  N_1 
REMARK       I    between atoms: C_2  and  N_8 
REMARK       I    between atoms: N_4  and  C_2 
REMARK    2  A    between atoms: C_5  and  N_4 
REMARK    3  A    between atoms: N_8  and  C_20 
REMARK    4  A    between atoms: O_16  and  C_19 
REMARK    5  A    between atoms: C_21  and  O_16 
REMARK    6  A    between atoms: C_18  and  C_21 
REMARK    7  A    between atoms: C_20  and  C_18 
REMARK    8  A    between atoms: O_24  and  C_18 
ROOT
ATOM      1  C   UNL d   1      -2.858   5.842   3.899  0.00  0.00     0.158 C 
ENDROOT
BRANCH   1   2
ATOM      2  N   UNL d   1      -3.516   4.579   4.231  0.00  0.00    -0.340 N 
ATOM      3  C   UNL d   1      -2.854   3.376   4.100  0.00  0.00     0.320 C 
ATOM      4  N   UNL d   1      -3.541   2.325   4.654  0.00  0.00    -0.309 N 
ATOM      5  O   UNL d   1      -1.784   3.325   3.507  0.00  0.00    -0.247 OA
ATOM      6  H   UNL d   1      -4.323   2.543   5.250  0.00  0.00     0.170 HD
ATOM      7  H   UNL d   1      -4.342   4.609   4.807  0.00  0.00     0.164 HD
BRANCH   4   8
ATOM      8  C   UNL d   1      -3.222   0.950   4.524  0.00  0.00     0.037 A 
ATOM      9  C   UNL d   1      -2.219   0.479   3.673  0.00  0.00     0.036 A 
ATOM     10  C   UNL d   1      -2.015  -0.892   3.478  0.00  0.00    -0.059 A 
ATOM     11  C   UNL d   1      -0.999  -1.372   2.484  0.00  0.00     0.048 C 
ATOM     12  C   UNL d   1      -2.793  -1.806   4.193  0.00  0.00     0.013 A 
ATOM     13  C   UNL d   1      -3.770  -1.360   5.092  0.00  0.00    -0.059 A 
ATOM     14  C   UNL d   1      -3.989   0.020   5.240  0.00  0.00     0.036 A 
ATOM     15  C   UNL d   1      -4.566  -2.368   5.870  0.00  0.00     0.048 C 
ENDBRANCH   4   8
ENDBRANCH   1   2
BRANCH   1  16
ATOM     16  C   UNL d   1      -2.689   6.148   2.393  0.00  0.00     0.160 C 
BRANCH  16  17
ATOM     17  C   UNL d   1      -4.029   6.134   1.649  0.00  0.00     0.209 C 
BRANCH  17  18
ATOM     18  O   UNL d   1      -3.834   6.625   0.316  0.00  0.00    -0.349 OA
BRANCH  18  19
ATOM     19  C   UNL d   1      -4.910   6.568  -0.525  0.00  0.00     0.069 A 
ATOM     20  C   UNL d   1      -4.621   6.824  -1.870  0.00  0.00     0.039 A 
ATOM     21  C   UNL d   1      -5.633   6.811  -2.833  0.00  0.00     0.039 A 
ATOM     22  C   UNL d   1      -6.949   6.544  -2.438  0.00  0.00     0.103 A 
ATOM     23  C   UNL d   1      -7.248   6.289  -1.095  0.00  0.00     0.039 A 
ATOM     24  C   UNL d   1      -6.226   6.304  -0.141  0.00  0.00     0.039 A 
BRANCH  22  25
ATOM     25  N   UNL d   1      -8.023   6.534  -3.432  0.00  0.00    -0.116 N 
ATOM     26  O   UNL d   1      -9.173   6.282  -3.041  0.00  0.00    -0.532 OA
ATOM     27  O   UNL d   1      -7.727   6.781  -4.612  0.00  0.00    -0.532 OA
ENDBRANCH  22  25
ENDBRANCH  18  19
ENDBRANCH  17  18
ENDBRANCH  16  17
BRANCH  16  28
ATOM     28  O   UNL d   1      -1.753   5.276   1.751  0.00  0.00    -0.392 OA
ATOM     29  H   UNL d   1      -1.739   4.423   2.235  0.00  0.00     0.210 HD
ENDBRANCH  16  28
ENDBRANCH   1  16
TORSDOF 8
