REMARK  4 active torsions:
REMARK  status: ('A' for Active; 'I' for Inactive)
REMARK    1  A    between atoms: C_2  and  S_1 
REMARK    2  A    between atoms: N_6  and  S_1 
REMARK       I    between atoms: C_5  and  N_8 
REMARK    3  A    between atoms: O_11  and  C_5 
REMARK    4  A    between atoms: C_17  and  O_11 
ROOT
ATOM      1  C   UNL d   1       1.771  -3.807  -3.784  0.00  0.00     0.363 C 
ATOM      2  N   UNL d   1       0.593  -1.170  -0.948  0.00  0.00    -0.204 NA
ATOM      3  N   UNL d   1       0.680  -3.298  -3.098  0.00  0.00    -0.327 N 
ATOM      4  C   UNL d   1       0.881  -0.904  -2.391  0.00  0.00     0.127 C 
ATOM      5  C   UNL d   1       0.190  -1.933  -3.294  0.00  0.00     0.143 C 
ATOM      6  O   UNL d   1       2.197  -4.949  -3.640  0.00  0.00    -0.238 OA
ATOM      7  C   UNL d   1       0.324  -3.618  -0.617  0.00  0.00     0.035 C 
ATOM      8  C   UNL d   1       1.246  -2.420  -0.452  0.00  0.00     0.109 C 
ATOM      9  C   UNL d   1       0.043  -4.080  -2.050  0.00  0.00     0.129 C 
ENDROOT
BRANCH   2  10
ATOM     10  S   UNL d   1       0.847   0.191   0.071  0.00  0.00     0.260 S 
ATOM     11  O   UNL d   1       0.371   1.385  -0.597  0.00  0.00    -0.204 OA
ATOM     12  O   UNL d   1       0.406  -0.151   1.408  0.00  0.00    -0.204 OA
BRANCH  10  13
ATOM     13  C   UNL d   1       2.567   0.452   0.258  0.00  0.00     0.160 A 
ATOM     14  N   UNL d   1       3.529  -0.310  -0.392  0.00  0.00    -0.341 N 
ATOM     15  C   UNL d   1       4.678   0.121   0.079  0.00  0.00     0.183 A 
ATOM     16  HN  UNL d   1       3.378  -1.045  -1.083  1.00  0.00     0.167 HD
ATOM     17  N   UNL d   1       4.504   1.126   0.987  0.00  0.00    -0.354 N 
ATOM     18  C   UNL d   1       3.165   1.368   1.101  0.00  0.00     0.134 A 
ATOM     19  C   UNL d   1       5.558   1.777   1.722  0.00  0.00     0.156 C 
ENDBRANCH  10  13
ENDBRANCH   2  10
BRANCH   1  20
ATOM     20  O   UNL d   1       2.306  -2.901  -4.644  0.00  0.00    -0.294 OA
BRANCH  20  21
ATOM     21  C   UNL d   1       3.335  -3.275  -5.600  0.00  0.00     0.061 C 
ATOM     22  C   UNL d   1       2.820  -4.353  -6.564  0.00  0.00     0.046 C 
ATOM     23  C   UNL d   1       3.610  -1.984  -6.391  0.00  0.00     0.046 C 
ATOM     24  C   UNL d   1       4.635  -3.711  -4.917  0.00  0.00     0.046 C 
ENDBRANCH  20  21
ENDBRANCH   1  20
TORSDOF 4
