REMARK  5 active torsions:
REMARK  status: ('A' for Active; 'I' for Inactive)
REMARK    1  A    between atoms: N_2  and  C_1 
REMARK       I    between atoms: C_4  and  N_3 
REMARK    2  A    between atoms: C_10  and  C_4 
REMARK    3  A    between atoms: O_21  and  C_9 
REMARK    4  A    between atoms: C_18  and  C_10 
REMARK    5  A    between atoms: O_22  and  C_16 
ROOT
ATOM      1  N   UNL d   1      -2.104   5.516  -1.692  0.00  0.00    -0.251 NA
ATOM      2  N   UNL d   1       0.219   5.718  -0.050  0.00  0.00    -0.350 N 
ATOM      3  C   UNL d   1       1.054   6.551   0.676  0.00  0.00     0.224 C 
ATOM      4  C   UNL d   1      -0.817   5.878  -2.306  0.00  0.00     0.118 C 
ATOM      5  C   UNL d   1      -2.243   5.862  -0.266  0.00  0.00     0.118 C 
ATOM      6  C   UNL d   1       0.360   5.350  -1.465  0.00  0.00     0.140 C 
ATOM      7  C   UNL d   1      -1.057   5.283   0.530  0.00  0.00     0.140 C 
ATOM      8  O   UNL d   1       0.772   6.893   1.830  0.00  0.00    -0.273 OA
ENDROOT
BRANCH   3   9
ATOM      9  C   UNL d   1       2.326   7.090   0.035  0.00  0.00     0.141 C 
BRANCH   9  10
ATOM     10  C   UNL d   1       3.329   6.052  -0.416  0.00  0.00    -0.047 A 
ATOM     11  C   UNL d   1       3.490   4.831   0.261  0.00  0.00     0.047 A 
ATOM     12  C   UNL d   1       4.289   3.812  -0.274  0.00  0.00     0.102 A 
ATOM     13  C   UNL d   1       4.952   4.040  -1.491  0.00  0.00     0.101 A 
ATOM     14  C   UNL d   1       4.910   5.303  -2.088  0.00  0.00     0.040 A 
ATOM     15  C   UNL d   1       4.104   6.305  -1.555  0.00  0.00     0.010 A 
BRANCH  12  16
ATOM     16  O   UNL d   1       4.466   2.588   0.311  0.00  0.00    -0.353 OA
ATOM     17  C   UNL d   1       3.816   2.329   1.547  0.00  0.00     0.210 C 
ENDBRANCH  12  16
BRANCH  13  18
ATOM     18  O   UNL d   1       5.695   3.113  -2.181  0.00  0.00    -0.353 OA
ATOM     19  C   UNL d   1       5.100   1.817  -2.243  0.00  0.00     0.210 C 
ENDBRANCH  13  18
ENDBRANCH   9  10
ENDBRANCH   3   9
BRANCH   1  20
ATOM     20  C   UNL d   1      -3.212   5.824  -2.481  0.00  0.00     0.159 A 
ATOM     21  N   UNL d   1      -3.051   5.903  -3.814  0.00  0.00    -0.343 N 
ATOM     22  C   UNL d   1      -4.136   6.140  -4.570  0.00  0.00     0.092 A 
ATOM     23  HN  UNL d   1      -2.131   5.787  -4.239  1.00  0.00     0.167 HD
ATOM     24  C   UNL d   1      -5.395   6.310  -4.055  0.00  0.00     0.034 A 
ATOM     25  C   UNL d   1      -5.471   6.221  -2.690  0.00  0.00     0.092 A 
ATOM     26  N   UNL d   1      -4.411   5.982  -1.895  0.00  0.00    -0.343 N 
ATOM     27  HN  UNL d   1      -4.515   5.923  -0.882  1.00  0.00     0.167 HD
ENDBRANCH   1  20
TORSDOF 5
