REMARK  4 active torsions:
REMARK  status: ('A' for Active; 'I' for Inactive)
REMARK    1  A    between atoms: C_7  and  C_1 
REMARK    2  A    between atoms: C_12  and  C_2 
REMARK    3  A    between atoms: C_16  and  C_7 
REMARK    4  A    between atoms: C_13  and  N_8 
ROOT
ATOM      1  C   UNL d   1       0.090   1.264   0.107  0.00  0.00     0.086 C 
ATOM      2  C   UNL d   1       1.390   0.787   0.090  0.00  0.00     0.066 C 
ATOM      3  C   UNL d   1       0.317  -1.174   0.074  0.00  0.00     0.150 C 
ATOM      4  N   UNL d   1       1.490  -0.591   0.058  0.00  0.00    -0.335 N 
ATOM      5  HN  UNL d   1       2.375  -1.096   0.025  1.00  0.00     0.168 HD
ATOM      6  S   UNL d   1      -0.992  -0.079   0.260  0.00  0.00    -0.048 SA
ATOM      7  N   UNL d   1       0.121  -2.509  -0.024  0.00  0.00    -0.336 N 
ATOM      8  H   UNL d   1      -0.783  -2.897   0.208  0.00  0.00     0.168 HD
ENDROOT
BRANCH   7   9
ATOM      9  C   UNL d   1       1.048  -3.423  -0.571  0.00  0.00     0.036 A 
ATOM     10  C   UNL d   1       1.053  -4.751  -0.127  0.00  0.00     0.069 A 
ATOM     11  C   UNL d   1       2.033  -5.645  -0.572  0.00  0.00     0.104 A 
ATOM     12  O   UNL d   1       1.998  -6.913  -0.046  0.00  0.00    -0.346 OA
ATOM     13  C   UNL d   1       2.996  -5.235  -1.499  0.00  0.00     0.102 A 
ATOM     14  C   UNL d   1       3.243  -7.591  -0.260  0.00  0.00     0.202 C 
ATOM     15  C   UNL d   1       3.699  -7.431  -1.700  0.00  0.00     0.202 C 
ATOM     16  O   UNL d   1       3.972  -6.059  -1.995  0.00  0.00    -0.346 OA
ATOM     17  C   UNL d   1       3.009  -3.922  -1.946  0.00  0.00     0.042 A 
ATOM     18  C   UNL d   1       2.048  -3.025  -1.477  0.00  0.00     0.032 A 
ENDBRANCH   7   9
BRANCH   1  19
ATOM     19  C   UNL d   1      -0.411   2.622   0.144  0.00  0.00     0.201 C 
ATOM     20  O   UNL d   1       0.121   3.510   0.808  0.00  0.00    -0.286 OA
BRANCH  19  21
ATOM     21  C   UNL d   1      -1.609   3.015  -0.669  0.00  0.00     0.015 A 
ATOM     22  C   UNL d   1      -1.956   2.368  -1.863  0.00  0.00     0.015 A 
ATOM     23  C   UNL d   1      -3.081   2.779  -2.586  0.00  0.00     0.001 A 
ATOM     24  C   UNL d   1      -3.848   3.852  -2.136  0.00  0.00     0.000 A 
ATOM     25  C   UNL d   1      -3.492   4.522  -0.967  0.00  0.00     0.001 A 
ATOM     26  C   UNL d   1      -2.376   4.107  -0.237  0.00  0.00     0.015 A 
ENDBRANCH  19  21
ENDBRANCH   1  19
BRANCH   2  27
ATOM     27  C   UNL d   1       2.636   1.547   0.057  0.00  0.00    -0.008 A 
ATOM     28  C   UNL d   1       3.754   1.019   0.729  0.00  0.00     0.014 A 
ATOM     29  C   UNL d   1       5.000   1.643   0.657  0.00  0.00     0.001 A 
ATOM     30  C   UNL d   1       5.146   2.806  -0.093  0.00  0.00     0.000 A 
ATOM     31  C   UNL d   1       4.048   3.341  -0.765  0.00  0.00     0.001 A 
ATOM     32  C   UNL d   1       2.799   2.715  -0.695  0.00  0.00     0.014 A 
ENDBRANCH   2  27
TORSDOF 4
