REMARK  5 active torsions:
REMARK  status: ('A' for Active; 'I' for Inactive)
REMARK    1  A    between atoms: C_6  and  C_1 
REMARK    2  A    between atoms: N_15  and  C_2 
REMARK       I    between atoms: N_14  and  C_6 
REMARK    3  A    between atoms: N_10  and  N_14 
REMARK    4  A    between atoms: C_18  and  C_17 
REMARK    5  A    between atoms: O_25  and  C_19 
ROOT
ATOM      1  C   UNL d   1       2.503  -0.033   0.002  0.00  0.00     0.103 A 
ATOM      2  C   UNL d   1       1.654   1.069   0.022  0.00  0.00     0.062 A 
ATOM      3  C   UNL d   1       0.246   0.728   0.018  0.00  0.00     0.032 A 
ATOM      4  S   UNL d   1       1.614  -1.487  -0.021  0.00  0.00    -0.064 SA
ATOM      5  C   UNL d   1       0.125  -0.663  -0.008  0.00  0.00     0.088 A 
ATOM      6  N   UNL d   1      -1.010  -1.390  -0.023  0.00  0.00    -0.354 N 
ATOM      7  HN  UNL d   1      -1.007  -2.410  -0.042  1.00  0.00     0.166 HD
ATOM      8  C   UNL d   1      -0.981   1.461   0.034  0.00  0.00    -0.045 A 
ATOM      9  C   UNL d   1      -2.176   0.713   0.016  0.00  0.00     0.032 A 
ATOM     10  C   UNL d   1      -2.145  -0.674  -0.012  0.00  0.00     0.006 A 
ATOM     11  C   UNL d   1      -1.149   2.958   0.069  0.00  0.00     0.049 C 
ATOM     12  C   UNL d   1      -3.434  -1.444  -0.028  0.00  0.00     0.068 C 
ENDROOT
BRANCH   1  13
ATOM     13  C   UNL d   1       3.969  -0.022  -0.005  0.00  0.00     0.279 C 
ATOM     14  N   UNL d   1       4.611  -1.263  -0.030  0.00  0.00    -0.266 N 
ATOM     15  H   UNL d   1       4.071  -2.120  -0.044  0.00  0.00     0.190 HD
ATOM     16  O   UNL d   1       4.608   1.038   0.009  0.00  0.00    -0.265 OA
BRANCH  14  17
ATOM     17  N   UNL d   1       5.977  -1.302  -0.084  0.00  0.00    -0.308 N 
ATOM     18  C   UNL d   1       6.553  -2.460  -0.110  0.00  0.00     0.118 C 
ATOM     19  HN  UNL d   1       6.526  -0.442  -0.105  1.00  0.00     0.186 HD
BRANCH  18  20
ATOM     20  C   UNL d   1       8.032  -2.557  -0.191  0.00  0.00    -0.019 A 
ATOM     21  C   UNL d   1       8.813  -1.396  -0.232  0.00  0.00     0.015 A 
ATOM     22  C   UNL d   1      10.207  -1.482  -0.327  0.00  0.00     0.037 A 
ATOM     23  C   UNL d   1      10.828  -2.728  -0.382  0.00  0.00     0.068 A 
ATOM     24  C   UNL d   1      10.046  -3.886  -0.318  0.00  0.00     0.037 A 
ATOM     25  C   UNL d   1       8.650  -3.808  -0.231  0.00  0.00     0.015 A 
BRANCH  23  26
ATOM     26  O   UNL d   1      12.179  -2.936  -0.447  0.00  0.00    -0.356 OA
ATOM     27  C   UNL d   1      12.936  -1.915  -1.091  0.00  0.00     0.210 C 
ENDBRANCH  23  26
ENDBRANCH  18  20
ENDBRANCH  14  17
ENDBRANCH   1  13
BRANCH   2  28
ATOM     28  N   UNL d   1       2.154   2.324   0.040  0.00  0.00    -0.397 N 
ATOM     29  H   UNL d   1       3.169   2.477   0.044  0.00  0.00     0.156 HD
ATOM     30  H   UNL d   1       1.622   3.181   0.066  0.00  0.00     0.156 HD
ENDBRANCH   2  28
TORSDOF 5
