REMARK  4 active torsions:
REMARK  status: ('A' for Active; 'I' for Inactive)
REMARK    1  A    between atoms: N_3  and  C_1 
REMARK    2  A    between atoms: N_5  and  C_1 
REMARK    3  A    between atoms: C_4  and  N_3 
REMARK    4  A    between atoms: C_9  and  N_5 
ROOT
ATOM      1  C   UNL d   1       1.016  -0.010   0.180  0.00  0.00     0.176 C 
ATOM      2  S   UNL d   1       0.469  -0.951   1.457  0.00  0.00    -0.041 SA
ENDROOT
BRANCH   1   3
ATOM      3  N   UNL d   1       2.341   0.387  -0.008  0.00  0.00    -0.332 N 
ATOM      4  H   UNL d   1       2.436   1.381  -0.194  0.00  0.00     0.168 HD
BRANCH   3   5
ATOM      5  C   UNL d   1       3.514  -0.245   0.481  0.00  0.00     0.058 A 
ATOM      6  C   UNL d   1       4.627   0.532   0.859  0.00  0.00     0.082 A 
ATOM      7  C   UNL d   1       5.797  -0.101   1.304  0.00  0.00     0.058 A 
ATOM      8 CL   UNL d   1       4.510   2.264   0.797  0.00  0.00    -0.080 Cl
ATOM      9 CL   UNL d   1       7.193   0.781   1.820  0.00  0.00    -0.082 Cl
ATOM     10  C   UNL d   1       5.872  -1.496   1.341  0.00  0.00     0.026 A 
ATOM     11  C   UNL d   1       4.785  -2.265   0.934  0.00  0.00     0.004 A 
ATOM     12  C   UNL d   1       3.613  -1.641   0.504  0.00  0.00     0.031 A 
ENDBRANCH   3   5
ENDBRANCH   1   3
BRANCH   1  13
ATOM     13  N   UNL d   1       0.240   0.501  -0.863  0.00  0.00    -0.333 N 
ATOM     14  H   UNL d   1       0.732   0.492  -1.750  0.00  0.00     0.168 HD
BRANCH  13  15
ATOM     15  C   UNL d   1      -1.168   0.567  -0.945  0.00  0.00     0.037 A 
ATOM     16  C   UNL d   1      -1.774   0.319  -2.176  0.00  0.00     0.072 A 
ATOM     17  C   UNL d   1      -3.164   0.355  -2.280  0.00  0.00     0.124 A 
ATOM     18  F   UNL d   1      -3.729   0.061  -3.460  0.00  0.00    -0.205 F 
ATOM     19  C   UNL d   1      -3.970   0.678  -1.187  0.00  0.00    -0.023 A 
ATOM     20  C   UNL d   1      -3.354   0.980   0.030  0.00  0.00     0.012 A 
ATOM     21  C   UNL d   1      -5.462   0.681  -1.322  0.00  0.00     0.051 C 
ATOM     22  C   UNL d   1      -1.961   0.928   0.147  0.00  0.00     0.030 A 
ENDBRANCH  13  15
ENDBRANCH   1  13
TORSDOF 4
