REMARK  3 active torsions:
REMARK  status: ('A' for Active; 'I' for Inactive)
REMARK    1  A    between atoms: N_2  and  C_1 
REMARK    2  A    between atoms: C_3  and  C_1 
REMARK    3  A    between atoms: C_5  and  N_2 
ROOT
ATOM      1  N   UNL d   1       0.474   1.188  -0.341  0.00  0.00    -0.350 N 
ATOM      2  H   UNL d   1      -0.428   1.035  -0.776  0.00  0.00     0.166 HD
ENDROOT
BRANCH   1   3
ATOM      3  C   UNL d   1       1.148   0.049   0.104  0.00  0.00     0.085 C 
ATOM      4  S   UNL d   1       2.828  -0.123   0.087  0.00  0.00    -0.065 SA
BRANCH   3   5
ATOM      5  C   UNL d   1       0.196  -1.119   0.536  0.00  0.00     0.002 C 
ATOM      6  C   UNL d   1      -0.648  -1.589  -0.664  0.00  0.00     0.022 C 
ATOM      7  C   UNL d   1       0.920  -2.359   1.106  0.00  0.00     0.022 C 
ATOM      8  C   UNL d   1      -0.744  -0.594   1.643  0.00  0.00     0.022 C 
ENDBRANCH   3   5
ENDBRANCH   1   3
BRANCH   1   9
ATOM      9  C   UNL d   1       0.943   2.520  -0.403  0.00  0.00     0.034 A 
ATOM     10  C   UNL d   1       0.404   3.364  -1.376  0.00  0.00     0.053 A 
ATOM     11  C   UNL d   1       0.836   4.690  -1.466  0.00  0.00     0.036 A 
ATOM     12 CL   UNL d   1       0.218   5.707  -2.708  0.00  0.00    -0.084 Cl
ATOM     13  C   UNL d   1       1.768   5.195  -0.561  0.00  0.00     0.024 A 
ATOM     14  C   UNL d   1       2.269   4.371   0.443  0.00  0.00     0.004 A 
ATOM     15  C   UNL d   1       1.856   3.038   0.521  0.00  0.00     0.029 A 
ENDBRANCH   1   9
TORSDOF 3
