REMARK  9 active torsions:
REMARK  status: ('A' for Active; 'I' for Inactive)
REMARK    1  A    between atoms: C_2  and  C_1 
REMARK    2  A    between atoms: C_3  and  C_1 
REMARK       I    between atoms: N_5  and  C_2 
REMARK       I    between atoms: N_6  and  C_3 
REMARK    3  A    between atoms: C_7  and  C_4 
REMARK    4  A    between atoms: N_14  and  C_4 
REMARK    5  A    between atoms: C_10  and  N_5 
REMARK    6  A    between atoms: C_11  and  N_6 
REMARK    7  A    between atoms: C_29  and  N_14 
REMARK    8  A    between atoms: O_24  and  C_19 
REMARK    9  A    between atoms: C_33  and  C_29 
ROOT
ATOM      1  C   UNL d   1       1.055  -0.068   0.541  0.00  0.00     0.122 C 
ATOM      2  C   UNL d   1       2.400  -0.293   0.591  0.00  0.00     0.040 C 
ENDROOT
BRANCH   1   3
ATOM      3  C   UNL d   1       0.131  -1.230   0.333  0.00  0.00     0.263 C 
ATOM      4  N   UNL d   1      -1.027  -0.981  -0.384  0.00  0.00    -0.323 N 
ATOM      5  H   UNL d   1      -1.120  -0.079  -0.846  0.00  0.00     0.169 HD
ATOM      6  O   UNL d   1       0.380  -2.300   0.885  0.00  0.00    -0.267 OA
BRANCH   4   7
ATOM      7  C   UNL d   1      -2.079  -1.915  -0.606  0.00  0.00     0.036 A 
ATOM      8  C   UNL d   1      -2.108  -3.202  -0.055  0.00  0.00     0.053 A 
ATOM      9  C   UNL d   1      -3.144  -4.091  -0.354  0.00  0.00     0.036 A 
ATOM     10 CL   UNL d   1      -3.132  -5.676   0.318  0.00  0.00    -0.084 Cl
ATOM     11  C   UNL d   1      -4.180  -3.706  -1.194  0.00  0.00     0.024 A 
ATOM     12  C   UNL d   1      -4.185  -2.415  -1.723  0.00  0.00     0.004 A 
ATOM     13  C   UNL d   1      -3.145  -1.526  -1.429  0.00  0.00     0.029 A 
ENDBRANCH   4   7
ENDBRANCH   1   3
BRANCH   1  14
ATOM     14  C   UNL d   1       0.529   1.317   0.841  0.00  0.00     0.263 C 
ATOM     15  N   UNL d   1      -0.768   1.362   1.333  0.00  0.00    -0.323 N 
ATOM     16  H   UNL d   1      -1.296   0.498   1.372  0.00  0.00     0.169 HD
ATOM     17  O   UNL d   1       1.189   2.322   0.595  0.00  0.00    -0.267 OA
BRANCH  15  18
ATOM     18  C   UNL d   1      -1.438   2.501   1.848  0.00  0.00     0.036 A 
ATOM     19  C   UNL d   1      -0.812   3.719   2.133  0.00  0.00     0.053 A 
ATOM     20  C   UNL d   1      -1.530   4.755   2.739  0.00  0.00     0.036 A 
ATOM     21 CL   UNL d   1      -0.735   6.228   3.145  0.00  0.00    -0.084 Cl
ATOM     22  C   UNL d   1      -2.880   4.602   3.045  0.00  0.00     0.024 A 
ATOM     23  C   UNL d   1      -3.521   3.406   2.733  0.00  0.00     0.004 A 
ATOM     24  C   UNL d   1      -2.802   2.360   2.143  0.00  0.00     0.029 A 
ENDBRANCH  15  18
ENDBRANCH   1  14
BRANCH   2  25
ATOM     25  C   UNL d   1       3.032  -1.553   0.105  0.00  0.00    -0.014 A 
ATOM     26  C   UNL d   1       3.510  -1.645  -1.209  0.00  0.00     0.016 A 
ATOM     27  C   UNL d   1       4.241  -2.769  -1.627  0.00  0.00     0.037 A 
ATOM     28  C   UNL d   1       4.494  -3.812  -0.736  0.00  0.00     0.068 A 
ATOM     29  C   UNL d   1       4.016  -3.721   0.574  0.00  0.00     0.037 A 
ATOM     30  C   UNL d   1       3.305  -2.596   0.997  0.00  0.00     0.016 A 
BRANCH  28  31
ATOM     31  O   UNL d   1       5.184  -4.962  -1.004  0.00  0.00    -0.356 OA
ATOM     32  C   UNL d   1       5.799  -5.073  -2.280  0.00  0.00     0.210 C 
ENDBRANCH  28  31
ENDBRANCH   2  25
BRANCH   2  33
ATOM     33  N   UNL d   1       3.375   0.579   1.087  0.00  0.00    -0.291 NA
ATOM     34  H   UNL d   1       4.308   0.305   0.782  0.00  0.00     0.127 HD
BRANCH  33  35
ATOM     35  C   UNL d   1       3.373   1.007   2.490  0.00  0.00     0.092 C 
BRANCH  35  36
ATOM     36  C   UNL d   1       4.595   0.479   3.249  0.00  0.00     0.010 C 
ATOM     37  C   UNL d   1       5.916   1.017   2.715  0.00  0.00     0.006 C 
ENDBRANCH  35  36
ENDBRANCH  33  35
ENDBRANCH   2  33
TORSDOF 9
