REMARK  2 active torsions:
REMARK  status: ('A' for Active; 'I' for Inactive)
REMARK    1  A    between atoms: C_8  and  C_1 
REMARK    2  A    between atoms: C_9  and  C_7 
ROOT
ATOM      1  C   UNL d   1      -0.159  -1.051  -0.056  0.00  0.00     0.175 A 
ATOM      2  O   UNL d   1      -1.072  -0.022  -0.044  0.00  0.00    -0.273 OA
ATOM      3  N   UNL d   1       1.083  -0.612  -0.118  0.00  0.00    -0.277 N 
ATOM      4  HN  UNL d   1       1.928  -1.183  -0.147  1.00  0.00     0.189 HD
ATOM      5  N   UNL d   1       1.021   0.762  -0.138  0.00  0.00    -0.277 N 
ATOM      6  HN  UNL d   1       1.809   1.408  -0.178  1.00  0.00     0.189 HD
ATOM      7  C   UNL d   1      -0.256   1.079  -0.094  0.00  0.00     0.174 A 
ENDROOT
BRANCH   7   8
ATOM      8  C   UNL d   1      -0.882   2.393  -0.120  0.00  0.00     0.019 A 
ATOM      9  C   UNL d   1      -2.270   2.563  -0.037  0.00  0.00     0.047 A 
ATOM     10  C   UNL d   1      -2.858   3.822  -0.101  0.00  0.00     0.059 A 
ATOM     11  N   UNL d   1      -4.199   3.930  -0.034  0.00  0.00    -0.363 N 
ATOM     12  C   UNL d   1      -2.035   4.968  -0.246  0.00  0.00     0.059 A 
ATOM     13  C   UNL d   1      -4.707   5.179  -0.120  0.00  0.00     0.105 A 
ATOM     14  HN  UNL d   1      -4.799   3.113   0.075  1.00  0.00     0.165 HD
ATOM     15  C   UNL d   1      -3.904   6.292  -0.265  0.00  0.00     0.105 A 
ATOM     16  N   UNL d   1      -2.559   6.206  -0.327  0.00  0.00    -0.363 N 
ATOM     17  HN  UNL d   1      -1.971   7.033  -0.429  1.00  0.00     0.165 HD
ATOM     18  C   UNL d   1      -0.660   4.802  -0.310  0.00  0.00     0.033 A 
ATOM     19  C   UNL d   1      -0.081   3.533  -0.249  0.00  0.00     0.018 A 
ENDBRANCH   7   8
BRANCH   1  20
ATOM     20  C   UNL d   1      -0.686  -2.415  -0.015  0.00  0.00     0.028 A 
ATOM     21  C   UNL d   1       0.049  -3.494   0.567  0.00  0.00    -0.011 A 
ATOM     22  C   UNL d   1      -0.502  -4.802   0.508  0.00  0.00    -0.025 A 
ATOM     23  C   UNL d   1       1.300  -3.356   1.222  0.00  0.00     0.013 A 
ATOM     24  C   UNL d   1       0.196  -5.891   1.057  0.00  0.00     0.012 A 
ATOM     25  C   UNL d   1      -1.748  -5.013  -0.098  0.00  0.00     0.012 A 
ATOM     26  C   UNL d   1       1.430  -5.717   1.680  0.00  0.00     0.001 A 
ATOM     27  C   UNL d   1       1.980  -4.448   1.767  0.00  0.00     0.001 A 
ATOM     28  C   UNL d   1      -2.467  -3.957  -0.645  0.00  0.00     0.002 A 
ATOM     29  C   UNL d   1      -1.941  -2.670  -0.604  0.00  0.00     0.017 A 
ENDBRANCH   1  20
TORSDOF 2
