REMARK  1 active torsions:
REMARK  status: ('A' for Active; 'I' for Inactive)
REMARK    1  A    between atoms: C_2  and  N_1 
ROOT
ATOM      1  C   UNL d   1      -0.001   2.325   0.043  0.00  0.00     0.066 A 
ATOM      2  C   UNL d   1      -0.758   3.088   0.959  0.00  0.00     0.073 A 
ATOM      3  C   UNL d   1      -1.403   2.497   2.100  0.00  0.00     0.102 C 
ATOM      4  N   UNL d   1      -1.872   2.036   3.055  0.00  0.00    -0.191 NA
ATOM      5  C   UNL d   1       0.751   3.000  -0.935  0.00  0.00     0.033 A 
ATOM      6  C   UNL d   1      -0.780   4.489   0.859  0.00  0.00     0.048 A 
ATOM      7  C   UNL d   1      -0.056   5.131  -0.142  0.00  0.00     0.035 A 
ATOM      8  C   UNL d   1       0.712   4.394  -1.036  0.00  0.00     0.026 A 
ATOM      9 CL   UNL d   1      -0.091   6.846  -0.256  0.00  0.00    -0.084 Cl
ENDROOT
BRANCH   1  10
ATOM     10  N   UNL d   1       0.022   0.908   0.074  0.00  0.00    -0.244 N 
ATOM     11  C   UNL d   1       1.113   0.127  -0.173  0.00  0.00     0.255 C 
ATOM     12  C   UNL d   1       0.669  -1.271  -0.102  0.00  0.00     0.080 C 
ATOM     13  O   UNL d   1       2.270   0.438  -0.395  0.00  0.00    -0.268 OA
ATOM     14  C   UNL d   1      -0.649  -1.272   0.093  0.00  0.00     0.080 C 
ATOM     15  C   UNL d   1      -1.094   0.125   0.148  0.00  0.00     0.255 C 
ATOM     16  O   UNL d   1      -2.270   0.444   0.139  0.00  0.00    -0.268 OA
ENDBRANCH   1  10
TORSDOF 1
