REMARK  6 active torsions:
REMARK  status: ('A' for Active; 'I' for Inactive)
REMARK    1  A    between atoms: N_2  and  C_1 
REMARK       I    between atoms: C_4  and  N_3 
REMARK    2  A    between atoms: C_18  and  C_4 
REMARK    3  A    between atoms: C_9  and  C_19 
REMARK    4  A    between atoms: O_17  and  C_9 
REMARK    5  A    between atoms: O_16  and  C_18 
REMARK    6  A    between atoms: C_19  and  O_16 
ROOT
ATOM      1  N   UNL d   1       0.157   2.742  -0.060  0.00  0.00    -0.214 N 
ATOM      2  N   UNL d   1       0.631   5.540   0.155  0.00  0.00    -0.347 N 
ATOM      3  C   UNL d   1       1.219   6.698   0.629  0.00  0.00     0.243 C 
ATOM      4  C   UNL d   1      -0.484   3.499   1.023  0.00  0.00     0.161 C 
ATOM      5  C   UNL d   1       1.444   3.287  -0.523  0.00  0.00     0.161 C 
ATOM      6  C   UNL d   1       1.280   4.770  -0.912  0.00  0.00     0.146 C 
ATOM      7  C   UNL d   1      -0.646   4.970   0.599  0.00  0.00     0.146 C 
ATOM      8  O   UNL d   1       2.270   7.140   0.159  0.00  0.00    -0.271 OA
ENDROOT
BRANCH   3   9
ATOM      9  C   UNL d   1       0.503   7.466   1.749  0.00  0.00     0.271 C 
BRANCH   9  10
ATOM     10  O   UNL d   1       0.301   6.686   2.932  0.00  0.00    -0.372 OA
BRANCH  10  11
ATOM     11  C   UNL d   1      -0.215   7.478   3.999  0.00  0.00     0.277 C 
BRANCH  11  12
ATOM     12  C   UNL d   1      -1.677   7.846   3.789  0.00  0.00     0.164 C 
ATOM     13  O   UNL d   1      -2.129   8.978   3.878  0.00  0.00    -0.648 OA
BRANCH  12  14
ATOM     14  O   UNL d   1      -2.440   6.771   3.474  0.00  0.00    -0.775 OA
ATOM     15  H   UNL d   1      -1.898   5.956   3.446  0.00  0.00     0.167 HD
ENDBRANCH  12  14
ENDBRANCH  11  12
ENDBRANCH  10  11
ENDBRANCH   9  10
ENDBRANCH   3   9
BRANCH   1  16
ATOM     16  C   UNL d   1       0.080   1.361   0.054  0.00  0.00     0.679 A 
ATOM     17  N   UNL d   1      -0.963   0.828   0.716  0.00  0.00    -0.202 N 
ATOM     18  C   UNL d   1      -1.079  -0.512   0.734  0.00  0.00     0.107 A 
ATOM     19  HN  UNL d   1      -1.644   1.421   1.190  1.00  0.00     0.183 HD
ATOM     20  C   UNL d   1      -0.188  -1.357   0.129  0.00  0.00     0.035 A 
ATOM     21  C   UNL d   1       0.854  -0.736  -0.507  0.00  0.00     0.107 A 
ATOM     22  N   UNL d   1       1.004   0.601  -0.558  0.00  0.00    -0.202 N 
ATOM     23  HN  UNL d   1       1.794   1.024  -1.046  1.00  0.00     0.183 HD
ENDBRANCH   1  16
TORSDOF 6
