REMARK  2 active torsions:
REMARK  status: ('A' for Active; 'I' for Inactive)
REMARK    1  A    between atoms: S_9  and  C_1 
REMARK    2  A    between atoms: C_10  and  S_9 
ROOT
ATOM      1  C   UNL d   1      -6.124   1.502  -0.870  0.00  0.00    -0.107 C 
ATOM      2  C   UNL d   1      -7.325   1.547  -0.902  0.00  0.00     0.013 C 
ATOM      3  C   UNL d   1      -4.654   1.428  -0.817  0.00  0.00     0.175 C 
ENDROOT
BRANCH   3   4
ATOM      4  S   UNL d   1      -4.125  -0.160  -0.111  0.00  0.00    -0.082 SA
BRANCH   4   5
ATOM      5  C   UNL d   1      -2.413   0.022  -0.117  0.00  0.00     0.146 A 
ATOM      6  N   UNL d   1      -1.707   1.125  -0.151  0.00  0.00    -0.335 N 
ATOM      7  C   UNL d   1      -0.396   0.700  -0.093  0.00  0.00     0.061 A 
ATOM      8  HN  UNL d   1      -2.050   2.084  -0.207  1.00  0.00     0.168 HD
ATOM      9  C   UNL d   1       0.796   1.441  -0.074  0.00  0.00     0.032 A 
ATOM     10  C   UNL d   1      -0.323  -0.691  -0.047  0.00  0.00     0.061 A 
ATOM     11  C   UNL d   1       2.018   0.753  -0.020  0.00  0.00     0.002 A 
ATOM     12  C   UNL d   1       2.054  -0.643   0.013  0.00  0.00     0.002 A 
ATOM     13  C   UNL d   1       0.878  -1.401   0.002  0.00  0.00     0.032 A 
ATOM     14  N   UNL d   1      -1.632  -1.093  -0.055  0.00  0.00    -0.335 N 
ATOM     15  H   UNL d   1      -1.975  -2.040  -0.015  0.00  0.00     0.168 HD
ENDBRANCH   4   5
ENDBRANCH   3   4
TORSDOF 2
