REMARK  7 active torsions:
REMARK  status: ('A' for Active; 'I' for Inactive)
REMARK    1  A    between atoms: C_8  and  N_1 
REMARK    2  A    between atoms: S_11  and  C_2 
REMARK    3  A    between atoms: O_20  and  C_3 
REMARK    4  A    between atoms: C_19  and  S_11 
REMARK    5  A    between atoms: C_12  and  C_19 
REMARK       I    between atoms: N_15  and  C_12 
REMARK    6  A    between atoms: C_23  and  N_15 
REMARK    7  A    between atoms: C_24  and  C_16 
ROOT
ATOM      1  N   UNL d   1       0.547   0.458  -0.487  0.00  0.00    -0.254 N 
ATOM      2  C   UNL d   1       0.882  -0.865  -0.204  0.00  0.00     0.169 A 
ATOM      3  C   UNL d   1       0.113   0.928   0.750  0.00  0.00     0.245 A 
ATOM      4  N   UNL d   1       0.568  -1.165   1.034  0.00  0.00    -0.276 N 
ATOM      5  HN  UNL d   1       0.659  -2.083   1.469  1.00  0.00     0.189 HD
ATOM      6  N   UNL d   1       0.098  -0.036   1.638  0.00  0.00    -0.263 N 
ATOM      7  HN  UNL d   1      -0.211   0.044   2.607  1.00  0.00     0.190 HD
ENDROOT
BRANCH   2   8
ATOM      8  S   UNL d   1       1.601  -1.976  -1.292  0.00  0.00    -0.083 SA
BRANCH   8   9
ATOM      9  C   UNL d   1       2.160  -3.421  -0.409  0.00  0.00     0.185 C 
BRANCH   9  10
ATOM     10  C   UNL d   1       2.617  -3.523   1.039  0.00  0.00     0.231 C 
ATOM     11  N   UNL d   1       2.891  -2.407   1.796  0.00  0.00    -0.327 N 
ATOM     12  H   UNL d   1       2.424  -1.548   1.530  0.00  0.00     0.169 HD
ATOM     13  O   UNL d   1       2.795  -4.675   1.445  0.00  0.00    -0.272 OA
BRANCH  11  14
ATOM     14  C   UNL d   1       3.436  -2.413   3.114  0.00  0.00     0.034 A 
ATOM     15  C   UNL d   1       4.065  -3.526   3.680  0.00  0.00     0.030 A 
ATOM     16  C   UNL d   1       4.580  -3.492   4.981  0.00  0.00     0.010 A 
ATOM     17  C   UNL d   1       4.512  -2.332   5.758  0.00  0.00    -0.055 A 
ATOM     18  C   UNL d   1       3.888  -1.207   5.195  0.00  0.00     0.010 A 
ATOM     19  C   UNL d   1       3.356  -1.250   3.891  0.00  0.00     0.030 A 
BRANCH  17  20
ATOM     20  C   UNL d   1       5.131  -2.281   7.145  0.00  0.00     0.010 C 
ATOM     21  C   UNL d   1       4.496  -3.288   8.111  0.00  0.00     0.015 C 
ATOM     22  C   UNL d   1       6.646  -2.511   7.069  0.00  0.00     0.015 C 
ENDBRANCH  17  20
ENDBRANCH  11  14
ENDBRANCH   9  10
ENDBRANCH   8   9
ENDBRANCH   2   8
BRANCH   1  23
ATOM     23  C   UNL d   1       0.652   1.240  -1.687  0.00  0.00     0.057 A 
ATOM     24  C   UNL d   1      -0.452   2.042  -2.100  0.00  0.00    -0.034 A 
ATOM     25  C   UNL d   1      -0.307   2.910  -3.205  0.00  0.00     0.015 A 
ATOM     26  C   UNL d   1      -1.829   2.056  -1.474  0.00  0.00     0.050 C 
ATOM     27  C   UNL d   1       0.874   2.970  -3.938  0.00  0.00    -0.061 A 
ATOM     28  C   UNL d   1       1.930   2.147  -3.560  0.00  0.00     0.015 A 
ATOM     29  C   UNL d   1       1.008   3.920  -5.091  0.00  0.00     0.048 C 
ATOM     30  C   UNL d   1       1.862   1.312  -2.423  0.00  0.00    -0.034 A 
ATOM     31  C   UNL d   1       3.164   0.631  -2.090  0.00  0.00     0.050 C 
ENDBRANCH   1  23
BRANCH   3  32
ATOM     32  O   UNL d   1      -0.172   2.185   1.067  0.00  0.00    -0.331 OA
ATOM     33  H   UNL d   1       0.072   2.759   0.323  0.00  0.00     0.221 HD
ENDBRANCH   3  32
TORSDOF 7
