REMARK  6 active torsions:
REMARK  status: ('A' for Active; 'I' for Inactive)
REMARK    1  A    between atoms: C_8  and  C_1 
REMARK    2  A    between atoms: N_16  and  C_2 
REMARK       I    between atoms: N_13  and  C_8 
REMARK    3  A    between atoms: C_18  and  C_10 
REMARK    4  A    between atoms: C_11  and  N_14 
REMARK    5  A    between atoms: N_19  and  C_11 
REMARK    6  A    between atoms: N_14  and  N_13 
ROOT
ATOM      1  C   UNL d   1       2.410   0.084   0.025  0.00  0.00     0.174 A 
ATOM      2  C   UNL d   1       1.661   1.246   0.026  0.00  0.00     0.081 A 
ATOM      3  C   UNL d   1       0.286   0.875   0.025  0.00  0.00     0.051 A 
ATOM      4  C   UNL d   1       0.287  -0.523   0.022  0.00  0.00     0.162 A 
ATOM      5  O   UNL d   1       1.570  -0.998   0.028  0.00  0.00    -0.285 OA
ATOM      6  N   UNL d   1      -0.781  -1.345   0.006  0.00  0.00    -0.335 N 
ATOM      7  HN  UNL d   1      -0.697  -2.362   0.014  1.00  0.00     0.168 HD
ATOM      8  C   UNL d   1      -0.968   1.524   0.026  0.00  0.00    -0.043 A 
ATOM      9  C   UNL d   1      -1.976  -0.709  -0.021  0.00  0.00     0.044 A 
ATOM     10  C   UNL d   1      -2.096   0.684   0.011  0.00  0.00     0.038 A 
ATOM     11  C   UNL d   1      -1.207   3.006   0.026  0.00  0.00     0.049 C 
ENDROOT
BRANCH   1  12
ATOM     12  C   UNL d   1       3.847  -0.100   0.018  0.00  0.00     0.296 C 
ATOM     13  N   UNL d   1       4.279  -1.413   0.018  0.00  0.00    -0.262 N 
ATOM     14  H   UNL d   1       3.635  -2.201   0.019  0.00  0.00     0.190 HD
ATOM     15  O   UNL d   1       4.658   0.831   0.008  0.00  0.00    -0.264 OA
BRANCH  13  16
ATOM     16  N   UNL d   1       5.660  -1.674   0.004  0.00  0.00    -0.274 N 
ATOM     17  H   UNL d   1       6.256  -0.852   0.001  0.00  0.00     0.189 HD
BRANCH  16  18
ATOM     18  C   UNL d   1       6.160  -2.966   0.018  0.00  0.00     0.186 C 
ATOM     19  S   UNL d   1       5.185  -4.327   0.038  0.00  0.00    -0.040 SA
BRANCH  18  20
ATOM     20  N   UNL d   1       7.541  -2.972   0.011  0.00  0.00    -0.370 N 
ATOM     21  C   UNL d   1       8.419  -4.130   0.018  0.00  0.00     0.148 C 
ATOM     22  H   UNL d   1       8.005  -2.075  -0.002  0.00  0.00     0.161 HD
ENDBRANCH  18  20
ENDBRANCH  16  18
ENDBRANCH  13  16
ENDBRANCH   1  12
BRANCH   2  23
ATOM     23  N   UNL d   1       2.189   2.485   0.024  0.00  0.00    -0.396 N 
ATOM     24  H   UNL d   1       3.202   2.625  -0.005  0.00  0.00     0.156 HD
ATOM     25  H   UNL d   1       1.657   3.344  -0.024  0.00  0.00     0.156 HD
ENDBRANCH   2  23
BRANCH   9  26
ATOM     26  C   UNL d   1      -3.180  -1.571  -0.114  0.00  0.00    -0.009 A 
ATOM     27  C   UNL d   1      -3.251  -2.807   0.552  0.00  0.00     0.013 A 
ATOM     28  C   UNL d   1      -4.392  -3.616   0.466  0.00  0.00     0.001 A 
ATOM     29  C   UNL d   1      -5.485  -3.209  -0.292  0.00  0.00     0.000 A 
ATOM     30  C   UNL d   1      -5.442  -1.993  -0.965  0.00  0.00     0.001 A 
ATOM     31  C   UNL d   1      -4.303  -1.187  -0.877  0.00  0.00     0.013 A 
ENDBRANCH   9  26
TORSDOF 6
