REMARK  4 active torsions:
REMARK  status: ('A' for Active; 'I' for Inactive)
REMARK    1  A    between atoms: C_2  and  C_1 
REMARK    2  A    between atoms: N_3  and  C_1 
REMARK    3  A    between atoms: C_6  and  N_3 
REMARK    4  A    between atoms: O_7  and  N_4 
ROOT
ATOM      1  C   UNL d   1       0.794   1.507  -2.192  0.00  0.00     0.063 C 
ATOM      2  C   UNL d   1       2.311   1.567  -2.471  0.00  0.00     0.044 C 
ATOM      3  C   UNL d   1       0.459   2.739  -1.330  0.00  0.00     0.044 C 
ENDROOT
BRANCH   1   4
ATOM      4  C   UNL d   1       0.494   0.159  -1.486  0.00  0.00     0.033 C 
ATOM      5  N   UNL d   1       0.030   0.161  -0.267  0.00  0.00    -0.275 N 
ATOM      6  HN  UNL d   1      -0.147   1.004   0.278  1.00  0.00     0.193 HD
ATOM      7  C   UNL d   1       0.775  -1.126  -2.245  0.00  0.00     0.068 C 
BRANCH   5   8
ATOM      8  O   UNL d   1      -0.194  -1.139   0.201  0.00  0.00    -0.290 OA
ATOM      9  H   UNL d   1      -0.629  -0.982   1.060  0.00  0.00     0.244 HD
ENDBRANCH   5   8
ENDBRANCH   1   4
BRANCH   1  10
ATOM     10  N   UNL d   1       0.094   1.600  -3.491  0.00  0.00    -0.376 N 
ATOM     11  H   UNL d   1       0.642   1.282  -4.285  0.00  0.00     0.160 HD
BRANCH  10  12
ATOM     12  C   UNL d   1      -1.273   1.495  -3.712  0.00  0.00     0.028 A 
ATOM     13  C   UNL d   1      -2.240   1.353  -2.713  0.00  0.00     0.029 A 
ATOM     14  C   UNL d   1      -3.608   1.334  -3.011  0.00  0.00     0.002 A 
ATOM     15  C   UNL d   1      -4.040   1.480  -4.322  0.00  0.00     0.000 A 
ATOM     16  C   UNL d   1      -3.104   1.649  -5.335  0.00  0.00     0.002 A 
ATOM     17  C   UNL d   1      -1.738   1.663  -5.027  0.00  0.00     0.029 A 
ENDBRANCH  10  12
ENDBRANCH   1  10
TORSDOF 4
