REMARK  5 active torsions:
REMARK  status: ('A' for Active; 'I' for Inactive)
REMARK    1  A    between atoms: C_2  and  C_1 
REMARK    2  A    between atoms: C_10  and  C_2 
REMARK    3  A    between atoms: C_12  and  N_3 
REMARK    4  A    between atoms: C_14  and  C_10 
REMARK    5  A    between atoms: N_15  and  C_11 
ROOT
ATOM      1  C   UNL d   1      -0.179  -1.459   0.225  0.00  0.00     0.160 A 
ATOM      2  N   UNL d   1       0.210  -0.634  -0.837  0.00  0.00    -0.222 N 
ATOM      3  N   UNL d   1       0.453   0.597  -0.306  0.00  0.00    -0.219 N 
ATOM      4  HN  UNL d   1       0.712   1.439  -0.821  1.00  0.00     0.210 HD
ATOM      5  N   UNL d   1       0.292   0.495   0.999  0.00  0.00    -0.226 N 
ATOM      6  HN  UNL d   1       0.427   1.260   1.660  1.00  0.00     0.210 HD
ATOM      7  N   UNL d   1      -0.078  -0.765   1.345  0.00  0.00    -0.267 N 
ATOM      8  HN  UNL d   1      -0.247  -1.111   2.290  1.00  0.00     0.190 HD
ENDROOT
BRANCH   1   9
ATOM      9  C   UNL d   1      -0.555  -2.818   0.082  0.00  0.00     0.077 C 
ATOM     10  C   UNL d   1       0.420  -3.727   0.298  0.00  0.00     0.104 C 
BRANCH   9  11
ATOM     11  C   UNL d   1      -1.920  -3.177  -0.434  0.00  0.00     0.197 C 
ATOM     12  O   UNL d   1      -2.078  -4.149  -1.175  0.00  0.00    -0.286 OA
BRANCH  11  13
ATOM     13  C   UNL d   1      -3.108  -2.308  -0.186  0.00  0.00     0.015 A 
ATOM     14  C   UNL d   1      -4.153  -2.373  -1.124  0.00  0.00     0.015 A 
ATOM     15  C   UNL d   1      -5.308  -1.605  -0.967  0.00  0.00     0.001 A 
ATOM     16  C   UNL d   1      -5.430  -0.759   0.131  0.00  0.00     0.000 A 
ATOM     17  C   UNL d   1      -4.408  -0.697   1.078  0.00  0.00     0.001 A 
ATOM     18  C   UNL d   1      -3.256  -1.480   0.931  0.00  0.00     0.015 A 
ENDBRANCH  11  13
ENDBRANCH   9  11
BRANCH  10  19
ATOM     19  N   UNL d   1       0.490  -5.114   0.249  0.00  0.00    -0.398 N 
ATOM     20  C   UNL d   1      -0.645  -6.005   0.485  0.00  0.00     0.148 C 
ATOM     21  C   UNL d   1       1.711  -5.801  -0.178  0.00  0.00     0.148 C 
ENDBRANCH  10  19
ENDBRANCH   1   9
BRANCH   2  22
ATOM     22  C   UNL d   1       0.407  -0.842  -2.238  0.00  0.00     0.060 A 
ATOM     23  C   UNL d   1       0.257  -2.086  -2.863  0.00  0.00     0.033 A 
ATOM     24  C   UNL d   1       0.460  -2.219  -4.244  0.00  0.00     0.021 A 
ATOM     25  C   UNL d   1       0.828  -1.118  -5.010  0.00  0.00     0.011 A 
ATOM     26  C   UNL d   1       1.002   0.123  -4.408  0.00  0.00     0.021 A 
ATOM     27 BR   UNL d   1       1.096  -1.308  -6.869  0.00  0.00    -0.051 Br
ATOM     28  C   UNL d   1       0.791   0.258  -3.031  0.00  0.00     0.033 A 
ENDBRANCH   2  22
TORSDOF 5
