REMARK  3 active torsions:
REMARK  status: ('A' for Active; 'I' for Inactive)
REMARK    1  A    between atoms: C_3  and  C_1 
REMARK    2  A    between atoms: C_2  and  C_4 
REMARK       I    between atoms: N_6  and  C_2 
REMARK    3  A    between atoms: N_14  and  N_6 
ROOT
ATOM      1  C   UNL d   1       0.509  -1.382  -0.368  0.00  0.00     0.048 A 
ATOM      2  C   UNL d   1      -0.271  -4.002  -1.095  0.00  0.00     0.033 A 
ATOM      3  C   UNL d   1       1.319  -2.484  -0.059  0.00  0.00     0.017 A 
ATOM      4  C   UNL d   1      -0.696  -1.603  -1.049  0.00  0.00     0.017 A 
ATOM      5  C   UNL d   1       0.933  -3.782  -0.415  0.00  0.00     0.018 A 
ATOM      6  C   UNL d   1      -1.081  -2.899  -1.408  0.00  0.00     0.018 A 
ENDROOT
BRANCH   2   7
ATOM      7  C   UNL d   1      -0.764  -5.361  -1.482  0.00  0.00     0.265 C 
ATOM      8  O   UNL d   1      -1.887  -5.503  -1.961  0.00  0.00    -0.266 OA
ATOM      9  N   UNL d   1       0.092  -6.441  -1.280  0.00  0.00    -0.290 N 
ATOM     10  H   UNL d   1       1.070  -6.317  -1.040  0.00  0.00     0.183 HD
BRANCH   9  11
ATOM     11  N   UNL d   1      -0.330  -7.731  -1.674  0.00  0.00    -0.247 NA
ATOM     12  H   UNL d   1      -1.146  -7.595  -2.289  0.00  0.00     0.143 HD
ATOM     13  H   UNL d   1      -0.728  -8.192  -0.852  0.00  0.00     0.143 HD
ENDBRANCH   9  11
ENDBRANCH   2   7
BRANCH   1  14
ATOM     14  C   UNL d   1       0.911   0.019   0.027  0.00  0.00     0.417 C 
ATOM     15  F   UNL d   1       2.096   0.074   0.697  0.00  0.00    -0.166 F 
ATOM     16  F   UNL d   1      -0.004   0.614   0.841  0.00  0.00    -0.166 F 
ATOM     17  F   UNL d   1       1.052   0.844  -1.047  0.00  0.00    -0.166 F 
ENDBRANCH   1  14
TORSDOF 3
