REMARK  4 active torsions:
REMARK  status: ('A' for Active; 'I' for Inactive)
REMARK    1  A    between atoms: C_15  and  C_1 
REMARK    2  A    between atoms: O_8  and  C_3 
REMARK    3  A    between atoms: C_7  and  O_8 
REMARK    4  A    between atoms: C_9  and  C_7 
ROOT
ATOM      1  C   UNL d   1      -0.828   2.494   0.242  0.00  0.00     0.077 C 
ATOM      2  C   UNL d   1       0.634   2.145   0.353  0.00  0.00     0.262 C 
ATOM      3  C   UNL d   1      -1.762   1.531   0.392  0.00  0.00     0.108 C 
ATOM      4  N   UNL d   1       0.986   0.816   0.322  0.00  0.00    -0.312 N 
ATOM      5  C   UNL d   1      -1.347   0.105   0.434  0.00  0.00     0.027 A 
ATOM      6  C   UNL d   1       0.023  -0.220   0.353  0.00  0.00     0.057 A 
ATOM      7  C   UNL d   1       0.449  -1.562   0.287  0.00  0.00    -0.030 A 
ATOM      8  C   UNL d   1      -2.273  -0.950   0.458  0.00  0.00     0.023 A 
ATOM      9  O   UNL d   1       1.476   3.039   0.467  0.00  0.00    -0.267 OA
ATOM     10  C   UNL d   1      -0.501  -2.586   0.289  0.00  0.00     0.016 A 
ATOM     11  C   UNL d   1      -1.864  -2.289   0.354  0.00  0.00    -0.060 A 
ATOM     12  C   UNL d   1       2.403   0.490   0.401  0.00  0.00     0.133 C 
ATOM     13  C   UNL d   1       1.911  -1.926   0.236  0.00  0.00     0.042 C 
ATOM     14  C   UNL d   1       2.743  -0.791  -0.332  0.00  0.00     0.025 C 
ATOM     15  C   UNL d   1      -2.861  -3.408   0.279  0.00  0.00     0.048 C 
ENDROOT
BRANCH   3  16
ATOM     16  O   UNL d   1      -3.141   1.825   0.610  0.00  0.00    -0.273 OA
BRANCH  16  17
ATOM     17  C   UNL d   1      -4.005   1.768  -0.448  0.00  0.00     0.299 C 
ATOM     18  O   UNL d   1      -3.727   1.502  -1.608  0.00  0.00    -0.259 OA
BRANCH  17  19
ATOM     19  C   UNL d   1      -5.405   1.983   0.036  0.00  0.00     0.051 A 
ATOM     20  C   UNL d   1      -6.394   0.990  -0.186  0.00  0.00    -0.045 A 
ATOM     21  C   UNL d   1      -7.728   1.238   0.187  0.00  0.00     0.014 A 
ATOM     22  C   UNL d   1      -6.122  -0.335  -0.848  0.00  0.00     0.049 C 
ATOM     23  C   UNL d   1      -8.112   2.440   0.787  0.00  0.00    -0.061 A 
ATOM     24  C   UNL d   1      -7.132   3.403   1.024  0.00  0.00     0.014 A 
ATOM     25  C   UNL d   1      -9.553   2.697   1.117  0.00  0.00     0.048 C 
ATOM     26  C   UNL d   1      -5.787   3.201   0.649  0.00  0.00    -0.045 A 
ATOM     27  C   UNL d   1      -4.841   4.334   0.927  0.00  0.00     0.049 C 
ENDBRANCH  17  19
ENDBRANCH  16  17
ENDBRANCH   3  16
BRANCH   1  28
ATOM     28  C   UNL d   1      -1.076   3.911  -0.090  0.00  0.00    -0.018 A 
ATOM     29  C   UNL d   1      -1.090   4.907   0.891  0.00  0.00     0.012 A 
ATOM     30  C   UNL d   1      -0.904   6.244   0.525  0.00  0.00     0.001 A 
ATOM     31  C   UNL d   1      -0.702   6.589  -0.813  0.00  0.00     0.000 A 
ATOM     32  C   UNL d   1      -0.734   5.606  -1.799  0.00  0.00     0.001 A 
ATOM     33  C   UNL d   1      -0.937   4.274  -1.442  0.00  0.00     0.012 A 
ENDBRANCH   1  28
TORSDOF 4
