REMARK  5 active torsions:
REMARK  status: ('A' for Active; 'I' for Inactive)
REMARK    1  A    between atoms: C_5  and  N_1 
REMARK    2  A    between atoms: N_6  and  N_2 
REMARK       I    between atoms: C_4  and  N_6 
REMARK    3  A    between atoms: O_16  and  C_4 
REMARK    4  A    between atoms: C_8  and  C_10 
REMARK    5  A    between atoms: C_18  and  O_16 
ROOT
ATOM      1  N   UNL d   1      -3.314   2.008   4.414  0.00  0.00    -0.300 N 
ATOM      2  HN  UNL d   1      -3.841   2.492   5.141  1.00  0.00     0.186 HD
ATOM      3  C   UNL d   1      -2.190   2.510   3.998  0.00  0.00     0.032 C 
ATOM      4  C   UNL d   1      -1.288   1.894   2.946  0.00  0.00     0.070 C 
ENDROOT
BRANCH   3   5
ATOM      5  C   UNL d   1      -1.738   3.806   4.627  0.00  0.00    -0.012 A 
ATOM      6  C   UNL d   1      -2.528   4.385   5.636  0.00  0.00     0.016 A 
ATOM      7  C   UNL d   1      -2.153   5.589   6.239  0.00  0.00     0.037 A 
ATOM      8  C   UNL d   1      -0.974   6.224   5.834  0.00  0.00     0.102 A 
ATOM      9  C   UNL d   1      -0.172   5.656   4.835  0.00  0.00     0.037 A 
ATOM     10  C   UNL d   1      -0.556   4.449   4.237  0.00  0.00     0.016 A 
BRANCH   8  11
ATOM     11  N   UNL d   1      -0.575   7.493   6.454  0.00  0.00    -0.116 N 
ATOM     12  O   UNL d   1       0.479   8.016   6.064  0.00  0.00    -0.532 OA
ATOM     13  O   UNL d   1      -1.316   7.968   7.326  0.00  0.00    -0.532 OA
ENDBRANCH   8  11
ENDBRANCH   3   5
BRANCH   1  14
ATOM     14  N   UNL d   1      -3.797   0.854   3.898  0.00  0.00    -0.245 N 
ATOM     15  C   UNL d   1      -4.844   0.199   4.502  0.00  0.00     0.379 C 
ATOM     16  O   UNL d   1      -5.487   0.580   5.470  0.00  0.00    -0.237 OA
ATOM     17  H   UNL d   1      -3.340   0.358   3.151  0.00  0.00     0.192 HD
BRANCH  15  18
ATOM     18  O   UNL d   1      -5.018  -0.996   3.874  0.00  0.00    -0.303 OA
BRANCH  18  19
ATOM     19  C   UNL d   1      -5.882  -1.923   4.547  0.00  0.00     0.176 C 
ATOM     20  C   UNL d   1      -5.054  -2.739   5.524  0.00  0.00     0.034 C 
ENDBRANCH  18  19
ENDBRANCH  15  18
ENDBRANCH   1  14
TORSDOF 5
