REMARK  2 active torsions:
REMARK  status: ('A' for Active; 'I' for Inactive)
REMARK    1  A    between atoms: N_15  and  C_2 
REMARK    2  A    between atoms: C_9  and  C_4 
ROOT
ATOM      1  C   UNL d   1      -2.405   0.744   0.058  0.00  0.00     0.078 C 
ATOM      2  C   UNL d   1      -2.378  -0.603   0.128  0.00  0.00     0.138 C 
ATOM      3  C   UNL d   1       0.108   0.728   0.035  0.00  0.00    -0.011 A 
ATOM      4  C   UNL d   1      -1.139   1.581   0.210  0.00  0.00     0.100 C 
ATOM      5  O   UNL d   1      -1.194  -1.307   0.297  0.00  0.00    -0.297 OA
ATOM      6  C   UNL d   1       0.006  -0.663   0.134  0.00  0.00     0.084 A 
ATOM      7  C   UNL d   1      -3.635   1.439  -0.128  0.00  0.00     0.100 C 
ATOM      8  N   UNL d   1      -4.610   2.052  -0.259  0.00  0.00    -0.192 NA
ATOM      9  C   UNL d   1       1.373   1.292  -0.200  0.00  0.00     0.034 A 
ATOM     10  C   UNL d   1       1.142  -1.473   0.069  0.00  0.00     0.039 A 
ATOM     11  C   UNL d   1       2.509   0.480  -0.261  0.00  0.00     0.034 A 
ATOM     12  C   UNL d   1       2.399  -0.899  -0.118  0.00  0.00     0.026 A 
ATOM     13 CL   UNL d   1       4.055   1.194  -0.501  0.00  0.00    -0.084 Cl
ENDROOT
BRANCH   2  14
ATOM     14  N   UNL d   1      -3.477  -1.424   0.070  0.00  0.00    -0.282 NA
ATOM     15  H   UNL d   1      -4.306  -1.062  -0.393  0.00  0.00     0.126 HD
ATOM     16  H   UNL d   1      -3.244  -2.378  -0.194  0.00  0.00     0.126 HD
ENDBRANCH   2  14
BRANCH   4  17
ATOM     17  C   UNL d   1      -1.177   2.386   1.548  0.00  0.00     0.213 C 
ATOM     18  C   UNL d   1      -0.169   3.457   1.568  0.00  0.00     0.079 C 
ATOM     19  N   UNL d   1       0.620   4.307   1.549  0.00  0.00    -0.196 NA
ATOM     20  C   UNL d   1      -1.064   1.513   2.726  0.00  0.00     0.079 C 
ATOM     21  N   UNL d   1      -1.001   0.818   3.653  0.00  0.00    -0.196 NA
ENDBRANCH   4  17
TORSDOF 2
