REMARK  3 active torsions:
REMARK  status: ('A' for Active; 'I' for Inactive)
REMARK    1  A    between atoms: N_10  and  C_7 
REMARK    2  A    between atoms: O_12  and  C_8 
REMARK    3  A    between atoms: O_11  and  C_9 
ROOT
ATOM      1  N   UNL d   1      -0.265   1.155   0.084  0.00  0.00    -0.298 N 
ATOM      2  HN  UNL d   1      -0.782   2.033   0.110  1.00  0.00     0.172 HD
ATOM      3  N   UNL d   1      -0.244  -1.191   0.050  0.00  0.00    -0.298 N 
ATOM      4  HN  UNL d   1      -0.744  -2.080   0.049  1.00  0.00     0.172 HD
ATOM      5  N   UNL d   1       1.795   0.003  -0.041  0.00  0.00    -0.287 N 
ATOM      6  HN  UNL d   1       2.814   0.014  -0.097  1.00  0.00     0.173 HD
ATOM      7  C   UNL d   1      -0.860  -0.024   0.117  0.00  0.00     0.160 A 
ATOM      8  C   UNL d   1       1.060   1.105   0.014  0.00  0.00     0.228 A 
ATOM      9  C   UNL d   1       1.082  -1.113  -0.016  0.00  0.00     0.228 A 
ENDROOT
BRANCH   7  10
ATOM     10  N   UNL d   1      -2.238  -0.034   0.196  0.00  0.00    -0.274 NA
ATOM     11  H   UNL d   1      -2.619  -0.885  -0.192  0.00  0.00     0.127 HD
ATOM     12  H   UNL d   1      -2.617   0.842  -0.137  0.00  0.00     0.127 HD
ENDBRANCH   7  10
BRANCH   9  13
ATOM     13  O   UNL d   1       1.837  -2.266  -0.069  0.00  0.00    -0.327 OA
ATOM     14  C   UNL d   1       1.055  -3.453  -0.036  0.00  0.00     0.213 C 
ENDBRANCH   9  13
BRANCH   8  15
ATOM     15  O   UNL d   1       1.673   2.341  -0.007  0.00  0.00    -0.327 OA
ATOM     16  C   UNL d   1       3.092   2.264  -0.059  0.00  0.00     0.213 C 
ENDBRANCH   8  15
TORSDOF 3
