REMARK  3 active torsions:
REMARK  status: ('A' for Active; 'I' for Inactive)
REMARK       I    between atoms: C_7  and  N_1 
REMARK    1  A    between atoms: C_8  and  C_4 
REMARK       I    between atoms: N_13  and  C_7 
REMARK    2  A    between atoms: O_16  and  N_9 
REMARK    3  A    between atoms: C_11  and  O_16 
ROOT
ATOM      1  N   UNL d   1      -0.424  -1.057  -0.125  0.00  0.00    -0.215 N 
ATOM      2  N   UNL d   1       0.885  -0.740  -0.378  0.00  0.00    -0.288 N 
ATOM      3  HN  UNL d   1       1.632  -1.369  -0.672  1.00  0.00     0.188 HD
ATOM      4  C   UNL d   1       0.967   0.587  -0.150  0.00  0.00     0.085 A 
ATOM      5  C   UNL d   1      -1.174   0.062   0.163  0.00  0.00     0.143 A 
ATOM      6  C   UNL d   1      -0.313   1.120   0.108  0.00  0.00     0.058 A 
ATOM      7  C   UNL d   1      -0.893  -2.389  -0.197  0.00  0.00     0.340 C 
ATOM      8  O   UNL d   1      -2.019  -2.666   0.192  0.00  0.00    -0.245 OA
ATOM      9  N   UNL d   1       0.026  -3.224  -0.789  0.00  0.00    -0.346 N 
ATOM     10 BR   UNL d   1      -0.757   2.920   0.376  0.00  0.00    -0.047 Br
ATOM     11  C   UNL d   1      -0.322  -4.572  -1.146  0.00  0.00     0.151 C 
ATOM     12  H   UNL d   1       0.872  -2.790  -1.157  0.00  0.00     0.163 HD
ENDROOT
BRANCH   4  13
ATOM     13  C   UNL d   1       2.229   1.316  -0.167  0.00  0.00     0.146 C 
ATOM     14  N   UNL d   1       3.365   0.701  -0.234  0.00  0.00    -0.267 N 
ATOM     15  HN  UNL d   1       3.491  -0.308  -0.319  1.00  0.00     0.194 HD
BRANCH  14  16
ATOM     16  O   UNL d   1       4.402   1.657  -0.169  0.00  0.00    -0.201 OA
BRANCH  16  17
ATOM     17  C   UNL d   1       5.623   1.039  -0.081  0.00  0.00     0.277 C 
ATOM     18  O   UNL d   1       5.849  -0.168  -0.059  0.00  0.00    -0.264 OA
ATOM     19  C   UNL d   1       6.711   2.074  -0.012  0.00  0.00     0.128 C 
ENDBRANCH  16  17
ENDBRANCH  14  16
ENDBRANCH   4  13
TORSDOF 3
