REMARK  7 active torsions:
REMARK  status: ('A' for Active; 'I' for Inactive)
REMARK    1  A    between atoms: C_2  and  C_1 
REMARK    2  A    between atoms: C_4  and  C_3 
REMARK       I    between atoms: N_6  and  C_4 
REMARK       I    between atoms: C_5  and  N_7 
REMARK    3  A    between atoms: C_8  and  C_5 
REMARK    4  A    between atoms: N_7  and  N_6 
REMARK    5  A    between atoms: C_9  and  C_8 
REMARK    6  A    between atoms: C_20  and  C_17 
REMARK    7  A    between atoms: C_24  and  C_20 
ROOT
ATOM      1  C   UNL d   1      -2.035  -3.322  -4.809  0.00  0.00     0.244 C 
ATOM      2  N   UNL d   1      -0.964  -2.606  -4.321  0.00  0.00    -0.267 N 
ATOM      3  O   UNL d   1      -2.905  -2.771  -5.494  0.00  0.00    -0.271 OA
ATOM      4  H   UNL d   1      -0.199  -2.998  -3.777  0.00  0.00     0.190 HD
ENDROOT
BRANCH   2   5
ATOM      5  N   UNL d   1      -0.872  -1.230  -4.635  0.00  0.00    -0.263 N 
ATOM      6  C   UNL d   1      -0.056  -0.430  -3.867  0.00  0.00     0.271 C 
ATOM      7  O   UNL d   1       0.593  -0.847  -2.912  0.00  0.00    -0.266 OA
ATOM      8  H   UNL d   1      -1.528  -0.880  -5.332  0.00  0.00     0.190 HD
BRANCH   6   9
ATOM      9  C   UNL d   1       0.118   0.984  -4.285  0.00  0.00     0.048 A 
ATOM     10  C   UNL d   1       0.109   2.033  -3.357  0.00  0.00     0.063 A 
ATOM     11  C   UNL d   1       0.604   3.298  -3.752  0.00  0.00     0.017 A 
ATOM     12  C   UNL d   1       1.051   3.519  -5.053  0.00  0.00     0.001 A 
ATOM     13  C   UNL d   1       0.981   2.493  -5.990  0.00  0.00     0.001 A 
ATOM     14  C   UNL d   1       0.523   1.226  -5.610  0.00  0.00     0.018 A 
BRANCH  10  15
ATOM     15  C   UNL d   1      -0.441   1.913  -1.956  0.00  0.00     0.418 C 
ATOM     16  F   UNL d   1      -1.111   0.764  -1.681  0.00  0.00    -0.166 F 
ATOM     17  F   UNL d   1      -1.349   2.908  -1.707  0.00  0.00    -0.166 F 
ATOM     18  F   UNL d   1       0.514   2.057  -0.996  0.00  0.00    -0.166 F 
ENDBRANCH  10  15
ENDBRANCH   6   9
ENDBRANCH   2   5
BRANCH   1  19
ATOM     19  C   UNL d   1      -2.065  -4.835  -4.534  0.00  0.00     0.108 C 
ATOM     20  C   UNL d   1      -1.551  -5.264  -3.159  0.00  0.00     0.025 C 
BRANCH  19  21
ATOM     21  C   UNL d   1      -1.402  -5.651  -5.633  0.00  0.00    -0.045 A 
ATOM     22  C   UNL d   1      -0.049  -5.486  -5.956  0.00  0.00     0.008 A 
ATOM     23  C   UNL d   1       0.554  -6.283  -6.932  0.00  0.00     0.007 A 
ATOM     24  C   UNL d   1      -0.177  -7.268  -7.607  0.00  0.00    -0.058 A 
ATOM     25  C   UNL d   1      -1.527  -7.442  -7.282  0.00  0.00     0.007 A 
ATOM     26  C   UNL d   1      -2.134  -6.639  -6.310  0.00  0.00     0.008 A 
BRANCH  24  27
ATOM     27  C   UNL d   1       0.503  -8.144  -8.634  0.00  0.00     0.042 C 
BRANCH  27  28
ATOM     28  C   UNL d   1      -0.118  -8.101 -10.044  0.00  0.00    -0.019 C 
ATOM     29  C   UNL d   1      -0.055  -6.703 -10.664  0.00  0.00     0.010 C 
ATOM     30  C   UNL d   1       0.605  -9.098 -10.954  0.00  0.00     0.010 C 
ENDBRANCH  27  28
ENDBRANCH  24  27
ENDBRANCH  19  21
ENDBRANCH   1  19
TORSDOF 7
