REMARK  7 active torsions:
REMARK  status: ('A' for Active; 'I' for Inactive)
REMARK    1  A    between atoms: C_2  and  C_1 
REMARK       I    between atoms: N_5  and  C_2 
REMARK    2  A    between atoms: C_4  and  C_3 
REMARK    3  A    between atoms: C_10  and  N_5 
REMARK    4  A    between atoms: C_6  and  C_10 
REMARK    5  A    between atoms: O_22  and  C_11 
REMARK    6  A    between atoms: O_23  and  C_14 
REMARK    7  A    between atoms: O_25  and  C_20 
ROOT
ATOM      1  C   UNL d   1       0.986   2.351   0.318  0.00  0.00     0.255 C 
ATOM      2  N   UNL d   1       0.451   3.626   0.148  0.00  0.00    -0.348 N 
ATOM      3  O   UNL d   1       2.170   2.115   0.546  0.00  0.00    -0.267 OA
ATOM      4  C   UNL d   1      -0.973   3.947   0.063  0.00  0.00     0.153 C 
ENDROOT
BRANCH   1   5
ATOM      5  C   UNL d   1       0.111   1.175   0.234  0.00  0.00     0.062 A 
ATOM      6  C   UNL d   1      -0.054   0.287   1.303  0.00  0.00     0.069 A 
ATOM      7  C   UNL d   1      -0.867  -0.840   1.092  0.00  0.00     0.073 A 
ATOM      8  C   UNL d   1      -1.479  -1.013  -0.139  0.00  0.00     0.142 A 
ATOM      9  N   UNL d   1      -1.317  -0.170  -1.178  0.00  0.00    -0.346 N 
ATOM     10  C   UNL d   1      -0.502   0.891  -0.977  0.00  0.00     0.108 A 
ATOM     11  HN  UNL d   1      -1.785  -0.324  -2.071  1.00  0.00     0.167 HD
BRANCH   6  12
ATOM     12  C   UNL d   1       0.619   0.463   2.634  0.00  0.00     0.418 C 
ATOM     13  F   UNL d   1       0.939   1.744   2.955  0.00  0.00    -0.166 F 
ATOM     14  F   UNL d   1      -0.188   0.045   3.657  0.00  0.00    -0.166 F 
ATOM     15  F   UNL d   1       1.756  -0.274   2.752  0.00  0.00    -0.166 F 
ENDBRANCH   6  12
BRANCH   8  16
ATOM     16  O   UNL d   1      -2.281  -2.126  -0.269  0.00  0.00    -0.341 OA
ATOM     17  C   UNL d   1      -2.982  -2.162  -1.508  0.00  0.00     0.211 C 
ENDBRANCH   8  16
ENDBRANCH   1   5
BRANCH   2  18
ATOM     18  C   UNL d   1       1.357   4.762   0.331  0.00  0.00     0.167 C 
BRANCH  18  19
ATOM     19  C   UNL d   1       2.039   5.286  -0.915  0.00  0.00    -0.007 A 
ATOM     20  C   UNL d   1       3.200   6.077  -0.813  0.00  0.00     0.078 A 
ATOM     21  C   UNL d   1       3.874   6.535  -1.954  0.00  0.00     0.074 A 
ATOM     22  C   UNL d   1       3.373   6.260  -3.223  0.00  0.00     0.070 A 
ATOM     23  C   UNL d   1       2.192   5.528  -3.340  0.00  0.00     0.037 A 
ATOM     24  C   UNL d   1       1.535   5.042  -2.203  0.00  0.00     0.014 A 
BRANCH  20  25
ATOM     25  O   UNL d   1       3.811   6.368   0.381  0.00  0.00    -0.355 OA
ATOM     26  C   UNL d   1       3.032   7.204   1.235  0.00  0.00     0.210 C 
ENDBRANCH  20  25
BRANCH  22  27
ATOM     27  O   UNL d   1       3.929   6.650  -4.411  0.00  0.00    -0.356 OA
ATOM     28  C   UNL d   1       5.260   7.151  -4.354  0.00  0.00     0.210 C 
ENDBRANCH  22  27
ENDBRANCH  18  19
ENDBRANCH   2  18
TORSDOF 7
