REMARK  2 active torsions:
REMARK  status: ('A' for Active; 'I' for Inactive)
REMARK    1  A    between atoms: C_10  and  C_1 
REMARK    2  A    between atoms: N_8  and  C_7 
ROOT
ATOM      1  C   UNL d   1       1.591  -0.111   0.132  0.00  0.00     0.101 A 
ATOM      2  N   UNL d   1      -0.458   1.163  -0.032  0.00  0.00    -0.299 N 
ATOM      3  N   UNL d   1      -0.583  -1.155   0.026  0.00  0.00    -0.299 N 
ATOM      4  C   UNL d   1       0.909   1.208   0.045  0.00  0.00     0.263 A 
ATOM      5  C   UNL d   1       0.773  -1.352   0.060  0.00  0.00     0.263 A 
ATOM      6  C   UNL d   1      -1.226   0.042  -0.034  0.00  0.00     0.181 A 
ATOM      7  S   UNL d   1      -2.884   0.129  -0.114  0.00  0.00    -0.040 SA
ATOM      8  O   UNL d   1       1.227  -2.490   0.018  0.00  0.00    -0.267 OA
ATOM      9  O   UNL d   1       1.504   2.281   0.030  0.00  0.00    -0.267 OA
ATOM     10  H   UNL d   1      -0.926   2.058  -0.093  0.00  0.00     0.171 HD
ATOM     11  H   UNL d   1      -1.144  -1.997  -0.004  0.00  0.00     0.171 HD
ENDROOT
BRANCH   1  12
ATOM     12  C   UNL d   1       2.932  -0.074   0.265  0.00  0.00     0.041 C 
ATOM     13  C   UNL d   1       3.754  -1.231   0.310  0.00  0.00     0.008 A 
ATOM     14  S   UNL d   1       4.088  -2.012   1.807  0.00  0.00    -0.067 SA
ATOM     15  C   UNL d   1       4.404  -1.863  -0.735  0.00  0.00     0.022 A 
ATOM     16  C   UNL d   1       4.992  -3.228   1.040  0.00  0.00     0.144 A 
ATOM     17  C   UNL d   1       5.109  -3.030  -0.318  0.00  0.00     0.045 A 
BRANCH  16  18
ATOM     18  N   UNL d   1       5.555  -4.316   1.797  0.00  0.00    -0.108 N 
ATOM     19  O   UNL d   1       6.208  -5.151   1.152  0.00  0.00    -0.531 OA
ATOM     20  O   UNL d   1       5.363  -4.348   3.018  0.00  0.00    -0.531 OA
ENDBRANCH  16  18
ENDBRANCH   1  12
TORSDOF 2
