REMARK  5 active torsions:
REMARK  status: ('A' for Active; 'I' for Inactive)
REMARK    1  A    between atoms: N_6  and  C_1 
REMARK    2  A    between atoms: C_13  and  N_2 
REMARK       I    between atoms: C_9  and  N_6 
REMARK    3  A    between atoms: C_17  and  N_8 
REMARK    4  A    between atoms: C_14  and  C_9 
REMARK    5  A    between atoms: N_12  and  C_14 
ROOT
ATOM      1  C   UNL d   1       1.977  -1.396  -2.110  0.00  0.00     0.132 A 
ATOM      2  N   UNL d   1       1.073  -0.336  -2.320  0.00  0.00    -0.244 N 
ATOM      3  N   UNL d   1       0.929  -0.088  -3.659  0.00  0.00    -0.302 N 
ATOM      4  HN  UNL d   1       0.327   0.609  -4.097  1.00  0.00     0.186 HD
ATOM      5  C   UNL d   1       2.401  -1.788  -3.367  0.00  0.00     0.102 A 
ATOM      6  C   UNL d   1       1.740  -0.948  -4.269  0.00  0.00     0.134 A 
ATOM      7  C   UNL d   1       3.280  -2.862  -3.693  0.00  0.00     0.104 C 
ATOM      8  N   UNL d   1       3.967  -3.749  -3.976  0.00  0.00    -0.191 NA
ENDROOT
BRANCH   1   9
ATOM      9  N   UNL d   1       2.354  -1.954  -0.888  0.00  0.00    -0.210 NA
ATOM     10  C   UNL d   1       1.434  -2.596  -0.078  0.00  0.00     0.231 C 
ATOM     11  O   UNL d   1       1.495  -2.384   1.138  0.00  0.00    -0.278 OA
ATOM     12  H   UNL d   1       2.855  -1.304  -0.286  0.00  0.00     0.138 HD
BRANCH  10  13
ATOM     13  C   UNL d   1       0.488  -3.652  -0.668  0.00  0.00     0.368 C 
BRANCH  13  14
ATOM     14  N   UNL d   1      -0.843  -3.088  -0.983  0.00  0.00     0.100 N 
ATOM     15  C   UNL d   1      -1.077  -2.983  -2.439  0.00  0.00     0.292 C 
ATOM     16  C   UNL d   1      -1.125  -4.329  -3.186  0.00  0.00     0.153 C 
ATOM     17  N   UNL d   1      -2.204  -5.173  -2.649  0.00  0.00    -0.378 N 
ATOM     18  C   UNL d   1      -2.209  -5.276  -1.173  0.00  0.00     0.153 C 
ATOM     19  C   UNL d   1      -1.950  -3.925  -0.446  0.00  0.00     0.292 C 
BRANCH  17  20
ATOM     20  C   UNL d   1      -3.382  -5.066  -3.391  0.00  0.00     0.030 A 
ATOM     21  C   UNL d   1      -4.583  -4.560  -2.890  0.00  0.00     0.029 A 
ATOM     22  C   UNL d   1      -5.699  -4.398  -3.722  0.00  0.00     0.002 A 
ATOM     23  C   UNL d   1      -5.637  -4.755  -5.068  0.00  0.00     0.000 A 
ATOM     24  C   UNL d   1      -4.464  -5.290  -5.582  0.00  0.00     0.002 A 
ATOM     25  C   UNL d   1      -3.358  -5.449  -4.747  0.00  0.00     0.029 A 
ENDBRANCH  17  20
ENDBRANCH  13  14
ENDBRANCH  10  13
ENDBRANCH   1   9
BRANCH   2  26
ATOM     26  C   UNL d   1       0.252   0.380  -1.397  0.00  0.00     0.058 A 
ATOM     27  C   UNL d   1       0.564   0.490  -0.040  0.00  0.00     0.031 A 
ATOM     28  C   UNL d   1      -0.337   1.090   0.846  0.00  0.00     0.002 A 
ATOM     29  C   UNL d   1      -1.546   1.601   0.382  0.00  0.00     0.000 A 
ATOM     30  C   UNL d   1      -1.847   1.541  -0.975  0.00  0.00     0.002 A 
ATOM     31  C   UNL d   1      -0.947   0.948  -1.865  0.00  0.00     0.031 A 
ENDBRANCH   2  26
TORSDOF 5
