REMARK  6 active torsions:
REMARK  status: ('A' for Active; 'I' for Inactive)
REMARK    1  A    between atoms: C_2  and  C_1 
REMARK       I    between atoms: N_5  and  C_1 
REMARK    2  A    between atoms: C_3  and  C_4 
REMARK    3  A    between atoms: O_11  and  C_3 
REMARK    4  A    between atoms: C_6  and  N_5 
REMARK    5  A    between atoms: C_9  and  C_6 
REMARK    6  A    between atoms: C_10  and  C_9 
ROOT
ATOM      1  C   UNL d   1       1.251  -0.926  -1.413  0.00  0.00     0.242 C 
ATOM      2  N   UNL d   1       0.247  -0.013  -1.210  0.00  0.00    -0.349 N 
ATOM      3  O   UNL d   1       1.105  -2.095  -1.750  0.00  0.00    -0.269 OA
ATOM      4  H   UNL d   1       0.513   0.916  -0.914  0.00  0.00     0.163 HD
ENDROOT
BRANCH   2   5
ATOM      5  C   UNL d   1      -1.198  -0.270  -1.318  0.00  0.00     0.026 C 
ATOM      6  C   UNL d   1      -1.925   1.073  -1.109  0.00  0.00     0.038 C 
ATOM      7  C   UNL d   1      -1.533  -0.705  -2.766  0.00  0.00     0.038 C 
BRANCH   5   8
ATOM      8  C   UNL d   1      -1.715  -1.381  -0.335  0.00  0.00     0.038 C 
BRANCH   8   9
ATOM      9  C   UNL d   1      -1.523  -1.302   1.219  0.00  0.00    -0.049 C 
ATOM     10  C   UNL d   1      -2.329  -0.177   1.887  0.00  0.00     0.014 C 
ATOM     11  C   UNL d   1      -2.050  -2.627   1.830  0.00  0.00     0.014 C 
ATOM     12  C   UNL d   1      -0.047  -1.176   1.619  0.00  0.00     0.014 C 
ENDBRANCH   8   9
ENDBRANCH   5   8
ENDBRANCH   2   5
BRANCH   1  13
ATOM     13  C   UNL d   1       2.590  -0.351  -1.143  0.00  0.00     0.080 C 
ATOM     14  C   UNL d   1       3.691  -1.105  -1.275  0.00  0.00     0.086 C 
BRANCH  14  15
ATOM     15  C   UNL d   1       4.993  -0.489  -0.976  0.00  0.00     0.165 C 
ATOM     16  O   UNL d   1       5.138   0.665  -0.610  0.00  0.00    -0.647 OA
BRANCH  15  17
ATOM     17  O   UNL d   1       6.019  -1.343  -1.151  0.00  0.00    -0.773 OA
ATOM     18  H   UNL d   1       5.776  -2.240  -1.445  0.00  0.00     0.167 HD
ENDBRANCH  15  17
ENDBRANCH  14  15
ENDBRANCH   1  13
TORSDOF 6
