REMARK  2 active torsions:
REMARK  status: ('A' for Active; 'I' for Inactive)
REMARK    1  A    between atoms: C_14  and  N_2 
REMARK    2  A    between atoms: N_11  and  C_6 
ROOT
ATOM      1  C   UNL d   1      -0.368   0.745  -0.008  0.00  0.00     0.091 A 
ATOM      2  N   UNL d   1      -1.344  -1.387   0.026  0.00  0.00    -0.281 N 
ATOM      3  C   UNL d   1      -0.137  -0.615   0.010  0.00  0.00     0.136 A 
ATOM      4  C   UNL d   1      -2.513  -0.606   0.047  0.00  0.00     0.152 A 
ATOM      5  S   UNL d   1      -2.088   1.115  -0.074  0.00  0.00    -0.053 SA
ATOM      6  C   UNL d   1       0.724   1.594  -0.032  0.00  0.00     0.105 A 
ATOM      7  N   UNL d   1       1.100  -1.133  -0.027  0.00  0.00    -0.331 N 
ATOM      8  HN  UNL d   1       1.262  -2.140  -0.034  1.00  0.00     0.168 HD
ATOM      9  N   UNL d   1       1.973   1.087  -0.060  0.00  0.00    -0.336 N 
ATOM     10  HN  UNL d   1       2.787   1.700  -0.084  1.00  0.00     0.168 HD
ATOM     11  C   UNL d   1       2.115  -0.254  -0.055  0.00  0.00     0.079 A 
ATOM     12  S   UNL d   1      -4.113  -1.037   0.279  0.00  0.00    -0.052 SA
ATOM     13  C   UNL d   1       3.504  -0.811  -0.056  0.00  0.00     0.089 C 
ENDROOT
BRANCH   2  14
ATOM     14  C   UNL d   1      -1.280  -2.820   0.026  0.00  0.00     0.042 A 
ATOM     15  C   UNL d   1      -0.279  -3.519   0.721  0.00  0.00     0.030 A 
ATOM     16  C   UNL d   1      -0.231  -4.919   0.727  0.00  0.00     0.002 A 
ATOM     17  C   UNL d   1      -1.196  -5.653   0.047  0.00  0.00     0.000 A 
ATOM     18  C   UNL d   1      -2.197  -4.987  -0.649  0.00  0.00     0.002 A 
ATOM     19  C   UNL d   1      -2.229  -3.587  -0.668  0.00  0.00     0.030 A 
ENDBRANCH   2  14
BRANCH   6  20
ATOM     20  N   UNL d   1       0.543   2.987  -0.060  0.00  0.00    -0.264 NA
ATOM     21  C   UNL d   1       1.673   3.742  -0.638  0.00  0.00     0.123 C 
ATOM     22  C   UNL d   1       1.260   5.220  -0.761  0.00  0.00     0.182 C 
ATOM     23  O   UNL d   1       0.891   5.770   0.517  0.00  0.00    -0.389 OA
ATOM     24  C   UNL d   1      -0.198   5.024   1.089  0.00  0.00     0.182 C 
ATOM     25  C   UNL d   1       0.168   3.540   1.261  0.00  0.00     0.123 C 
ENDBRANCH   6  20
TORSDOF 2
