REMARK  3 active torsions:
REMARK  status: ('A' for Active; 'I' for Inactive)
REMARK    1  A    between atoms: S_15  and  C_9 
REMARK    2  A    between atoms: C_18  and  S_15 
REMARK    3  A    between atoms: C_16  and  C_18 
ROOT
ATOM      1  C   UNL d   1      -0.133   0.679  -0.028  0.00  0.00     0.124 A 
ATOM      2  N   UNL d   1       1.059   1.404  -0.027  0.00  0.00    -0.318 N 
ATOM      3  N   UNL d   1       2.320  -0.548  -0.020  0.00  0.00    -0.323 N 
ATOM      4  C   UNL d   1       2.286   0.820  -0.019  0.00  0.00     0.178 A 
ATOM      5  N   UNL d   1      -1.270   1.402  -0.016  0.00  0.00    -0.322 N 
ATOM      6  HN  UNL d   1      -1.262   2.422  -0.023  1.00  0.00     0.169 HD
ATOM      7  C   UNL d   1       1.218  -1.382  -0.026  0.00  0.00     0.118 A 
ATOM      8  C   UNL d   1      -0.089  -0.702  -0.030  0.00  0.00     0.062 A 
ATOM      9  C   UNL d   1      -2.414   0.699   0.004  0.00  0.00     0.145 A 
ATOM     10  N   UNL d   1      -2.483  -0.644  -0.003  0.00  0.00    -0.346 N 
ATOM     11  HN  UNL d   1      -3.379  -1.130   0.006  1.00  0.00     0.167 HD
ATOM     12  C   UNL d   1      -1.316  -1.321  -0.023  0.00  0.00     0.108 A 
ATOM     13  S   UNL d   1       1.466  -3.036  -0.024  0.00  0.00    -0.059 SA
ATOM     14  S   UNL d   1       3.682   1.719  -0.005  0.00  0.00    -0.040 SA
ATOM     15  H   UNL d   1       0.987   2.413  -0.020  0.00  0.00     0.170 HD
ATOM     16  H   UNL d   1       3.236  -0.985  -0.010  0.00  0.00     0.169 HD
ENDROOT
BRANCH   9  17
ATOM     17  S   UNL d   1      -3.959   1.553   0.144  0.00  0.00    -0.090 SA
BRANCH  17  18
ATOM     18  C   UNL d   1      -3.589   3.045  -0.818  0.00  0.00     0.108 C 
BRANCH  18  19
ATOM     19  C   UNL d   1      -4.853   3.847  -0.953  0.00  0.00    -0.026 C 
ATOM     20  C   UNL d   1      -5.040   5.071  -0.443  0.00  0.00     0.007 C 
ENDBRANCH  18  19
ENDBRANCH  17  18
ENDBRANCH   9  17
TORSDOF 3
