REMARK  9 active torsions:
REMARK  status: ('A' for Active; 'I' for Inactive)
REMARK    1  A    between atoms: C_5  and  C_1 
REMARK    2  A    between atoms: C_6  and  C_1 
REMARK    3  A    between atoms: C_3  and  C_2 
REMARK    4  A    between atoms: N_7  and  C_4 
REMARK    5  A    between atoms: C_8  and  C_4 
REMARK    6  A    between atoms: O_12  and  C_5 
REMARK    7  A    between atoms: O_11  and  C_6 
REMARK    8  A    between atoms: C_18  and  O_11 
REMARK    9  A    between atoms: C_17  and  O_12 
ROOT
ATOM      1  C   UNL d   1       1.161  -0.136   0.051  0.00  0.00     0.114 C 
ATOM      2  C   UNL d   1       0.452   0.684   0.858  0.00  0.00     0.026 C 
ENDROOT
BRANCH   2   3
ATOM      3  C   UNL d   1       0.936   1.609   1.871  0.00  0.00     0.031 C 
ATOM      4  C   UNL d   1       0.168   2.492   2.544  0.00  0.00     0.039 C 
BRANCH   4   5
ATOM      5  N   UNL d   1      -1.222   2.607   2.503  0.00  0.00    -0.389 N 
ATOM      6  C   UNL d   1      -2.102   1.502   2.876  0.00  0.00     0.149 C 
ATOM      7  C   UNL d   1      -1.912   3.874   2.267  0.00  0.00     0.149 C 
ENDBRANCH   4   5
BRANCH   4   8
ATOM      8  C   UNL d   1       0.894   3.432   3.433  0.00  0.00    -0.010 A 
ATOM      9  C   UNL d   1       1.370   4.658   2.948  0.00  0.00     0.013 A 
ATOM     10  C   UNL d   1       2.037   5.544   3.796  0.00  0.00     0.001 A 
ATOM     11  C   UNL d   1       2.259   5.199   5.128  0.00  0.00     0.000 A 
ATOM     12  C   UNL d   1       1.821   3.966   5.611  0.00  0.00     0.001 A 
ATOM     13  C   UNL d   1       1.139   3.086   4.768  0.00  0.00     0.013 A 
ENDBRANCH   4   8
ENDBRANCH   2   3
BRANCH   1  14
ATOM     14  C   UNL d   1       0.437  -0.860  -1.034  0.00  0.00     0.299 C 
ATOM     15  O   UNL d   1       0.954  -1.196  -2.090  0.00  0.00    -0.259 OA
BRANCH  14  16
ATOM     16  O   UNL d   1      -0.890  -0.992  -0.755  0.00  0.00    -0.318 OA
BRANCH  16  17
ATOM     17  C   UNL d   1      -1.726  -1.259  -1.891  0.00  0.00     0.174 C 
ATOM     18  C   UNL d   1      -2.030   0.055  -2.594  0.00  0.00     0.034 C 
ENDBRANCH  16  17
ENDBRANCH  14  16
ENDBRANCH   1  14
BRANCH   1  19
ATOM     19  C   UNL d   1       2.644  -0.174   0.046  0.00  0.00     0.299 C 
ATOM     20  O   UNL d   1       3.368   0.755   0.384  0.00  0.00    -0.259 OA
BRANCH  19  21
ATOM     21  O   UNL d   1       3.093  -1.355  -0.451  0.00  0.00    -0.318 OA
BRANCH  21  22
ATOM     22  C   UNL d   1       4.458  -1.345  -0.897  0.00  0.00     0.174 C 
ATOM     23  C   UNL d   1       4.525  -0.741  -2.291  0.00  0.00     0.034 C 
ENDBRANCH  21  22
ENDBRANCH  19  21
ENDBRANCH   1  19
TORSDOF 9
