REMARK  4 active torsions:
REMARK  status: ('A' for Active; 'I' for Inactive)
REMARK    1  A    between atoms: C_11  and  N_3 
REMARK    2  A    between atoms: C_12  and  C_4 
REMARK    3  A    between atoms: O_22  and  C_13 
REMARK    4  A    between atoms: O_23  and  C_15 
ROOT
ATOM      1  C   UNL d   1      -0.486   2.293   0.275  0.00  0.00     0.122 C 
ATOM      2  N   UNL d   1      -1.839   2.009   0.782  0.00  0.00    -0.237 NA
ATOM      3  N   UNL d   1      -0.764   3.089  -0.959  0.00  0.00    -0.167 NA
ATOM      4  C   UNL d   1      -2.583   3.047   0.212  0.00  0.00     0.141 C 
ATOM      5  N   UNL d   1      -2.032   3.672  -0.803  0.00  0.00    -0.299 N 
ATOM      6  HN  UNL d   1      -2.439   4.422  -1.361  1.00  0.00     0.182 HD
ATOM      7  C   UNL d   1       0.457   1.116   0.154  0.00  0.00    -0.009 A 
ATOM      8  C   UNL d   1       0.048  -0.191   0.452  0.00  0.00    -0.044 A 
ATOM      9  C   UNL d   1       1.808   1.345  -0.173  0.00  0.00     0.050 A 
ATOM     10  C   UNL d   1      -2.363   0.659   0.552  0.00  0.00     0.104 C 
ATOM     11  C   UNL d   1       2.752   0.323  -0.111  0.00  0.00     0.102 A 
ATOM     12  C   UNL d   1       0.988  -1.241   0.415  0.00  0.00     0.047 A 
ATOM     13  C   UNL d   1       2.339  -0.990   0.136  0.00  0.00     0.102 A 
ATOM     14  C   UNL d   1      -1.366  -0.451   0.907  0.00  0.00     0.054 C 
ATOM     15  C   UNL d   1       0.137   3.277   1.322  0.00  0.00     0.058 C 
ENDROOT
BRANCH   3  16
ATOM     16  C   UNL d   1      -0.561   2.629  -2.269  0.00  0.00     0.033 A 
ATOM     17  C   UNL d   1      -0.777   1.313  -2.697  0.00  0.00     0.027 A 
ATOM     18  C   UNL d   1      -0.593   0.932  -4.032  0.00  0.00     0.026 A 
ATOM     19  C   UNL d   1      -0.192   1.876  -4.969  0.00  0.00     0.034 A 
ATOM     20  C   UNL d   1       0.014   3.194  -4.582  0.00  0.00     0.026 A 
ATOM     21 CL   UNL d   1       0.032   1.412  -6.609  0.00  0.00    -0.084 Cl
ATOM     22  C   UNL d   1      -0.180   3.566  -3.245  0.00  0.00     0.027 A 
ENDBRANCH   3  16
BRANCH   4  23
ATOM     23  C   UNL d   1      -3.900   3.541   0.762  0.00  0.00     0.184 C 
ATOM     24  O   UNL d   1      -4.765   2.741   1.088  0.00  0.00    -0.290 OA
ATOM     25  C   UNL d   1      -4.018   5.035   0.890  0.00  0.00     0.099 C 
ENDBRANCH   4  23
BRANCH  11  26
ATOM     26  O   UNL d   1       4.089   0.567  -0.309  0.00  0.00    -0.353 OA
ATOM     27  C   UNL d   1       4.566   1.716   0.393  0.00  0.00     0.210 C 
ENDBRANCH  11  26
BRANCH  13  28
ATOM     28  O   UNL d   1       3.329  -1.937   0.168  0.00  0.00    -0.353 OA
ATOM     29  C   UNL d   1       2.937  -3.280  -0.074  0.00  0.00     0.210 C 
ENDBRANCH  13  28
TORSDOF 4
