REMARK  8 active torsions:
REMARK  status: ('A' for Active; 'I' for Inactive)
REMARK    1  A    between atoms: N_2  and  C_1 
REMARK    2  A    between atoms: C_3  and  C_7 
REMARK    3  A    between atoms: S_6  and  C_4 
REMARK    4  A    between atoms: C_10  and  S_6 
REMARK    5  A    between atoms: N_8  and  C_11 
REMARK       I    between atoms: C_9  and  N_8 
REMARK    6  A    between atoms: C_12  and  C_9 
REMARK    7  A    between atoms: C_13  and  C_15 
REMARK    8  A    between atoms: O_24  and  C_13 
ROOT
ATOM      1  C   UNL d   1       2.530  -3.209   0.406  0.00  0.00     0.032 A 
ATOM      2  C   UNL d   1       3.254  -2.975   1.595  0.00  0.00     0.052 A 
ATOM      3  C   UNL d   1       3.197  -3.776  -0.693  0.00  0.00     0.021 A 
ATOM      4  C   UNL d   1       4.637  -3.211   1.611  0.00  0.00     0.031 A 
ATOM      5  C   UNL d   1       4.568  -4.038  -0.648  0.00  0.00     0.002 A 
ATOM      6  C   UNL d   1       5.291  -3.734   0.496  0.00  0.00     0.002 A 
ENDROOT
BRANCH   1   7
ATOM      7  S   UNL d   1       0.761  -3.079   0.269  0.00  0.00    -0.086 SA
BRANCH   7   8
ATOM      8  C   UNL d   1       0.238  -1.381   0.141  0.00  0.00     0.038 A 
ATOM      9  C   UNL d   1       0.935  -0.202  -0.144  0.00  0.00     0.120 A 
ATOM     10  C   UNL d   1       0.310   1.066  -0.168  0.00  0.00     0.053 A 
ATOM     11  C   UNL d   1      -1.062   1.184   0.089  0.00  0.00     0.050 A 
ATOM     12  C   UNL d   1      -1.790   0.015   0.323  0.00  0.00     0.017 A 
ATOM     13  C   UNL d   1      -1.151  -1.234   0.347  0.00  0.00     0.022 A 
BRANCH   9  14
ATOM     14  N   UNL d   1       2.348  -0.196  -0.427  0.00  0.00    -0.114 N 
ATOM     15  O   UNL d   1       3.099   0.024   0.531  0.00  0.00    -0.532 OA
ATOM     16  O   UNL d   1       2.683  -0.306  -1.613  0.00  0.00    -0.532 OA
ENDBRANCH   9  14
BRANCH  11  17
ATOM     17  C   UNL d   1      -1.754   2.527   0.141  0.00  0.00     0.417 C 
ATOM     18  F   UNL d   1      -0.913   3.576  -0.068  0.00  0.00    -0.166 F 
ATOM     19  F   UNL d   1      -2.743   2.643  -0.784  0.00  0.00    -0.166 F 
ATOM     20  F   UNL d   1      -2.339   2.751   1.350  0.00  0.00    -0.166 F 
ENDBRANCH  11  17
ENDBRANCH   7   8
ENDBRANCH   1   7
BRANCH   2  21
ATOM     21  N   UNL d   1       2.596  -2.458   2.735  0.00  0.00    -0.322 N 
ATOM     22  C   UNL d   1       3.105  -2.450   4.016  0.00  0.00     0.245 C 
ATOM     23  O   UNL d   1       4.028  -3.104   4.469  0.00  0.00    -0.268 OA
ATOM     24  H   UNL d   1       1.687  -2.047   2.576  0.00  0.00     0.169 HD
BRANCH  22  25
ATOM     25  C   UNL d   1       2.439  -1.445   4.862  0.00  0.00     0.081 C 
ATOM     26  C   UNL d   1       1.234  -1.666   5.399  0.00  0.00     0.086 C 
BRANCH  26  27
ATOM     27  C   UNL d   1       0.569  -0.640   6.209  0.00  0.00     0.165 C 
ATOM     28  O   UNL d   1      -0.471  -0.806   6.814  0.00  0.00    -0.647 OA
BRANCH  27  29
ATOM     29  O   UNL d   1       1.193   0.549   6.183  0.00  0.00    -0.773 OA
ATOM     30  H   UNL d   1       0.639   1.129   6.747  0.00  0.00     0.167 HD
ENDBRANCH  27  29
ENDBRANCH  26  27
ENDBRANCH  22  25
ENDBRANCH   2  21
TORSDOF 8
