REMARK  4 active torsions:
REMARK  status: ('A' for Active; 'I' for Inactive)
REMARK    1  A    between atoms: N_6  and  C_1 
REMARK       I    between atoms: C_9  and  N_6 
REMARK    2  A    between atoms: C_15  and  N_7 
REMARK    3  A    between atoms: C_12  and  C_9 
REMARK    4  A    between atoms: N_11  and  C_12 
ROOT
ATOM      1  C   UNL d   1       4.102   1.288  -0.888  0.00  0.00     0.098 C 
ATOM      2  C   UNL d   1       3.501   2.550  -0.791  0.00  0.00     0.085 C 
ATOM      3  S   UNL d   1       5.718   1.430  -1.474  0.00  0.00    -0.075 SA
ATOM      4  C   UNL d   1       4.465   3.586  -1.005  0.00  0.00    -0.021 C 
ATOM      5  C   UNL d   1       5.704   3.067  -1.234  0.00  0.00    -0.007 C 
ATOM      6  C   UNL d   1       2.128   2.775  -0.425  0.00  0.00     0.103 C 
ATOM      7  N   UNL d   1       1.026   2.941  -0.126  0.00  0.00    -0.191 NA
ATOM      8  C   UNL d   1       4.541   5.071  -0.947  0.00  0.00     0.042 C 
ATOM      9  C   UNL d   1       6.819   4.032  -1.206  0.00  0.00     0.047 C 
ATOM     10  C   UNL d   1       6.077   5.327  -0.765  0.00  0.00     0.010 C 
ENDROOT
BRANCH   1  11
ATOM     11  N   UNL d   1       3.597   0.021  -0.568  0.00  0.00    -0.319 N 
ATOM     12  C   UNL d   1       4.337  -1.160  -0.613  0.00  0.00     0.251 C 
ATOM     13  O   UNL d   1       5.510  -1.283  -0.966  0.00  0.00    -0.271 OA
ATOM     14  H   UNL d   1       2.660  -0.055  -0.187  0.00  0.00     0.169 HD
BRANCH  12  15
ATOM     15  C   UNL d   1       3.648  -2.419  -0.081  0.00  0.00     0.375 C 
BRANCH  15  16
ATOM     16  N   UNL d   1       2.182  -2.474  -0.261  0.00  0.00     0.100 N 
ATOM     17  C   UNL d   1       1.782  -2.507  -1.694  0.00  0.00     0.292 C 
ATOM     18  C   UNL d   1       2.108  -3.794  -2.496  0.00  0.00     0.153 C 
ATOM     19  N   UNL d   1       1.648  -4.995  -1.782  0.00  0.00    -0.378 N 
ATOM     20  C   UNL d   1       1.998  -5.060  -0.360  0.00  0.00     0.153 C 
ATOM     21  C   UNL d   1       1.668  -3.731   0.372  0.00  0.00     0.292 C 
BRANCH  19  22
ATOM     22  C   UNL d   1       0.605  -5.731  -2.323  0.00  0.00     0.030 A 
ATOM     23  C   UNL d   1      -0.534  -6.091  -1.592  0.00  0.00     0.029 A 
ATOM     24  C   UNL d   1      -1.567  -6.845  -2.168  0.00  0.00     0.002 A 
ATOM     25  C   UNL d   1      -1.473  -7.267  -3.490  0.00  0.00     0.000 A 
ATOM     26  C   UNL d   1      -0.351  -6.931  -4.237  0.00  0.00     0.002 A 
ATOM     27  C   UNL d   1       0.670  -6.170  -3.657  0.00  0.00     0.029 A 
ENDBRANCH  19  22
ENDBRANCH  15  16
ENDBRANCH  12  15
ENDBRANCH   1  11
TORSDOF 4
