REMARK  6 active torsions:
REMARK  status: ('A' for Active; 'I' for Inactive)
REMARK    1  A    between atoms: C_17  and  C_1 
REMARK       I    between atoms: C_2  and  N_16 
REMARK    2  A    between atoms: C_3  and  C_2 
REMARK    3  A    between atoms: N_16  and  C_26 
REMARK    4  A    between atoms: S_20  and  C_17 
REMARK    5  A    between atoms: C_27  and  S_20 
REMARK    6  A    between atoms: C_26  and  C_27 
ROOT
ATOM      1  C   UNL d   1      -2.310   8.175  -0.748  0.00  0.00     0.251 C 
ATOM      2  O   UNL d   1      -2.238   7.830  -1.920  0.00  0.00    -0.268 OA
ATOM      3  N   UNL d   1      -2.410   7.292   0.304  0.00  0.00    -0.356 N 
ATOM      4  H   UNL d   1      -2.185   7.611   1.239  0.00  0.00     0.162 HD
ENDROOT
BRANCH   1   5
ATOM      5  C   UNL d   1      -2.278   9.620  -0.386  0.00  0.00     0.034 A 
ATOM      6  C   UNL d   1      -2.915  10.102   0.762  0.00  0.00     0.049 A 
ATOM      7  C   UNL d   1      -2.907  11.454   1.077  0.00  0.00     0.060 A 
ATOM      8  N   UNL d   1      -3.538  11.872   2.190  0.00  0.00    -0.363 N 
ATOM      9  C   UNL d   1      -2.240  12.366   0.218  0.00  0.00     0.059 A 
ATOM     10  C   UNL d   1      -3.501  13.199   2.442  0.00  0.00     0.105 A 
ATOM     11  HN  UNL d   1      -4.020  11.221   2.810  1.00  0.00     0.165 HD
ATOM     12  C   UNL d   1      -2.846  14.086   1.610  0.00  0.00     0.105 A 
ATOM     13  N   UNL d   1      -2.208  13.686   0.490  0.00  0.00    -0.363 N 
ATOM     14  HN  UNL d   1      -1.728  14.348  -0.119  1.00  0.00     0.165 HD
ATOM     15  C   UNL d   1      -1.622  11.882  -0.926  0.00  0.00     0.033 A 
ATOM     16  C   UNL d   1      -1.641  10.519  -1.242  0.00  0.00     0.019 A 
ENDBRANCH   1   5
BRANCH   3  17
ATOM     17  C   UNL d   1      -2.455   5.851   0.115  0.00  0.00     0.133 C 
BRANCH  17  18
ATOM     18  C   UNL d   1      -1.080   5.185   0.229  0.00  0.00     0.093 C 
BRANCH  18  19
ATOM     19  S   UNL d   1      -0.367   5.508   1.883  0.00  0.00    -0.163 SA
BRANCH  19  20
ATOM     20  C   UNL d   1       1.183   4.558   1.734  0.00  0.00     0.117 C 
BRANCH  20  21
ATOM     21  C   UNL d   1       2.048   4.773   2.949  0.00  0.00     0.011 A 
ATOM     22  C   UNL d   1       1.920   3.905   4.041  0.00  0.00     0.125 A 
ATOM     23  F   UNL d   1       1.070   2.869   3.974  0.00  0.00    -0.205 F 
ATOM     24  C   UNL d   1       2.651   4.082   5.215  0.00  0.00     0.043 A 
ATOM     25  C   UNL d   1       3.538   5.148   5.321  0.00  0.00     0.005 A 
ATOM     26  C   UNL d   1       3.685   6.028   4.250  0.00  0.00     0.024 A 
ATOM     27  C   UNL d   1       2.944   5.845   3.074  0.00  0.00     0.044 A 
ATOM     28 CL   UNL d   1       3.180   6.993   1.803  0.00  0.00    -0.084 Cl
ENDBRANCH  20  21
ENDBRANCH  19  20
ENDBRANCH  18  19
ENDBRANCH  17  18
ENDBRANCH   3  17
TORSDOF 6
