REMARK  7 active torsions:
REMARK  status: ('A' for Active; 'I' for Inactive)
REMARK    1  A    between atoms: C_10  and  C_1 
REMARK    2  A    between atoms: C_13  and  N_2 
REMARK    3  A    between atoms: C_9  and  C_3 
REMARK    4  A    between atoms: C_8  and  C_6 
REMARK    5  A    between atoms: C_11  and  C_8 
REMARK       I    between atoms: N_19  and  C_9 
REMARK       I    between atoms: N_20  and  C_10 
REMARK    6  A    between atoms: N_22  and  N_19 
REMARK    7  A    between atoms: N_23  and  N_20 
ROOT
ATOM      1  C   UNL d   1      -1.312   0.537   0.017  0.00  0.00     0.047 C 
ATOM      2  N   UNL d   1       0.306  -1.342  -0.014  0.00  0.00    -0.273 N 
ATOM      3  C   UNL d   1      -1.134  -0.958   0.134  0.00  0.00     0.240 C 
ATOM      4  N   UNL d   1       1.329  -0.431   0.096  0.00  0.00    -0.293 N 
ATOM      5  HN  UNL d   1       2.293  -0.749   0.199  1.00  0.00     0.187 HD
ATOM      6  C   UNL d   1       1.056   0.835   0.069  0.00  0.00     0.100 C 
ATOM      7  C   UNL d   1      -0.299   1.407  -0.043  0.00  0.00     0.050 C 
ENDROOT
BRANCH   1   8
ATOM      8  C   UNL d   1      -2.715   1.007  -0.168  0.00  0.00     0.264 C 
ATOM      9  O   UNL d   1      -3.563   0.278  -0.672  0.00  0.00    -0.267 OA
ATOM     10  N   UNL d   1      -2.986   2.291   0.282  0.00  0.00    -0.290 N 
ATOM     11  H   UNL d   1      -2.307   2.833   0.810  0.00  0.00     0.183 HD
BRANCH  10  12
ATOM     12  N   UNL d   1      -4.303   2.793   0.202  0.00  0.00    -0.247 NA
ATOM     13  H   UNL d   1      -4.926   1.984   0.059  0.00  0.00     0.143 HD
ATOM     14  H   UNL d   1      -4.391   3.324  -0.670  0.00  0.00     0.143 HD
ENDBRANCH  10  12
ENDBRANCH   1   8
BRANCH   3  15
ATOM     15  C   UNL d   1      -1.679  -1.424   1.510  0.00  0.00     0.261 C 
ATOM     16  O   UNL d   1      -2.861  -1.703   1.713  0.00  0.00    -0.269 OA
ATOM     17  N   UNL d   1      -0.724  -1.476   2.527  0.00  0.00    -0.292 N 
ATOM     18  H   UNL d   1       0.253  -1.517   2.216  0.00  0.00     0.183 HD
BRANCH  17  19
ATOM     19  N   UNL d   1      -1.061  -2.128   3.740  0.00  0.00    -0.247 NA
ATOM     20  H   UNL d   1      -1.899  -2.698   3.553  0.00  0.00     0.143 HD
ATOM     21  H   UNL d   1      -1.395  -1.421   4.399  0.00  0.00     0.143 HD
ENDBRANCH  17  19
ENDBRANCH   3  15
BRANCH   2  22
ATOM     22  C   UNL d   1       0.685  -2.705  -0.105  0.00  0.00     0.052 A 
ATOM     23  C   UNL d   1      -0.237  -3.764  -0.143  0.00  0.00     0.031 A 
ATOM     24  C   UNL d   1       0.180  -5.103  -0.158  0.00  0.00     0.002 A 
ATOM     25  C   UNL d   1       1.533  -5.419  -0.161  0.00  0.00     0.000 A 
ATOM     26  C   UNL d   1       2.472  -4.396  -0.160  0.00  0.00     0.002 A 
ATOM     27  C   UNL d   1       2.050  -3.062  -0.136  0.00  0.00     0.031 A 
ENDBRANCH   2  22
BRANCH   6  28
ATOM     28  C   UNL d   1       2.209   1.835   0.084  0.00  0.00     0.216 C 
ATOM     29  O   UNL d   1       2.058   2.863  -0.574  0.00  0.00    -0.284 OA
BRANCH  28  30
ATOM     30  C   UNL d   1       3.375   1.496   0.878  0.00  0.00     0.057 A 
ATOM     31  S   UNL d   1       4.876   2.231   0.482  0.00  0.00    -0.098 SA
ATOM     32  C   UNL d   1       5.701   1.372   1.706  0.00  0.00     0.050 A 
ATOM     33  C   UNL d   1       4.853   0.568   2.432  0.00  0.00     0.009 A 
ATOM     34  C   UNL d   1       3.510   0.640   1.957  0.00  0.00     0.023 A 
ENDBRANCH  28  30
ENDBRANCH   6  28
TORSDOF 7
