REMARK  1 active torsions:
REMARK  status: ('A' for Active; 'I' for Inactive)
REMARK       I    between atoms: C_2  and  N_1 
REMARK       I    between atoms: N_8  and  C_2 
REMARK    1  A    between atoms: C_10  and  N_8 
ROOT
ATOM      1  N   UNL d   1       0.662   1.467   0.620  0.00  0.00    -0.293 N 
ATOM      2  C   UNL d   1       0.931   2.218   1.784  0.00  0.00     0.328 C 
ATOM      3  C   UNL d   1       1.666   1.449  -0.448  0.00  0.00     0.099 C 
ATOM      4  N   UNL d   1       0.962  -1.479   0.023  0.00  0.00    -0.325 N 
ATOM      5  C   UNL d   1      -0.427   0.576   0.456  0.00  0.00     0.066 A 
ATOM      6  C   UNL d   1       2.202  -1.067  -0.331  0.00  0.00     0.224 C 
ATOM      7  C   UNL d   1       2.686   0.351  -0.225  0.00  0.00     0.128 C 
ATOM      8  N   UNL d   1      -0.016   2.138   2.783  0.00  0.00    -0.309 N 
ATOM      9  C   UNL d   1      -0.255  -0.795   0.200  0.00  0.00     0.062 A 
ATOM     10  O   UNL d   1       1.973   2.878   1.876  0.00  0.00    -0.246 OA
ATOM     11  O   UNL d   1       2.984  -1.944  -0.720  0.00  0.00    -0.273 OA
ATOM     12  C   UNL d   1       1.066   1.465  -1.862  0.00  0.00     0.033 C 
ATOM     13  C   UNL d   1      -1.718   1.132   0.408  0.00  0.00     0.032 A 
ATOM     14  C   UNL d   1      -1.397  -1.595   0.018  0.00  0.00     0.032 A 
ATOM     15  C   UNL d   1      -2.830   0.335   0.140  0.00  0.00     0.002 A 
ATOM     16  C   UNL d   1      -2.670  -1.032  -0.038  0.00  0.00     0.002 A 
ATOM     17  H   UNL d   1       0.895  -2.485  -0.099  0.00  0.00     0.169 HD
ATOM     18  H   UNL d   1      -0.870   1.657   2.561  0.00  0.00     0.170 HD
ENDROOT
BRANCH   8  19
ATOM     19  C   UNL d   1       0.055   2.643   4.105  0.00  0.00     0.037 A 
ATOM     20  C   UNL d   1       1.215   3.169   4.677  0.00  0.00     0.036 A 
ATOM     21  C   UNL d   1       1.252   3.519   6.036  0.00  0.00    -0.059 A 
ATOM     22  C   UNL d   1       2.536   3.957   6.678  0.00  0.00     0.048 C 
ATOM     23  C   UNL d   1       0.093   3.398   6.811  0.00  0.00     0.013 A 
ATOM     24  C   UNL d   1      -1.093   2.920   6.245  0.00  0.00    -0.059 A 
ATOM     25  C   UNL d   1      -1.096   2.534   4.895  0.00  0.00     0.036 A 
ATOM     26  C   UNL d   1      -2.318   2.777   7.101  0.00  0.00     0.048 C 
ENDBRANCH   8  19
TORSDOF 1
