REMARK  9 active torsions:
REMARK  status: ('A' for Active; 'I' for Inactive)
REMARK    1  A    between atoms: C_2  and  S_1 
REMARK    2  A    between atoms: N_3  and  S_1 
REMARK    3  A    between atoms: C_26  and  N_3 
REMARK    4  A    between atoms: C_27  and  N_3 
REMARK    5  A    between atoms: C_4  and  C_12 
REMARK       I    between atoms: N_15  and  C_4 
REMARK    6  A    between atoms: N_8  and  N_15 
REMARK    7  A    between atoms: C_24  and  C_23 
REMARK    8  A    between atoms: C_28  and  C_26 
REMARK    9  A    between atoms: C_29  and  C_27 
ROOT
ATOM      1  C   UNL d   1       0.506  -0.366  -1.726  0.00  0.00     0.074 A 
ATOM      2  C   UNL d   1      -0.586  -0.900  -4.268  0.00  0.00     0.033 A 
ATOM      3  C   UNL d   1       0.696  -1.617  -2.315  0.00  0.00     0.026 A 
ATOM      4  C   UNL d   1      -0.250   0.607  -2.388  0.00  0.00     0.026 A 
ATOM      5  C   UNL d   1       0.147  -1.879  -3.572  0.00  0.00     0.018 A 
ATOM      6  C   UNL d   1      -0.780   0.349  -3.664  0.00  0.00     0.018 A 
ENDROOT
BRANCH   2   7
ATOM      7  C   UNL d   1      -1.137  -1.296  -5.602  0.00  0.00     0.270 C 
ATOM      8  N   UNL d   1      -1.795  -0.334  -6.359  0.00  0.00    -0.266 N 
ATOM      9  H   UNL d   1      -1.959   0.610  -6.038  0.00  0.00     0.190 HD
ATOM     10  O   UNL d   1      -0.982  -2.459  -5.973  0.00  0.00    -0.266 OA
BRANCH   8  11
ATOM     11  N   UNL d   1      -2.400  -0.754  -7.504  0.00  0.00    -0.308 N 
ATOM     12  C   UNL d   1      -2.977   0.129  -8.248  0.00  0.00     0.118 C 
ATOM     13  HN  UNL d   1      -2.398  -1.740  -7.767  1.00  0.00     0.186 HD
BRANCH  12  14
ATOM     14  C   UNL d   1      -3.783  -0.304  -9.409  0.00  0.00    -0.017 A 
ATOM     15  C   UNL d   1      -4.510   0.655 -10.119  0.00  0.00     0.052 A 
ATOM     16  C   UNL d   1      -5.466   0.184 -10.992  0.00  0.00     0.105 A 
ATOM     17  O   UNL d   1      -6.378   0.949 -11.654  0.00  0.00    -0.323 OA
ATOM     18  C   UNL d   1      -5.663  -1.163 -11.213  0.00  0.00     0.105 A 
ATOM     19  C   UNL d   1      -7.304  -0.076 -12.072  0.00  0.00     0.352 C 
ATOM     20  O   UNL d   1      -6.731  -1.398 -12.024  0.00  0.00    -0.323 OA
ATOM     21  C   UNL d   1      -4.888  -2.123 -10.603  0.00  0.00     0.040 A 
ATOM     22  C   UNL d   1      -3.942  -1.684  -9.676  0.00  0.00     0.016 A 
ENDBRANCH  12  14
ENDBRANCH   8  11
ENDBRANCH   2   7
BRANCH   1  23
ATOM     23  S   UNL d   1       1.089  -0.094  -0.057  0.00  0.00     0.243 S 
ATOM     24  O   UNL d   1       1.652  -1.342   0.400  0.00  0.00    -0.206 OA
ATOM     25  O   UNL d   1      -0.004   0.533   0.665  0.00  0.00    -0.206 OA
BRANCH  23  26
ATOM     26  N   UNL d   1       2.361   1.081  -0.257  0.00  0.00    -0.206 NA
BRANCH  26  27
ATOM     27  C   UNL d   1       1.838   2.482  -0.057  0.00  0.00     0.107 C 
BRANCH  27  28
ATOM     28  C   UNL d   1       2.813   3.611  -0.384  0.00  0.00     0.011 C 
ATOM     29  C   UNL d   1       3.338   3.581  -1.807  0.00  0.00     0.006 C 
ENDBRANCH  27  28
ENDBRANCH  26  27
BRANCH  26  30
ATOM     30  C   UNL d   1       3.601   0.800   0.541  0.00  0.00     0.107 C 
BRANCH  30  31
ATOM     31  C   UNL d   1       4.453  -0.354   0.005  0.00  0.00     0.011 C 
ATOM     32  C   UNL d   1       4.818  -0.233  -1.466  0.00  0.00     0.006 C 
ENDBRANCH  30  31
ENDBRANCH  26  30
ENDBRANCH  23  26
ENDBRANCH   1  23
TORSDOF 9
