REMARK  2 active torsions:
REMARK  status: ('A' for Active; 'I' for Inactive)
REMARK    1  A    between atoms: N_7  and  C_2 
REMARK    2  A    between atoms: C_10  and  C_5 
ROOT
ATOM      1  C   UNL d   1      -0.341  -1.257  -0.004  0.00  0.00     0.108 A 
ATOM      2  C   UNL d   1       1.018  -0.778   0.069  0.00  0.00     0.132 A 
ATOM      3  N   UNL d   1       1.146   0.544   0.030  0.00  0.00    -0.311 N 
ATOM      4  HN  UNL d   1       2.032   1.049   0.004  1.00  0.00     0.176 HD
ATOM      5  C   UNL d   1      -1.258  -0.215   0.012  0.00  0.00     0.056 A 
ATOM      6  S   UNL d   1      -0.346   1.244   0.030  0.00  0.00    -0.011 SA
ATOM      7  C   UNL d   1      -0.696  -2.640  -0.102  0.00  0.00     0.104 C 
ATOM      8  N   UNL d   1      -1.005  -3.757  -0.149  0.00  0.00    -0.191 NA
ENDROOT
BRANCH   2   9
ATOM      9  N   UNL d   1       2.074  -1.641   0.128  0.00  0.00    -0.366 N 
ATOM     10  C   UNL d   1       3.382  -1.237  -0.379  0.00  0.00     0.124 C 
ATOM     11  C   UNL d   1       4.201  -2.499  -0.137  0.00  0.00     0.021 C 
ATOM     12  C   UNL d   1       3.712  -2.974   1.226  0.00  0.00     0.021 C 
ATOM     13  C   UNL d   1       2.288  -2.424   1.352  0.00  0.00     0.124 C 
ENDBRANCH   2   9
BRANCH   5  14
ATOM     14  C   UNL d   1      -2.733  -0.192   0.048  0.00  0.00    -0.016 A 
ATOM     15  C   UNL d   1      -3.448  -1.198   0.721  0.00  0.00     0.013 A 
ATOM     16  C   UNL d   1      -4.845  -1.173   0.793  0.00  0.00     0.001 A 
ATOM     17  C   UNL d   1      -5.555  -0.132   0.205  0.00  0.00     0.000 A 
ATOM     18  C   UNL d   1      -4.871   0.872  -0.471  0.00  0.00     0.001 A 
ATOM     19  C   UNL d   1      -3.474   0.838  -0.558  0.00  0.00     0.013 A 
ENDBRANCH   5  14
TORSDOF 2
