REMARK  5 active torsions:
REMARK  status: ('A' for Active; 'I' for Inactive)
REMARK    1  A    between atoms: C_6  and  C_1 
REMARK    2  A    between atoms: O_13  and  C_2 
REMARK    3  A    between atoms: C_7  and  C_6 
REMARK    4  A    between atoms: C_9  and  C_7 
REMARK    5  A    between atoms: O_14  and  C_11 
ROOT
ATOM      1  C   UNL d   1       1.712  -0.881  -0.229  0.00  0.00     0.059 C 
ATOM      2  C   UNL d   1       1.188  -0.387  -1.363  0.00  0.00     0.091 C 
ATOM      3  C   UNL d   1       0.948  -0.810   1.042  0.00  0.00     0.297 C 
ATOM      4  O   UNL d   1      -0.386  -0.437   0.968  0.00  0.00    -0.274 OA
ATOM      5  C   UNL d   1      -0.191   0.098  -1.397  0.00  0.00     0.032 A 
ATOM      6  C   UNL d   1      -0.956  -0.001  -0.240  0.00  0.00     0.092 A 
ATOM      7  O   UNL d   1       1.463  -1.127   2.110  0.00  0.00    -0.259 OA
ATOM      8  C   UNL d   1      -0.805   0.588  -2.556  0.00  0.00     0.017 A 
ATOM      9  C   UNL d   1      -2.311   0.330  -0.219  0.00  0.00     0.038 A 
ATOM     10  C   UNL d   1      -2.160   0.937  -2.549  0.00  0.00     0.001 A 
ATOM     11  C   UNL d   1      -2.916   0.795  -1.384  0.00  0.00     0.003 A 
ENDROOT
BRANCH   1  12
ATOM     12  C   UNL d   1       2.995  -1.661  -0.157  0.00  0.00     0.132 C 
BRANCH  12  13
ATOM     13  C   UNL d   1       4.234  -0.818   0.108  0.00  0.00     0.166 C 
ATOM     14  O   UNL d   1       4.200   0.409   0.201  0.00  0.00    -0.292 OA
BRANCH  13  15
ATOM     15  C   UNL d   1       5.559  -1.512   0.174  0.00  0.00     0.043 A 
ATOM     16  C   UNL d   1       6.735  -0.780   0.389  0.00  0.00     0.079 A 
ATOM     17  C   UNL d   1       7.980  -1.410   0.397  0.00  0.00     0.037 A 
ATOM     18  C   UNL d   1       8.067  -2.786   0.191  0.00  0.00     0.003 A 
ATOM     19  C   UNL d   1       6.908  -3.532  -0.013  0.00  0.00     0.001 A 
ATOM     20  C   UNL d   1       5.662  -2.902  -0.018  0.00  0.00     0.018 A 
BRANCH  16  21
ATOM     21  O   UNL d   1       6.750   0.575   0.592  0.00  0.00    -0.360 OA
ATOM     22  H   UNL d   1       5.823   0.901   0.566  0.00  0.00     0.217 HD
ENDBRANCH  16  21
ENDBRANCH  13  15
ENDBRANCH  12  13
ENDBRANCH   1  12
BRANCH   2  23
ATOM     23  O   UNL d   1       1.845  -0.389  -2.576  0.00  0.00    -0.359 OA
ATOM     24  H   UNL d   1       2.803  -0.347  -2.416  0.00  0.00     0.217 HD
ENDBRANCH   2  23
TORSDOF 5
