REMARK  5 active torsions:
REMARK  status: ('A' for Active; 'I' for Inactive)
REMARK    1  A    between atoms: C_2  and  S_1 
REMARK    2  A    between atoms: C_4  and  S_1 
REMARK    3  A    between atoms: C_3  and  C_2 
REMARK    4  A    between atoms: C_5  and  C_3 
REMARK    5  A    between atoms: O_12  and  C_5 
ROOT
ATOM      1  S   UNL d   1       1.102  -0.052   0.075  0.00  0.00     0.179 S 
ATOM      2  O   UNL d   1       0.400   0.897  -0.772  0.00  0.00    -0.222 OA
ATOM      3  O   UNL d   1       2.548  -0.150   0.014  0.00  0.00    -0.222 OA
ENDROOT
BRANCH   1   4
ATOM      4  C   UNL d   1       0.415  -1.685  -0.234  0.00  0.00     0.119 C 
ATOM      5  C   UNL d   1       1.011  -2.732   0.708  0.00  0.00     0.027 C 
BRANCH   4   6
ATOM      6  C   UNL d   1       0.681  -2.046  -1.703  0.00  0.00     0.130 C 
BRANCH   6   7
ATOM      7  C   UNL d   1       0.030  -3.350  -2.077  0.00  0.00     0.140 C 
ATOM      8  O   UNL d   1      -1.047  -3.725  -1.641  0.00  0.00    -0.650 OA
BRANCH   7   9
ATOM      9  O   UNL d   1       0.746  -4.077  -2.961  0.00  0.00    -0.776 OA
ATOM     10  H   UNL d   1       1.583  -3.668  -3.253  0.00  0.00     0.167 HD
ENDBRANCH   7   9
ENDBRANCH   6   7
ENDBRANCH   4   6
ENDBRANCH   1   4
BRANCH   1  11
ATOM     11  C   UNL d   1       0.662   0.331   1.757  0.00  0.00     0.059 A 
ATOM     12  C   UNL d   1       1.527  -0.026   2.797  0.00  0.00     0.025 A 
ATOM     13  C   UNL d   1       1.161   0.238   4.119  0.00  0.00     0.025 A 
ATOM     14  C   UNL d   1      -0.044   0.887   4.389  0.00  0.00     0.034 A 
ATOM     15  C   UNL d   1      -0.880   1.292   3.347  0.00  0.00     0.025 A 
ATOM     16 CL   UNL d   1      -0.504   1.186   6.019  0.00  0.00    -0.084 Cl
ATOM     17  C   UNL d   1      -0.527   1.018   2.023  0.00  0.00     0.025 A 
ENDBRANCH   1  11
TORSDOF 5
