REMARK  8 active torsions:
REMARK  status: ('A' for Active; 'I' for Inactive)
REMARK    1  A    between atoms: C_4  and  N_1 
REMARK    2  A    between atoms: N_5  and  C_2 
REMARK    3  A    between atoms: S_22  and  C_3 
REMARK    4  A    between atoms: C_19  and  C_6 
REMARK    5  A    between atoms: O_24  and  C_13 
REMARK    6  A    between atoms: C_15  and  S_17 
REMARK    7  A    between atoms: O_26  and  C_16 
REMARK    8  A    between atoms: S_17  and  C_19 
ROOT
ATOM      1  N   UNL d   1      -0.362   0.700  -0.311  0.00  0.00    -0.278 N 
ATOM      2  C   UNL d   1       0.882   0.075  -0.363  0.00  0.00     0.164 C 
ATOM      3  C   UNL d   1      -1.238  -0.368  -0.022  0.00  0.00     0.114 C 
ATOM      4  N   UNL d   1       0.790  -1.169   0.035  0.00  0.00    -0.278 N 
ATOM      5  HN  UNL d   1       1.567  -1.818   0.162  1.00  0.00     0.189 HD
ATOM      6  N   UNL d   1      -0.525  -1.443   0.248  0.00  0.00    -0.286 N 
ATOM      7  HN  UNL d   1      -0.899  -2.337   0.566  1.00  0.00     0.188 HD
ENDROOT
BRANCH   3   8
ATOM      8  C   UNL d   1      -2.742  -0.300   0.059  0.00  0.00     0.158 C 
BRANCH   8   9
ATOM      9  S   UNL d   1      -3.521  -1.913   0.473  0.00  0.00    -0.119 SA
BRANCH   9  10
ATOM     10  C   UNL d   1      -5.306  -1.639   0.492  0.00  0.00     0.037 A 
ATOM     11  C   UNL d   1      -6.056  -2.798   0.809  0.00  0.00     0.060 A 
ATOM     12  C   UNL d   1      -7.453  -2.798   0.947  0.00  0.00     0.102 A 
ATOM     13  C   UNL d   1      -8.103  -1.577   0.781  0.00  0.00     0.138 A 
ATOM     14  C   UNL d   1      -7.396  -0.414   0.421  0.00  0.00     0.077 A 
ATOM     15  C   UNL d   1      -6.004  -0.434   0.269  0.00  0.00     0.087 A 
BRANCH  12  16
ATOM     16  O   UNL d   1      -7.963  -4.015   1.291  0.00  0.00    -0.353 OA
ATOM     17  C   UNL d   1      -9.267  -4.377   0.846  0.00  0.00     0.210 C 
ENDBRANCH  12  16
BRANCH  13  18
ATOM     18  N   UNL d   1      -9.512  -1.402   1.053  0.00  0.00    -0.113 N 
ATOM     19  O   UNL d   1     -10.207  -0.954   0.135  0.00  0.00    -0.532 OA
ATOM     20  O   UNL d   1      -9.913  -1.671   2.196  0.00  0.00    -0.532 OA
ENDBRANCH  13  18
BRANCH  15  21
ATOM     21  O   UNL d   1      -5.278   0.673  -0.079  0.00  0.00    -0.355 OA
ATOM     22  C   UNL d   1      -5.956   1.915  -0.221  0.00  0.00     0.210 C 
ENDBRANCH  15  21
ENDBRANCH   9  10
ENDBRANCH   8   9
ENDBRANCH   3   8
BRANCH   1  23
ATOM     23  C   UNL d   1      -0.686   2.076  -0.579  0.00  0.00     0.050 A 
ATOM     24  C   UNL d   1       0.075   3.180  -0.103  0.00  0.00    -0.013 A 
ATOM     25  C   UNL d   1      -0.282   4.481  -0.541  0.00  0.00     0.042 A 
ATOM     26  C   UNL d   1       1.197   3.077   0.905  0.00  0.00     0.052 C 
ATOM     27 CL   UNL d   1       0.644   5.882  -0.110  0.00  0.00    -0.084 Cl
ATOM     28  C   UNL d   1      -1.398   4.706  -1.347  0.00  0.00     0.024 A 
ATOM     29  C   UNL d   1      -2.173   3.630  -1.758  0.00  0.00     0.004 A 
ATOM     30  C   UNL d   1      -1.804   2.334  -1.399  0.00  0.00     0.031 A 
ENDBRANCH   1  23
BRANCH   2  31
ATOM     31  S   UNL d   1       2.345   0.686  -1.076  0.00  0.00    -0.105 SA
ATOM     32  H   UNL d   1       1.974   1.933  -1.377  0.00  0.00     0.110 HD
ENDBRANCH   2  31
TORSDOF 8
