REMARK  2 active torsions:
REMARK  status: ('A' for Active; 'I' for Inactive)
REMARK    1  A    between atoms: C_6  and  N_1 
REMARK    2  A    between atoms: C_12  and  C_6 
ROOT
ATOM      1  N   UNL d   1       6.589  -5.421  -0.132  0.00  0.00    -0.191 NA
ATOM      2  C   UNL d   1       5.516  -4.986  -0.080  0.00  0.00     0.099 C 
ATOM      3  C   UNL d   1       4.196  -4.425  -0.023  0.00  0.00     0.044 A 
ATOM      4  C   UNL d   1       1.653  -3.208   0.033  0.00  0.00    -0.040 A 
ATOM      5  C   UNL d   1       3.303  -4.610  -1.082  0.00  0.00     0.023 A 
ATOM      6  C   UNL d   1       3.805  -3.662   1.080  0.00  0.00     0.023 A 
ATOM      7  C   UNL d   1       2.038  -4.013  -1.050  0.00  0.00     0.010 A 
ATOM      8  C   UNL d   1       2.543  -3.059   1.107  0.00  0.00     0.010 A 
ENDROOT
BRANCH   4   9
ATOM      9  C   UNL d   1       0.340  -2.453  -0.000  0.00  0.00     0.172 C 
BRANCH   9  10
ATOM     10  N   UNL d   1      -0.794  -3.173   0.576  0.00  0.00    -0.298 N 
ATOM     11  C   UNL d   1      -1.235  -3.030   1.872  0.00  0.00     0.144 A 
ATOM     12  S   UNL d   1      -2.685  -3.982   2.135  0.00  0.00    -0.091 SA
ATOM     13  S   UNL d   1      -0.585  -2.102   3.097  0.00  0.00    -0.052 SA
ATOM     14  C   UNL d   1      -2.800  -4.489   0.416  0.00  0.00     0.185 A 
ATOM     15  C   UNL d   1      -1.559  -3.969  -0.258  0.00  0.00     0.235 A 
ATOM     16  O   UNL d   1      -1.308  -4.204  -1.436  0.00  0.00    -0.272 OA
ENDBRANCH   9  10
ENDBRANCH   4   9
TORSDOF 2
