REMARK  4 active torsions:
REMARK  status: ('A' for Active; 'I' for Inactive)
REMARK       I    between atoms: N_3  and  C_1 
REMARK    1  A    between atoms: C_4  and  C_1 
REMARK    2  A    between atoms: S_8  and  C_2 
REMARK    3  A    between atoms: C_5  and  N_3 
REMARK    4  A    between atoms: C_12  and  S_8 
ROOT
ATOM      1  C   UNL d   1       0.520  -3.045   1.745  0.00  0.00     0.101 A 
ATOM      2  C   UNL d   1       1.159  -1.810   1.551  0.00  0.00     0.069 A 
ATOM      3  N   UNL d   1       0.964  -3.987   2.619  0.00  0.00    -0.358 N 
ATOM      4  HN  UNL d   1       0.472  -4.871   2.745  1.00  0.00     0.166 HD
ATOM      5  C   UNL d   1       2.311  -1.557   2.293  0.00  0.00     0.034 A 
ATOM      6  C   UNL d   1       2.085  -3.700   3.314  0.00  0.00     0.089 A 
ATOM      7  C   UNL d   1       2.783  -2.512   3.192  0.00  0.00     0.019 A 
ENDROOT
BRANCH   1   8
ATOM      8  S   UNL d   1      -0.961  -3.467   0.833  0.00  0.00    -0.070 SA
BRANCH   8   9
ATOM      9  C   UNL d   1      -0.306  -4.418  -0.532  0.00  0.00     0.007 A 
ATOM     10  C   UNL d   1       0.519  -5.528  -0.336  0.00  0.00     0.019 A 
ATOM     11  C   UNL d   1       0.901  -6.332  -1.416  0.00  0.00     0.008 A 
ATOM     12  C   UNL d   1       0.452  -6.045  -2.710  0.00  0.00    -0.062 A 
ATOM     13  C   UNL d   1      -0.343  -4.913  -2.914  0.00  0.00     0.008 A 
ATOM     14  C   UNL d   1       0.794  -6.966  -3.845  0.00  0.00     0.048 C 
ATOM     15  C   UNL d   1      -0.721  -4.108  -1.833  0.00  0.00     0.019 A 
ENDBRANCH   8   9
ENDBRANCH   1   8
BRANCH   2  16
ATOM     16  N   UNL d   1       0.601  -0.854   0.667  0.00  0.00    -0.324 N 
ATOM     17  C   UNL d   1       1.267   0.191   0.072  0.00  0.00     0.226 C 
ATOM     18  O   UNL d   1       2.478   0.395   0.110  0.00  0.00    -0.273 OA
ATOM     19  H   UNL d   1      -0.343  -1.042   0.349  0.00  0.00     0.169 HD
BRANCH  17  20
ATOM     20  C   UNL d   1       0.379   1.090  -0.700  0.00  0.00     0.078 A 
ATOM     21  C   UNL d   1       0.169   0.881  -2.181  0.00  0.00     0.015 A 
ATOM     22  C   UNL d   1       0.959   2.063  -1.701  0.00  0.00     0.015 A 
ENDBRANCH  17  20
ENDBRANCH   2  16
TORSDOF 4
