REMARK  2 active torsions:
REMARK  status: ('A' for Active; 'I' for Inactive)
REMARK    1  A    between atoms: N_2  and  C_1 
REMARK    2  A    between atoms: N_7  and  C_3 
REMARK       I    between atoms: C_9  and  N_7 
ROOT
ATOM      1  C   UNL d   1      -2.447  -0.631  -0.089  0.00  0.00     0.132 A 
ATOM      2  C   UNL d   1      -2.450   0.766   0.076  0.00  0.00     0.070 A 
ATOM      3  C   UNL d   1      -1.259  -1.370  -0.113  0.00  0.00     0.078 A 
ATOM      4  C   UNL d   1      -1.214   1.421   0.171  0.00  0.00     0.071 A 
ATOM      5  C   UNL d   1      -0.046  -0.699  -0.023  0.00  0.00     0.104 A 
ATOM      6  C   UNL d   1      -0.021   0.695   0.090  0.00  0.00     0.104 A 
ATOM      7  O   UNL d   1       1.083  -1.473  -0.049  0.00  0.00    -0.346 OA
ATOM      8  O   UNL d   1       1.145   1.418   0.123  0.00  0.00    -0.346 OA
ATOM      9  C   UNL d   1       2.263   0.632  -0.310  0.00  0.00     0.202 C 
ATOM     10  C   UNL d   1       2.241  -0.733   0.359  0.00  0.00     0.202 C 
ENDROOT
BRANCH   2  11
ATOM     11  N   UNL d   1      -3.663   1.502   0.110  0.00  0.00    -0.325 N 
ATOM     12  C   UNL d   1      -3.886   2.589   0.935  0.00  0.00     0.218 C 
ATOM     13  O   UNL d   1      -3.101   3.012   1.775  0.00  0.00    -0.274 OA
ATOM     14  C   UNL d   1      -5.259   3.185   0.774  0.00  0.00     0.117 C 
ATOM     15  H   UNL d   1      -4.489   1.046  -0.276  0.00  0.00     0.169 HD
ENDBRANCH   2  11
BRANCH   1  16
ATOM     16  N   UNL d   1      -3.702  -1.358  -0.130  0.00  0.00    -0.113 N 
ATOM     17  O   UNL d   1      -4.602  -0.901  -0.849  0.00  0.00    -0.532 OA
ATOM     18  O   UNL d   1      -3.800  -2.375   0.576  0.00  0.00    -0.532 OA
ENDBRANCH   1  16
TORSDOF 2
