REMARK  7 active torsions:
REMARK  status: ('A' for Active; 'I' for Inactive)
REMARK    1  A    between atoms: N_2  and  C_1 
REMARK    2  A    between atoms: N_3  and  C_1 
REMARK    3  A    between atoms: C_4  and  N_3 
REMARK    4  A    between atoms: C_10  and  N_5 
REMARK    5  A    between atoms: O_19  and  C_8 
REMARK    6  A    between atoms: O_20  and  C_11 
REMARK    7  A    between atoms: O_21  and  C_17 
ROOT
ATOM      1  C   UNL d   1       0.990  -0.116  -0.063  0.00  0.00     0.174 C 
ATOM      2  S   UNL d   1       1.291  -1.762  -0.251  0.00  0.00    -0.041 SA
ENDROOT
BRANCH   1   3
ATOM      3  N   UNL d   1       0.609   0.394   1.169  0.00  0.00    -0.355 N 
ATOM      4  C   UNL d   1       1.130   1.674   1.683  0.00  0.00     0.145 C 
ATOM      5  C   UNL d   1       1.115   1.737   3.242  0.00  0.00     0.143 C 
ATOM      6  N   UNL d   1      -0.231   1.376   3.724  0.00  0.00    -0.376 N 
ATOM      7  C   UNL d   1      -0.626   0.016   3.303  0.00  0.00     0.143 C 
ATOM      8  C   UNL d   1      -0.653  -0.049   1.773  0.00  0.00     0.145 C 
BRANCH   6   9
ATOM      9  C   UNL d   1      -0.841   1.960   4.828  0.00  0.00     0.064 A 
ATOM     10  C   UNL d   1      -0.986   3.351   5.037  0.00  0.00     0.094 A 
ATOM     11  C   UNL d   1      -1.796   3.845   6.079  0.00  0.00     0.039 A 
ATOM     12  C   UNL d   1      -2.454   2.987   6.956  0.00  0.00     0.003 A 
ATOM     13  C   UNL d   1      -2.253   1.625   6.836  0.00  0.00     0.002 A 
ATOM     14  C   UNL d   1      -1.457   1.131   5.798  0.00  0.00     0.032 A 
BRANCH  10  15
ATOM     15  O   UNL d   1      -0.320   4.346   4.367  0.00  0.00    -0.354 OA
ATOM     16  C   UNL d   1      -0.552   4.425   2.969  0.00  0.00     0.210 C 
ENDBRANCH  10  15
ENDBRANCH   6   9
ENDBRANCH   1   3
BRANCH   1  17
ATOM     17  N   UNL d   1       1.021   0.837  -1.079  0.00  0.00    -0.331 N 
ATOM     18  H   UNL d   1       0.144   1.321  -1.196  0.00  0.00     0.168 HD
BRANCH  17  19
ATOM     19  C   UNL d   1       1.779   0.709  -2.272  0.00  0.00     0.070 A 
ATOM     20  C   UNL d   1       3.122   0.325  -2.175  0.00  0.00     0.071 A 
ATOM     21  C   UNL d   1       3.932   0.148  -3.303  0.00  0.00     0.092 A 
ATOM     22  C   UNL d   1       3.360   0.368  -4.561  0.00  0.00     0.070 A 
ATOM     23  C   UNL d   1       2.024   0.808  -4.659  0.00  0.00     0.065 A 
ATOM     24 CL   UNL d   1       4.163   0.136  -6.074  0.00  0.00    -0.081 Cl
ATOM     25  C   UNL d   1       1.230   1.003  -3.525  0.00  0.00     0.096 A 
BRANCH  21  26
ATOM     26  O   UNL d   1       5.192  -0.226  -2.939  0.00  0.00    -0.354 OA
ATOM     27  C   UNL d   1       6.189  -0.470  -3.909  0.00  0.00     0.210 C 
ENDBRANCH  21  26
BRANCH  25  28
ATOM     28  O   UNL d   1      -0.079   1.422  -3.554  0.00  0.00    -0.354 OA
ATOM     29  C   UNL d   1      -0.627   1.713  -4.841  0.00  0.00     0.210 C 
ENDBRANCH  25  28
ENDBRANCH  17  19
ENDBRANCH   1  17
TORSDOF 7
