REMARK  4 active torsions:
REMARK  status: ('A' for Active; 'I' for Inactive)
REMARK    1  A    between atoms: C_8  and  C_2 
REMARK    2  A    between atoms: C_7  and  C_12 
REMARK    3  A    between atoms: N_13  and  C_7 
REMARK    4  A    between atoms: C_12  and  C_14 
ROOT
ATOM      1  C   UNL d   1       2.388  -1.635   0.097  0.00  0.00    -0.008 A 
ATOM      2  C   UNL d   1       2.516  -2.441  -1.043  0.00  0.00     0.014 A 
ATOM      3  C   UNL d   1       3.396  -1.686   1.070  0.00  0.00     0.014 A 
ATOM      4  C   UNL d   1       4.641  -3.307  -0.247  0.00  0.00    -0.052 A 
ATOM      5  C   UNL d   1       4.510  -2.517   0.901  0.00  0.00     0.008 A 
ATOM      6  C   UNL d   1       3.631  -3.267  -1.216  0.00  0.00     0.008 A 
ENDROOT
BRANCH   1   7
ATOM      7  C   UNL d   1       1.212  -0.787   0.251  0.00  0.00     0.063 A 
ATOM      8  N   UNL d   1       0.006  -1.112  -0.367  0.00  0.00    -0.292 N 
ATOM      9  N   UNL d   1      -0.940  -0.227  -0.107  0.00  0.00    -0.061 NA
ATOM     10  HN  UNL d   1      -0.130  -1.936  -0.951  1.00  0.00     0.183 HD
ATOM     11  S   UNL d   1      -0.410   1.024   0.867  0.00  0.00    -0.010 SA
ATOM     12  C   UNL d   1       1.181   0.389   0.981  0.00  0.00     0.096 A 
ENDBRANCH   1   7
BRANCH   4  13
ATOM     13  C   UNL d   1       5.839  -4.212  -0.424  0.00  0.00     0.107 C 
BRANCH  13  14
ATOM     14  C   UNL d   1       5.714  -5.607   0.169  0.00  0.00     0.075 C 
ATOM     15  S   UNL d   1       7.016  -6.656   0.196  0.00  0.00    -0.066 SA
BRANCH  14  16
ATOM     16  N   UNL d   1       4.519  -6.027   0.666  0.00  0.00    -0.393 N 
ATOM     17  H   UNL d   1       3.692  -5.441   0.688  0.00  0.00     0.156 HD
ATOM     18  H   UNL d   1       4.442  -6.960   1.054  0.00  0.00     0.156 HD
ENDBRANCH  14  16
ENDBRANCH  13  14
ENDBRANCH   4  13
TORSDOF 4
