REMARK  6 active torsions:
REMARK  status: ('A' for Active; 'I' for Inactive)
REMARK       I    between atoms: N_3  and  C_1 
REMARK    1  A    between atoms: C_5  and  C_1 
REMARK       I    between atoms: C_2  and  N_4 
REMARK    2  A    between atoms: C_15  and  C_2 
REMARK    3  A    between atoms: N_4  and  N_3 
REMARK    4  A    between atoms: C_9  and  C_19 
REMARK    5  A    between atoms: S_12  and  C_15 
REMARK    6  A    between atoms: C_19  and  S_12 
ROOT
ATOM      1  C   UNL d   1       0.138  -2.508  -2.696  0.00  0.00     0.245 C 
ATOM      2  N   UNL d   1       0.176  -1.165  -3.006  0.00  0.00    -0.267 N 
ATOM      3  O   UNL d   1      -0.467  -2.928  -1.709  0.00  0.00    -0.271 OA
ATOM      4  H   UNL d   1       0.704  -0.753  -3.777  0.00  0.00     0.190 HD
ENDROOT
BRANCH   1   5
ATOM      5  C   UNL d   1       0.880  -3.397  -3.678  0.00  0.00     0.178 C 
BRANCH   5   6
ATOM      6  S   UNL d   1      -0.208  -4.664  -4.394  0.00  0.00    -0.155 SA
BRANCH   6   7
ATOM      7  C   UNL d   1      -1.403  -3.596  -5.269  0.00  0.00     0.113 C 
BRANCH   7   8
ATOM      8  C   UNL d   1      -2.474  -4.428  -5.942  0.00  0.00    -0.038 A 
ATOM      9  C   UNL d   1      -3.677  -4.821  -5.283  0.00  0.00    -0.019 A 
ATOM     10  C   UNL d   1      -4.585  -5.667  -5.972  0.00  0.00    -0.025 A 
ATOM     11  C   UNL d   1      -4.027  -4.428  -3.969  0.00  0.00     0.013 A 
ATOM     12  C   UNL d   1      -5.768  -6.095  -5.345  0.00  0.00     0.012 A 
ATOM     13  C   UNL d   1      -4.302  -6.085  -7.280  0.00  0.00     0.012 A 
ATOM     14  C   UNL d   1      -6.082  -5.689  -4.050  0.00  0.00     0.001 A 
ATOM     15  C   UNL d   1      -5.215  -4.849  -3.365  0.00  0.00     0.001 A 
ATOM     16  C   UNL d   1      -3.135  -5.686  -7.921  0.00  0.00     0.001 A 
ATOM     17  C   UNL d   1      -2.226  -4.870  -7.257  0.00  0.00     0.009 A 
ENDBRANCH   7   8
ENDBRANCH   6   7
ENDBRANCH   5   6
ENDBRANCH   1   5
BRANCH   2  18
ATOM     18  N   UNL d   1      -0.445  -0.270  -2.131  0.00  0.00    -0.263 N 
ATOM     19  C   UNL d   1      -0.420   1.072  -2.445  0.00  0.00     0.270 C 
ATOM     20  O   UNL d   1       0.145   1.502  -3.449  0.00  0.00    -0.266 OA
ATOM     21  H   UNL d   1      -1.019  -0.683  -1.397  0.00  0.00     0.190 HD
BRANCH  19  22
ATOM     22  C   UNL d   1      -1.138   1.991  -1.519  0.00  0.00     0.033 A 
ATOM     23  C   UNL d   1      -1.325   1.687  -0.161  0.00  0.00     0.020 A 
ATOM     24  C   UNL d   1      -1.985   2.595   0.671  0.00  0.00     0.043 A 
ATOM     25  C   UNL d   1      -2.451   3.797   0.147  0.00  0.00     0.116 A 
ATOM     26  C   UNL d   1      -2.268   4.113  -1.193  0.00  0.00     0.043 A 
ATOM     27  F   UNL d   1      -3.079   4.666   0.951  0.00  0.00    -0.206 F 
ATOM     28  C   UNL d   1      -1.606   3.211  -2.028  0.00  0.00     0.020 A 
ENDBRANCH  19  22
ENDBRANCH   2  18
TORSDOF 6
