REMARK  5 active torsions:
REMARK  status: ('A' for Active; 'I' for Inactive)
REMARK    1  A    between atoms: C_11  and  C_1 
REMARK    2  A    between atoms: C_2  and  C_11 
REMARK    3  A    between atoms: N_19  and  C_3 
REMARK    4  A    between atoms: N_20  and  C_4 
REMARK    5  A    between atoms: C_14  and  C_11 
ROOT
ATOM      1  C   UNL d   1      -1.506   2.384  -0.174  0.00  0.00     0.104 C 
ENDROOT
BRANCH   1   2
ATOM      2  C   UNL d   1      -1.024   3.171  -1.410  0.00  0.00     0.061 A 
ATOM      3  C   UNL d   1      -0.428   4.387  -1.385  0.00  0.00     0.092 A 
ATOM      4  N   UNL d   1      -0.026   4.968  -2.559  0.00  0.00    -0.323 N 
ATOM      5  C   UNL d   1      -0.136   4.404  -3.787  0.00  0.00     0.179 A 
ATOM      6  H   UNL d   1       0.391   5.891  -2.521  0.00  0.00     0.169 HD
ATOM      7  N   UNL d   1      -0.697   3.174  -3.835  0.00  0.00    -0.300 N 
ATOM      8  S   UNL d   1       0.402   5.176  -5.158  0.00  0.00    -0.040 SA
ATOM      9  C   UNL d   1      -1.127   2.486  -2.739  0.00  0.00     0.258 A 
ATOM     10  H   UNL d   1      -0.775   2.705  -4.724  0.00  0.00     0.171 HD
ATOM     11  O   UNL d   1      -1.578   1.353  -2.867  0.00  0.00    -0.267 OA
BRANCH   3  12
ATOM     12  N   UNL d   1      -0.158   5.108  -0.244  0.00  0.00    -0.288 NA
ATOM     13  H   UNL d   1       0.038   4.515   0.563  0.00  0.00     0.125 HD
ATOM     14  H   UNL d   1       0.635   5.731  -0.372  0.00  0.00     0.125 HD
ENDBRANCH   3  12
ENDBRANCH   1   2
BRANCH   1  15
ATOM     15  C   UNL d   1      -0.828   1.004  -0.050  0.00  0.00     0.061 C 
ATOM     16  C   UNL d   1      -1.347  -0.248  -0.022  0.00  0.00     0.092 C 
ATOM     17  N   UNL d   1      -0.502  -1.323   0.051  0.00  0.00    -0.323 N 
ATOM     18  C   UNL d   1       0.851  -1.264   0.026  0.00  0.00     0.179 C 
ATOM     19  H   UNL d   1      -0.919  -2.243  -0.009  0.00  0.00     0.169 HD
ATOM     20  N   UNL d   1       1.398  -0.025   0.023  0.00  0.00    -0.300 N 
ATOM     21  S   UNL d   1       1.786  -2.637   0.010  0.00  0.00    -0.040 SA
ATOM     22  C   UNL d   1       0.666   1.121   0.100  0.00  0.00     0.258 C 
ATOM     23  H   UNL d   1       2.402   0.060   0.075  0.00  0.00     0.171 HD
ATOM     24  O   UNL d   1       1.221   2.202   0.294  0.00  0.00    -0.267 OA
BRANCH  16  25
ATOM     25  N   UNL d   1      -2.666  -0.613  -0.090  0.00  0.00    -0.288 NA
ATOM     26  H   UNL d   1      -3.347   0.133  -0.053  0.00  0.00     0.125 HD
ATOM     27  H   UNL d   1      -2.906  -1.352   0.564  0.00  0.00     0.125 HD
ENDBRANCH  16  25
ENDBRANCH   1  15
BRANCH   1  28
ATOM     28  C   UNL d   1      -3.028   2.414   0.073  0.00  0.00    -0.023 A 
ATOM     29  C   UNL d   1      -3.558   2.323   1.382  0.00  0.00     0.041 A 
ATOM     30 CL   UNL d   1      -2.559   2.339   2.796  0.00  0.00    -0.084 Cl
ATOM     31  C   UNL d   1      -4.933   2.150   1.595  0.00  0.00     0.024 A 
ATOM     32  C   UNL d   1      -5.810   2.076   0.517  0.00  0.00     0.002 A 
ATOM     33  C   UNL d   1      -5.320   2.211  -0.775  0.00  0.00     0.001 A 
ATOM     34  C   UNL d   1      -3.950   2.389  -0.994  0.00  0.00     0.010 A 
ENDBRANCH   1  28
TORSDOF 5
