REMARK  4 active torsions:
REMARK  status: ('A' for Active; 'I' for Inactive)
REMARK    1  A    between atoms: C_2  and  C_1 
REMARK    2  A    between atoms: C_15  and  N_3 
REMARK    3  A    between atoms: N_14  and  C_4 
REMARK    4  A    between atoms: C_13  and  C_10 
ROOT
ATOM      1  C   UNL d   1       0.027   1.497  -0.097  0.00  0.00     0.044 C 
ATOM      2  C   UNL d   1       0.781   0.337   0.030  0.00  0.00     0.082 C 
ATOM      3  C   UNL d   1      -1.348   1.156  -0.330  0.00  0.00     0.038 C 
ATOM      4  S   UNL d   1      -0.180  -1.075  -0.013  0.00  0.00    -0.071 SA
ATOM      5  C   UNL d   1      -1.628  -0.191  -0.204  0.00  0.00     0.018 C 
ENDROOT
BRANCH   1   6
ATOM      6  C   UNL d   1       0.601   2.834  -0.028  0.00  0.00     0.137 A 
ATOM      7  N   UNL d   1      -0.044   3.947   0.445  0.00  0.00    -0.307 N 
ATOM      8  C   UNL d   1       0.893   4.952   0.341  0.00  0.00     0.194 A 
ATOM      9  S   UNL d   1       0.802   6.559   0.739  0.00  0.00    -0.039 SA
ATOM     10  N   UNL d   1       2.030   4.375  -0.196  0.00  0.00    -0.274 N 
ATOM     11  N   UNL d   1       1.832   3.047  -0.413  0.00  0.00    -0.282 N 
ATOM     12  H   UNL d   1       2.909   4.837  -0.397  0.00  0.00     0.189 HD
ATOM     13  HN  UNL d   1       2.495   2.370  -0.791  1.00  0.00     0.188 HD
BRANCH   7  14
ATOM     14  C   UNL d   1      -1.390   4.098   1.000  0.00  0.00     0.128 C 
ATOM     15  C   UNL d   1      -1.585   3.376   2.324  0.00  0.00     0.027 C 
ENDBRANCH   7  14
ENDBRANCH   1   6
BRANCH   2  16
ATOM     16  N   UNL d   1       2.120   0.229   0.196  0.00  0.00    -0.393 N 
ATOM     17  H   UNL d   1       2.692   1.036  -0.062  0.00  0.00     0.156 HD
ATOM     18  H   UNL d   1       2.561  -0.661  -0.015  0.00  0.00     0.156 HD
ENDBRANCH   2  16
BRANCH   5  19
ATOM     19  C   UNL d   1      -2.944  -0.849  -0.231  0.00  0.00    -0.019 A 
ATOM     20  C   UNL d   1      -3.980  -0.318  -1.018  0.00  0.00     0.013 A 
ATOM     21  C   UNL d   1      -5.260  -0.877  -0.995  0.00  0.00     0.001 A 
ATOM     22  C   UNL d   1      -5.524  -1.979  -0.188  0.00  0.00     0.000 A 
ATOM     23  C   UNL d   1      -4.510  -2.524   0.595  0.00  0.00     0.001 A 
ATOM     24  C   UNL d   1      -3.230  -1.961   0.576  0.00  0.00     0.013 A 
ENDBRANCH   5  19
TORSDOF 4
