REMARK  4 active torsions:
REMARK  status: ('A' for Active; 'I' for Inactive)
REMARK       I    between atoms: N_2  and  C_1 
REMARK    1  A    between atoms: C_3  and  C_1 
REMARK    2  A    between atoms: C_6  and  C_4 
REMARK    3  A    between atoms: C_7  and  C_6 
REMARK       I    between atoms: N_9  and  C_7 
REMARK    4  A    between atoms: C_8  and  N_9 
ROOT
ATOM      1  C   UNL d   1       0.845   0.274   0.089  0.00  0.00     0.259 C 
ATOM      2  N   UNL d   1       0.313  -1.001   0.319  0.00  0.00    -0.332 N 
ATOM      3  C   UNL d   1       0.814  -1.912   1.402  0.00  0.00     0.188 C 
ATOM      4  C   UNL d   1       1.081  -3.325   0.812  0.00  0.00     0.241 C 
ATOM      5  N   UNL d   1       0.131  -3.817  -0.059  0.00  0.00    -0.358 N 
ATOM      6  O   UNL d   1       1.821   0.707   0.696  0.00  0.00    -0.267 OA
ATOM      7  O   UNL d   1       1.979  -4.085   1.174  0.00  0.00    -0.271 OA
ATOM      8  C   UNL d   1      -0.856  -1.558  -0.386  0.00  0.00     0.147 C 
ATOM      9  C   UNL d   1      -0.567  -2.940  -0.964  0.00  0.00     0.142 C 
ATOM     10  H   UNL d   1       0.353  -4.751  -0.382  0.00  0.00     0.162 HD
ENDROOT
BRANCH   3  11
ATOM     11  C   UNL d   1       2.015  -1.498   2.273  0.00  0.00     0.138 C 
BRANCH  11  12
ATOM     12  C   UNL d   1       2.130  -2.468   3.448  0.00  0.00     0.224 C 
ATOM     13  N   UNL d   1       3.416  -2.907   3.700  0.00  0.00    -0.326 N 
ATOM     14  H   UNL d   1       4.182  -2.410   3.256  0.00  0.00     0.169 HD
ATOM     15  O   UNL d   1       1.132  -2.791   4.089  0.00  0.00    -0.273 OA
BRANCH  13  16
ATOM     16  C   UNL d   1       3.793  -4.049   4.460  0.00  0.00     0.058 A 
ATOM     17  C   UNL d   1       2.864  -4.973   4.952  0.00  0.00     0.055 A 
ATOM     18  C   UNL d   1       3.293  -6.128   5.614  0.00  0.00     0.036 A 
ATOM     19 CL   UNL d   1       2.136  -7.265   6.191  0.00  0.00    -0.084 Cl
ATOM     20  C   UNL d   1       4.650  -6.380   5.801  0.00  0.00     0.026 A 
ATOM     21  C   UNL d   1       5.588  -5.462   5.333  0.00  0.00     0.028 A 
ATOM     22  C   UNL d   1       5.163  -4.305   4.670  0.00  0.00     0.060 A 
ATOM     23 CL   UNL d   1       6.374  -3.198   4.118  0.00  0.00    -0.082 Cl
ENDBRANCH  13  16
ENDBRANCH  11  12
ENDBRANCH   3  11
BRANCH   1  24
ATOM     24  C   UNL d   1       0.249   1.179  -0.933  0.00  0.00     0.092 A 
ATOM     25  C   UNL d   1       1.034   1.800  -1.918  0.00  0.00     0.052 A 
ATOM     26 CL   UNL d   1       2.742   1.571  -2.057  0.00  0.00    -0.083 Cl
ATOM     27  C   UNL d   1       0.436   2.631  -2.882  0.00  0.00     0.025 A 
ATOM     28  C   UNL d   1      -0.942   2.839  -2.884  0.00  0.00     0.005 A 
ATOM     29  C   UNL d   1      -1.719   2.264  -1.885  0.00  0.00     0.043 A 
ATOM     30  C   UNL d   1      -1.116   1.481  -0.900  0.00  0.00     0.133 A 
ATOM     31  F   UNL d   1      -1.905   0.984   0.065  0.00  0.00    -0.205 F 
ENDBRANCH   1  24
TORSDOF 4
