REMARK  7 active torsions:
REMARK  status: ('A' for Active; 'I' for Inactive)
REMARK    1  A    between atoms: C_11  and  N_1 
REMARK    2  A    between atoms: S_10  and  C_2 
REMARK    3  A    between atoms: N_7  and  C_13 
REMARK    4  A    between atoms: N_8  and  C_12 
REMARK    5  A    between atoms: C_24  and  S_10 
REMARK    6  A    between atoms: C_23  and  C_11 
REMARK    7  A    between atoms: C_25  and  C_24 
ROOT
ATOM      1  N   UNL d   1       2.359  -0.643  -0.090  0.00  0.00    -0.289 N 
ATOM      2  C   UNL d   1       2.330   0.722  -0.335  0.00  0.00     0.150 C 
ATOM      3  C   UNL d   1       1.236  -1.288   0.432  0.00  0.00     0.262 C 
ATOM      4  N   UNL d   1       1.272   1.452  -0.183  0.00  0.00    -0.336 N 
ATOM      5  HN  UNL d   1       1.323   2.466  -0.274  1.00  0.00     0.168 HD
ATOM      6  C   UNL d   1      -0.028  -0.539   0.359  0.00  0.00     0.059 A 
ATOM      7  C   UNL d   1       0.059   0.823   0.107  0.00  0.00     0.049 A 
ATOM      8  O   UNL d   1       1.230  -2.425   0.892  0.00  0.00    -0.267 OA
ATOM      9  C   UNL d   1      -1.266  -1.190   0.436  0.00  0.00     0.019 A 
ATOM     10  C   UNL d   1      -1.123   1.562  -0.001  0.00  0.00     0.030 A 
ATOM     11  C   UNL d   1      -2.437  -0.453   0.276  0.00  0.00     0.001 A 
ATOM     12  C   UNL d   1      -2.366   0.927   0.078  0.00  0.00     0.002 A 
ENDROOT
BRANCH   2  13
ATOM     13  S   UNL d   1       3.696   1.514  -1.095  0.00  0.00    -0.089 SA
BRANCH  13  14
ATOM     14  C   UNL d   1       4.458   2.524   0.186  0.00  0.00     0.121 C 
BRANCH  14  15
ATOM     15  C   UNL d   1       3.743   3.703   0.814  0.00  0.00    -0.048 A 
ATOM     16  C   UNL d   1       4.374   4.334   1.908  0.00  0.00     0.010 A 
ATOM     17  C   UNL d   1       3.749   5.365   2.618  0.00  0.00     0.036 A 
ATOM     18  C   UNL d   1       2.473   5.780   2.233  0.00  0.00     0.102 A 
ATOM     19  C   UNL d   1       1.867   5.235   1.098  0.00  0.00     0.036 A 
ATOM     20  C   UNL d   1       2.517   4.222   0.380  0.00  0.00     0.010 A 
BRANCH  18  21
ATOM     21  N   UNL d   1       1.752   6.766   3.047  0.00  0.00    -0.116 N 
ATOM     22  O   UNL d   1       0.557   6.966   2.784  0.00  0.00    -0.532 OA
ATOM     23  O   UNL d   1       2.373   7.324   3.962  0.00  0.00    -0.532 OA
ENDBRANCH  18  21
ENDBRANCH  14  15
ENDBRANCH  13  14
ENDBRANCH   2  13
BRANCH   1  24
ATOM     24  C   UNL d   1       3.498  -1.530  -0.354  0.00  0.00     0.173 C 
BRANCH  24  25
ATOM     25  C   UNL d   1       3.212  -2.534  -1.468  0.00  0.00    -0.040 A 
ATOM     26  C   UNL d   1       2.377  -2.216  -2.555  0.00  0.00     0.011 A 
ATOM     27  C   UNL d   1       2.046  -3.180  -3.510  0.00  0.00     0.037 A 
ATOM     28  C   UNL d   1       2.578  -4.469  -3.401  0.00  0.00     0.102 A 
ATOM     29  C   UNL d   1       3.452  -4.792  -2.357  0.00  0.00     0.037 A 
ATOM     30  C   UNL d   1       3.767  -3.824  -1.398  0.00  0.00     0.011 A 
BRANCH  28  31
ATOM     31  N   UNL d   1       2.201  -5.493  -4.380  0.00  0.00    -0.116 N 
ATOM     32  O   UNL d   1       1.626  -5.119  -5.413  0.00  0.00    -0.532 OA
ATOM     33  O   UNL d   1       2.477  -6.673  -4.117  0.00  0.00    -0.532 OA
ENDBRANCH  28  31
ENDBRANCH  24  25
ENDBRANCH   1  24
TORSDOF 7
