REMARK  5 active torsions:
REMARK  status: ('A' for Active; 'I' for Inactive)
REMARK    1  A    between atoms: C_8  and  C_2 
REMARK    2  A    between atoms: S_15  and  C_7 
REMARK    3  A    between atoms: C_17  and  S_15 
REMARK    4  A    between atoms: C_18  and  C_17 
REMARK    5  A    between atoms: C_19  and  C_18 
ROOT
ATOM      1  C   UNL d   1       0.440  -0.419  -0.004  0.00  0.00     0.140 A 
ATOM      2  C   UNL d   1      -0.419  -1.455   0.012  0.00  0.00     0.077 A 
ATOM      3  N   UNL d   1      -1.532   0.961  -0.065  0.00  0.00    -0.302 N 
ATOM      4  C   UNL d   1      -0.169   0.926  -0.037  0.00  0.00     0.270 A 
ATOM      5  N   UNL d   1      -1.796  -1.357  -0.024  0.00  0.00    -0.334 N 
ATOM      6  HN  UNL d   1      -2.394  -2.184  -0.021  1.00  0.00     0.168 HD
ATOM      7  C   UNL d   1      -2.284  -0.167  -0.062  0.00  0.00     0.147 A 
ATOM      8  C   UNL d   1       1.855  -0.537   0.004  0.00  0.00     0.107 C 
ATOM      9  N   UNL d   1       3.009  -0.656  -0.002  0.00  0.00    -0.191 NA
ATOM     10  O   UNL d   1       0.493   1.957  -0.044  0.00  0.00    -0.266 OA
ATOM     11  H   UNL d   1      -1.986   1.862  -0.096  0.00  0.00     0.171 HD
ENDROOT
BRANCH   2  12
ATOM     12  C   UNL d   1       0.058  -2.800   0.052  0.00  0.00     0.033 A 
ATOM     13  S   UNL d   1       0.303  -3.588   1.564  0.00  0.00    -0.100 SA
ATOM     14  C   UNL d   1       0.839  -5.025   0.812  0.00  0.00     0.050 A 
ATOM     15  C   UNL d   1       0.830  -4.925  -0.560  0.00  0.00     0.008 A 
ATOM     16  C   UNL d   1       0.379  -3.646  -0.998  0.00  0.00     0.021 A 
ENDBRANCH   2  12
BRANCH   7  17
ATOM     17  S   UNL d   1      -3.978   0.187  -0.150  0.00  0.00    -0.094 SA
BRANCH  17  18
ATOM     18  C   UNL d   1      -4.681  -1.236   0.738  0.00  0.00     0.082 C 
BRANCH  18  19
ATOM     19  C   UNL d   1      -6.202  -1.071   0.828  0.00  0.00     0.014 C 
BRANCH  19  20
ATOM     20  C   UNL d   1      -6.913  -2.239   1.541  0.00  0.00    -0.022 C 
ATOM     21  C   UNL d   1      -6.470  -2.394   2.996  0.00  0.00     0.009 C 
ATOM     22  C   UNL d   1      -8.431  -2.035   1.489  0.00  0.00     0.009 C 
ENDBRANCH  19  20
ENDBRANCH  18  19
ENDBRANCH  17  18
ENDBRANCH   7  17
TORSDOF 5
