REMARK  3 active torsions:
REMARK  status: ('A' for Active; 'I' for Inactive)
REMARK       I    between atoms: N_2  and  C_1 
REMARK    1  A    between atoms: C_3  and  C_1 
REMARK    2  A    between atoms: C_5  and  N_2 
REMARK    3  A    between atoms: N_4  and  C_6 
ROOT
ATOM      1  C   UNL d   1       0.826  -0.720  -2.333  0.00  0.00     0.061 A 
ATOM      2  C   UNL d   1       2.023  -1.469  -2.171  0.00  0.00     0.057 A 
ATOM      3  C   UNL d   1       0.288  -0.464  -3.604  0.00  0.00     0.032 A 
ATOM      4  C   UNL d   1       2.668  -1.873  -3.354  0.00  0.00     0.031 A 
ATOM      5  C   UNL d   1       0.971  -0.862  -4.747  0.00  0.00     0.002 A 
ATOM      6  C   UNL d   1       2.161  -1.565  -4.623  0.00  0.00     0.002 A 
ENDROOT
BRANCH   1   7
ATOM      7  N   UNL d   1       0.123  -0.162  -1.245  0.00  0.00    -0.320 N 
ATOM      8  C   UNL d   1       0.710   0.750  -0.378  0.00  0.00     0.263 C 
ATOM      9  O   UNL d   1       1.834   1.223  -0.529  0.00  0.00    -0.267 OA
ATOM     10  H   UNL d   1      -0.878  -0.058  -1.340  0.00  0.00     0.169 HD
BRANCH   8  11
ATOM     11  C   UNL d   1      -0.166   1.194   0.708  0.00  0.00     0.072 A 
ATOM     12  S   UNL d   1      -1.540   0.304   1.203  0.00  0.00    -0.097 SA
ATOM     13  C   UNL d   1      -1.873   1.388   2.481  0.00  0.00     0.050 A 
ATOM     14  C   UNL d   1      -0.979   2.431   2.516  0.00  0.00     0.009 A 
ATOM     15  C   UNL d   1       0.009   2.322   1.496  0.00  0.00     0.025 A 
ENDBRANCH   8  11
ENDBRANCH   1   7
BRANCH   2  16
ATOM     16  N   UNL d   1       2.546  -1.789  -0.920  0.00  0.00    -0.375 N 
ATOM     17  C   UNL d   1       3.970  -2.112  -0.752  0.00  0.00     0.149 C 
ATOM     18  C   UNL d   1       4.398  -1.757   0.682  0.00  0.00     0.187 C 
ATOM     19  O   UNL d   1       3.584  -2.424   1.664  0.00  0.00    -0.388 OA
ATOM     20  C   UNL d   1       2.200  -2.067   1.483  0.00  0.00     0.187 C 
ATOM     21  C   UNL d   1       1.703  -2.467   0.082  0.00  0.00     0.149 C 
ENDBRANCH   2  16
TORSDOF 3
