REMARK  2 active torsions:
REMARK  status: ('A' for Active; 'I' for Inactive)
REMARK    1  A    between atoms: C_6  and  S_9 
REMARK    2  A    between atoms: S_9  and  C_7 
ROOT
ATOM      1  C   UNL d   1       3.282   3.322   1.814  0.00  0.00     0.097 A 
ATOM      2  C   UNL d   1       4.222   4.216   2.345  0.00  0.00     0.084 A 
ATOM      3  N   UNL d   1       2.294   2.777   2.569  0.00  0.00    -0.353 N 
ATOM      4  HN  UNL d   1       1.619   2.134   2.154  1.00  0.00     0.166 HD
ATOM      5  C   UNL d   1       4.156   4.525   3.719  0.00  0.00    -0.037 A 
ATOM      6  C   UNL d   1       5.214   4.826   1.506  0.00  0.00     0.103 C 
ATOM      7  N   UNL d   1       6.020   5.351   0.858  0.00  0.00    -0.191 NA
ATOM      8  C   UNL d   1       2.220   3.101   3.877  0.00  0.00     0.006 A 
ATOM      9  C   UNL d   1       3.132   3.954   4.484  0.00  0.00     0.033 A 
ATOM     10  C   UNL d   1       5.120   5.445   4.421  0.00  0.00     0.050 C 
ATOM     11  C   UNL d   1       1.092   2.512   4.669  0.00  0.00     0.068 C 
ENDROOT
BRANCH   1  12
ATOM     12  S   UNL d   1       3.264   2.882   0.075  0.00  0.00    -0.052 SA
BRANCH  12  13
ATOM     13  C   UNL d   1       2.575   1.249   0.104  0.00  0.00     0.096 A 
ATOM     14  C   UNL d   1       1.200   1.008   0.053  0.00  0.00     0.068 A 
ATOM     15  S   UNL d   1      -0.125   2.097   0.011  0.00  0.00    -0.066 SA
ATOM     16  C   UNL d   1       0.753  -0.315   0.023  0.00  0.00     0.067 A 
ATOM     17  C   UNL d   1      -1.261   0.838   0.005  0.00  0.00     0.088 A 
ATOM     18  N   UNL d   1      -2.574   1.143  -0.003  0.00  0.00    -0.354 N 
ATOM     19  C   UNL d   1      -0.691  -0.428   0.006  0.00  0.00     0.032 A 
ATOM     20  C   UNL d   1      -3.403   0.085  -0.009  0.00  0.00     0.006 A 
ATOM     21  HN  UNL d   1      -2.913   2.104  -0.004  1.00  0.00     0.166 HD
ATOM     22  C   UNL d   1      -4.875   0.381  -0.010  0.00  0.00     0.068 C 
ATOM     23  C   UNL d   1      -2.968  -1.234  -0.011  0.00  0.00     0.032 A 
ATOM     24  C   UNL d   1      -1.592  -1.531  -0.007  0.00  0.00    -0.045 A 
ATOM     25  C   UNL d   1      -1.195  -2.983  -0.009  0.00  0.00     0.049 C 
ATOM     26  N   UNL d   1       1.620  -1.363   0.017  0.00  0.00    -0.350 N 
ATOM     27  C   UNL d   1       2.911  -1.028   0.042  0.00  0.00     0.181 A 
ATOM     28  HN  UNL d   1       1.307  -2.333  -0.006  1.00  0.00     0.166 HD
ATOM     29  N   UNL d   1       3.429   0.203   0.082  0.00  0.00    -0.345 N 
ATOM     30  HN  UNL d   1       4.439   0.348   0.096  1.00  0.00     0.167 HD
ENDBRANCH  12  13
ENDBRANCH   1  12
TORSDOF 2
