REMARK  10 active torsions:
REMARK  status: ('A' for Active; 'I' for Inactive)
REMARK       I    between atoms: N_3  and  C_1 
REMARK       I    between atoms: N_9  and  C_1 
REMARK    1  A    between atoms: C_2  and  C_4 
REMARK    2  A    between atoms: C_5  and  C_2 
REMARK    3  A    between atoms: C_4  and  N_3 
REMARK    4  A    between atoms: C_8  and  C_4 
REMARK    5  A    between atoms: O_10  and  C_5 
REMARK    6  A    between atoms: C_13  and  N_9 
REMARK    7  A    between atoms: C_14  and  C_13 
REMARK    8  A    between atoms: C_17  and  C_14 
REMARK    9  A    between atoms: C_15  and  C_16 
REMARK   10  A    between atoms: C_16  and  C_17 
ROOT
ATOM      1  C   UNL d   1       1.156   0.203  -0.151  0.00  0.00     0.316 C 
ATOM      2  N   UNL d   1       0.568  -0.723  -0.974  0.00  0.00    -0.334 N 
ATOM      3  O   UNL d   1       0.550   0.881   0.667  0.00  0.00    -0.247 OA
ATOM      4  N   UNL d   1       2.503   0.281  -0.388  0.00  0.00    -0.343 N 
ATOM      5  H   UNL d   1       1.028  -0.822  -1.867  0.00  0.00     0.165 HD
ATOM      6  H   UNL d   1       2.930  -0.521  -0.827  0.00  0.00     0.164 HD
ENDROOT
BRANCH   2   7
ATOM      7  C   UNL d   1      -0.862  -1.009  -0.945  0.00  0.00     0.129 C 
BRANCH   7   8
ATOM      8  C   UNL d   1      -1.781   0.169  -1.308  0.00  0.00     0.140 C 
BRANCH   8   9
ATOM      9  C   UNL d   1      -1.603   0.715  -2.703  0.00  0.00     0.141 C 
ATOM     10  O   UNL d   1      -0.689   0.453  -3.469  0.00  0.00    -0.650 OA
BRANCH   9  11
ATOM     11  O   UNL d   1      -2.583   1.600  -3.027  0.00  0.00    -0.776 OA
ATOM     12  H   UNL d   1      -3.225   1.760  -2.314  0.00  0.00     0.167 HD
ENDBRANCH   9  11
ENDBRANCH   8   9
ENDBRANCH   7   8
BRANCH   7  13
ATOM     13  C   UNL d   1      -1.222  -2.278  -1.717  0.00  0.00    -0.035 A 
ATOM     14  C   UNL d   1      -0.602  -2.629  -2.929  0.00  0.00     0.009 A 
ATOM     15  C   UNL d   1      -0.964  -3.795  -3.612  0.00  0.00     0.001 A 
ATOM     16  C   UNL d   1      -1.960  -4.620  -3.104  0.00  0.00     0.000 A 
ATOM     17  C   UNL d   1      -2.606  -4.278  -1.919  0.00  0.00     0.001 A 
ATOM     18  C   UNL d   1      -2.239  -3.117  -1.230  0.00  0.00     0.009 A 
ENDBRANCH   7  13
ENDBRANCH   2   7
BRANCH   4  19
ATOM     19  C   UNL d   1       3.371   1.256   0.244  0.00  0.00     0.124 C 
BRANCH  19  20
ATOM     20  C   UNL d   1       3.968   0.774   1.568  0.00  0.00     0.020 C 
BRANCH  20  21
ATOM     21  C   UNL d   1       4.957   1.809   2.121  0.00  0.00     0.002 C 
BRANCH  21  22
ATOM     22  C   UNL d   1       5.589   1.374   3.448  0.00  0.00    -0.000 C 
BRANCH  22  23
ATOM     23  C   UNL d   1       6.561   2.434   3.970  0.00  0.00    -0.005 C 
ATOM     24  C   UNL d   1       7.197   2.021   5.289  0.00  0.00     0.005 C 
ENDBRANCH  22  23
ENDBRANCH  21  22
ENDBRANCH  20  21
ENDBRANCH  19  20
ENDBRANCH   4  19
TORSDOF 10
