REMARK  2 active torsions:
REMARK  status: ('A' for Active; 'I' for Inactive)
REMARK    1  A    between atoms: C_7  and  C_1 
REMARK    2  A    between atoms: C_8  and  C_5 
ROOT
ATOM      1  C   UNL d   1      -0.159  -1.071   0.046  0.00  0.00     0.074 A 
ATOM      2  S   UNL d   1       1.372  -0.303  -0.011  0.00  0.00    -0.066 SA
ATOM      3  N   UNL d   1      -0.695   1.206   0.013  0.00  0.00    -0.352 N 
ATOM      4  HN  UNL d   1      -1.296   2.029   0.039  1.00  0.00     0.166 HD
ATOM      5  C   UNL d   1       0.621   1.243  -0.036  0.00  0.00     0.085 A 
ATOM      6  C   UNL d   1      -1.153  -0.103   0.024  0.00  0.00     0.027 A 
ATOM      7  C   UNL d   1      -2.625  -0.323   0.026  0.00  0.00     0.070 C 
ENDROOT
BRANCH   5   8
ATOM      8  C   UNL d   1       1.404   2.489  -0.078  0.00  0.00    -0.002 A 
ATOM      9  C   UNL d   1       2.669   2.574  -0.689  0.00  0.00     0.014 A 
ATOM     10  C   UNL d   1       3.359   3.789  -0.738  0.00  0.00     0.001 A 
ATOM     11  C   UNL d   1       2.800   4.936  -0.178  0.00  0.00     0.000 A 
ATOM     12  C   UNL d   1       1.552   4.871   0.433  0.00  0.00     0.001 A 
ATOM     13  C   UNL d   1       0.860   3.657   0.480  0.00  0.00     0.014 A 
ENDBRANCH   5   8
BRANCH   1  14
ATOM     14  C   UNL d   1      -0.323  -2.518   0.083  0.00  0.00     0.164 C 
ATOM     15  O   UNL d   1      -1.414  -3.055  -0.131  0.00  0.00    -0.292 OA
ATOM     16  C   UNL d   1       0.860  -3.408   0.378  0.00  0.00     0.097 C 
ENDBRANCH   1  14
TORSDOF 2
