REMARK  1 active torsions:
REMARK  status: ('A' for Active; 'I' for Inactive)
REMARK    1  A    between atoms: C_4  and  N_1 
ROOT
ATOM      1  N   UNL d   1       0.010   0.908   0.069  0.00  0.00    -0.244 N 
ATOM      2  C   UNL d   1      -1.108   0.124   0.123  0.00  0.00     0.255 C 
ATOM      3  C   UNL d   1       1.104   0.131  -0.174  0.00  0.00     0.255 C 
ATOM      4  C   UNL d   1      -0.655  -1.272   0.069  0.00  0.00     0.080 C 
ATOM      5  C   UNL d   1       0.664  -1.267  -0.114  0.00  0.00     0.080 C 
ATOM      6  O   UNL d   1      -2.289   0.422   0.090  0.00  0.00    -0.268 OA
ATOM      7  O   UNL d   1       2.264   0.440  -0.389  0.00  0.00    -0.268 OA
ENDROOT
BRANCH   1   8
ATOM      8  C   UNL d   1      -0.003   2.323   0.056  0.00  0.00     0.067 A 
ATOM      9  C   UNL d   1      -0.730   3.080   0.995  0.00  0.00     0.061 A 
ATOM     10 CL   UNL d   1      -1.500   2.372   2.376  0.00  0.00    -0.082 Cl
ATOM     11  C   UNL d   1      -0.732   4.479   0.927  0.00  0.00     0.026 A 
ATOM     12  C   UNL d   1      -0.016   5.139  -0.070  0.00  0.00     0.002 A 
ATOM     13  C   UNL d   1       0.723   4.403  -0.990  0.00  0.00     0.002 A 
ATOM     14  C   UNL d   1       0.742   3.008  -0.919  0.00  0.00     0.032 A 
ENDBRANCH   1   8
TORSDOF 1
