REMARK  3 active torsions:
REMARK  status: ('A' for Active; 'I' for Inactive)
REMARK    1  A    between atoms: N_11  and  C_3 
REMARK    2  A    between atoms: C_15  and  N_11 
REMARK    3  A    between atoms: C_18  and  C_15 
ROOT
ATOM      1  C   UNL d   1       0.775   0.457  -0.042  0.00  0.00     0.049 A 
ATOM      2  C   UNL d   1       1.275  -0.813  -0.032  0.00  0.00     0.091 A 
ATOM      3  C   UNL d   1       1.756   1.521  -0.077  0.00  0.00     0.117 A 
ATOM      4  N   UNL d   1       3.025   1.258  -0.130  0.00  0.00    -0.319 N 
ATOM      5  HN  UNL d   1       3.693   2.025  -0.202  1.00  0.00     0.170 HD
ATOM      6  N   UNL d   1       2.602  -1.100  -0.050  0.00  0.00    -0.327 N 
ATOM      7  C   UNL d   1      -0.660   0.418  -0.066  0.00  0.00    -0.028 A 
ATOM      8  C   UNL d   1       3.487  -0.045  -0.090  0.00  0.00     0.178 A 
ATOM      9  C   UNL d   1      -1.121  -0.895  -0.017  0.00  0.00    -0.008 A 
ATOM     10  S   UNL d   1       0.143  -2.046  -0.005  0.00  0.00    -0.075 SA
ATOM     11  C   UNL d   1      -1.607   1.584  -0.103  0.00  0.00     0.041 C 
ATOM     12  S   UNL d   1       5.126  -0.420  -0.076  0.00  0.00    -0.040 SA
ATOM     13  C   UNL d   1      -2.562  -1.306   0.005  0.00  0.00     0.051 C 
ATOM     14  C   UNL d   1      -3.063   1.150  -0.339  0.00  0.00     0.009 C 
ATOM     15  C   UNL d   1      -3.454  -0.122   0.442  0.00  0.00    -0.014 C 
ATOM     16  C   UNL d   1      -3.388   0.098   1.958  0.00  0.00     0.010 C 
ATOM     17  H   UNL d   1       2.938  -2.053  -0.035  0.00  0.00     0.169 HD
ENDROOT
BRANCH   3  18
ATOM     18  N   UNL d   1       1.205   2.774  -0.078  0.00  0.00    -0.371 N 
ATOM     19  H   UNL d   1       0.644   2.967   0.744  0.00  0.00     0.161 HD
BRANCH  18  20
ATOM     20  C   UNL d   1       1.968   3.923  -0.521  0.00  0.00     0.160 C 
BRANCH  20  21
ATOM     21  C   UNL d   1       1.120   5.168  -0.378  0.00  0.00    -0.041 A 
ATOM     22  C   UNL d   1       1.267   6.005   0.738  0.00  0.00     0.009 A 
ATOM     23  C   UNL d   1       0.481   7.151   0.871  0.00  0.00     0.001 A 
ATOM     24  C   UNL d   1      -0.463   7.471  -0.101  0.00  0.00     0.000 A 
ATOM     25  C   UNL d   1      -0.628   6.641  -1.207  0.00  0.00     0.001 A 
ATOM     26  C   UNL d   1       0.156   5.489  -1.344  0.00  0.00     0.009 A 
ENDBRANCH  20  21
ENDBRANCH  18  20
ENDBRANCH   3  18
TORSDOF 3
