REMARK  6 active torsions:
REMARK  status: ('A' for Active; 'I' for Inactive)
REMARK    1  A    between atoms: C_2  and  N_1 
REMARK    2  A    between atoms: C_3  and  N_1 
REMARK    3  A    between atoms: C_4  and  N_1 
REMARK    4  A    between atoms: C_9  and  C_3 
REMARK    5  A    between atoms: C_8  and  C_4 
REMARK    6  A    between atoms: O_12  and  C_7 
ROOT
ATOM      1  N   UNL d   1       0.812   0.190   0.003  0.00  0.00    -0.372 N 
ENDROOT
BRANCH   1   2
ATOM      2  C   UNL d   1       0.080   0.047  -1.174  0.00  0.00     0.030 A 
ATOM      3  C   UNL d   1       0.381   0.822  -2.306  0.00  0.00     0.032 A 
ATOM      4  C   UNL d   1      -0.381   0.741  -3.482  0.00  0.00     0.039 A 
ATOM      5  C   UNL d   1      -1.467  -0.128  -3.549  0.00  0.00     0.068 A 
ATOM      6  C   UNL d   1      -1.753  -0.938  -2.456  0.00  0.00     0.039 A 
ATOM      7  C   UNL d   1      -0.995  -0.846  -1.286  0.00  0.00     0.032 A 
BRANCH   5   8
ATOM      8  O   UNL d   1      -2.280  -0.301  -4.634  0.00  0.00    -0.356 OA
ATOM      9  C   UNL d   1      -2.467   0.850  -5.447  0.00  0.00     0.210 C 
ENDBRANCH   5   8
ENDBRANCH   1   2
BRANCH   1  10
ATOM     10  C   UNL d   1       0.148  -0.040   1.292  0.00  0.00     0.162 C 
BRANCH  10  11
ATOM     11  C   UNL d   1       0.342   1.119   2.252  0.00  0.00    -0.040 A 
ATOM     12  C   UNL d   1       0.315   2.450   1.807  0.00  0.00     0.009 A 
ATOM     13  C   UNL d   1       0.408   3.507   2.713  0.00  0.00     0.001 A 
ATOM     14  C   UNL d   1       0.511   3.247   4.078  0.00  0.00     0.000 A 
ATOM     15  C   UNL d   1       0.518   1.932   4.537  0.00  0.00     0.001 A 
ATOM     16  C   UNL d   1       0.430   0.873   3.631  0.00  0.00     0.009 A 
ENDBRANCH  10  11
ENDBRANCH   1  10
BRANCH   1  17
ATOM     17  C   UNL d   1       2.271  -0.001  -0.049  0.00  0.00     0.162 C 
BRANCH  17  18
ATOM     18  C   UNL d   1       2.668  -1.413  -0.438  0.00  0.00    -0.040 A 
ATOM     19  C   UNL d   1       2.986  -1.718  -1.770  0.00  0.00     0.009 A 
ATOM     20  C   UNL d   1       3.312  -3.022  -2.146  0.00  0.00     0.001 A 
ATOM     21  C   UNL d   1       3.325  -4.040  -1.195  0.00  0.00     0.000 A 
ATOM     22  C   UNL d   1       3.023  -3.751   0.135  0.00  0.00     0.001 A 
ATOM     23  C   UNL d   1       2.702  -2.446   0.512  0.00  0.00     0.009 A 
ENDBRANCH  17  18
ENDBRANCH   1  17
TORSDOF 6
