REMARK  3 active torsions:
REMARK  status: ('A' for Active; 'I' for Inactive)
REMARK    1  A    between atoms: N_3  and  C_1 
REMARK       I    between atoms: C_7  and  N_3 
REMARK    2  A    between atoms: C_6  and  C_18 
REMARK       I    between atoms: N_17  and  C_7 
REMARK    3  A    between atoms: N_11  and  N_17 
ROOT
ATOM      1  N   UNL d   1      -3.488   1.847  -0.084  0.00  0.00    -0.020 N 
ATOM      2  C   UNL d   1      -2.442   2.720  -0.002  0.00  0.00     0.705 C 
ATOM      3  N   UNL d   1      -1.185   2.426  -0.032  0.00  0.00    -0.233 N 
ATOM      4  HN  UNL d   1      -0.417   3.078   0.130  1.00  0.00     0.174 HD
ATOM      5  N   UNL d   1      -2.869   4.021   0.085  0.00  0.00    -0.132 N 
ATOM      6  H   UNL d   1      -4.350   2.361  -0.264  0.00  0.00     0.203 HD
ATOM      7  H   UNL d   1      -1.089   1.432  -0.245  0.00  0.00     0.174 HD
ATOM      8  H   UNL d   1      -2.130   4.718   0.072  0.00  0.00     0.205 HD
ENDROOT
BRANCH   1   9
ATOM      9  C   UNL d   1      -3.664   0.599   0.379  0.00  0.00     0.712 A 
ATOM     10  N   UNL d   1      -2.725  -0.062   1.121  0.00  0.00    -0.185 N 
ATOM     11  C   UNL d   1      -3.280  -1.256   1.462  0.00  0.00     0.215 A 
ATOM     12  H   UNL d   1      -1.828   0.302   1.405  0.00  0.00     0.185 HD
ATOM     13  N   UNL d   1      -4.495  -1.330   0.975  0.00  0.00    -0.281 N 
ATOM     14  N   UNL d   1      -4.742  -0.154   0.304  0.00  0.00    -0.131 N 
ATOM     15  HN  UNL d   1      -5.138  -2.115   1.074  1.00  0.00     0.188 HD
ATOM     16  HN  UNL d   1      -5.611   0.093  -0.169  1.00  0.00     0.205 HD
ENDBRANCH   1   9
BRANCH   5  17
ATOM     17  N   UNL d   1      -4.188   4.352   0.073  0.00  0.00    -0.297 N 
ATOM     18  C   UNL d   1      -4.494   5.604  -0.015  0.00  0.00     0.122 C 
ATOM     19  HN  UNL d   1      -4.912   3.636   0.132  1.00  0.00     0.186 HD
BRANCH  18  20
ATOM     20  C   UNL d   1      -5.916   6.016  -0.043  0.00  0.00     0.024 A 
ATOM     21  C   UNL d   1      -6.292   7.224   0.565  0.00  0.00     0.047 A 
ATOM     22 CL   UNL d   1      -5.156   8.282   1.328  0.00  0.00    -0.083 Cl
ATOM     23  C   UNL d   1      -7.639   7.608   0.605  0.00  0.00     0.025 A 
ATOM     24  C   UNL d   1      -8.620   6.798   0.039  0.00  0.00     0.003 A 
ATOM     25  C   UNL d   1      -8.256   5.608  -0.583  0.00  0.00     0.025 A 
ATOM     26  C   UNL d   1      -6.912   5.216  -0.634  0.00  0.00     0.047 A 
ATOM     27 CL   UNL d   1      -6.590   3.760  -1.515  0.00  0.00    -0.083 Cl
ENDBRANCH  18  20
ENDBRANCH   5  17
TORSDOF 3
