REMARK  6 active torsions:
REMARK  status: ('A' for Active; 'I' for Inactive)
REMARK    1  A    between atoms: C_14  and  N_3 
REMARK    2  A    between atoms: N_11  and  N_7 
REMARK    3  A    between atoms: C_15  and  N_11 
REMARK    4  A    between atoms: C_24  and  C_14 
REMARK    5  A    between atoms: O_22  and  C_17 
REMARK    6  A    between atoms: C_25  and  C_24 
ROOT
ATOM      1  C   UNL d   1       1.055   0.087  -0.001  0.00  0.00     0.121 C 
ATOM      2  C   UNL d   1      -1.208   1.024   0.073  0.00  0.00     0.124 C 
ATOM      3  N   UNL d   1      -0.842  -1.448   0.114  0.00  0.00    -0.278 N 
ATOM      4  C   UNL d   1       0.497  -1.273  -0.170  0.00  0.00     0.272 C 
ATOM      5  C   UNL d   1      -1.751  -0.404   0.263  0.00  0.00     0.279 C 
ATOM      6  C   UNL d   1       0.287   1.188   0.112  0.00  0.00    -0.002 C 
ATOM      7  N   UNL d   1      -2.130   1.933  -0.095  0.00  0.00    -0.295 N 
ATOM      8  HN  UNL d   1      -3.118   1.686  -0.045  1.00  0.00     0.187 HD
ATOM      9  C   UNL d   1       2.483   0.175  -0.013  0.00  0.00     0.105 C 
ATOM     10  N   UNL d   1       3.635   0.306  -0.013  0.00  0.00    -0.191 NA
ATOM     11  O   UNL d   1       1.230  -2.191  -0.530  0.00  0.00    -0.266 OA
ATOM     12  O   UNL d   1      -2.942  -0.567   0.500  0.00  0.00    -0.265 OA
ATOM     13  C   UNL d   1       0.888   2.558   0.293  0.00  0.00     0.052 C 
ENDROOT
BRANCH   3  14
ATOM     14  C   UNL d   1      -1.367  -2.819   0.090  0.00  0.00     0.135 C 
BRANCH  14  15
ATOM     15  C   UNL d   1      -0.814  -3.730   1.197  0.00  0.00     0.020 C 
BRANCH  15  16
ATOM     16  C   UNL d   1      -1.175  -3.264   2.607  0.00  0.00    -0.003 C 
ATOM     17  C   UNL d   1      -0.599  -4.204   3.656  0.00  0.00     0.005 C 
ENDBRANCH  15  16
ENDBRANCH  14  15
ENDBRANCH   3  14
BRANCH   7  18
ATOM     18  N   UNL d   1      -1.749   3.212  -0.337  0.00  0.00    -0.300 N 
ATOM     19  H   UNL d   1      -1.420   3.413  -1.281  0.00  0.00     0.187 HD
BRANCH  18  20
ATOM     20  C   UNL d   1      -2.573   4.271   0.122  0.00  0.00     0.048 A 
ATOM     21  C   UNL d   1      -3.682   4.086   0.955  0.00  0.00     0.034 A 
ATOM     22  C   UNL d   1      -4.406   5.181   1.458  0.00  0.00     0.039 A 
ATOM     23  C   UNL d   1      -4.008   6.482   1.157  0.00  0.00     0.068 A 
ATOM     24  C   UNL d   1      -2.884   6.678   0.357  0.00  0.00     0.039 A 
ATOM     25  C   UNL d   1      -2.171   5.586  -0.151  0.00  0.00     0.034 A 
BRANCH  23  26
ATOM     26  O   UNL d   1      -4.609   7.637   1.579  0.00  0.00    -0.356 OA
ATOM     27  C   UNL d   1      -5.760   7.509   2.403  0.00  0.00     0.210 C 
ENDBRANCH  23  26
ENDBRANCH  18  20
ENDBRANCH   7  18
TORSDOF 6
