REMARK  4 active torsions:
REMARK  status: ('A' for Active; 'I' for Inactive)
REMARK    1  A    between atoms: C_6  and  C_1 
REMARK    2  A    between atoms: C_5  and  C_2 
REMARK       I    between atoms: N_11  and  C_6 
REMARK    3  A    between atoms: C_9  and  C_10 
REMARK       I    between atoms: C_10  and  N_12 
REMARK    4  A    between atoms: N_12  and  N_11 
ROOT
ATOM      1  C   UNL d   1      -2.629   1.324  -0.021  0.00  0.00     0.289 C 
ATOM      2  N   UNL d   1      -3.917   1.026   0.384  0.00  0.00    -0.262 N 
ATOM      3  O   UNL d   1      -1.719   0.504   0.021  0.00  0.00    -0.264 OA
ATOM      4  H   UNL d   1      -4.681   1.693   0.281  0.00  0.00     0.190 HD
ENDROOT
BRANCH   1   5
ATOM      5  C   UNL d   1      -2.463   2.687  -0.519  0.00  0.00     0.143 A 
ATOM      6  C   UNL d   1      -1.289   3.312  -0.896  0.00  0.00     0.193 A 
ATOM      7  O   UNL d   1      -1.618   4.574  -1.337  0.00  0.00    -0.291 OA
ATOM      8  C   UNL d   1      -2.973   4.648  -1.207  0.00  0.00     0.121 A 
ATOM      9  N   UNL d   1      -3.530   3.563  -0.713  0.00  0.00    -0.334 N 
ATOM     10  C   UNL d   1      -3.591   5.914  -1.653  0.00  0.00     0.098 C 
ATOM     11  HN  UNL d   1      -4.518   3.400  -0.517  1.00  0.00     0.168 HD
BRANCH   6  12
ATOM     12  C   UNL d   1       0.145   2.967  -0.941  0.00  0.00     0.442 C 
ATOM     13  F   UNL d   1       0.450   1.738  -0.468  0.00  0.00    -0.164 F 
ATOM     14  F   UNL d   1       0.625   3.024  -2.213  0.00  0.00    -0.164 F 
ATOM     15  F   UNL d   1       0.885   3.849  -0.215  0.00  0.00    -0.164 F 
ENDBRANCH   6  12
ENDBRANCH   1   5
BRANCH   2  16
ATOM     16  N   UNL d   1      -4.236  -0.292   0.758  0.00  0.00    -0.263 N 
ATOM     17  C   UNL d   1      -5.549  -0.605   1.040  0.00  0.00     0.271 C 
ATOM     18  O   UNL d   1      -6.435   0.249   1.054  0.00  0.00    -0.266 OA
ATOM     19  H   UNL d   1      -3.481  -0.977   0.724  0.00  0.00     0.190 HD
BRANCH  17  20
ATOM     20  C   UNL d   1      -5.898  -2.047   1.236  0.00  0.00     0.055 A 
ATOM     21  C   UNL d   1      -5.036  -3.039   1.722  0.00  0.00     0.049 A 
ATOM     22 CL   UNL d   1      -3.449  -2.716   2.324  0.00  0.00    -0.083 Cl
ATOM     23  C   UNL d   1      -5.463  -4.377   1.778  0.00  0.00     0.025 A 
ATOM     24  C   UNL d   1      -6.751  -4.730   1.371  0.00  0.00     0.002 A 
ATOM     25  C   UNL d   1      -7.628  -3.747   0.930  0.00  0.00     0.001 A 
ATOM     26  C   UNL d   1      -7.207  -2.415   0.868  0.00  0.00     0.019 A 
ENDBRANCH  17  20
ENDBRANCH   2  16
TORSDOF 4
