REMARK  0 active torsions:
REMARK  status: ('A' for Active; 'I' for Inactive)
ROOT
ATOM      1  C   UNL d   1      -1.902   1.111   0.019  0.00  0.00     0.024 A 
ATOM      2  C   UNL d   1      -2.525   2.304   0.022  0.00  0.00    -0.057 A 
ATOM      3  C   UNL d   1      -2.634  -0.211   0.020  0.00  0.00     0.164 A 
ATOM      4  C   UNL d   1      -0.462   0.803   0.017  0.00  0.00    -0.015 A 
ATOM      5  C   UNL d   1      -0.301  -0.597   0.017  0.00  0.00    -0.040 A 
ATOM      6  C   UNL d   1      -1.614  -1.335   0.020  0.00  0.00     0.123 A 
ATOM      7  C   UNL d   1      -1.838   3.657   0.023  0.00  0.00     0.074 A 
ATOM      8  C   UNL d   1      -4.039   2.517   0.020  0.00  0.00     0.074 A 
ATOM      9  C   UNL d   1      -4.197   4.012   0.012  0.00  0.00    -0.048 A 
ATOM     10  C   UNL d   1      -2.954   4.650   0.015  0.00  0.00    -0.048 A 
ATOM     11  O   UNL d   1      -3.845  -0.360   0.021  0.00  0.00    -0.292 OA
ATOM     12  C   UNL d   1       0.660   1.622   0.013  0.00  0.00     0.013 A 
ATOM     13  C   UNL d   1       0.961  -1.181   0.014  0.00  0.00     0.008 A 
ATOM     14  C   UNL d   1      -5.369   4.750   0.004  0.00  0.00     0.008 A 
ATOM     15  C   UNL d   1      -2.850   6.032   0.010  0.00  0.00     0.008 A 
ATOM     16  C   UNL d   1       1.932   1.041   0.009  0.00  0.00     0.001 A 
ATOM     17  C   UNL d   1       2.081  -0.350   0.010  0.00  0.00     0.001 A 
ATOM     18  C   UNL d   1      -5.276   6.146  -0.003  0.00  0.00     0.001 A 
ATOM     19  C   UNL d   1      -4.026   6.782   0.000  0.00  0.00     0.001 A 
ENDROOT
TORSDOF 0
