REMARK  5 active torsions:
REMARK  status: ('A' for Active; 'I' for Inactive)
REMARK    1  A    between atoms: C_2  and  S_1 
REMARK    2  A    between atoms: C_9  and  S_1 
REMARK    3  A    between atoms: C_3  and  C_6 
REMARK    4  A    between atoms: C_4  and  C_7 
REMARK    5  A    between atoms: C_10  and  C_5 
ROOT
ATOM      1  C   UNL d   1       0.337   1.328  -1.000  0.00  0.00     0.140 C 
ATOM      2  C   UNL d   1      -0.446   1.057  -2.063  0.00  0.00     0.046 C 
ATOM      3  C   UNL d   1       0.847   0.328  -0.123  0.00  0.00     0.111 C 
ATOM      4  N   UNL d   1       1.201  -0.512   0.591  0.00  0.00    -0.191 NA
ENDROOT
BRANCH   1   5
ATOM      5  S   UNL d   1       0.804   2.990  -0.714  0.00  0.00     0.193 S 
ATOM      6  O   UNL d   1       0.626   3.747  -1.944  0.00  0.00    -0.221 OA
ATOM      7  O   UNL d   1       2.108   3.002  -0.074  0.00  0.00    -0.221 OA
BRANCH   5   8
ATOM      8  C   UNL d   1      -0.407   3.644   0.492  0.00  0.00     0.058 C 
ATOM      9  C   UNL d   1      -0.371   2.838   1.796  0.00  0.00     0.031 C 
ATOM     10  C   UNL d   1      -0.030   5.106   0.811  0.00  0.00     0.031 C 
ATOM     11  C   UNL d   1      -1.828   3.626  -0.091  0.00  0.00     0.031 C 
ENDBRANCH   5   8
ENDBRANCH   1   5
BRANCH   2  12
ATOM     12  C   UNL d   1      -0.918  -0.283  -2.427  0.00  0.00    -0.033 A 
ATOM     13  C   UNL d   1      -2.067  -0.810  -1.826  0.00  0.00     0.027 A 
ATOM     14  C   UNL d   1      -2.538  -2.087  -2.174  0.00  0.00     0.049 A 
ATOM     15  C   UNL d   1      -1.836  -2.831  -3.134  0.00  0.00     0.032 A 
ATOM     16  C   UNL d   1      -0.688  -2.313  -3.755  0.00  0.00     0.049 A 
ATOM     17  C   UNL d   1      -0.232  -1.036  -3.386  0.00  0.00     0.027 A 
BRANCH  14  18
ATOM     18  C   UNL d   1      -3.795  -2.630  -1.535  0.00  0.00     0.417 C 
ATOM     19  F   UNL d   1      -4.170  -3.845  -2.020  0.00  0.00    -0.166 F 
ATOM     20  F   UNL d   1      -3.674  -2.781  -0.189  0.00  0.00    -0.166 F 
ATOM     21  F   UNL d   1      -4.863  -1.806  -1.725  0.00  0.00    -0.166 F 
ENDBRANCH  14  18
BRANCH  16  22
ATOM     22  C   UNL d   1       0.036  -3.099  -4.824  0.00  0.00     0.417 C 
ATOM     23  F   UNL d   1      -0.574  -4.275  -5.138  0.00  0.00    -0.166 F 
ATOM     24  F   UNL d   1       0.131  -2.406  -5.992  0.00  0.00    -0.166 F 
ATOM     25  F   UNL d   1       1.310  -3.417  -4.469  0.00  0.00    -0.166 F 
ENDBRANCH  16  22
ENDBRANCH   2  12
TORSDOF 5
