REMARK  12 active torsions:
REMARK  status: ('A' for Active; 'I' for Inactive)
REMARK    1  A    between atoms: N_6  and  C_1 
REMARK       I    between atoms: C_8  and  N_2 
REMARK    2  A    between atoms: C_10  and  C_3 
REMARK    3  A    between atoms: C_9  and  N_6 
REMARK    4  A    between atoms: C_19  and  C_8 
REMARK    5  A    between atoms: N_14  and  C_9 
REMARK    6  A    between atoms: O_25  and  C_10 
REMARK    7  A    between atoms: C_16  and  C_11 
REMARK    8  A    between atoms: C_18  and  C_13 
REMARK    9  A    between atoms: C_26  and  N_14 
REMARK   10  A    between atoms: C_15  and  O_20 
REMARK   11  A    between atoms: O_20  and  C_19 
REMARK   12  A    between atoms: C_33  and  O_25 
ROOT
ATOM      1  C   UNL d   1      -0.292   0.962   2.099  0.00  0.00     0.150 C 
ATOM      2  N   UNL d   1       0.898   0.538   1.474  0.00  0.00    -0.205 N 
ATOM      3  C   UNL d   1      -1.176  -0.118   2.022  0.00  0.00     0.102 C 
ATOM      4  N   UNL d   1       0.870  -0.814   1.275  0.00  0.00    -0.300 N 
ATOM      5  HN  UNL d   1       1.640  -1.413   0.978  1.00  0.00     0.186 HD
ATOM      6  C   UNL d   1      -0.375  -1.178   1.549  0.00  0.00     0.129 C 
ATOM      7  C   UNL d   1       2.041   1.242   1.011  0.00  0.00     0.268 C 
ATOM      8  O   UNL d   1       3.082   0.629   0.784  0.00  0.00    -0.269 OA
ENDROOT
BRANCH   1   9
ATOM      9  N   UNL d   1      -0.432   2.194   2.752  0.00  0.00    -0.317 N 
ATOM     10  H   UNL d   1       0.405   2.647   3.091  0.00  0.00     0.170 HD
BRANCH   9  11
ATOM     11  C   UNL d   1      -1.452   3.079   2.523  0.00  0.00     0.173 C 
ATOM     12  S   UNL d   1      -2.543   3.062   1.252  0.00  0.00    -0.041 SA
BRANCH  11  13
ATOM     13  N   UNL d   1      -1.490   4.177   3.337  0.00  0.00    -0.362 N 
ATOM     14  H   UNL d   1      -2.291   4.732   3.047  0.00  0.00     0.162 HD
BRANCH  13  15
ATOM     15  C   UNL d   1      -1.224   4.320   4.786  0.00  0.00     0.083 C 
ATOM     16  C   UNL d   1      -1.683   5.730   5.219  0.00  0.00     0.025 C 
ATOM     17  C   UNL d   1      -0.745   6.832   4.713  0.00  0.00     0.002 C 
ATOM     18  C   UNL d   1       0.700   6.593   5.138  0.00  0.00     0.000 C 
ATOM     19  C   UNL d   1       1.177   5.196   4.748  0.00  0.00     0.002 C 
ATOM     20  C   UNL d   1       0.224   4.121   5.265  0.00  0.00     0.025 C 
ENDBRANCH  13  15
ENDBRANCH  11  13
ENDBRANCH   9  11
ENDBRANCH   1   9
BRANCH   7  21
ATOM     21  C   UNL d   1       1.902   2.742   0.848  0.00  0.00     0.280 C 
BRANCH  21  22
ATOM     22  O   UNL d   1       2.477   3.194  -0.387  0.00  0.00    -0.341 OA
BRANCH  22  23
ATOM     23  C   UNL d   1       3.143   4.394  -0.373  0.00  0.00     0.076 A 
ATOM     24  C   UNL d   1       4.132   4.658  -1.345  0.00  0.00    -0.017 A 
ATOM     25  C   UNL d   1       4.900   5.841  -1.166  0.00  0.00     0.018 A 
ATOM     26  C   UNL d   1       4.706   6.764  -0.120  0.00  0.00    -0.050 A 
ATOM     27  C   UNL d   1       3.649   6.508   0.752  0.00  0.00     0.011 A 
ATOM     28  C   UNL d   1       2.868   5.360   0.609  0.00  0.00     0.038 A 
BRANCH  24  29
ATOM     29  C   UNL d   1       4.474   3.794  -2.588  0.00  0.00    -0.021 C 
ATOM     30  C   UNL d   1       3.687   2.476  -2.718  0.00  0.00     0.019 C 
ATOM     31  C   UNL d   1       4.199   4.623  -3.873  0.00  0.00     0.019 C 
ATOM     32  C   UNL d   1       5.977   3.409  -2.603  0.00  0.00     0.019 C 
ENDBRANCH  24  29
BRANCH  26  33
ATOM     33  C   UNL d   1       5.682   7.933   0.093  0.00  0.00    -0.024 C 
ATOM     34  C   UNL d   1       6.890   7.383   0.879  0.00  0.00     0.019 C 
ATOM     35  C   UNL d   1       6.184   8.534  -1.241  0.00  0.00     0.019 C 
ATOM     36  C   UNL d   1       5.077   9.106   0.897  0.00  0.00     0.019 C 
ENDBRANCH  26  33
ENDBRANCH  22  23
ENDBRANCH  21  22
ENDBRANCH   7  21
BRANCH   3  37
ATOM     37  C   UNL d   1      -2.548  -0.237   2.509  0.00  0.00     0.298 C 
ATOM     38  O   UNL d   1      -2.989   0.413   3.440  0.00  0.00    -0.259 OA
BRANCH  37  39
ATOM     39  O   UNL d   1      -3.261  -1.196   1.839  0.00  0.00    -0.318 OA
BRANCH  39  40
ATOM     40  C   UNL d   1      -4.586  -1.451   2.347  0.00  0.00     0.174 C 
ATOM     41  C   UNL d   1      -5.609  -0.459   1.813  0.00  0.00     0.034 C 
ENDBRANCH  39  40
ENDBRANCH  37  39
ENDBRANCH   3  37
TORSDOF 12
