REMARK  6 active torsions:
REMARK  status: ('A' for Active; 'I' for Inactive)
REMARK    1  A    between atoms: C_2  and  N_1 
REMARK    2  A    between atoms: C_12  and  C_8 
REMARK    3  A    between atoms: C_17  and  C_11 
REMARK    4  A    between atoms: C_14  and  C_12 
REMARK    5  A    between atoms: O_19  and  C_14 
REMARK    6  A    between atoms: C_22  and  O_19 
ROOT
ATOM      1  N   UNL d   1      -0.045  -0.990  -0.018  0.00  0.00    -0.231 N 
ATOM      2  C   UNL d   1       1.201  -0.384  -0.189  0.00  0.00     0.233 C 
ATOM      3  C   UNL d   1      -1.263  -0.353   0.204  0.00  0.00     0.233 C 
ATOM      4  C   UNL d   1      -1.186   1.115   0.538  0.00  0.00     0.113 C 
ATOM      5  C   UNL d   1       1.258   1.088   0.153  0.00  0.00     0.113 C 
ATOM      6  C   UNL d   1      -0.041   1.795  -0.198  0.00  0.00     0.036 C 
ATOM      7  O   UNL d   1      -2.369  -0.897   0.163  0.00  0.00    -0.273 OA
ATOM      8  O   UNL d   1       2.250  -0.964  -0.474  0.00  0.00    -0.273 OA
ENDROOT
BRANCH   1   9
ATOM      9  C   UNL d   1      -0.104  -2.341  -0.315  0.00  0.00     0.160 A 
ATOM     10  N   UNL d   1       0.262  -2.917  -1.435  0.00  0.00    -0.339 N 
ATOM     11  C   UNL d   1       0.081  -4.292  -1.338  0.00  0.00     0.027 A 
ATOM     12  HN  UNL d   1       0.623  -2.429  -2.255  1.00  0.00     0.168 HD
ATOM     13  C   UNL d   1      -0.354  -4.730  -0.099  0.00  0.00     0.078 A 
ATOM     14  S   UNL d   1      -0.609  -3.395   0.943  0.00  0.00    -0.063 SA
BRANCH  11  15
ATOM     15  C   UNL d   1       0.347  -5.136  -2.539  0.00  0.00     0.168 C 
BRANCH  15  16
ATOM     16  C   UNL d   1       1.682  -5.832  -2.449  0.00  0.00     0.264 C 
ATOM     17  O   UNL d   1       2.174  -6.294  -1.427  0.00  0.00    -0.265 OA
BRANCH  16  18
ATOM     18  O   UNL d   1       2.240  -5.915  -3.691  0.00  0.00    -0.322 OA
BRANCH  18  19
ATOM     19  C   UNL d   1       3.594  -6.388  -3.733  0.00  0.00     0.174 C 
ATOM     20  C   UNL d   1       4.531  -5.203  -3.590  0.00  0.00     0.034 C 
ENDBRANCH  18  19
ENDBRANCH  16  18
ENDBRANCH  15  16
ENDBRANCH  11  15
ENDBRANCH   1   9
BRANCH   6  21
ATOM     21  C   UNL d   1       0.036   3.277   0.126  0.00  0.00    -0.053 A 
ATOM     22  C   UNL d   1       0.154   3.738   1.447  0.00  0.00     0.007 A 
ATOM     23  C   UNL d   1       0.223   5.104   1.724  0.00  0.00     0.001 A 
ATOM     24  C   UNL d   1       0.182   6.029   0.684  0.00  0.00     0.000 A 
ATOM     25  C   UNL d   1       0.073   5.588  -0.633  0.00  0.00     0.001 A 
ATOM     26  C   UNL d   1       0.001   4.221  -0.911  0.00  0.00     0.007 A 
ENDBRANCH   6  21
TORSDOF 6
