REMARK  5 active torsions:
REMARK  status: ('A' for Active; 'I' for Inactive)
REMARK    1  A    between atoms: C_9  and  C_1 
REMARK    2  A    between atoms: N_16  and  C_3 
REMARK    3  A    between atoms: C_12  and  C_6 
REMARK       I    between atoms: N_21  and  C_9 
REMARK    4  A    between atoms: C_13  and  C_10 
REMARK    5  A    between atoms: N_25  and  N_21 
ROOT
ATOM      1  C   UNL d   1       2.384   0.140  -0.037  0.00  0.00     0.173 A 
ATOM      2  C   UNL d   1       0.262   0.931  -0.008  0.00  0.00     0.058 A 
ATOM      3  C   UNL d   1       1.636   1.300  -0.058  0.00  0.00     0.081 A 
ATOM      4  C   UNL d   1       0.261  -0.465  -0.024  0.00  0.00     0.162 A 
ATOM      5  O   UNL d   1       1.540  -0.940  -0.015  0.00  0.00    -0.285 OA
ATOM      6  C   UNL d   1      -0.999   1.560   0.022  0.00  0.00     0.017 A 
ATOM      7  N   UNL d   1      -0.804  -1.287  -0.051  0.00  0.00    -0.335 N 
ATOM      8  HN  UNL d   1      -0.721  -2.304  -0.047  1.00  0.00     0.168 HD
ATOM      9  C   UNL d   1      -1.994  -0.645  -0.083  0.00  0.00     0.052 A 
ATOM     10  C   UNL d   1      -2.132   0.740  -0.028  0.00  0.00     0.046 A 
ENDROOT
BRANCH   1  11
ATOM     11  C   UNL d   1       3.815  -0.079  -0.048  0.00  0.00     0.291 C 
ATOM     12  O   UNL d   1       4.656   0.820  -0.095  0.00  0.00    -0.264 OA
ATOM     13  N   UNL d   1       4.186  -1.422   0.003  0.00  0.00    -0.288 N 
ATOM     14  H   UNL d   1       3.457  -2.123   0.141  0.00  0.00     0.183 HD
BRANCH  13  15
ATOM     15  N   UNL d   1       5.549  -1.792   0.071  0.00  0.00    -0.247 NA
ATOM     16  H   UNL d   1       6.093  -0.920   0.148  0.00  0.00     0.143 HD
ATOM     17  H   UNL d   1       5.816  -2.174  -0.840  0.00  0.00     0.143 HD
ENDBRANCH  13  15
ENDBRANCH   1  11
BRANCH   3  18
ATOM     18  N   UNL d   1       2.131   2.551  -0.130  0.00  0.00    -0.396 N 
ATOM     19  H   UNL d   1       1.537   3.354   0.070  0.00  0.00     0.156 HD
ATOM     20  H   UNL d   1       3.128   2.735  -0.002  0.00  0.00     0.156 HD
ENDBRANCH   3  18
BRANCH   6  21
ATOM     21  C   UNL d   1      -1.138   3.004   0.099  0.00  0.00     0.086 A 
ATOM     22  O   UNL d   1      -0.216   3.675   0.852  0.00  0.00    -0.322 OA
ATOM     23  C   UNL d   1      -0.553   4.989   0.833  0.00  0.00     0.142 A 
ATOM     24  C   UNL d   1      -1.688   5.182   0.084  0.00  0.00     0.027 A 
ATOM     25  C   UNL d   1      -2.074   3.901  -0.381  0.00  0.00     0.040 A 
ENDBRANCH   6  21
BRANCH   9  26
ATOM     26  C   UNL d   1      -3.165  -1.540  -0.165  0.00  0.00     0.031 A 
ATOM     27  S   UNL d   1      -4.628  -1.019  -0.915  0.00  0.00    -0.100 SA
ATOM     28  C   UNL d   1      -5.414  -2.500  -0.603  0.00  0.00     0.050 A 
ATOM     29  C   UNL d   1      -4.587  -3.396   0.031  0.00  0.00     0.008 A 
ATOM     30  C   UNL d   1      -3.291  -2.850   0.270  0.00  0.00     0.021 A 
ENDBRANCH   9  26
TORSDOF 5
