REMARK  3 active torsions:
REMARK  status: ('A' for Active; 'I' for Inactive)
REMARK    1  A    between atoms: N_4  and  S_1 
REMARK    2  A    between atoms: C_11  and  S_1 
REMARK    3  A    between atoms: C_2  and  N_5 
ROOT
ATOM      1  N   UNL d   1       0.525  -1.196  -0.428  0.00  0.00    -0.304 N 
ATOM      2  N   UNL d   1      -0.855  -3.074   1.212  0.00  0.00    -0.363 N 
ATOM      3  C   UNL d   1      -0.955  -1.176  -0.445  0.00  0.00     0.155 C 
ATOM      4  C   UNL d   1       1.040  -2.581  -0.353  0.00  0.00     0.155 C 
ATOM      5  C   UNL d   1      -1.558  -1.862   0.797  0.00  0.00     0.145 C 
ATOM      6  C   UNL d   1       0.555  -3.325   0.892  0.00  0.00     0.145 C 
ENDROOT
BRANCH   2   7
ATOM      7  C   UNL d   1      -1.527  -4.039   1.938  0.00  0.00     0.117 A 
ATOM      8  C   UNL d   1      -2.382  -3.786   3.039  0.00  0.00     0.042 A 
ATOM      9  C   UNL d   1      -3.051  -4.886   3.562  0.00  0.00     0.088 A 
ATOM     10  C   UNL d   1      -2.702  -2.611   3.808  0.00  0.00     0.025 A 
ATOM     11  S   UNL d   1      -4.079  -4.491   4.864  0.00  0.00    -0.083 SA
ATOM     12  N   UNL d   1      -2.957  -6.156   3.138  0.00  0.00    -0.346 N 
ATOM     13  C   UNL d   1      -3.608  -2.852   4.818  0.00  0.00     0.053 A 
ATOM     14  C   UNL d   1      -2.088  -6.290   2.136  0.00  0.00     0.182 A 
ATOM     15  HN  UNL d   1      -3.489  -6.930   3.537  1.00  0.00     0.167 HD
ATOM     16  N   UNL d   1      -1.375  -5.324   1.538  0.00  0.00    -0.338 N 
ATOM     17  HN  UNL d   1      -0.724  -5.556   0.788  1.00  0.00     0.168 HD
ENDBRANCH   2   7
BRANCH   1  18
ATOM     18  S   UNL d   1       1.380   0.082   0.259  0.00  0.00     0.260 S 
ATOM     19  O   UNL d   1       0.960   1.290  -0.418  0.00  0.00    -0.200 OA
ATOM     20  O   UNL d   1       2.779  -0.287   0.332  0.00  0.00    -0.200 OA
BRANCH  18  21
ATOM     21  C   UNL d   1       0.780   0.213   1.933  0.00  0.00     0.079 A 
ATOM     22  C   UNL d   1       1.357  -0.544   2.957  0.00  0.00     0.027 A 
ATOM     23  C   UNL d   1       0.850  -0.447   4.256  0.00  0.00     0.025 A 
ATOM     24  C   UNL d   1      -0.200   0.433   4.531  0.00  0.00     0.034 A 
ATOM     25  C   UNL d   1      -0.736   1.233   3.524  0.00  0.00     0.025 A 
ATOM     26 CL   UNL d   1      -0.849   0.519   6.121  0.00  0.00    -0.084 Cl
ATOM     27  C   UNL d   1      -0.240   1.135   2.224  0.00  0.00     0.027 A 
ENDBRANCH  18  21
ENDBRANCH   1  18
TORSDOF 3
