REMARK  4 active torsions:
REMARK  status: ('A' for Active; 'I' for Inactive)
REMARK    1  A    between atoms: C_4  and  C_1 
REMARK    2  A    between atoms: C_6  and  N_2 
REMARK    3  A    between atoms: O_7  and  C_5 
REMARK    4  A    between atoms: C_8  and  C_6 
ROOT
ATOM      1  N   UNL d   1       0.474   3.625   0.008  0.00  0.00    -0.388 N 
ATOM      2  HN  UNL d   1       1.080   4.446   0.015  1.00  0.00     0.159 HD
ATOM      3  C   UNL d   1       0.970   2.423   0.012  0.00  0.00     0.014 C 
ATOM      4  C   UNL d   1       0.133   1.152  -0.002  0.00  0.00     0.068 C 
ENDROOT
BRANCH   3   5
ATOM      5  C   UNL d   1       2.470   2.250   0.039  0.00  0.00     0.019 A 
ATOM      6  C   UNL d   1       3.339   3.351   0.049  0.00  0.00     0.077 A 
ATOM      7  C   UNL d   1       4.724   3.172   0.095  0.00  0.00     0.037 A 
ATOM      8  C   UNL d   1       5.266   1.887   0.123  0.00  0.00     0.003 A 
ATOM      9  C   UNL d   1       4.421   0.782   0.105  0.00  0.00     0.001 A 
ATOM     10  C   UNL d   1       3.035   0.962   0.064  0.00  0.00     0.016 A 
BRANCH   6  11
ATOM     11  O   UNL d   1       2.902   4.649   0.017  0.00  0.00    -0.360 OA
ATOM     12  H   UNL d   1       1.917   4.620  -0.027  0.00  0.00     0.217 HD
ENDBRANCH   6  11
ENDBRANCH   3   5
BRANCH   1  13
ATOM     13  C   UNL d   1      -0.989   3.759  -0.008  0.00  0.00     0.158 C 
BRANCH  13  14
ATOM     14  C   UNL d   1      -1.455   5.194  -0.025  0.00  0.00    -0.041 A 
ATOM     15  C   UNL d   1      -2.277   5.660  -1.062  0.00  0.00     0.009 A 
ATOM     16  C   UNL d   1      -2.764   6.968  -1.051  0.00  0.00     0.001 A 
ATOM     17  C   UNL d   1      -2.437   7.822  -0.001  0.00  0.00     0.000 A 
ATOM     18  C   UNL d   1      -1.624   7.370   1.038  0.00  0.00     0.001 A 
ATOM     19  C   UNL d   1      -1.135   6.062   1.027  0.00  0.00     0.009 A 
ENDBRANCH  13  14
ENDBRANCH   1  13
TORSDOF 4
