REMARK  5 active torsions:
REMARK  status: ('A' for Active; 'I' for Inactive)
REMARK    1  A    between atoms: C_12  and  N_1 
REMARK    2  A    between atoms: S_7  and  C_2 
REMARK    3  A    between atoms: C_18  and  S_7 
REMARK    4  A    between atoms: C_11  and  C_18 
REMARK       I    between atoms: N_13  and  C_11 
REMARK    5  A    between atoms: C_14  and  N_13 
ROOT
ATOM      1  N   UNL d   1       9.668  -5.074  -1.670  0.00  0.00    -0.191 NA
ATOM      2  C   UNL d   1       8.835  -5.299  -0.896  0.00  0.00     0.100 C 
ATOM      3  C   UNL d   1       7.811  -5.592   0.072  0.00  0.00     0.052 A 
ATOM      4  C   UNL d   1       5.597  -5.083   0.948  0.00  0.00     0.036 A 
ATOM      5  C   UNL d   1       6.650  -4.808   0.071  0.00  0.00     0.052 A 
ATOM      6  C   UNL d   1       7.942  -6.653   0.983  0.00  0.00    -0.041 A 
ATOM      7  C   UNL d   1       6.927  -6.865   1.925  0.00  0.00     0.010 A 
ATOM      8  C   UNL d   1       5.769  -6.076   1.914  0.00  0.00     0.030 A 
ATOM      9  C   UNL d   1       9.119  -7.588   0.924  0.00  0.00     0.049 C 
ENDROOT
BRANCH   4  10
ATOM     10  N   UNL d   1       4.342  -4.430   0.881  0.00  0.00    -0.326 N 
ATOM     11  C   UNL d   1       3.857  -3.764  -0.242  0.00  0.00     0.231 C 
ATOM     12  O   UNL d   1       4.468  -3.653  -1.303  0.00  0.00    -0.272 OA
ATOM     13  H   UNL d   1       3.680  -4.646   1.616  0.00  0.00     0.169 HD
BRANCH  11  14
ATOM     14  C   UNL d   1       2.429  -3.248  -0.079  0.00  0.00     0.185 C 
BRANCH  14  15
ATOM     15  S   UNL d   1       2.216  -1.754  -1.078  0.00  0.00    -0.082 SA
BRANCH  15  16
ATOM     16  C   UNL d   1       0.542  -1.379  -0.861  0.00  0.00     0.177 C 
ATOM     17  N   UNL d   1      -0.105  -0.324  -1.489  0.00  0.00    -0.219 N 
ATOM     18  N   UNL d   1      -1.253  -0.091  -0.805  0.00  0.00     0.001 NA
ATOM     19  N   UNL d   1      -1.352  -1.070   0.088  0.00  0.00    -0.006 NA
ATOM     20  N   UNL d   1      -0.237  -1.869   0.076  0.00  0.00    -0.264 N 
ATOM     21  HN  UNL d   1      -0.053  -2.677   0.671  1.00  0.00     0.186 HD
BRANCH  17  22
ATOM     22  C   UNL d   1       0.289   0.481  -2.586  0.00  0.00     0.056 A 
ATOM     23  C   UNL d   1       1.086  -0.045  -3.611  0.00  0.00     0.031 A 
ATOM     24  C   UNL d   1       1.587   0.793  -4.608  0.00  0.00     0.002 A 
ATOM     25  C   UNL d   1       1.285   2.152  -4.590  0.00  0.00     0.000 A 
ATOM     26  C   UNL d   1       0.435   2.666  -3.610  0.00  0.00     0.002 A 
ATOM     27  C   UNL d   1      -0.086   1.830  -2.619  0.00  0.00     0.031 A 
ENDBRANCH  17  22
ENDBRANCH  15  16
ENDBRANCH  14  15
ENDBRANCH  11  14
ENDBRANCH   4  10
TORSDOF 5
