REMARK  5 active torsions:
REMARK  status: ('A' for Active; 'I' for Inactive)
REMARK    1  A    between atoms: C_5  and  C_1 
REMARK    2  A    between atoms: C_6  and  C_2 
REMARK    3  A    between atoms: O_12  and  C_5 
REMARK    4  A    between atoms: O_13  and  C_6 
REMARK    5  A    between atoms: O_14  and  N_8 
ROOT
ATOM      1  C   UNL d   1      -0.050   1.331  -0.284  0.00  0.00     0.157 C 
ATOM      2  C   UNL d   1       0.482   0.792  -1.609  0.00  0.00     0.166 C 
ATOM      3  S   UNL d   1      -0.144  -0.912  -1.862  0.00  0.00    -0.147 SA
ATOM      4  C   UNL d   1      -1.127   0.392   0.191  0.00  0.00     0.034 C 
ATOM      5  C   UNL d   1      -0.945  -1.037  -0.249  0.00  0.00     0.130 C 
ATOM      6  N   UNL d   1      -2.061   0.821   0.985  0.00  0.00    -0.276 N 
ATOM      7  HN  UNL d   1      -2.142   1.784   1.312  1.00  0.00     0.193 HD
ENDROOT
BRANCH   1   8
ATOM      8  C   UNL d   1      -0.528   2.739  -0.502  0.00  0.00     0.269 C 
ATOM      9  O   UNL d   1      -1.429   3.060  -1.261  0.00  0.00    -0.264 OA
BRANCH   8  10
ATOM     10  O   UNL d   1       0.234   3.611   0.220  0.00  0.00    -0.326 OA
ATOM     11  C   UNL d   1      -0.149   4.981   0.085  0.00  0.00     0.213 C 
ENDBRANCH   8  10
ENDBRANCH   1   8
BRANCH   2  12
ATOM     12  C   UNL d   1       1.998   0.747  -1.565  0.00  0.00     0.273 C 
ATOM     13  O   UNL d   1       2.657   0.122  -0.744  0.00  0.00    -0.264 OA
BRANCH  12  14
ATOM     14  O   UNL d   1       2.520   1.518  -2.562  0.00  0.00    -0.326 OA
ATOM     15  C   UNL d   1       3.945   1.480  -2.649  0.00  0.00     0.213 C 
ENDBRANCH  12  14
ENDBRANCH   2  12
BRANCH   6  16
ATOM     16  O   UNL d   1      -2.942  -0.206   1.333  0.00  0.00    -0.290 OA
ATOM     17  H   UNL d   1      -3.671   0.276   1.767  0.00  0.00     0.244 HD
ENDBRANCH   6  16
TORSDOF 5
