REMARK  5 active torsions:
REMARK  status: ('A' for Active; 'I' for Inactive)
REMARK    1  A    between atoms: C_2  and  S_1 
REMARK    2  A    between atoms: N_5  and  S_1 
REMARK    3  A    between atoms: C_9  and  N_5 
REMARK    4  A    between atoms: N_6  and  C_13 
REMARK    5  A    between atoms: C_13  and  C_9 
ROOT
ATOM      1  S   UNL d   1       3.088   1.748   0.003  0.00  0.00     0.258 S 
ATOM      2  O   UNL d   1       2.755   2.169   1.345  0.00  0.00    -0.201 OA
ATOM      3  O   UNL d   1       4.371   2.047  -0.589  0.00  0.00    -0.201 OA
ENDROOT
BRANCH   1   4
ATOM      4  C   UNL d   1       1.830   2.391  -1.075  0.00  0.00     0.079 A 
ATOM      5  C   UNL d   1       0.657   2.915  -0.516  0.00  0.00     0.027 A 
ATOM      6  C   UNL d   1      -0.306   3.487  -1.350  0.00  0.00     0.025 A 
ATOM      7  C   UNL d   1      -0.090   3.535  -2.728  0.00  0.00     0.034 A 
ATOM      8  C   UNL d   1       1.084   3.024  -3.280  0.00  0.00     0.025 A 
ATOM      9 CL   UNL d   1      -1.277   4.246  -3.748  0.00  0.00    -0.084 Cl
ATOM     10  C   UNL d   1       2.057   2.458  -2.453  0.00  0.00     0.027 A 
ENDBRANCH   1   4
BRANCH   1  11
ATOM     11  N   UNL d   1       2.800   0.084  -0.043  0.00  0.00    -0.314 N 
ATOM     12  H   UNL d   1       1.868  -0.141   0.307  0.00  0.00     0.172 HD
BRANCH  11  13
ATOM     13  C   UNL d   1       3.247  -0.725  -1.194  0.00  0.00     0.162 C 
BRANCH  13  14
ATOM     14  C   UNL d   1       4.767  -0.980  -1.140  0.00  0.00     0.292 C 
BRANCH  14  15
ATOM     15  N   UNL d   1       5.295  -1.815  -2.239  0.00  0.00     0.090 N 
ATOM     16  C   UNL d   1       4.864  -3.220  -2.171  0.00  0.00     0.272 C 
ATOM     17  C   UNL d   1       5.821  -3.877  -1.197  0.00  0.00     0.032 C 
ATOM     18  C   UNL d   1       7.144  -3.213  -1.524  0.00  0.00     0.032 C 
ATOM     19  C   UNL d   1       6.773  -1.872  -2.152  0.00  0.00     0.272 C 
ENDBRANCH  14  15
ENDBRANCH  13  14
ENDBRANCH  11  13
ENDBRANCH   1  11
TORSDOF 5
