REMARK  4 active torsions:
REMARK  status: ('A' for Active; 'I' for Inactive)
REMARK    1  A    between atoms: C_7  and  C_2 
REMARK    2  A    between atoms: C_8  and  N_3 
REMARK    3  A    between atoms: O_11  and  C_7 
REMARK    4  A    between atoms: C_14  and  O_11 
ROOT
ATOM      1  C   UNL d   1       1.050  -0.839  -0.057  0.00  0.00     0.139 C 
ATOM      2  C   UNL d   1      -0.266  -1.259  -0.001  0.00  0.00     0.101 C 
ATOM      3  N   UNL d   1       1.033   0.546   0.153  0.00  0.00    -0.240 N 
ATOM      4  N   UNL d   1      -0.211   0.967   0.519  0.00  0.00    -0.302 N 
ATOM      5  HN  UNL d   1      -0.486   1.892   0.849  1.00  0.00     0.186 HD
ATOM      6  C   UNL d   1      -0.987  -0.103   0.348  0.00  0.00     0.129 C 
ATOM      7  N   UNL d   1       2.175  -1.586  -0.239  0.00  0.00    -0.383 N 
ATOM      8  H   UNL d   1       2.073  -2.606  -0.226  0.00  0.00     0.157 HD
ATOM      9  H   UNL d   1       3.050  -1.292   0.193  0.00  0.00     0.157 HD
ENDROOT
BRANCH   3  10
ATOM     10  C   UNL d   1       2.096   1.487   0.031  0.00  0.00     0.058 A 
ATOM     11  C   UNL d   1       3.219   1.218  -0.764  0.00  0.00     0.031 A 
ATOM     12  C   UNL d   1       4.258   2.146  -0.847  0.00  0.00     0.002 A 
ATOM     13  C   UNL d   1       4.181   3.347  -0.144  0.00  0.00     0.000 A 
ATOM     14  C   UNL d   1       3.053   3.636   0.622  0.00  0.00     0.002 A 
ATOM     15  C   UNL d   1       2.005   2.716   0.699  0.00  0.00     0.031 A 
ENDBRANCH   3  10
BRANCH   2  16
ATOM     16  C   UNL d   1      -0.754  -2.603  -0.227  0.00  0.00     0.298 C 
ATOM     17  O   UNL d   1      -0.021  -3.561  -0.444  0.00  0.00    -0.259 OA
BRANCH  16  18
ATOM     18  O   UNL d   1      -2.118  -2.664  -0.212  0.00  0.00    -0.318 OA
BRANCH  18  19
ATOM     19  C   UNL d   1      -2.682  -3.906  -0.656  0.00  0.00     0.174 C 
ATOM     20  C   UNL d   1      -2.859  -3.851  -2.162  0.00  0.00     0.034 C 
ENDBRANCH  18  19
ENDBRANCH  16  18
ENDBRANCH   2  16
TORSDOF 4
