REMARK  6 active torsions:
REMARK  status: ('A' for Active; 'I' for Inactive)
REMARK    1  A    between atoms: N_3  and  S_1 
REMARK    2  A    between atoms: C_6  and  S_1 
REMARK    3  A    between atoms: S_2  and  N_5 
REMARK    4  A    between atoms: C_11  and  S_2 
REMARK    5  A    between atoms: C_4  and  N_3 
REMARK    6  A    between atoms: N_5  and  C_16 
ROOT
ATOM      1  C   UNL d   1       0.330   1.306  -1.155  0.00  0.00     0.075 A 
ATOM      2  C   UNL d   1      -0.708   1.129  -2.075  0.00  0.00     0.027 A 
ATOM      3  C   UNL d   1       0.906   2.568  -0.965  0.00  0.00     0.027 A 
ATOM      4  C   UNL d   1      -0.516   3.453  -2.709  0.00  0.00     0.042 A 
ATOM      5  C   UNL d   1       0.477   3.645  -1.748  0.00  0.00     0.031 A 
ATOM      6  C   UNL d   1      -1.117   2.203  -2.865  0.00  0.00     0.031 A 
ENDROOT
BRANCH   1   7
ATOM      7  S   UNL d   1       0.902  -0.089  -0.208  0.00  0.00     0.245 S 
ATOM      8  O   UNL d   1       1.494   0.438   1.006  0.00  0.00    -0.206 OA
ATOM      9  O   UNL d   1      -0.162  -1.066  -0.169  0.00  0.00    -0.206 OA
BRANCH   7  10
ATOM     10  N   UNL d   1       2.201  -0.633  -1.163  0.00  0.00    -0.180 NA
ATOM     11  H   UNL d   1       3.064  -0.455  -0.647  0.00  0.00     0.146 HD
BRANCH  10  12
ATOM     12  C   UNL d   1       2.118  -1.971  -1.682  0.00  0.00     0.034 A 
ATOM     13  C   UNL d   1       1.594  -2.188  -2.971  0.00  0.00    -0.039 A 
ATOM     14  C   UNL d   1       1.498  -3.502  -3.460  0.00  0.00     0.008 A 
ATOM     15  C   UNL d   1       1.135  -1.086  -3.884  0.00  0.00     0.050 C 
ATOM     16  C   UNL d   1       1.942  -4.580  -2.703  0.00  0.00     0.001 A 
ATOM     17  C   UNL d   1       2.470  -4.361  -1.435  0.00  0.00     0.008 A 
ATOM     18  C   UNL d   1       2.544  -3.064  -0.897  0.00  0.00    -0.039 A 
ATOM     19  C   UNL d   1       3.146  -2.921   0.475  0.00  0.00     0.050 C 
ENDBRANCH  10  12
ENDBRANCH   7  10
ENDBRANCH   1   7
BRANCH   4  20
ATOM     20  N   UNL d   1      -0.948   4.518  -3.538  0.00  0.00    -0.281 N 
ATOM     21  H   UNL d   1      -1.390   5.326  -3.104  0.00  0.00     0.179 HD
BRANCH  20  22
ATOM     22  S   UNL d   1      -0.026   4.930  -4.890  0.00  0.00     0.263 S 
ATOM     23  O   UNL d   1      -0.611   6.143  -5.420  0.00  0.00    -0.200 OA
ATOM     24  O   UNL d   1       1.377   4.867  -4.540  0.00  0.00    -0.200 OA
BRANCH  22  25
ATOM     25  C   UNL d   1      -0.392   3.630  -6.042  0.00  0.00     0.079 A 
ATOM     26  C   UNL d   1      -1.718   3.416  -6.433  0.00  0.00     0.025 A 
ATOM     27  C   UNL d   1      -2.011   2.393  -7.334  0.00  0.00     0.002 A 
ATOM     28  C   UNL d   1      -0.984   1.601  -7.850  0.00  0.00     0.000 A 
ATOM     29  C   UNL d   1       0.340   1.826  -7.466  0.00  0.00     0.002 A 
ATOM     30  C   UNL d   1       0.641   2.842  -6.558  0.00  0.00     0.025 A 
ENDBRANCH  22  25
ENDBRANCH  20  22
ENDBRANCH   4  20
TORSDOF 6
