REMARK  5 active torsions:
REMARK  status: ('A' for Active; 'I' for Inactive)
REMARK    1  A    between atoms: C_11  and  C_3 
REMARK       I    between atoms: C_4  and  N_12 
REMARK    2  A    between atoms: C_5  and  C_4 
REMARK    3  A    between atoms: C_6  and  C_7 
REMARK    4  A    between atoms: O_18  and  C_6 
REMARK    5  A    between atoms: N_12  and  C_17 
ROOT
ATOM      1  C   UNL d   1      -0.985  -3.768  -4.929  0.00  0.00    -0.001 A 
ATOM      2  C   UNL d   1      -0.420  -4.152  -3.708  0.00  0.00     0.016 A 
ATOM      3  C   UNL d   1      -0.794  -4.607  -6.036  0.00  0.00     0.016 A 
ATOM      4  C   UNL d   1       0.565  -6.131  -4.724  0.00  0.00     0.035 A 
ATOM      5  C   UNL d   1       0.333  -5.326  -3.603  0.00  0.00     0.030 A 
ATOM      6  C   UNL d   1      -0.019  -5.774  -5.938  0.00  0.00     0.030 A 
ENDROOT
BRANCH   4   7
ATOM      7  N   UNL d   1       1.396  -7.256  -4.539  0.00  0.00    -0.324 N 
ATOM      8  C   UNL d   1       1.981  -8.045  -5.517  0.00  0.00     0.245 C 
ATOM      9  O   UNL d   1       1.875  -7.908  -6.726  0.00  0.00    -0.268 OA
ATOM     10  H   UNL d   1       1.663  -7.432  -3.580  0.00  0.00     0.169 HD
BRANCH   8  11
ATOM     11  C   UNL d   1       2.889  -9.060  -4.905  0.00  0.00     0.081 C 
ATOM     12  C   UNL d   1       3.488 -10.089  -5.521  0.00  0.00     0.086 C 
BRANCH  12  13
ATOM     13  C   UNL d   1       3.337 -10.520  -6.913  0.00  0.00     0.165 C 
ATOM     14  O   UNL d   1       4.250 -10.930  -7.602  0.00  0.00    -0.647 OA
BRANCH  13  15
ATOM     15  O   UNL d   1       2.057 -10.585  -7.299  0.00  0.00    -0.773 OA
ATOM     16  H   UNL d   1       2.108 -10.839  -8.243  0.00  0.00     0.167 HD
ENDBRANCH  13  15
ENDBRANCH  12  13
ENDBRANCH   8  11
ENDBRANCH   4   7
BRANCH   1  17
ATOM     17  C   UNL d   1      -1.724  -2.520  -5.029  0.00  0.00     0.102 A 
ATOM     18  C   UNL d   1      -1.799  -1.362  -4.283  0.00  0.00     0.127 A 
ATOM     19  N   UNL d   1      -2.689  -0.486  -4.844  0.00  0.00    -0.354 N 
ATOM     20  C   UNL d   1      -3.117  -1.130  -5.905  0.00  0.00     0.233 A 
ATOM     21  HN  UNL d   1      -2.955   0.442  -4.517  1.00  0.00     0.166 HD
ATOM     22  O   UNL d   1      -2.578  -2.368  -6.093  0.00  0.00    -0.304 OA
ENDBRANCH   1  17
TORSDOF 5
