REMARK  3 active torsions:
REMARK  status: ('A' for Active; 'I' for Inactive)
REMARK    1  A    between atoms: C_3  and  C_1 
REMARK       I    between atoms: N_7  and  C_3 
REMARK    2  A    between atoms: C_4  and  C_9 
REMARK    3  A    between atoms: C_17  and  N_7 
ROOT
ATOM      1  C   UNL d   1      -1.524  -2.831   0.191  0.00  0.00     0.259 C 
ATOM      2  N   UNL d   1      -0.339  -3.539   0.099  0.00  0.00    -0.323 N 
ATOM      3  O   UNL d   1      -2.647  -3.341   0.239  0.00  0.00    -0.267 OA
ATOM      4  H   UNL d   1       0.519  -3.007   0.215  0.00  0.00     0.169 HD
ENDROOT
BRANCH   1   5
ATOM      5  C   UNL d   1      -1.446  -1.340   0.231  0.00  0.00     0.066 A 
ATOM      6  C   UNL d   1      -0.280  -0.595   0.116  0.00  0.00     0.092 A 
ATOM      7  O   UNL d   1       0.991  -1.103   0.022  0.00  0.00    -0.339 OA
ATOM      8  C   UNL d   1      -0.312   0.795   0.098  0.00  0.00    -0.021 A 
ATOM      9  C   UNL d   1       1.881   0.051  -0.062  0.00  0.00     0.064 A 
ATOM     10  C   UNL d   1       2.613  -0.017  -1.405  0.00  0.00     0.046 C 
ATOM     11  C   UNL d   1       2.877  -0.067   1.095  0.00  0.00     0.046 C 
ATOM     12  C   UNL d   1       1.058   1.350   0.052  0.00  0.00     0.079 A 
ATOM     13  C   UNL d   1      -1.502   1.501   0.166  0.00  0.00     0.010 A 
ATOM     14  C   UNL d   1      -2.684   0.780   0.306  0.00  0.00     0.002 A 
ATOM     15  C   UNL d   1      -2.654  -0.623   0.350  0.00  0.00     0.020 A 
ENDBRANCH   1   5
BRANCH   2  16
ATOM     16  C   UNL d   1      -0.205  -4.916  -0.209  0.00  0.00     0.035 A 
ATOM     17  C   UNL d   1      -1.271  -5.706  -0.653  0.00  0.00     0.030 A 
ATOM     18  C   UNL d   1      -1.067  -7.027  -1.069  0.00  0.00     0.018 A 
ATOM     19  C   UNL d   1       0.210  -7.595  -1.045  0.00  0.00     0.048 A 
ATOM     20  C   UNL d   1       1.272  -6.825  -0.543  0.00  0.00     0.018 A 
ATOM     21  C   UNL d   1       1.065  -5.497  -0.138  0.00  0.00     0.030 A 
BRANCH  19  22
ATOM     22  C   UNL d   1       0.448  -8.983  -1.589  0.00  0.00     0.417 C 
ATOM     23  F   UNL d   1      -0.675  -9.579  -2.079  0.00  0.00    -0.166 F 
ATOM     24  F   UNL d   1       1.344  -8.987  -2.617  0.00  0.00    -0.166 F 
ATOM     25  F   UNL d   1       0.949  -9.841  -0.657  0.00  0.00    -0.166 F 
ENDBRANCH  19  22
ENDBRANCH   2  16
TORSDOF 3
