REMARK  3 active torsions:
REMARK  status: ('A' for Active; 'I' for Inactive)
REMARK    1  A    between atoms: C_6  and  C_1 
REMARK    2  A    between atoms: C_8  and  C_3 
REMARK    3  A    between atoms: O_13  and  C_6 
ROOT
ATOM      1  C   UNL d   1       1.432   1.042   0.071  0.00  0.00     0.048 C 
ATOM      2  C   UNL d   1       1.328  -0.303   0.007  0.00  0.00     0.021 C 
ATOM      3  C   UNL d   1       0.204   1.916  -0.126  0.00  0.00     0.068 C 
ATOM      4  N   UNL d   1       0.089  -0.879  -0.193  0.00  0.00    -0.330 N 
ATOM      5  C   UNL d   1      -1.116  -0.233  -0.173  0.00  0.00     0.222 C 
ATOM      6  C   UNL d   1      -1.090   1.199   0.281  0.00  0.00     0.117 C 
ATOM      7  O   UNL d   1      -2.160  -0.835  -0.405  0.00  0.00    -0.273 OA
ATOM      8  C   UNL d   1       2.453  -1.306   0.066  0.00  0.00     0.069 C 
ATOM      9  H   UNL d   1       0.024  -1.878  -0.361  0.00  0.00     0.168 HD
ENDROOT
BRANCH   3  10
ATOM     10  C   UNL d   1       0.228   3.280   0.564  0.00  0.00    -0.049 A 
ATOM     11  C   UNL d   1       0.062   4.448  -0.203  0.00  0.00     0.011 A 
ATOM     12  C   UNL d   1       0.098   5.704   0.403  0.00  0.00     0.043 A 
ATOM     13  C   UNL d   1       0.297   5.798   1.774  0.00  0.00     0.116 A 
ATOM     14  C   UNL d   1       0.453   4.658   2.553  0.00  0.00     0.043 A 
ATOM     15  F   UNL d   1       0.339   7.004   2.354  0.00  0.00    -0.206 F 
ATOM     16  C   UNL d   1       0.416   3.400   1.952  0.00  0.00     0.011 A 
ENDBRANCH   3  10
BRANCH   1  17
ATOM     17  C   UNL d   1       2.755   1.678   0.309  0.00  0.00     0.291 C 
ATOM     18  O   UNL d   1       3.583   1.245   1.098  0.00  0.00    -0.260 OA
BRANCH  17  19
ATOM     19  O   UNL d   1       2.883   2.802  -0.435  0.00  0.00    -0.323 OA
ATOM     20  C   UNL d   1       4.019   3.617  -0.124  0.00  0.00     0.213 C 
ENDBRANCH  17  19
ENDBRANCH   1  17
TORSDOF 3
