REMARK  5 active torsions:
REMARK  status: ('A' for Active; 'I' for Inactive)
REMARK       I    between atoms: N_2  and  C_1 
REMARK       I    between atoms: N_3  and  C_1 
REMARK    1  A    between atoms: C_6  and  N_2 
REMARK    2  A    between atoms: C_8  and  N_2 
REMARK    3  A    between atoms: C_13  and  N_3 
REMARK    4  A    between atoms: C_4  and  C_6 
REMARK    5  A    between atoms: C_12  and  C_8 
ROOT
ATOM      1  C   UNL d   1       0.849   0.175  -0.298  0.00  0.00     0.319 C 
ATOM      2  N   UNL d   1       0.043  -0.755  -0.953  0.00  0.00    -0.325 N 
ATOM      3  N   UNL d   1       2.196  -0.066  -0.435  0.00  0.00    -0.339 N 
ATOM      4  O   UNL d   1       0.404   1.134   0.320  0.00  0.00    -0.247 OA
ATOM      5  H   UNL d   1       2.431  -1.046  -0.467  0.00  0.00     0.164 HD
ENDROOT
BRANCH   2   6
ATOM      6  C   UNL d   1      -1.411  -0.660  -0.807  0.00  0.00     0.174 C 
BRANCH   6   7
ATOM      7  C   UNL d   1      -2.052  -0.060  -2.030  0.00  0.00     0.000 A 
ATOM      8  S   UNL d   1      -3.432  -0.805  -2.724  0.00  0.00    -0.105 SA
ATOM      9  C   UNL d   1      -3.576   0.410  -3.917  0.00  0.00     0.050 A 
ATOM     10  C   UNL d   1      -2.595   1.364  -3.799  0.00  0.00     0.008 A 
ATOM     11  C   UNL d   1      -1.717   1.100  -2.710  0.00  0.00     0.017 A 
ENDBRANCH   6   7
ENDBRANCH   2   6
BRANCH   2  12
ATOM     12  C   UNL d   1       0.550  -1.834  -1.802  0.00  0.00     0.166 C 
BRANCH  12  13
ATOM     13  C   UNL d   1       0.873  -3.121  -1.066  0.00  0.00    -0.040 A 
ATOM     14  C   UNL d   1       0.494  -3.361   0.264  0.00  0.00     0.009 A 
ATOM     15  C   UNL d   1       0.744  -4.595   0.868  0.00  0.00     0.001 A 
ATOM     16  C   UNL d   1       1.387  -5.604   0.157  0.00  0.00     0.000 A 
ATOM     17  C   UNL d   1       1.793  -5.375  -1.155  0.00  0.00     0.001 A 
ATOM     18  C   UNL d   1       1.539  -4.143  -1.763  0.00  0.00     0.009 A 
ENDBRANCH  12  13
ENDBRANCH   2  12
BRANCH   3  19
ATOM     19  C   UNL d   1       3.267   0.775   0.086  0.00  0.00     0.078 C 
ATOM     20  C   UNL d   1       3.155   2.248  -0.315  0.00  0.00     0.032 C 
ATOM     21  C   UNL d   1       3.461   0.597   1.589  0.00  0.00     0.032 C 
ENDBRANCH   3  19
TORSDOF 5
