REMARK  5 active torsions:
REMARK  status: ('A' for Active; 'I' for Inactive)
REMARK    1  A    between atoms: C_4  and  C_1 
REMARK    2  A    between atoms: O_9  and  C_2 
REMARK       I    between atoms: N_8  and  C_4 
REMARK    3  A    between atoms: C_7  and  O_9 
REMARK    4  A    between atoms: C_21  and  N_8 
REMARK    5  A    between atoms: C_10  and  C_21 
ROOT
ATOM      1  C   UNL d   1      -0.148   1.175   0.018  0.00  0.00     0.145 A 
ATOM      2  C   UNL d   1      -0.153  -1.025  -0.040  0.00  0.00     0.191 A 
ATOM      3  O   UNL d   1      -0.969   0.074  -0.007  0.00  0.00    -0.282 OA
ATOM      4  C   UNL d   1       1.172   0.769   0.030  0.00  0.00     0.048 A 
ATOM      5  C   UNL d   1       1.169  -0.642   0.026  0.00  0.00     0.067 A 
ENDROOT
BRANCH   1   6
ATOM      6  C   UNL d   1      -0.675   2.528   0.010  0.00  0.00     0.275 C 
ATOM      7  N   UNL d   1      -2.043   2.668   0.005  0.00  0.00    -0.349 N 
ATOM      8  H   UNL d   1      -2.649   1.855   0.010  0.00  0.00     0.163 HD
ATOM      9  O   UNL d   1       0.062   3.513   0.009  0.00  0.00    -0.265 OA
BRANCH   7  10
ATOM     10  C   UNL d   1      -2.613   3.994  -0.009  0.00  0.00     0.187 C 
BRANCH  10  11
ATOM     11  C   UNL d   1      -4.097   3.984   0.001  0.00  0.00     0.070 A 
ATOM     12  O   UNL d   1      -4.742   2.780   0.013  0.00  0.00    -0.325 OA
ATOM     13  C   UNL d   1      -6.075   3.046   0.019  0.00  0.00     0.142 A 
ATOM     14  C   UNL d   1      -6.298   4.402   0.012  0.00  0.00     0.027 A 
ATOM     15  C   UNL d   1      -5.022   5.011  -0.000  0.00  0.00     0.036 A 
ENDBRANCH  10  11
ENDBRANCH   7  10
ENDBRANCH   1   6
BRANCH   2  16
ATOM     16  O   UNL d   1      -0.792  -2.193  -0.139  0.00  0.00    -0.288 OA
BRANCH  16  17
ATOM     17  C   UNL d   1      -0.183  -3.268  -0.754  0.00  0.00     0.081 A 
ATOM     18  C   UNL d   1      -0.447  -4.543  -0.248  0.00  0.00     0.061 A 
ATOM     19  C   UNL d   1       0.105  -5.663  -0.875  0.00  0.00     0.038 A 
ATOM     20 CL   UNL d   1      -0.225  -7.237  -0.260  0.00  0.00    -0.084 Cl
ATOM     21  C   UNL d   1       0.915  -5.527  -2.001  0.00  0.00     0.048 A 
ATOM     22  C   UNL d   1       1.163  -4.255  -2.506  0.00  0.00     0.038 A 
ATOM     23  C   UNL d   1       0.608  -3.129  -1.901  0.00  0.00     0.061 A 
ATOM     24 CL   UNL d   1       2.161  -4.064  -3.895  0.00  0.00    -0.084 Cl
ENDBRANCH  16  17
ENDBRANCH   2  16
TORSDOF 5
