REMARK  11 active torsions:
REMARK  status: ('A' for Active; 'I' for Inactive)
REMARK    1  A    between atoms: C_2  and  C_1 
REMARK    2  A    between atoms: C_3  and  C_1 
REMARK    3  A    between atoms: C_28  and  C_1 
REMARK       I    between atoms: N_8  and  C_2 
REMARK       I    between atoms: N_9  and  C_3 
REMARK    4  A    between atoms: N_4  and  N_8 
REMARK    5  A    between atoms: N_6  and  N_9 
REMARK    6  A    between atoms: C_22  and  C_12 
REMARK    7  A    between atoms: C_23  and  C_13 
REMARK    8  A    between atoms: C_20  and  C_18 
REMARK    9  A    between atoms: C_21  and  C_19 
REMARK   10  A    between atoms: C_33  and  C_28 
REMARK   11  A    between atoms: C_34  and  C_33 
ROOT
ATOM      1  C   UNL d   1       1.000   0.040  -0.046  0.00  0.00     0.173 C 
ENDROOT
BRANCH   1   2
ATOM      2  C   UNL d   1       0.355  -0.399  -1.347  0.00  0.00     0.249 C 
ATOM      3  N   UNL d   1       0.107   0.649  -2.227  0.00  0.00    -0.270 N 
ATOM      4  H   UNL d   1       0.321   1.613  -1.988  0.00  0.00     0.190 HD
ATOM      5  O   UNL d   1       0.117  -1.585  -1.585  0.00  0.00    -0.271 OA
BRANCH   3   6
ATOM      6  N   UNL d   1      -0.505   0.376  -3.407  0.00  0.00    -0.308 N 
ATOM      7  C   UNL d   1      -0.698   1.356  -4.229  0.00  0.00     0.118 C 
ATOM      8  HN  UNL d   1      -0.803  -0.572  -3.638  1.00  0.00     0.186 HD
BRANCH   7   9
ATOM      9  C   UNL d   1      -1.422   1.124  -5.497  0.00  0.00    -0.019 A 
ATOM     10  C   UNL d   1      -1.893  -0.157  -5.790  0.00  0.00     0.013 A 
ATOM     11  C   UNL d   1      -2.642  -0.383  -6.943  0.00  0.00     0.008 A 
ATOM     12  C   UNL d   1      -2.934   0.668  -7.824  0.00  0.00    -0.055 A 
ATOM     13  C   UNL d   1      -2.433   1.948  -7.533  0.00  0.00     0.008 A 
ATOM     14  C   UNL d   1      -1.678   2.179  -6.373  0.00  0.00     0.013 A 
BRANCH  12  15
ATOM     15  C   UNL d   1      -3.796   0.433  -9.054  0.00  0.00     0.010 C 
ATOM     16  C   UNL d   1      -3.161  -0.588 -10.003  0.00  0.00     0.015 C 
ATOM     17  C   UNL d   1      -5.212  -0.003  -8.662  0.00  0.00     0.015 C 
ENDBRANCH  12  15
ENDBRANCH   7   9
ENDBRANCH   3   6
ENDBRANCH   1   2
BRANCH   1  18
ATOM     18  C   UNL d   1       0.611  -0.798   1.173  0.00  0.00     0.249 C 
ATOM     19  N   UNL d   1       0.308  -2.137   0.968  0.00  0.00    -0.270 N 
ATOM     20  H   UNL d   1       0.166  -2.495   0.020  0.00  0.00     0.190 HD
ATOM     21  O   UNL d   1       0.661  -0.272   2.289  0.00  0.00    -0.271 OA
BRANCH  19  22
ATOM     22  N   UNL d   1      -0.047  -2.895   2.050  0.00  0.00    -0.308 N 
ATOM     23  C   UNL d   1      -0.422  -4.120   1.847  0.00  0.00     0.118 C 
ATOM     24  HN  UNL d   1      -0.018  -2.506   2.993  1.00  0.00     0.186 HD
BRANCH  23  25
ATOM     25  C   UNL d   1      -0.844  -4.967   2.995  0.00  0.00    -0.019 A 
ATOM     26  C   UNL d   1      -0.864  -4.427   4.284  0.00  0.00     0.013 A 
ATOM     27  C   UNL d   1      -1.279  -5.200   5.371  0.00  0.00     0.008 A 
ATOM     28  C   UNL d   1      -1.679  -6.532   5.196  0.00  0.00    -0.055 A 
ATOM     29  C   UNL d   1      -1.649  -7.070   3.898  0.00  0.00     0.008 A 
ATOM     30  C   UNL d   1      -1.234  -6.295   2.801  0.00  0.00     0.013 A 
BRANCH  28  31
ATOM     31  C   UNL d   1      -2.140  -7.375   6.377  0.00  0.00     0.010 C 
ATOM     32  C   UNL d   1      -1.042  -7.525   7.436  0.00  0.00     0.015 C 
ATOM     33  C   UNL d   1      -3.415  -6.808   7.012  0.00  0.00     0.015 C 
ENDBRANCH  28  31
ENDBRANCH  23  25
ENDBRANCH  19  22
ENDBRANCH   1  18
BRANCH   1  34
ATOM     34  C   UNL d   1       2.534   0.081  -0.166  0.00  0.00     0.024 C 
BRANCH  34  35
ATOM     35  C   UNL d   1       3.067   1.216  -1.054  0.00  0.00     0.001 C 
BRANCH  35  36
ATOM     36  C   UNL d   1       4.598   1.238  -1.059  0.00  0.00    -0.005 C 
ATOM     37  C   UNL d   1       5.152   2.338  -1.951  0.00  0.00     0.005 C 
ENDBRANCH  35  36
ENDBRANCH  34  35
ENDBRANCH   1  34
TORSDOF 11
