REMARK  5 active torsions:
REMARK  status: ('A' for Active; 'I' for Inactive)
REMARK    1  A    between atoms: C_2  and  S_1 
REMARK    2  A    between atoms: N_7  and  S_1 
REMARK    3  A    between atoms: N_6  and  C_3 
REMARK    4  A    between atoms: C_21  and  N_7 
REMARK    5  A    between atoms: C_22  and  C_21 
ROOT
ATOM      1  S   UNL d   1       1.005  -0.063   0.043  0.00  0.00     0.260 S 
ATOM      2  O   UNL d   1       1.466  -1.261  -0.618  0.00  0.00    -0.200 OA
ATOM      3  O   UNL d   1       1.866   1.081   0.242  0.00  0.00    -0.200 OA
ENDROOT
BRANCH   1   4
ATOM      4  C   UNL d   1       0.408  -0.547   1.630  0.00  0.00     0.095 A 
ATOM      5  C   UNL d   1      -0.166   0.356   2.501  0.00  0.00     0.115 A 
ATOM      6  N   UNL d   1      -0.572   0.036   3.763  0.00  0.00    -0.351 N 
ATOM      7  C   UNL d   1      -0.345  -1.217   4.220  0.00  0.00     0.103 A 
ATOM      8  HN  UNL d   1      -1.038   0.727   4.350  1.00  0.00     0.166 HD
ATOM      9  C   UNL d   1       0.232  -2.172   3.380  0.00  0.00     0.050 A 
ATOM     10  C   UNL d   1       0.606  -1.844   2.079  0.00  0.00     0.030 A 
BRANCH   7  11
ATOM     11  N   UNL d   1      -0.692  -1.547   5.510  0.00  0.00    -0.363 N 
ATOM     12  C   UNL d   1       0.132  -2.438   6.334  0.00  0.00     0.150 C 
ATOM     13  C   UNL d   1       0.596  -1.715   7.609  0.00  0.00     0.187 C 
ATOM     14  O   UNL d   1      -0.513  -1.164   8.335  0.00  0.00    -0.388 OA
ATOM     15  C   UNL d   1      -1.200  -0.196   7.522  0.00  0.00     0.187 C 
ATOM     16  C   UNL d   1      -1.742  -0.820   6.228  0.00  0.00     0.150 C 
ENDBRANCH   7  11
ENDBRANCH   1   4
BRANCH   1  17
ATOM     17  N   UNL d   1      -0.350   0.431  -0.806  0.00  0.00    -0.311 N 
ATOM     18  H   UNL d   1      -1.084  -0.266  -0.920  0.00  0.00     0.172 HD
BRANCH  17  19
ATOM     19  C   UNL d   1      -0.744   1.836  -0.745  0.00  0.00     0.170 C 
BRANCH  19  20
ATOM     20  C   UNL d   1      -1.945   2.120  -1.615  0.00  0.00    -0.037 A 
ATOM     21  C   UNL d   1      -3.108   2.681  -1.062  0.00  0.00     0.048 A 
ATOM     22  C   UNL d   1      -4.165   2.946  -1.907  0.00  0.00     0.105 A 
ATOM     23  O   UNL d   1      -5.356   3.492  -1.540  0.00  0.00    -0.323 OA
ATOM     24  C   UNL d   1      -4.104   2.677  -3.254  0.00  0.00     0.105 A 
ATOM     25  C   UNL d   1      -6.037   3.536  -2.812  0.00  0.00     0.352 A 
ATOM     26  O   UNL d   1      -5.250   3.014  -3.903  0.00  0.00    -0.323 OA
ATOM     27  C   UNL d   1      -2.982   2.131  -3.834  0.00  0.00     0.040 A 
ATOM     28  C   UNL d   1      -1.891   1.854  -3.004  0.00  0.00     0.012 A 
ENDBRANCH  19  20
ENDBRANCH  17  19
ENDBRANCH   1  17
TORSDOF 5
