REMARK  6 active torsions:
REMARK  status: ('A' for Active; 'I' for Inactive)
REMARK    1  A    between atoms: C_4  and  C_2 
REMARK    2  A    between atoms: C_13  and  C_2 
REMARK    3  A    between atoms: C_9  and  C_5 
REMARK    4  A    between atoms: C_11  and  C_5 
REMARK    5  A    between atoms: C_10  and  C_9 
REMARK    6  A    between atoms: C_15  and  C_10 
ROOT
ATOM      1  C   UNL d   1       3.502   2.125  -0.598  0.00  0.00     0.021 C 
ATOM      2  C   UNL d   1       2.889   3.331  -0.692  0.00  0.00    -0.040 C 
ENDROOT
BRANCH   1   3
ATOM      3  C   UNL d   1       3.015   0.830  -0.102  0.00  0.00    -0.015 C 
ATOM      4  C   UNL d   1       2.117   0.029  -0.723  0.00  0.00     0.008 C 
ATOM      5  C   UNL d   1       1.265   0.359  -1.919  0.00  0.00     0.190 C 
ATOM      6  C   UNL d   1       1.826  -1.439  -0.397  0.00  0.00     0.083 C 
ATOM      7  C   UNL d   1       0.662  -0.879  -2.403  0.00  0.00     0.021 A 
ATOM      8  O   UNL d   1       0.981   1.448  -2.373  0.00  0.00    -0.287 OA
ATOM      9  C   UNL d   1      -0.131  -1.047  -3.526  0.00  0.00     0.016 A 
ATOM     10  C   UNL d   1       0.973  -1.913  -1.534  0.00  0.00    -0.040 A 
ATOM     11  C   UNL d   1      -0.620  -2.326  -3.786  0.00  0.00     0.001 A 
ATOM     12  C   UNL d   1      -0.312  -3.389  -2.921  0.00  0.00     0.001 A 
ATOM     13  C   UNL d   1       0.486  -3.193  -1.788  0.00  0.00     0.008 A 
BRANCH   3  14
ATOM     14  C   UNL d   1       3.626   0.315   1.148  0.00  0.00    -0.025 A 
ATOM     15  C   UNL d   1       4.781  -0.474   1.133  0.00  0.00     0.012 A 
ATOM     16  C   UNL d   1       5.338  -0.921   2.333  0.00  0.00     0.001 A 
ATOM     17  C   UNL d   1       4.752  -0.574   3.551  0.00  0.00     0.000 A 
ATOM     18  C   UNL d   1       3.607   0.220   3.574  0.00  0.00     0.001 A 
ATOM     19  C   UNL d   1       3.047   0.665   2.376  0.00  0.00     0.012 A 
ENDBRANCH   3  14
ENDBRANCH   1   3
BRANCH   2  20
ATOM     20  C   UNL d   1       1.424   3.474  -0.380  0.00  0.00     0.123 C 
BRANCH  20  21
ATOM     21  C   UNL d   1       0.875   4.507   0.601  0.00  0.00     0.163 C 
ATOM     22  O   UNL d   1       1.504   5.473   1.029  0.00  0.00    -0.292 OA
BRANCH  21  23
ATOM     23  C   UNL d   1      -0.536   4.255   1.052  0.00  0.00     0.010 A 
ATOM     24  C   UNL d   1      -1.340   3.286   0.422  0.00  0.00     0.015 A 
ATOM     25  C   UNL d   1      -2.573   2.922   0.959  0.00  0.00     0.001 A 
ATOM     26  C   UNL d   1      -3.033   3.549   2.111  0.00  0.00     0.000 A 
ATOM     27  C   UNL d   1      -2.280   4.566   2.701  0.00  0.00     0.001 A 
ATOM     28  C   UNL d   1      -1.035   4.925   2.172  0.00  0.00     0.015 A 
ENDBRANCH  21  23
ENDBRANCH  20  21
ENDBRANCH   2  20
BRANCH   2  29
ATOM     29  C   UNL d   1       3.610   4.454  -1.379  0.00  0.00    -0.029 C 
ATOM     30  C   UNL d   1       2.919   5.402  -2.148  0.00  0.00     0.012 C 
ATOM     31  C   UNL d   1       3.596   6.295  -2.989  0.00  0.00     0.007 C 
ATOM     32  C   UNL d   1       4.988   6.262  -3.087  0.00  0.00    -0.062 C 
ATOM     33  C   UNL d   1       5.696   5.430  -2.220  0.00  0.00     0.007 C 
ATOM     34  C   UNL d   1       5.697   7.097  -4.110  0.00  0.00     0.048 C 
ATOM     35  C   UNL d   1       5.014   4.550  -1.368  0.00  0.00     0.012 C 
ENDBRANCH   2  29
TORSDOF 6
