REMARK  6 active torsions:
REMARK  status: ('A' for Active; 'I' for Inactive)
REMARK    1  A    between atoms: C_4  and  C_1 
REMARK    2  A    between atoms: C_10  and  C_1 
REMARK    3  A    between atoms: C_2  and  C_3 
REMARK    4  A    between atoms: C_9  and  C_2 
REMARK    5  A    between atoms: S_11  and  C_5 
REMARK    6  A    between atoms: C_6  and  S_11 
ROOT
ATOM      1  S   UNL d   1      -0.190  -4.149  -0.061  0.00  0.00    -0.114 SA
ENDROOT
BRANCH   1   2
ATOM      2  C   UNL d   1       1.089  -5.315  -0.132  0.00  0.00     0.053 C 
ATOM      3  C   UNL d   1       1.156  -6.177  -1.156  0.00  0.00     0.062 C 
BRANCH   3   4
ATOM      4  C   UNL d   1       2.190  -7.245  -1.183  0.00  0.00     0.182 C 
ATOM      5  O   UNL d   1       3.195  -7.192  -0.482  0.00  0.00    -0.288 OA
BRANCH   4   6
ATOM      6  C   UNL d   1       1.972  -8.379  -2.126  0.00  0.00     0.014 A 
ATOM      7  C   UNL d   1       3.089  -9.050  -2.638  0.00  0.00     0.015 A 
ATOM      8  C   UNL d   1       2.922 -10.113  -3.528  0.00  0.00     0.001 A 
ATOM      9  C   UNL d   1       1.640 -10.519  -3.900  0.00  0.00     0.000 A 
ATOM     10  C   UNL d   1       0.523  -9.870  -3.376  0.00  0.00     0.001 A 
ATOM     11  C   UNL d   1       0.687  -8.806  -2.486  0.00  0.00     0.015 A 
ENDBRANCH   4   6
ENDBRANCH   3   4
ENDBRANCH   1   2
BRANCH   1  12
ATOM     12  C   UNL d   1       0.762  -2.721   0.175  0.00  0.00     0.053 C 
ATOM     13  C   UNL d   1       0.167  -1.519   0.208  0.00  0.00     0.062 C 
BRANCH  13  14
ATOM     14  C   UNL d   1       0.987  -0.294   0.390  0.00  0.00     0.182 C 
ATOM     15  O   UNL d   1       2.138  -0.348   0.810  0.00  0.00    -0.288 OA
BRANCH  14  16
ATOM     16  C   UNL d   1       0.362   1.022   0.074  0.00  0.00     0.014 A 
ATOM     17  C   UNL d   1       0.853   2.160   0.727  0.00  0.00     0.015 A 
ATOM     18  C   UNL d   1       0.330   3.422   0.435  0.00  0.00     0.001 A 
ATOM     19  C   UNL d   1      -0.680   3.555  -0.517  0.00  0.00     0.000 A 
ATOM     20  C   UNL d   1      -1.170   2.428  -1.176  0.00  0.00     0.001 A 
ATOM     21  C   UNL d   1      -0.651   1.162  -0.885  0.00  0.00     0.015 A 
ENDBRANCH  14  16
ENDBRANCH  13  14
ENDBRANCH   1  12
TORSDOF 6
