REMARK  6 active torsions:
REMARK  status: ('A' for Active; 'I' for Inactive)
REMARK       I    between atoms: N_2  and  C_1 
REMARK    1  A    between atoms: C_5  and  C_1 
REMARK    2  A    between atoms: C_4  and  N_2 
REMARK    3  A    between atoms: S_6  and  C_3 
REMARK    4  A    between atoms: C_10  and  C_5 
REMARK    5  A    between atoms: C_11  and  C_5 
REMARK    6  A    between atoms: C_12  and  S_6 
ROOT
ATOM      1  C   UNL d   1       0.874  -0.168   0.229  0.00  0.00     0.231 C 
ATOM      2  N   UNL d   1       1.804  -0.808   1.038  0.00  0.00    -0.324 N 
ATOM      3  O   UNL d   1       0.628  -0.511  -0.925  0.00  0.00    -0.272 OA
ATOM      4  H   UNL d   1       2.221  -0.255   1.780  0.00  0.00     0.169 HD
ENDROOT
BRANCH   2   5
ATOM      5  C   UNL d   1       2.563  -1.939   0.640  0.00  0.00     0.069 A 
ATOM      6  C   UNL d   1       3.916  -2.051   1.005  0.00  0.00     0.101 A 
ATOM      7  N   UNL d   1       4.678  -3.139   0.717  0.00  0.00    -0.358 N 
ATOM      8  C   UNL d   1       4.084  -4.141   0.040  0.00  0.00     0.089 A 
ATOM      9  HN  UNL d   1       5.656  -3.195   1.001  1.00  0.00     0.166 HD
ATOM     10  C   UNL d   1       2.763  -4.119  -0.377  0.00  0.00     0.019 A 
ATOM     11  C   UNL d   1       1.997  -2.993  -0.080  0.00  0.00     0.034 A 
BRANCH   6  12
ATOM     12  S   UNL d   1       4.749  -0.721   1.863  0.00  0.00    -0.070 SA
BRANCH  12  13
ATOM     13  C   UNL d   1       5.748   0.025   0.577  0.00  0.00     0.007 A 
ATOM     14  C   UNL d   1       5.267   0.291  -0.711  0.00  0.00     0.019 A 
ATOM     15  C   UNL d   1       6.066   0.967  -1.643  0.00  0.00     0.001 A 
ATOM     16  C   UNL d   1       7.348   1.389  -1.294  0.00  0.00     0.000 A 
ATOM     17  C   UNL d   1       7.838   1.127  -0.018  0.00  0.00     0.001 A 
ATOM     18  C   UNL d   1       7.042   0.449   0.911  0.00  0.00     0.019 A 
ENDBRANCH  12  13
ENDBRANCH   6  12
ENDBRANCH   2   5
BRANCH   1  19
ATOM     19  C   UNL d   1       0.212   1.055   0.912  0.00  0.00     0.115 C 
BRANCH  19  20
ATOM     20  C   UNL d   1       0.647   2.391   0.311  0.00  0.00    -0.045 A 
ATOM     21  C   UNL d   1       0.688   2.629  -1.070  0.00  0.00     0.008 A 
ATOM     22  C   UNL d   1       1.163   3.841  -1.572  0.00  0.00     0.001 A 
ATOM     23  C   UNL d   1       1.591   4.850  -0.706  0.00  0.00     0.000 A 
ATOM     24  C   UNL d   1       1.517   4.648   0.669  0.00  0.00     0.001 A 
ATOM     25  C   UNL d   1       1.045   3.432   1.172  0.00  0.00     0.008 A 
ENDBRANCH  19  20
BRANCH  19  26
ATOM     26  C   UNL d   1      -1.316   0.924   1.108  0.00  0.00     0.003 C 
ATOM     27  C   UNL d   1      -1.673  -0.213   2.072  0.00  0.00     0.006 C 
ATOM     28  C   UNL d   1      -3.167  -0.426   1.883  0.00  0.00     0.000 C 
ATOM     29  C   UNL d   1      -3.479   0.028   0.460  0.00  0.00     0.000 C 
ATOM     30  C   UNL d   1      -2.184   0.612  -0.112  0.00  0.00     0.006 C 
ENDBRANCH  19  26
ENDBRANCH   1  19
TORSDOF 6
