REMARK  1 active torsions:
REMARK  status: ('A' for Active; 'I' for Inactive)
REMARK       I    between atoms: N_4  and  C_1 
REMARK       I    between atoms: N_10  and  C_1 
REMARK    1  A    between atoms: N_2  and  N_4 
ROOT
ATOM      1  N   UNL d   1       1.042  -2.183   1.254  0.00  0.00    -0.305 N 
ATOM      2  HN  UNL d   1       2.059  -2.257   1.269  1.00  0.00     0.186 HD
ATOM      3  C   UNL d   1       0.304  -3.112   1.788  0.00  0.00     0.005 C 
ATOM      4  C   UNL d   1       0.490  -5.630   1.796  0.00  0.00    -0.042 C 
ATOM      5  C   UNL d   1       1.005  -4.311   2.413  0.00  0.00     0.062 C 
ATOM      6  C   UNL d   1      -1.062  -5.661   1.801  0.00  0.00     0.013 C 
ATOM      7  C   UNL d   1      -1.210  -3.148   1.871  0.00  0.00     0.058 C 
ATOM      8  C   UNL d   1      -1.701  -4.414   1.164  0.00  0.00    -0.013 C 
ATOM      9  C   UNL d   1       1.032  -5.789   0.363  0.00  0.00     0.015 C 
ATOM     10  C   UNL d   1       1.003  -6.818   2.633  0.00  0.00     0.015 C 
ATOM     11  C   UNL d   1      -3.224  -4.499   1.216  0.00  0.00     0.010 C 
ENDROOT
BRANCH   1  12
ATOM     12  N   UNL d   1       0.434  -1.107   0.674  0.00  0.00    -0.252 N 
ATOM     13  C   UNL d   1       1.137  -0.083   0.095  0.00  0.00     0.332 C 
ATOM     14  O   UNL d   1       0.591   0.847  -0.487  0.00  0.00    -0.246 OA
ATOM     15  N   UNL d   1       2.482  -0.174   0.217  0.00  0.00    -0.351 N 
ATOM     16  H   UNL d   1       2.832  -1.089   0.467  0.00  0.00     0.160 HD
ATOM     17  H   UNL d   1       3.046   0.456  -0.331  0.00  0.00     0.160 HD
ATOM     18  H   UNL d   1      -0.569  -1.039   0.579  0.00  0.00     0.191 HD
ENDBRANCH   1  12
TORSDOF 1
