REMARK  4 active torsions:
REMARK  status: ('A' for Active; 'I' for Inactive)
REMARK    1  A    between atoms: C_2  and  S_1 
REMARK    2  A    between atoms: C_3  and  S_1 
REMARK    3  A    between atoms: N_7  and  N_4 
REMARK    4  A    between atoms: C_9  and  N_7 
ROOT
ATOM      1  C   UNL d   1       0.367  -0.103  -1.739  0.00  0.00     0.229 C 
ATOM      2  N   UNL d   1      -0.366  -1.095  -2.160  0.00  0.00    -0.281 N 
ATOM      3  HN  UNL d   1      -0.720  -1.090  -3.117  1.00  0.00     0.188 HD
ATOM      4  C   UNL d   1       0.854  -0.078  -0.392  0.00  0.00     0.132 C 
ATOM      5  N   UNL d   1       1.212  -0.093   0.714  0.00  0.00    -0.189 NA
ENDROOT
BRANCH   1   6
ATOM      6  S   UNL d   1       0.806   1.235  -2.759  0.00  0.00     0.234 S 
ATOM      7  O   UNL d   1       2.237   1.175  -2.978  0.00  0.00    -0.215 OA
ATOM      8  O   UNL d   1       0.138   2.418  -2.250  0.00  0.00    -0.215 OA
BRANCH   6   9
ATOM      9  C   UNL d   1       0.104   0.963  -4.322  0.00  0.00     0.073 A 
ATOM     10  C   UNL d   1       0.771   0.296  -5.396  0.00  0.00     0.031 A 
ATOM     11  C   UNL d   1      -0.016   0.225  -6.525  0.00  0.00     0.051 A 
ATOM     12  S   UNL d   1      -1.547   0.954  -6.290  0.00  0.00    -0.112 SA
ATOM     13  C   UNL d   1      -1.162   1.379  -4.677  0.00  0.00     0.073 A 
ENDBRANCH   6   9
ENDBRANCH   1   6
BRANCH   2  14
ATOM     14  N   UNL d   1      -0.665  -2.139  -1.336  0.00  0.00    -0.296 N 
ATOM     15  H   UNL d   1      -0.656  -2.082  -0.311  0.00  0.00     0.187 HD
BRANCH  14  16
ATOM     16  C   UNL d   1      -1.510  -3.158  -1.830  0.00  0.00     0.086 A 
ATOM     17  C   UNL d   1      -1.912  -4.208  -0.986  0.00  0.00     0.147 A 
ATOM     18  C   UNL d   1      -2.694  -5.263  -1.444  0.00  0.00     0.086 A 
ATOM     19  F   UNL d   1      -1.535  -4.195   0.303  0.00  0.00    -0.204 F 
ATOM     20  C   UNL d   1      -3.076  -5.279  -2.778  0.00  0.00     0.119 A 
ATOM     21  C   UNL d   1      -2.682  -4.271  -3.649  0.00  0.00     0.045 A 
ATOM     22  F   UNL d   1      -3.831  -6.286  -3.237  0.00  0.00    -0.206 F 
ATOM     23  C   UNL d   1      -1.892  -3.219  -3.178  0.00  0.00     0.037 A 
ENDBRANCH  14  16
ENDBRANCH   2  14
TORSDOF 4
