REMARK  4 active torsions:
REMARK  status: ('A' for Active; 'I' for Inactive)
REMARK    1  A    between atoms: C_7  and  C_1 
REMARK    2  A    between atoms: N_8  and  C_2 
REMARK    3  A    between atoms: C_9  and  C_7 
REMARK    4  A    between atoms: C_14  and  N_8 
ROOT
ATOM      1  C   UNL d   1      -0.132  -1.139   0.071  0.00  0.00     0.081 A 
ATOM      2  C   UNL d   1       0.640   1.184   0.052  0.00  0.00     0.150 A 
ATOM      3  N   UNL d   1      -0.670   1.131   0.057  0.00  0.00    -0.339 N 
ATOM      4  HN  UNL d   1      -1.278   1.950   0.073  1.00  0.00     0.168 HD
ATOM      5  S   UNL d   1       1.399  -0.363   0.054  0.00  0.00    -0.048 SA
ATOM      6  C   UNL d   1      -1.126  -0.175   0.037  0.00  0.00     0.028 A 
ATOM      7  C   UNL d   1      -2.596  -0.395  -0.006  0.00  0.00     0.070 C 
ENDROOT
BRANCH   1   8
ATOM      8  C   UNL d   1      -0.305  -2.582   0.029  0.00  0.00     0.201 C 
ATOM      9  O   UNL d   1      -1.323  -3.111  -0.414  0.00  0.00    -0.286 OA
BRANCH   8  10
ATOM     10  C   UNL d   1       0.742  -3.515   0.544  0.00  0.00     0.016 A 
ATOM     11  C   UNL d   1       0.905  -4.753  -0.101  0.00  0.00     0.018 A 
ATOM     12  C   UNL d   1       1.858  -5.665   0.357  0.00  0.00     0.043 A 
ATOM     13  C   UNL d   1       2.642  -5.341   1.458  0.00  0.00     0.116 A 
ATOM     14  C   UNL d   1       2.478  -4.131   2.123  0.00  0.00     0.043 A 
ATOM     15  F   UNL d   1       3.562  -6.211   1.893  0.00  0.00    -0.206 F 
ATOM     16  C   UNL d   1       1.514  -3.223   1.679  0.00  0.00     0.018 A 
ENDBRANCH   8  10
ENDBRANCH   1   8
BRANCH   2  17
ATOM     17  N   UNL d   1       1.406   2.302   0.057  0.00  0.00    -0.337 N 
ATOM     18  H   UNL d   1       2.403   2.169   0.167  0.00  0.00     0.168 HD
BRANCH  17  19
ATOM     19  C   UNL d   1       1.080   3.550  -0.518  0.00  0.00     0.034 A 
ATOM     20  C   UNL d   1      -0.124   3.807  -1.187  0.00  0.00     0.029 A 
ATOM     21  C   UNL d   1      -0.397   5.062  -1.738  0.00  0.00     0.002 A 
ATOM     22  C   UNL d   1       0.524   6.094  -1.608  0.00  0.00     0.000 A 
ATOM     23  C   UNL d   1       1.711   5.875  -0.915  0.00  0.00     0.002 A 
ATOM     24  C   UNL d   1       1.982   4.616  -0.367  0.00  0.00     0.029 A 
ENDBRANCH  17  19
ENDBRANCH   2  17
TORSDOF 4
