REMARK  1 active torsions:
REMARK  status: ('A' for Active; 'I' for Inactive)
REMARK    1  A    between atoms: C_7  and  C_1 
ROOT
ATOM      1  C   UNL d   1      -0.636   2.484   0.071  0.00  0.00     0.066 C 
ATOM      2  C   UNL d   1      -0.159   3.674  -0.349  0.00  0.00     0.126 C 
ATOM      3  N   UNL d   1       2.109   4.009  -1.544  0.00  0.00    -0.191 NA
ATOM      4  N   UNL d   1      -1.650   5.762  -0.047  0.00  0.00    -0.191 NA
ATOM      5  C   UNL d   1       1.105   3.832  -0.988  0.00  0.00     0.111 C 
ATOM      6  C   UNL d   1      -0.970   4.833  -0.190  0.00  0.00     0.111 C 
ENDROOT
BRANCH   1   7
ATOM      7  C   UNL d   1       0.043   1.224   0.025  0.00  0.00     0.073 A 
ATOM      8  N   UNL d   1       1.374   1.109   0.116  0.00  0.00    -0.298 N 
ATOM      9  N   UNL d   1       1.606  -0.211   0.025  0.00  0.00    -0.306 N 
ATOM     10  HN  UNL d   1       2.058   1.857   0.229  1.00  0.00     0.187 HD
ATOM     11  C   UNL d   1       2.961  -0.707   0.042  0.00  0.00     0.177 C 
ATOM     12  C   UNL d   1       0.470  -0.956  -0.083  0.00  0.00     0.135 A 
ATOM     13  C   UNL d   1      -0.567  -0.055  -0.087  0.00  0.00     0.079 A 
ATOM     14 CL   UNL d   1      -2.220  -0.408  -0.228  0.00  0.00    -0.080 Cl
ENDBRANCH   1   7
TORSDOF 1
