REMARK  7 active torsions:
REMARK  status: ('A' for Active; 'I' for Inactive)
REMARK    1  A    between atoms: N_11  and  C_6 
REMARK    2  A    between atoms: C_17  and  N_10 
REMARK    3  A    between atoms: C_14  and  N_11 
REMARK    4  A    between atoms: C_19  and  N_11 
REMARK    5  A    between atoms: C_18  and  C_14 
REMARK    6  A    between atoms: C_21  and  C_17 
REMARK    7  A    between atoms: O_20  and  C_21 
ROOT
ATOM      1  C   UNL d   1      -0.278  -0.927   0.056  0.00  0.00     0.160 A 
ATOM      2  C   UNL d   1      -0.488   0.410  -0.062  0.00  0.00     0.164 A 
ATOM      3  N   UNL d   1      -1.449  -1.600   0.172  0.00  0.00    -0.174 N 
ATOM      4  HN  UNL d   1      -1.562  -2.606   0.297  1.00  0.00     0.186 HD
ATOM      5  N   UNL d   1       0.990  -1.461   0.056  0.00  0.00    -0.287 N 
ATOM      6  C   UNL d   1      -2.419  -0.699   0.091  0.00  0.00     0.685 A 
ATOM      7  N   UNL d   1       1.841   0.769  -0.057  0.00  0.00    -0.269 N 
ATOM      8  C   UNL d   1       2.096  -0.610  -0.011  0.00  0.00     0.332 A 
ATOM      9  C   UNL d   1       0.574   1.351  -0.114  0.00  0.00     0.282 A 
ATOM     10  N   UNL d   1      -1.859   0.560  -0.139  0.00  0.00    -0.172 N 
ATOM     11  O   UNL d   1       3.247  -1.058  -0.028  0.00  0.00    -0.246 OA
ATOM     12  O   UNL d   1       0.398   2.568  -0.186  0.00  0.00    -0.265 OA
ATOM     13  C   UNL d   1       1.228  -2.890   0.073  0.00  0.00     0.163 C 
ATOM     14  C   UNL d   1       2.969   1.682  -0.064  0.00  0.00     0.164 C 
ENDROOT
BRANCH   6  15
ATOM     15  N   UNL d   1      -3.753  -0.982   0.261  0.00  0.00    -0.213 N 
BRANCH  15  16
ATOM     16  C   UNL d   1      -4.094  -2.332   0.766  0.00  0.00     0.179 C 
BRANCH  16  17
ATOM     17  C   UNL d   1      -4.385  -2.403   2.260  0.00  0.00    -0.040 A 
ATOM     18  C   UNL d   1      -5.516  -3.105   2.723  0.00  0.00     0.009 A 
ATOM     19  C   UNL d   1      -5.691  -3.381   4.084  0.00  0.00     0.001 A 
ATOM     20  C   UNL d   1      -4.742  -2.954   5.008  0.00  0.00     0.000 A 
ATOM     21  C   UNL d   1      -3.638  -2.223   4.575  0.00  0.00     0.001 A 
ATOM     22  C   UNL d   1      -3.462  -1.948   3.213  0.00  0.00     0.009 A 
ENDBRANCH  16  17
ENDBRANCH  15  16
BRANCH  15  23
ATOM     23  C   UNL d   1      -4.799  -0.373  -0.571  0.00  0.00     0.137 C 
ATOM     24  C   UNL d   1      -4.550  -0.573  -2.066  0.00  0.00     0.027 C 
ENDBRANCH  15  23
ENDBRANCH   6  15
BRANCH  10  25
ATOM     25  C   UNL d   1      -2.476   1.826  -0.493  0.00  0.00     0.174 C 
BRANCH  25  26
ATOM     26  C   UNL d   1      -2.744   2.751   0.686  0.00  0.00     0.185 C 
BRANCH  26  27
ATOM     27  O   UNL d   1      -3.860   2.300   1.440  0.00  0.00    -0.399 OA
ATOM     28  H   UNL d   1      -3.903   2.840   2.248  0.00  0.00     0.209 HD
ENDBRANCH  26  27
ENDBRANCH  25  26
ENDBRANCH  10  25
TORSDOF 7
