REMARK  1 active torsions:
REMARK  status: ('A' for Active; 'I' for Inactive)
REMARK    1  A    between atoms: C_7  and  N_1 
ROOT
ATOM      1  N   UNL d   1      -0.266  -1.273   0.030  0.00  0.00    -0.229 N 
ATOM      2  N   UNL d   1      -0.819   0.780  -0.228  0.00  0.00    -0.007 NA
ATOM      3  N   UNL d   1      -1.203  -0.454  -0.503  0.00  0.00     0.000 NA
ATOM      4  N   UNL d   1       0.395   0.787   0.396  0.00  0.00    -0.274 N 
ATOM      5  HN  UNL d   1       0.916   1.607   0.709  1.00  0.00     0.185 HD
ATOM      6  C   UNL d   1       0.761  -0.475   0.516  0.00  0.00     0.111 A 
ATOM      7  C   UNL d   1       2.098  -0.928   0.953  0.00  0.00     0.092 C 
ENDROOT
BRANCH   1   8
ATOM      8  C   UNL d   1      -0.437  -2.683   0.015  0.00  0.00     0.056 A 
ATOM      9  C   UNL d   1      -1.344  -3.247  -0.900  0.00  0.00     0.033 A 
ATOM     10  C   UNL d   1      -1.529  -4.633  -0.949  0.00  0.00     0.026 A 
ATOM     11  C   UNL d   1      -0.834  -5.455  -0.068  0.00  0.00     0.034 A 
ATOM     12  C   UNL d   1       0.042  -4.905   0.864  0.00  0.00     0.026 A 
ATOM     13 CL   UNL d   1      -1.066  -7.158  -0.122  0.00  0.00    -0.084 Cl
ATOM     14  C   UNL d   1       0.245  -3.520   0.906  0.00  0.00     0.033 A 
ENDBRANCH   1   8
TORSDOF 1
