REMARK  3 active torsions:
REMARK  status: ('A' for Active; 'I' for Inactive)
REMARK    1  A    between atoms: C_3  and  C_1 
REMARK    2  A    between atoms: C_14  and  C_2 
REMARK       I    between atoms: N_6  and  C_3 
REMARK    3  A    between atoms: C_12  and  N_6 
ROOT
ATOM      1  C   UNL d   1      -1.666  -1.909  -0.553  0.00  0.00     0.275 C 
ATOM      2  N   UNL d   1      -1.544  -3.000   0.296  0.00  0.00    -0.322 N 
ATOM      3  O   UNL d   1      -2.618  -1.684  -1.291  0.00  0.00    -0.266 OA
ATOM      4  H   UNL d   1      -0.645  -3.083   0.763  0.00  0.00     0.169 HD
ENDROOT
BRANCH   1   5
ATOM      5  C   UNL d   1      -0.517  -1.016  -0.467  0.00  0.00     0.137 A 
ATOM      6  C   UNL d   1      -0.474   0.375  -0.595  0.00  0.00     0.119 A 
ATOM      7  O   UNL d   1       0.848   0.730  -0.400  0.00  0.00    -0.303 OA
ATOM      8  C   UNL d   1       1.495  -0.427  -0.133  0.00  0.00     0.234 A 
ATOM      9  N   UNL d   1       0.743  -1.497  -0.114  0.00  0.00    -0.340 N 
ATOM     10  HN  UNL d   1       1.014  -2.456   0.106  1.00  0.00     0.167 HD
BRANCH   6  11
ATOM     11  C   UNL d   1      -1.389   1.508  -0.785  0.00  0.00     0.000 A 
ATOM     12  C   UNL d   1      -0.975   2.810  -0.439  0.00  0.00     0.014 A 
ATOM     13  C   UNL d   1      -1.830   3.913  -0.562  0.00  0.00     0.001 A 
ATOM     14  C   UNL d   1      -3.126   3.741  -1.032  0.00  0.00     0.000 A 
ATOM     15  C   UNL d   1      -3.558   2.470  -1.388  0.00  0.00     0.001 A 
ATOM     16  C   UNL d   1      -2.694   1.371  -1.272  0.00  0.00     0.014 A 
ENDBRANCH   6  11
ENDBRANCH   1   5
BRANCH   2  17
ATOM     17  C   UNL d   1      -2.610  -3.800   0.764  0.00  0.00     0.037 A 
ATOM     18  C   UNL d   1      -3.910  -3.693   0.266  0.00  0.00     0.069 A 
ATOM     19  C   UNL d   1      -4.975  -4.297   0.927  0.00  0.00     0.104 A 
ATOM     20  O   UNL d   1      -6.217  -3.994   0.448  0.00  0.00    -0.346 OA
ATOM     21  C   UNL d   1      -4.742  -5.095   2.041  0.00  0.00     0.102 A 
ATOM     22  C   UNL d   1      -7.294  -4.412   1.286  0.00  0.00     0.202 C 
ATOM     23  C   UNL d   1      -6.897  -4.790   2.708  0.00  0.00     0.202 C 
ATOM     24  O   UNL d   1      -5.767  -5.666   2.745  0.00  0.00    -0.346 OA
ATOM     25  C   UNL d   1      -3.438  -5.310   2.482  0.00  0.00     0.042 A 
ATOM     26  C   UNL d   1      -2.373  -4.650   1.854  0.00  0.00     0.032 A 
ENDBRANCH   2  17
TORSDOF 3
