REMARK  8 active torsions:
REMARK  status: ('A' for Active; 'I' for Inactive)
REMARK    1  A    between atoms: N_5  and  C_1 
REMARK    2  A    between atoms: C_9  and  C_2 
REMARK    3  A    between atoms: C_7  and  N_5 
REMARK    4  A    between atoms: N_8  and  C_7 
REMARK       I    between atoms: C_10  and  N_8 
REMARK    5  A    between atoms: O_15  and  C_9 
REMARK    6  A    between atoms: O_14  and  C_10 
REMARK    7  A    between atoms: C_18  and  O_14 
REMARK    8  A    between atoms: C_19  and  O_15 
ROOT
ATOM      1  C   UNL d   1      -1.929  -0.814  -0.228  0.00  0.00     0.093 C 
ATOM      2  C   UNL d   1      -0.874  -1.721  -0.179  0.00  0.00     0.080 C 
ATOM      3  S   UNL d   1      -1.402   0.769  -0.574  0.00  0.00    -0.075 SA
ATOM      4  C   UNL d   1       0.398  -1.006  -0.179  0.00  0.00    -0.026 C 
ATOM      5  C   UNL d   1       0.212   0.356  -0.315  0.00  0.00    -0.008 C 
ATOM      6  C   UNL d   1       1.785  -1.573  -0.018  0.00  0.00     0.041 C 
ATOM      7  C   UNL d   1       1.269   1.406  -0.205  0.00  0.00     0.047 C 
ATOM      8  C   UNL d   1       2.803  -0.508   0.422  0.00  0.00     0.005 C 
ATOM      9  C   UNL d   1       2.661   0.793  -0.375  0.00  0.00     0.005 C 
ENDROOT
BRANCH   1  10
ATOM     10  N   UNL d   1      -3.297  -1.056  -0.177  0.00  0.00    -0.326 N 
ATOM     11  H   UNL d   1      -3.583  -2.029  -0.308  0.00  0.00     0.169 HD
BRANCH  10  12
ATOM     12  C   UNL d   1      -4.266  -0.218   0.340  0.00  0.00     0.181 C 
ATOM     13  S   UNL d   1      -4.101   1.034   1.449  0.00  0.00    -0.040 SA
BRANCH  12  14
ATOM     14  N   UNL d   1      -5.550  -0.445  -0.101  0.00  0.00    -0.279 N 
ATOM     15  C   UNL d   1      -6.019  -1.387  -0.970  0.00  0.00     0.366 C 
ATOM     16  O   UNL d   1      -5.439  -2.418  -1.286  0.00  0.00    -0.238 OA
ATOM     17  H   UNL d   1      -6.221   0.265   0.153  0.00  0.00     0.173 HD
BRANCH  15  18
ATOM     18  O   UNL d   1      -7.262  -1.033  -1.377  0.00  0.00    -0.304 OA
BRANCH  18  19
ATOM     19  C   UNL d   1      -7.931  -1.958  -2.242  0.00  0.00     0.176 C 
ATOM     20  C   UNL d   1      -7.393  -1.881  -3.660  0.00  0.00     0.034 C 
ENDBRANCH  18  19
ENDBRANCH  15  18
ENDBRANCH  12  14
ENDBRANCH  10  12
ENDBRANCH   1  10
BRANCH   2  21
ATOM     21  C   UNL d   1      -1.081  -3.163  -0.013  0.00  0.00     0.296 C 
ATOM     22  O   UNL d   1      -2.184  -3.670   0.157  0.00  0.00    -0.259 OA
BRANCH  21  23
ATOM     23  O   UNL d   1       0.089  -3.864   0.004  0.00  0.00    -0.318 OA
BRANCH  23  24
ATOM     24  C   UNL d   1       0.042  -5.173   0.587  0.00  0.00     0.174 C 
ATOM     25  C   UNL d   1       0.194  -5.037   2.092  0.00  0.00     0.034 C 
ENDBRANCH  23  24
ENDBRANCH  21  23
ENDBRANCH   2  21
TORSDOF 8
