REMARK  3 active torsions:
REMARK  status: ('A' for Active; 'I' for Inactive)
REMARK       I    between atoms: N_3  and  C_1 
REMARK       I    between atoms: N_6  and  C_1 
REMARK    1  A    between atoms: C_4  and  N_3 
REMARK    2  A    between atoms: C_14  and  N_6 
REMARK    3  A    between atoms: C_15  and  C_14 
ROOT
ATOM      1  N   UNL d   1      -3.363   0.112   7.373  0.00  0.00    -0.191 NA
ATOM      2  C   UNL d   1      -2.990  -0.088   6.293  0.00  0.00     0.099 C 
ATOM      3  C   UNL d   1      -2.545  -0.329   4.952  0.00  0.00     0.044 A 
ATOM      4  C   UNL d   1      -1.734  -0.774   2.296  0.00  0.00    -0.040 A 
ATOM      5  C   UNL d   1      -1.778   0.629   4.283  0.00  0.00     0.023 A 
ATOM      6  C   UNL d   1      -2.889  -1.517   4.301  0.00  0.00     0.023 A 
ATOM      7  C   UNL d   1      -1.375   0.407   2.964  0.00  0.00     0.010 A 
ATOM      8  C   UNL d   1      -2.486  -1.738   2.982  0.00  0.00     0.010 A 
ENDROOT
BRANCH   4   9
ATOM      9  C   UNL d   1      -1.342  -0.991   0.856  0.00  0.00     0.162 C 
BRANCH   9  10
ATOM     10  N   UNL d   1       0.090  -0.946   0.704  0.00  0.00    -0.339 N 
ATOM     11  C   UNL d   1       0.899  -0.118  -0.003  0.00  0.00     0.320 C 
ATOM     12  N   UNL d   1       0.305   0.929  -0.655  0.00  0.00    -0.309 N 
ATOM     13  O   UNL d   1       2.101  -0.379   0.019  0.00  0.00    -0.247 OA
ATOM     14  H   UNL d   1      -0.620   1.187  -0.359  0.00  0.00     0.170 HD
ATOM     15  H   UNL d   1       0.624  -1.671   1.167  0.00  0.00     0.164 HD
BRANCH  12  16
ATOM     16  C   UNL d   1       0.960   1.850  -1.508  0.00  0.00     0.037 A 
ATOM     17  C   UNL d   1       2.228   1.611  -2.042  0.00  0.00     0.036 A 
ATOM     18  C   UNL d   1       2.870   2.561  -2.844  0.00  0.00    -0.059 A 
ATOM     19  C   UNL d   1       4.244   2.289  -3.379  0.00  0.00     0.048 C 
ATOM     20  C   UNL d   1       2.224   3.770  -3.116  0.00  0.00     0.013 A 
ATOM     21  C   UNL d   1       0.940   4.022  -2.616  0.00  0.00    -0.059 A 
ATOM     22  C   UNL d   1       0.307   3.049  -1.825  0.00  0.00     0.036 A 
ATOM     23  C   UNL d   1       0.281   5.337  -2.915  0.00  0.00     0.048 C 
ENDBRANCH  12  16
ENDBRANCH   9  10
ENDBRANCH   4   9
TORSDOF 3
