REMARK  2 active torsions:
REMARK  status: ('A' for Active; 'I' for Inactive)
REMARK    1  A    between atoms: N_2  and  C_1 
REMARK    2  A    between atoms: C_4  and  C_5 
ROOT
ATOM      1  C   UNL d   1      -0.429  -2.845   0.207  0.00  0.00     0.246 C 
ATOM      2  N   UNL d   1      -0.224  -3.824  -0.877  0.00  0.00    -0.259 NA
ATOM      3  O   UNL d   1       0.213  -3.296   1.432  0.00  0.00    -0.324 OA
ATOM      4  C   UNL d   1       0.348  -4.636   1.210  0.00  0.00     0.093 A 
ATOM      5  C   UNL d   1       0.034  -4.971  -0.094  0.00  0.00     0.044 A 
ATOM      6  C   UNL d   1       0.722  -5.564   2.157  0.00  0.00     0.045 A 
ATOM      7  C   UNL d   1       0.074  -6.288  -0.502  0.00  0.00     0.027 A 
ATOM      8  C   UNL d   1       0.759  -6.908   1.772  0.00  0.00    -0.059 A 
ATOM      9  C   UNL d   1       0.418  -7.262   0.446  0.00  0.00     0.009 A 
ATOM     10  C   UNL d   1       1.137  -7.970   2.762  0.00  0.00     0.048 C 
ATOM     11  H   UNL d   1      -1.043  -3.957  -1.460  0.00  0.00     0.130 HD
ENDROOT
BRANCH   1  12
ATOM     12  C   UNL d   1       0.096  -1.457  -0.033  0.00  0.00     0.029 A 
ATOM     13  S   UNL d   1      -0.704  -0.126   0.711  0.00  0.00    -0.067 SA
ATOM     14  C   UNL d   1       0.473   0.967   0.167  0.00  0.00     0.144 A 
ATOM     15  C   UNL d   1       1.434   0.370  -0.618  0.00  0.00     0.045 A 
ATOM     16  C   UNL d   1       1.210  -1.038  -0.739  0.00  0.00     0.021 A 
BRANCH  14  17
ATOM     17  N   UNL d   1       0.403   2.356   0.548  0.00  0.00    -0.108 N 
ATOM     18  O   UNL d   1       1.336   3.075   0.165  0.00  0.00    -0.531 OA
ATOM     19  O   UNL d   1      -0.565   2.736   1.219  0.00  0.00    -0.531 OA
ENDBRANCH  14  17
ENDBRANCH   1  12
TORSDOF 2
