REMARK  4 active torsions:
REMARK  status: ('A' for Active; 'I' for Inactive)
REMARK    1  A    between atoms: N_3  and  S_1 
REMARK    2  A    between atoms: C_11  and  S_1 
REMARK    3  A    between atoms: C_2  and  N_8 
REMARK    4  A    between atoms: C_12  and  C_20 
ROOT
ATOM      1  N   UNL d   1       0.816  -0.249   1.046  0.00  0.00    -0.303 N 
ATOM      2  N   UNL d   1       2.566  -1.499   3.097  0.00  0.00     0.105 N 
ATOM      3  C   UNL d   1       1.403   0.566   2.138  0.00  0.00     0.165 C 
ATOM      4  C   UNL d   1       0.624  -1.664   1.422  0.00  0.00     0.165 C 
ATOM      5  C   UNL d   1       1.892  -2.286   2.050  0.00  0.00     0.294 C 
ATOM      6  C   UNL d   1       2.692  -0.089   2.668  0.00  0.00     0.294 C 
ENDROOT
BRANCH   1   7
ATOM      7  S   UNL d   1       1.262   0.091  -0.540  0.00  0.00     0.260 S 
ATOM      8  O   UNL d   1       0.849  -0.985  -1.406  0.00  0.00    -0.200 OA
ATOM      9  O   UNL d   1       2.619   0.587  -0.539  0.00  0.00    -0.200 OA
BRANCH   7  10
ATOM     10  C   UNL d   1       0.175   1.453  -0.898  0.00  0.00     0.079 A 
ATOM     11  C   UNL d   1       0.694   2.689  -1.269  0.00  0.00     0.026 A 
ATOM     12  C   UNL d   1      -0.183   3.757  -1.499  0.00  0.00     0.016 A 
ATOM     13  C   UNL d   1      -1.571   3.599  -1.350  0.00  0.00    -0.001 A 
ATOM     14  C   UNL d   1      -2.069   2.332  -1.002  0.00  0.00     0.016 A 
ATOM     15  C   UNL d   1      -1.202   1.260  -0.777  0.00  0.00     0.026 A 
BRANCH  13  16
ATOM     16  C   UNL d   1      -2.465   4.736  -1.518  0.00  0.00     0.102 A 
ATOM     17  O   UNL d   1      -3.802   4.528  -1.290  0.00  0.00    -0.304 OA
ATOM     18  C   UNL d   1      -4.366   5.751  -1.475  0.00  0.00     0.233 A 
ATOM     19  N   UNL d   1      -3.531   6.709  -1.802  0.00  0.00    -0.354 N 
ATOM     20  C   UNL d   1      -2.317   6.071  -1.834  0.00  0.00     0.127 A 
ATOM     21  HN  UNL d   1      -3.735   7.691  -1.989  1.00  0.00     0.166 HD
ENDBRANCH  13  16
ENDBRANCH   7  10
ENDBRANCH   1   7
BRANCH   2  22
ATOM     22  C   UNL d   1       2.134  -1.761   4.489  0.00  0.00     0.290 C 
ATOM     23  C   UNL d   1       0.679  -1.445   4.827  0.00  0.00    -0.009 C 
ATOM     24  C   UNL d   1       0.608  -0.313   5.667  0.00  0.00    -0.017 C 
ATOM     25  C   UNL d   1      -0.474  -2.115   4.446  0.00  0.00     0.010 C 
ATOM     26  C   UNL d   1      -0.614   0.271   5.954  0.00  0.00     0.013 C 
ATOM     27  C   UNL d   1       1.944   0.024   6.106  0.00  0.00    -0.017 A 
ATOM     28  C   UNL d   1      -1.773  -0.317   5.435  0.00  0.00     0.001 C 
ATOM     29  C   UNL d   1      -1.706  -1.520   4.719  0.00  0.00     0.001 C 
ATOM     30  C   UNL d   1       2.864  -0.852   5.483  0.00  0.00    -0.009 A 
ATOM     31  C   UNL d   1       2.386   0.988   6.994  0.00  0.00     0.013 A 
ATOM     32  C   UNL d   1       4.226  -0.770   5.737  0.00  0.00     0.010 A 
ATOM     33  C   UNL d   1       4.670   0.211   6.623  0.00  0.00     0.001 A 
ATOM     34  C   UNL d   1       3.760   1.082   7.247  0.00  0.00     0.001 A 
ENDBRANCH   2  22
TORSDOF 4
