REMARK  7 active torsions:
REMARK  status: ('A' for Active; 'I' for Inactive)
REMARK    1  A    between atoms: C_8  and  C_1 
REMARK    2  A    between atoms: C_12  and  C_7 
REMARK    3  A    between atoms: C_11  and  C_9 
REMARK    4  A    between atoms: C_10  and  N_15 
REMARK    5  A    between atoms: O_25  and  C_11 
REMARK    6  A    between atoms: N_15  and  C_18 
REMARK    7  A    between atoms: C_27  and  O_25 
ROOT
ATOM      1  C   UNL d   1      -2.645   8.629  -1.004  0.00  0.00     0.135 C 
ATOM      2  C   UNL d   1      -2.286   7.332  -0.988  0.00  0.00     0.117 C 
ATOM      3  C   UNL d   1      -2.757   9.309  -2.245  0.00  0.00     0.107 C 
ATOM      4  N   UNL d   1      -2.854   9.830  -3.280  0.00  0.00    -0.191 NA
ENDROOT
BRANCH   1   5
ATOM      5  C   UNL d   1      -3.003   9.322   0.256  0.00  0.00     0.305 C 
ATOM      6  O   UNL d   1      -2.971   8.800   1.363  0.00  0.00    -0.258 OA
BRANCH   5   7
ATOM      7  O   UNL d   1      -3.454  10.572  -0.017  0.00  0.00    -0.317 OA
BRANCH   7   8
ATOM      8  C   UNL d   1      -4.204  11.214   1.024  0.00  0.00     0.174 C 
ATOM      9  C   UNL d   1      -5.660  10.814   0.866  0.00  0.00     0.034 C 
ENDBRANCH   7   8
ENDBRANCH   5   7
ENDBRANCH   1   5
BRANCH   2  10
ATOM     10  N   UNL d   1      -2.168   6.461   0.070  0.00  0.00    -0.364 N 
ATOM     11  H   UNL d   1      -2.390   6.851   0.990  0.00  0.00     0.165 HD
BRANCH  10  12
ATOM     12  C   UNL d   1      -1.659   5.147   0.063  0.00  0.00     0.037 A 
ATOM     13  C   UNL d   1      -0.885   4.663  -1.003  0.00  0.00     0.031 A 
ATOM     14  C   UNL d   1      -0.423   3.343  -1.040  0.00  0.00     0.018 A 
ATOM     15  C   UNL d   1      -0.735   2.453  -0.011  0.00  0.00     0.017 A 
ATOM     16  C   UNL d   1      -1.530   2.917   1.046  0.00  0.00     0.025 A 
ATOM     17  C   UNL d   1      -1.998   4.246   1.095  0.00  0.00    -0.034 A 
ATOM     18  C   UNL d   1      -2.865   4.657   2.257  0.00  0.00     0.050 C 
BRANCH  15  19
ATOM     19  C   UNL d   1      -0.252   1.078  -0.003  0.00  0.00     0.174 A 
ATOM     20  O   UNL d   1       0.566   0.685  -1.032  0.00  0.00    -0.269 OA
ATOM     21  C   UNL d   1       0.849  -0.619  -0.692  0.00  0.00     0.249 A 
ATOM     22  N   UNL d   1       0.255  -0.982   0.430  0.00  0.00    -0.274 N 
ATOM     23  N   UNL d   1      -0.455   0.114   0.872  0.00  0.00    -0.277 N 
ATOM     24  HN  UNL d   1       0.310  -1.895   0.881  1.00  0.00     0.189 HD
ATOM     25  HN  UNL d   1      -1.028   0.169   1.714  1.00  0.00     0.189 HD
BRANCH  21  26
ATOM     26  C   UNL d   1       1.750  -1.393  -1.583  0.00  0.00     0.457 C 
ATOM     27  F   UNL d   1       2.127  -0.689  -2.687  0.00  0.00    -0.163 F 
ATOM     28  F   UNL d   1       2.901  -1.763  -0.958  0.00  0.00    -0.163 F 
ATOM     29  F   UNL d   1       1.170  -2.535  -2.041  0.00  0.00    -0.163 F 
ENDBRANCH  21  26
ENDBRANCH  15  19
ENDBRANCH  10  12
ENDBRANCH   2  10
TORSDOF 7
