REMARK  5 active torsions:
REMARK  status: ('A' for Active; 'I' for Inactive)
REMARK    1  A    between atoms: C_6  and  C_1 
REMARK    2  A    between atoms: C_9  and  C_3 
REMARK    3  A    between atoms: O_7  and  C_6 
REMARK    4  A    between atoms: C_10  and  O_7 
REMARK    5  A    between atoms: C_13  and  C_10 
ROOT
ATOM      1  C   UNL d   1      -0.233   0.668   0.061  0.00  0.00     0.115 A 
ATOM      2  N   UNL d   1       1.113   1.003   0.081  0.00  0.00    -0.354 N 
ATOM      3  C   UNL d   1      -0.283  -0.737   0.102  0.00  0.00    -0.018 A 
ATOM      4  C   UNL d   1       1.100  -1.202   0.113  0.00  0.00    -0.031 A 
ATOM      5  C   UNL d   1       1.919  -0.095   0.107  0.00  0.00     0.012 A 
ATOM      6  C   UNL d   1       1.598  -2.611   0.084  0.00  0.00     0.051 C 
ATOM      7  C   UNL d   1       3.398   0.026   0.090  0.00  0.00     0.068 C 
ATOM      8  H   UNL d   1       1.429   1.959   0.033  0.00  0.00     0.166 HD
ENDROOT
BRANCH   1   9
ATOM      9  C   UNL d   1      -1.137   1.801  -0.072  0.00  0.00     0.310 C 
ATOM     10  O   UNL d   1      -0.757   2.872  -0.536  0.00  0.00    -0.258 OA
BRANCH   9  11
ATOM     11  O   UNL d   1      -2.393   1.599   0.409  0.00  0.00    -0.312 OA
BRANCH  11  12
ATOM     12  C   UNL d   1      -3.325   2.646   0.055  0.00  0.00     0.217 C 
BRANCH  12  13
ATOM     13  C   UNL d   1      -3.427   3.854   0.972  0.00  0.00    -0.034 A 
ATOM     14  C   UNL d   1      -2.697   3.991   2.158  0.00  0.00     0.009 A 
ATOM     15  C   UNL d   1      -2.834   5.141   2.951  0.00  0.00     0.001 A 
ATOM     16  C   UNL d   1      -3.704   6.164   2.575  0.00  0.00     0.000 A 
ATOM     17  C   UNL d   1      -4.442   6.043   1.402  0.00  0.00     0.001 A 
ATOM     18  C   UNL d   1      -4.304   4.899   0.610  0.00  0.00     0.009 A 
ENDBRANCH  12  13
ENDBRANCH  11  12
ENDBRANCH   9  11
ENDBRANCH   1   9
BRANCH   3  19
ATOM     19  C   UNL d   1      -1.399  -1.748   0.051  0.00  0.00     0.037 C 
ATOM     20  C   UNL d   1      -2.835  -1.289  -0.004  0.00  0.00     0.010 C 
ENDBRANCH   3  19
TORSDOF 5
