REMARK  5 active torsions:
REMARK  status: ('A' for Active; 'I' for Inactive)
REMARK    1  A    between atoms: C_2  and  C_1 
REMARK       I    between atoms: N_6  and  C_1 
REMARK    2  A    between atoms: C_9  and  C_5 
REMARK    3  A    between atoms: C_11  and  N_6 
REMARK    4  A    between atoms: O_15  and  C_9 
REMARK    5  A    between atoms: O_16  and  C_14 
ROOT
ATOM      1  C   UNL d   1       0.618   0.152   0.176  0.00  0.00     0.228 C 
ATOM      2  N   UNL d   1       1.822   0.727  -0.139  0.00  0.00    -0.324 N 
ATOM      3  O   UNL d   1       0.177  -0.878  -0.339  0.00  0.00    -0.273 OA
ATOM      4  H   UNL d   1       2.336   1.225   0.579  0.00  0.00     0.169 HD
ENDROOT
BRANCH   1   5
ATOM      5  C   UNL d   1      -0.118   0.759   1.348  0.00  0.00     0.100 C 
ATOM      6  C   UNL d   1      -0.034   2.286   1.563  0.00  0.00     0.022 C 
ATOM      7  C   UNL d   1      -0.446   3.003   0.301  0.00  0.00    -0.025 C 
ATOM      8  C   UNL d   1      -1.308   2.522   2.387  0.00  0.00     0.018 C 
ATOM      9  C   UNL d   1      -1.759   2.794   0.142  0.00  0.00    -0.025 C 
ATOM     10  C   UNL d   1      -2.234   1.948   1.310  0.00  0.00     0.023 C 
ATOM     11  C   UNL d   1      -1.652   0.535   1.101  0.00  0.00     0.105 C 
BRANCH  11  12
ATOM     12  C   UNL d   1      -2.166  -0.512   2.053  0.00  0.00     0.145 C 
ATOM     13  O   UNL d   1      -2.964  -0.308   2.953  0.00  0.00    -0.650 OA
BRANCH  12  14
ATOM     14  O   UNL d   1      -1.635  -1.735   1.806  0.00  0.00    -0.776 OA
ATOM     15  H   UNL d   1      -1.048  -1.764   1.013  0.00  0.00     0.167 HD
ENDBRANCH  12  14
ENDBRANCH  11  12
ENDBRANCH   1   5
BRANCH   2  16
ATOM     16  C   UNL d   1       2.515   0.502  -1.344  0.00  0.00     0.068 A 
ATOM     17  C   UNL d   1       3.912   0.607  -1.359  0.00  0.00     0.095 A 
ATOM     18  C   UNL d   1       4.615   0.537  -2.563  0.00  0.00     0.039 A 
ATOM     19  C   UNL d   1       3.925   0.331  -3.759  0.00  0.00     0.003 A 
ATOM     20  C   UNL d   1       2.537   0.193  -3.748  0.00  0.00     0.002 A 
ATOM     21  C   UNL d   1       1.834   0.272  -2.544  0.00  0.00     0.032 A 
BRANCH  17  22
ATOM     22  O   UNL d   1       4.642   0.772  -0.208  0.00  0.00    -0.354 OA
ATOM     23  C   UNL d   1       4.573  -0.397   0.618  0.00  0.00     0.210 C 
ENDBRANCH  17  22
ENDBRANCH   2  16
TORSDOF 5
