REMARK  5 active torsions:
REMARK  status: ('A' for Active; 'I' for Inactive)
REMARK    1  A    between atoms: O_17  and  C_9 
REMARK    2  A    between atoms: O_18  and  C_10 
REMARK    3  A    between atoms: C_25  and  C_11 
REMARK    4  A    between atoms: C_19  and  O_17 
REMARK    5  A    between atoms: C_20  and  O_18 
ROOT
ATOM      1  C   UNL d   1      22.914  14.743 -22.619  0.00  0.00    -0.033 C 
ATOM      2  C   UNL d   1      21.650  11.166 -20.413  0.00  0.00    -0.013 C 
ATOM      3  C   UNL d   1      21.793  13.741 -22.094  0.00  0.00    -0.001 C 
ATOM      4  C   UNL d   1      22.942  16.447 -24.694  0.00  0.00    -0.049 C 
ATOM      5  C   UNL d   1      22.121  12.529 -19.809  0.00  0.00     0.001 C 
ATOM      6  C   UNL d   1      21.505  13.740 -20.543  0.00  0.00    -0.005 C 
ATOM      7  C   UNL d   1      22.725  15.026 -24.156  0.00  0.00     0.046 C 
ATOM      8  C   UNL d   1      22.705  16.045 -21.802  0.00  0.00    -0.003 C 
ATOM      9  C   UNL d   1      22.633  17.556 -23.704  0.00  0.00     0.161 C 
ATOM     10  C   UNL d   1      20.580  10.698 -19.395  0.00  0.00     0.140 C 
ATOM     11  C   UNL d   1      23.065  16.580 -26.034  0.00  0.00     0.017 C 
ATOM     12  C   UNL d   1      21.061  11.321 -21.835  0.00  0.00     0.012 C 
ATOM     13  C   UNL d   1      21.881  12.310 -22.670  0.00  0.00     0.007 C 
ATOM     14  C   UNL d   1      23.367  17.285 -22.385  0.00  0.00     0.042 C 
ATOM     15  C   UNL d   1      21.686  12.493 -18.321  0.00  0.00     0.008 C 
ATOM     16  C   UNL d   1      21.758  15.072 -19.804  0.00  0.00     0.006 C 
ATOM     17  C   UNL d   1      22.956  15.843 -20.319  0.00  0.00     0.006 C 
ATOM     18  C   UNL d   1      21.181  11.092 -18.052  0.00  0.00     0.034 C 
ATOM     19  C   UNL d   1      24.337  14.162 -22.448  0.00  0.00     0.016 C 
ATOM     20  C   UNL d   1      22.840  10.180 -20.478  0.00  0.00     0.018 C 
ENDROOT
BRANCH   9  21
ATOM     21  O   UNL d   1      22.689  18.902 -24.211  0.00  0.00    -0.312 OA
BRANCH  21  22
ATOM     22  C   UNL d   1      23.618  19.803 -23.834  0.00  0.00     0.255 C 
ATOM     23  O   UNL d   1      24.695  19.572 -23.301  0.00  0.00    -0.266 OA
ATOM     24  C   UNL d   1      23.100  21.188 -24.107  0.00  0.00     0.126 C 
ENDBRANCH  21  22
ENDBRANCH   9  21
BRANCH  11  25
ATOM     25  C   UNL d   1      22.352  17.634 -26.769  0.00  0.00    -0.036 A 
ATOM     26  C   UNL d   1      22.955  18.430 -27.741  0.00  0.00     0.011 A 
ATOM     27  C   UNL d   1      22.170  19.315 -28.489  0.00  0.00     0.001 A 
ATOM     28  C   UNL d   1      20.792  19.404 -28.277  0.00  0.00     0.000 A 
ATOM     29  C   UNL d   1      20.185  18.608 -27.310  0.00  0.00     0.001 A 
ATOM     30  C   UNL d   1      20.959  17.725 -26.572  0.00  0.00     0.011 A 
ENDBRANCH  11  25
BRANCH  10  31
ATOM     31  O   UNL d   1      20.322   9.294 -19.386  0.00  0.00    -0.316 OA
BRANCH  31  32
ATOM     32  C   UNL d   1      19.137   8.913 -19.926  0.00  0.00     0.255 C 
ATOM     33  O   UNL d   1      18.372   9.621 -20.556  0.00  0.00    -0.266 OA
ATOM     34  C   UNL d   1      18.834   7.498 -19.536  0.00  0.00     0.126 C 
ENDBRANCH  31  32
ENDBRANCH  10  31
TORSDOF 5
