REMARK  6 active torsions:
REMARK  status: ('A' for Active; 'I' for Inactive)
REMARK    1  A    between atoms: C_6  and  C_1 
REMARK    2  A    between atoms: C_5  and  C_2 
REMARK       I    between atoms: N_9  and  C_5 
REMARK    3  A    between atoms: C_10  and  N_9 
REMARK    4  A    between atoms: C_14  and  C_10 
REMARK    5  A    between atoms: C_16  and  C_10 
REMARK    6  A    between atoms: N_11  and  C_14 
ROOT
ATOM      1  C   UNL d   1       0.456  -2.484   0.105  0.00  0.00     0.257 C 
ATOM      2  N   UNL d   1      -0.235  -3.634  -0.222  0.00  0.00    -0.346 N 
ATOM      3  O   UNL d   1      -0.051  -1.367   0.063  0.00  0.00    -0.267 OA
ATOM      4  H   UNL d   1       0.206  -4.534  -0.113  0.00  0.00     0.163 HD
ENDROOT
BRANCH   1   5
ATOM      5  C   UNL d   1       1.857  -2.657   0.402  0.00  0.00     0.092 A 
ATOM      6  C   UNL d   1       2.547  -3.426   1.394  0.00  0.00     0.088 A 
ATOM      7  N   UNL d   1       3.870  -3.216   1.285  0.00  0.00    -0.259 N 
ATOM      8  O   UNL d   1       4.056  -2.299   0.284  0.00  0.00    -0.241 OA
ATOM      9  HN  UNL d   1       4.601  -3.658   1.844  1.00  0.00     0.195 HD
ATOM     10  C   UNL d   1       2.855  -1.932  -0.218  0.00  0.00     0.090 A 
ATOM     11  C   UNL d   1       2.892  -0.872  -1.244  0.00  0.00     0.080 C 
BRANCH   6  12
ATOM     12  C   UNL d   1       2.038  -4.229   2.513  0.00  0.00     0.054 A 
ATOM     13  C   UNL d   1       2.696  -5.376   3.001  0.00  0.00     0.049 A 
ATOM     14 CL   UNL d   1       4.025  -6.134   2.187  0.00  0.00    -0.083 Cl
ATOM     15  C   UNL d   1       2.273  -5.998   4.188  0.00  0.00     0.025 A 
ATOM     16  C   UNL d   1       1.172  -5.513   4.890  0.00  0.00     0.005 A 
ATOM     17  C   UNL d   1       0.483  -4.412   4.398  0.00  0.00     0.043 A 
ATOM     18  C   UNL d   1       0.920  -3.780   3.234  0.00  0.00     0.130 A 
ATOM     19  F   UNL d   1       0.247  -2.688   2.845  0.00  0.00    -0.205 F 
ENDBRANCH   6  12
ENDBRANCH   1   5
BRANCH   2  20
ATOM     20  C   UNL d   1      -1.647  -3.559  -0.605  0.00  0.00     0.146 C 
BRANCH  20  21
ATOM     21  C   UNL d   1      -1.916  -2.701  -1.899  0.00  0.00     0.302 C 
BRANCH  21  22
ATOM     22  N   UNL d   1      -1.741  -3.288  -3.244  0.00  0.00     0.094 N 
ATOM     23  C   UNL d   1      -2.079  -2.291  -4.293  0.00  0.00     0.298 C 
ATOM     24  C   UNL d   1      -0.961  -1.270  -4.575  0.00  0.00     0.198 C 
ATOM     25  O   UNL d   1       0.254  -1.933  -4.944  0.00  0.00    -0.388 OA
ATOM     26  C   UNL d   1       0.673  -2.810  -3.896  0.00  0.00     0.198 C 
ATOM     27  C   UNL d   1      -0.408  -3.840  -3.539  0.00  0.00     0.298 C 
ENDBRANCH  21  22
ENDBRANCH  20  21
BRANCH  20  28
ATOM     28  C   UNL d   1      -2.356  -4.910  -0.630  0.00  0.00    -0.034 A 
ATOM     29  C   UNL d   1      -3.715  -4.973  -0.266  0.00  0.00     0.009 A 
ATOM     30  C   UNL d   1      -4.426  -6.174  -0.323  0.00  0.00     0.001 A 
ATOM     31  C   UNL d   1      -3.792  -7.338  -0.749  0.00  0.00     0.000 A 
ATOM     32  C   UNL d   1      -2.450  -7.298  -1.117  0.00  0.00     0.001 A 
ATOM     33  C   UNL d   1      -1.738  -6.095  -1.058  0.00  0.00     0.009 A 
ENDBRANCH  20  28
ENDBRANCH   2  20
TORSDOF 6
