REMARK  4 active torsions:
REMARK  status: ('A' for Active; 'I' for Inactive)
REMARK    1  A    between atoms: O_15  and  C_7 
REMARK    2  A    between atoms: C_11  and  C_8 
REMARK    3  A    between atoms: O_16  and  C_9 
REMARK    4  A    between atoms: O_17  and  C_10 
ROOT
ATOM      1  C   UNL d   1       1.430  -5.995  -0.319  0.00  0.00     0.135 A 
ATOM      2  C   UNL d   1       0.804  -5.124  -1.246  0.00  0.00     0.105 A 
ATOM      3  C   UNL d   1       2.083  -5.452   0.804  0.00  0.00     0.105 A 
ATOM      4  C   UNL d   1       1.588  -3.204   0.009  0.00  0.00    -0.028 A 
ATOM      5  C   UNL d   1       2.143  -4.059   0.957  0.00  0.00     0.051 A 
ATOM      6  C   UNL d   1       0.936  -3.737  -1.099  0.00  0.00     0.051 A 
ENDROOT
BRANCH   4   7
ATOM      7  C   UNL d   1       1.682  -1.757   0.186  0.00  0.00     0.047 C 
ATOM      8  C   UNL d   1       2.655  -0.993  -0.319  0.00  0.00     0.111 A 
ATOM      9  N   UNL d   1       2.753   0.356  -0.083  0.00  0.00    -0.335 N 
ATOM     10  C   UNL d   1       3.799  -1.452  -1.168  0.00  0.00     0.316 A 
ATOM     11  C   UNL d   1       3.850   0.666  -0.688  0.00  0.00     0.124 A 
ATOM     12  HN  UNL d   1       2.118   0.961   0.439  1.00  0.00     0.168 HD
ATOM     13  C   UNL d   1       4.470   2.013  -0.733  0.00  0.00     0.098 C 
ATOM     14  O   UNL d   1       4.519  -0.307  -1.337  0.00  0.00    -0.261 OA
ATOM     15  O   UNL d   1       4.056  -2.540  -1.627  0.00  0.00    -0.257 OA
ENDBRANCH   4   7
BRANCH   3  16
ATOM     16  O   UNL d   1       2.705  -6.088   1.845  0.00  0.00    -0.353 OA
ATOM     17  C   UNL d   1       2.752  -7.503   1.874  0.00  0.00     0.210 C 
ENDBRANCH   3  16
BRANCH   2  18
ATOM     18  O   UNL d   1       0.056  -5.691  -2.252  0.00  0.00    -0.353 OA
ATOM     19  C   UNL d   1      -0.855  -4.833  -2.931  0.00  0.00     0.210 C 
ENDBRANCH   2  18
BRANCH   1  20
ATOM     20  O   UNL d   1       1.292  -7.358  -0.412  0.00  0.00    -0.351 OA
ATOM     21  C   UNL d   1       1.698  -7.936  -1.653  0.00  0.00     0.210 C 
ENDBRANCH   1  20
TORSDOF 4
