REMARK  3 active torsions:
REMARK  status: ('A' for Active; 'I' for Inactive)
REMARK    1  A    between atoms: C_7  and  C_1 
REMARK    2  A    between atoms: O_10  and  C_7 
REMARK    3  A    between atoms: C_12  and  O_10 
ROOT
ATOM      1  C   UNL d   1      -0.369   1.184  -0.037  0.00  0.00     0.101 A 
ATOM      2  C   UNL d   1       0.941   0.648  -0.035  0.00  0.00     0.131 A 
ATOM      3  N   UNL d   1       0.939  -0.684  -0.027  0.00  0.00    -0.284 N 
ATOM      4  HN  UNL d   1       1.742  -1.313  -0.025  1.00  0.00     0.188 HD
ATOM      5  N   UNL d   1      -0.364  -1.007  -0.024  0.00  0.00    -0.305 N 
ATOM      6  C   UNL d   1      -1.193   0.073  -0.036  0.00  0.00     0.131 A 
ATOM      7  N   UNL d   1       2.059   1.373  -0.025  0.00  0.00    -0.384 N 
ATOM      8  C   UNL d   1      -0.746  -2.398   0.004  0.00  0.00     0.177 C 
ATOM      9  H   UNL d   1       2.052   2.390   0.001  0.00  0.00     0.157 HD
ATOM     10  H   UNL d   1       2.961   0.920   0.014  0.00  0.00     0.157 HD
ENDROOT
BRANCH   1  11
ATOM     11  C   UNL d   1      -0.760   2.576   0.015  0.00  0.00     0.298 C 
ATOM     12  O   UNL d   1       0.043   3.499   0.075  0.00  0.00    -0.259 OA
BRANCH  11  13
ATOM     13  O   UNL d   1      -2.115   2.731   0.104  0.00  0.00    -0.318 OA
BRANCH  13  14
ATOM     14  C   UNL d   1      -2.540   3.975   0.672  0.00  0.00     0.174 C 
ATOM     15  C   UNL d   1      -2.571   3.805   2.182  0.00  0.00     0.034 C 
ENDBRANCH  13  14
ENDBRANCH  11  13
ENDBRANCH   1  11
TORSDOF 3
