REMARK  3 active torsions:
REMARK  status: ('A' for Active; 'I' for Inactive)
REMARK    1  A    between atoms: S_2  and  C_1 
REMARK    2  A    between atoms: N_8  and  C_1 
REMARK    3  A    between atoms: C_3  and  S_2 
ROOT
ATOM      1  C   UNL d   1       1.127   0.641  -2.969  0.00  0.00     0.046 A 
ATOM      2  C   UNL d   1       1.810  -0.352  -3.679  0.00  0.00     0.136 A 
ATOM      3  C   UNL d   1       2.685  -0.034  -4.713  0.00  0.00     0.086 A 
ATOM      4  C   UNL d   1       1.331   1.983  -3.323  0.00  0.00     0.025 A 
ATOM      5  C   UNL d   1       2.875   1.301  -5.047  0.00  0.00     0.119 A 
ATOM      6  F   UNL d   1       1.647  -1.647  -3.362  0.00  0.00    -0.205 F 
ATOM      7  C   UNL d   1       2.201   2.310  -4.367  0.00  0.00     0.044 A 
ATOM      8  F   UNL d   1       3.725   1.621  -6.030  0.00  0.00    -0.206 F 
ENDROOT
BRANCH   1   9
ATOM      9  S   UNL d   1       0.116   0.224  -1.558  0.00  0.00    -0.058 SA
BRANCH   9  10
ATOM     10  C   UNL d   1      -1.493   0.248  -2.236  0.00  0.00     0.139 C 
ATOM     11  S   UNL d   1      -2.372   1.652  -2.468  0.00  0.00    -0.053 SA
BRANCH  10  12
ATOM     12  N   UNL d   1      -2.092  -0.950  -2.525  0.00  0.00    -0.380 N 
ATOM     13  C   UNL d   1      -1.561  -2.295  -2.427  0.00  0.00     0.147 C 
ATOM     14  H   UNL d   1      -3.026  -0.858  -2.908  0.00  0.00     0.160 HD
ENDBRANCH  10  12
ENDBRANCH   9  10
ENDBRANCH   1   9
TORSDOF 3
