REMARK  4 active torsions:
REMARK  status: ('A' for Active; 'I' for Inactive)
REMARK    1  A    between atoms: C_10  and  C_1 
REMARK    2  A    between atoms: C_11  and  N_2 
REMARK    3  A    between atoms: O_16  and  C_10 
REMARK    4  A    between atoms: C_26  and  O_16 
ROOT
ATOM      1  C   UNL d   1       1.263  -0.503   0.194  0.00  0.00     0.112 C 
ATOM      2  N   UNL d   1       0.198  -2.174   1.023  0.00  0.00    -0.282 N 
ATOM      3  N   UNL d   1       1.103  -1.188   1.284  0.00  0.00    -0.295 N 
ATOM      4  HN  UNL d   1       1.569  -1.019   2.175  1.00  0.00     0.187 HD
ATOM      5  C   UNL d   1       0.271  -0.730  -0.893  0.00  0.00     0.106 C 
ATOM      6  C   UNL d   1      -0.220  -2.162  -0.396  0.00  0.00     0.157 C 
ATOM      7  C   UNL d   1       0.871  -0.973  -2.221  0.00  0.00    -0.034 A 
ATOM      8  C   UNL d   1       0.484  -3.083  -1.381  0.00  0.00    -0.021 A 
ATOM      9  C   UNL d   1       1.028  -2.330  -2.413  0.00  0.00    -0.010 A 
ATOM     10  C   UNL d   1       1.624  -2.863  -3.532  0.00  0.00    -0.025 A 
ATOM     11  C   UNL d   1       1.251  -0.056  -3.193  0.00  0.00     0.009 A 
ATOM     12  C   UNL d   1       0.534  -4.473  -1.455  0.00  0.00     0.010 A 
ATOM     13  C   UNL d   1       1.184  -5.042  -2.564  0.00  0.00     0.002 A 
ATOM     14  C   UNL d   1       1.855  -0.579  -4.347  0.00  0.00     0.001 A 
ATOM     15  C   UNL d   1       2.059  -1.960  -4.517  0.00  0.00     0.012 A 
ATOM     16  C   UNL d   1       1.726  -4.258  -3.595  0.00  0.00     0.012 A 
ENDROOT
BRANCH   2  17
ATOM     17  C   UNL d   1       0.368  -3.350   1.768  0.00  0.00     0.051 C 
ATOM     18  C   UNL d   1       1.444  -3.480   2.670  0.00  0.00     0.031 C 
ATOM     19  C   UNL d   1       1.741  -4.689   3.299  0.00  0.00     0.009 C 
ATOM     20  C   UNL d   1       0.951  -5.809   3.057  0.00  0.00    -0.062 C 
ATOM     21  C   UNL d   1      -0.193  -5.668   2.265  0.00  0.00     0.009 C 
ATOM     22  C   UNL d   1       1.350  -7.135   3.629  0.00  0.00     0.048 C 
ATOM     23  C   UNL d   1      -0.493  -4.443   1.652  0.00  0.00     0.031 C 
ENDBRANCH   2  17
BRANCH   1  24
ATOM     24  C   UNL d   1       2.522   0.316   0.024  0.00  0.00     0.308 C 
ATOM     25  O   UNL d   1       2.650   1.257  -0.738  0.00  0.00    -0.258 OA
BRANCH  24  26
ATOM     26  O   UNL d   1       3.466  -0.330   0.746  0.00  0.00    -0.317 OA
BRANCH  26  27
ATOM     27  C   UNL d   1       4.841  -0.189   0.393  0.00  0.00     0.175 C 
ATOM     28  C   UNL d   1       5.172  -1.226  -0.665  0.00  0.00     0.034 C 
ENDBRANCH  26  27
ENDBRANCH  24  26
ENDBRANCH   1  24
TORSDOF 4
