REMARK  5 active torsions:
REMARK  status: ('A' for Active; 'I' for Inactive)
REMARK    1  A    between atoms: N_2  and  C_1 
REMARK    2  A    between atoms: C_5  and  C_3 
REMARK    3  A    between atoms: N_4  and  C_6 
REMARK    4  A    between atoms: O_15  and  C_7 
REMARK    5  A    between atoms: O_16  and  C_9 
ROOT
ATOM      1  C   UNL d   1       1.517  -0.283   0.204  0.00  0.00     0.149 A 
ATOM      2  C   UNL d   1       0.683  -1.433   0.059  0.00  0.00     0.035 A 
ATOM      3  C   UNL d   1       1.037   1.031   0.102  0.00  0.00     0.102 A 
ATOM      4  C   UNL d   1      -0.695  -1.217  -0.126  0.00  0.00     0.081 A 
ATOM      5  C   UNL d   1      -0.332   1.204  -0.077  0.00  0.00     0.042 A 
ATOM      6  C   UNL d   1      -1.179   0.101  -0.182  0.00  0.00     0.040 A 
ENDROOT
BRANCH   2   7
ATOM      7  C   UNL d   1       1.277  -2.780   0.144  0.00  0.00     0.040 C 
ATOM      8  C   UNL d   1       1.765  -3.412  -0.930  0.00  0.00     0.168 C 
BRANCH   8   9
ATOM      9  N   UNL d   1       2.330  -4.735  -0.785  0.00  0.00    -0.127 N 
ATOM     10  O   UNL d   1       2.374  -5.243   0.343  0.00  0.00    -0.532 OA
ATOM     11  O   UNL d   1       2.708  -5.277  -1.830  0.00  0.00    -0.532 OA
ENDBRANCH   8   9
ENDBRANCH   2   7
BRANCH   1  12
ATOM     12  N   UNL d   1       2.891  -0.490   0.608  0.00  0.00    -0.112 N 
ATOM     13  O   UNL d   1       3.667  -0.939  -0.247  0.00  0.00    -0.532 OA
ATOM     14  O   UNL d   1       3.186  -0.206   1.776  0.00  0.00    -0.532 OA
ENDBRANCH   1  12
BRANCH   4  15
ATOM     15  O   UNL d   1      -1.727  -2.105  -0.241  0.00  0.00    -0.355 OA
ATOM     16  C   UNL d   1      -1.536  -3.506  -0.169  0.00  0.00     0.210 C 
ENDBRANCH   4  15
BRANCH   3  17
ATOM     17  O   UNL d   1       1.714   2.211   0.231  0.00  0.00    -0.353 OA
ATOM     18  C   UNL d   1       3.022   2.306  -0.324  0.00  0.00     0.210 C 
ENDBRANCH   3  17
TORSDOF 5
