REMARK  5 active torsions:
REMARK  status: ('A' for Active; 'I' for Inactive)
REMARK    1  A    between atoms: C_2  and  C_1 
REMARK    2  A    between atoms: C_4  and  C_2 
REMARK    3  A    between atoms: N_6  and  C_3 
REMARK    4  A    between atoms: C_9  and  N_6 
REMARK    5  A    between atoms: O_19  and  C_11 
ROOT
ATOM      1  C   UNL d   1       0.999  -0.084   0.036  0.00  0.00     0.072 C 
ATOM      2  C   UNL d   1       2.331  -0.240   0.011  0.00  0.00     0.092 C 
ENDROOT
BRANCH   1   3
ATOM      3  C   UNL d   1       0.306   0.176   1.331  0.00  0.00     0.183 C 
ATOM      4  O   UNL d   1       0.922   0.299   2.384  0.00  0.00    -0.288 OA
BRANCH   3   5
ATOM      5  C   UNL d   1      -1.174   0.350   1.310  0.00  0.00     0.014 A 
ATOM      6  C   UNL d   1      -1.998  -0.287   0.376  0.00  0.00     0.018 A 
ATOM      7  C   UNL d   1      -3.383  -0.071   0.389  0.00  0.00     0.037 A 
ATOM      8  C   UNL d   1      -3.957   0.774   1.339  0.00  0.00     0.068 A 
ATOM      9  C   UNL d   1      -3.138   1.387   2.290  0.00  0.00     0.037 A 
ATOM     10  C   UNL d   1      -1.755   1.174   2.281  0.00  0.00     0.018 A 
BRANCH   8  11
ATOM     11  O   UNL d   1      -5.287   1.077   1.447  0.00  0.00    -0.356 OA
ATOM     12  C   UNL d   1      -6.162   0.490   0.491  0.00  0.00     0.210 C 
ENDBRANCH   8  11
ENDBRANCH   3   5
ENDBRANCH   1   3
BRANCH   2  13
ATOM     13  N   UNL d   1       3.114  -0.406  -1.105  0.00  0.00    -0.366 N 
ATOM     14  H   UNL d   1       2.659  -0.299  -2.004  0.00  0.00     0.165 HD
BRANCH  13  15
ATOM     15  C   UNL d   1       4.508  -0.582  -1.146  0.00  0.00     0.032 A 
ATOM     16  C   UNL d   1       5.230  -1.156  -0.091  0.00  0.00     0.031 A 
ATOM     17  C   UNL d   1       6.625  -1.252  -0.139  0.00  0.00     0.026 A 
ATOM     18  C   UNL d   1       7.316  -0.751  -1.238  0.00  0.00     0.034 A 
ATOM     19  C   UNL d   1       6.623  -0.162  -2.291  0.00  0.00     0.026 A 
ATOM     20 CL   UNL d   1       9.032  -0.851  -1.290  0.00  0.00    -0.084 Cl
ATOM     21  C   UNL d   1       5.226  -0.082  -2.244  0.00  0.00     0.031 A 
ENDBRANCH  13  15
ENDBRANCH   2  13
TORSDOF 5
