REMARK  2 active torsions:
REMARK  status: ('A' for Active; 'I' for Inactive)
REMARK       I    between atoms: N_2  and  C_1 
REMARK    1  A    between atoms: C_4  and  C_1 
REMARK    2  A    between atoms: C_3  and  N_2 
ROOT
ATOM      1  C   UNL d   1       1.225   0.340   0.150  0.00  0.00     0.256 C 
ATOM      2  N   UNL d   1       0.515  -0.195   1.212  0.00  0.00    -0.320 N 
ATOM      3  O   UNL d   1       2.442   0.477   0.093  0.00  0.00    -0.267 OA
ATOM      4  H   UNL d   1      -0.484  -0.338   1.094  0.00  0.00     0.169 HD
ENDROOT
BRANCH   2   5
ATOM      5  C   UNL d   1       1.064  -0.704   2.415  0.00  0.00     0.077 A 
ATOM      6  C   UNL d   1       2.411  -0.589   2.765  0.00  0.00     0.076 A 
ATOM      7  C   UNL d   1       2.885  -1.187   3.932  0.00  0.00     0.136 A 
ATOM      8  F   UNL d   1       4.188  -1.073   4.227  0.00  0.00    -0.205 F 
ATOM      9  C   UNL d   1       2.029  -1.897   4.772  0.00  0.00     0.052 A 
ATOM     10  C   UNL d   1       0.673  -1.984   4.462  0.00  0.00     0.067 A 
ATOM     11 BR   UNL d   1       2.694  -2.754   6.319  0.00  0.00    -0.048 Br
ATOM     12  C   UNL d   1       0.206  -1.383   3.295  0.00  0.00     0.144 A 
ATOM     13  F   UNL d   1      -1.100  -1.481   2.999  0.00  0.00    -0.204 F 
ENDBRANCH   2   5
BRANCH   1  14
ATOM     14  C   UNL d   1       0.408   0.788  -1.014  0.00  0.00     0.038 A 
ATOM     15  C   UNL d   1       0.772   0.489  -2.351  0.00  0.00    -0.040 A 
ATOM     16  C   UNL d   1       0.017   1.063  -3.404  0.00  0.00    -0.055 A 
ATOM     17  C   UNL d   1       1.955  -0.390  -2.679  0.00  0.00     0.050 C 
ATOM     18  C   UNL d   1       0.330   0.856  -4.864  0.00  0.00     0.049 C 
ATOM     19  C   UNL d   1      -1.072   1.899  -3.101  0.00  0.00     0.007 A 
ATOM     20  C   UNL d   1      -1.429   2.169  -1.784  0.00  0.00     0.002 A 
ATOM     21  C   UNL d   1      -0.693   1.617  -0.741  0.00  0.00     0.017 A 
ENDBRANCH   1  14
TORSDOF 2
