REMARK  7 active torsions:
REMARK  status: ('A' for Active; 'I' for Inactive)
REMARK    1  A    between atoms: C_6  and  C_1 
REMARK    2  A    between atoms: C_7  and  C_2 
REMARK    3  A    between atoms: C_16  and  C_4 
REMARK    4  A    between atoms: C_8  and  C_7 
REMARK    5  A    between atoms: C_9  and  C_14 
REMARK    6  A    between atoms: N_15  and  N_10 
REMARK    7  A    between atoms: C_26  and  N_15 
ROOT
ATOM      1  C   UNL d   1      -1.521  -3.185  -0.042  0.00  0.00     0.180 C 
ATOM      2  N   UNL d   1      -0.378  -2.930  -0.618  0.00  0.00    -0.287 N 
ATOM      3  HN  UNL d   1      -0.256  -2.057  -1.131  1.00  0.00     0.188 HD
ATOM      4  C   UNL d   1      -1.692  -4.466   0.601  0.00  0.00     0.123 C 
ATOM      5  N   UNL d   1      -1.781  -5.520   1.083  0.00  0.00    -0.190 NA
ENDROOT
BRANCH   1   6
ATOM      6  C   UNL d   1      -2.664  -2.205  -0.095  0.00  0.00     0.227 C 
ATOM      7  O   UNL d   1      -3.783  -2.699  -0.225  0.00  0.00    -0.284 OA
BRANCH   6   8
ATOM      8  C   UNL d   1      -2.442  -0.767   0.011  0.00  0.00     0.059 A 
ATOM      9  S   UNL d   1      -0.928  -0.045   0.266  0.00  0.00    -0.081 SA
ATOM     10  C   UNL d   1      -1.538   1.560   0.129  0.00  0.00     0.100 A 
ATOM     11  C   UNL d   1      -2.927   1.562   0.017  0.00  0.00    -0.003 A 
ATOM     12  C   UNL d   1      -3.422   0.207  -0.053  0.00  0.00     0.036 A 
BRANCH  10  13
ATOM     13  C   UNL d   1      -0.541   2.684   0.151  0.00  0.00     0.424 C 
ATOM     14  F   UNL d   1       0.747   2.261   0.021  0.00  0.00    -0.166 F 
ATOM     15  F   UNL d   1      -0.747   3.574  -0.852  0.00  0.00    -0.166 F 
ATOM     16  F   UNL d   1      -0.583   3.378   1.319  0.00  0.00    -0.166 F 
ENDBRANCH  10  13
BRANCH  11  17
ATOM     17  C   UNL d   1      -3.773   2.768  -0.076  0.00  0.00    -0.025 A 
ATOM     18  C   UNL d   1      -4.943   2.741  -0.855  0.00  0.00     0.012 A 
ATOM     19  C   UNL d   1      -5.789   3.854  -0.935  0.00  0.00     0.001 A 
ATOM     20  C   UNL d   1      -5.470   5.024  -0.254  0.00  0.00     0.000 A 
ATOM     21  C   UNL d   1      -4.320   5.070   0.526  0.00  0.00     0.001 A 
ATOM     22  C   UNL d   1      -3.493   3.945   0.632  0.00  0.00     0.012 A 
ENDBRANCH  11  17
ENDBRANCH   6   8
ENDBRANCH   1   6
BRANCH   2  23
ATOM     23  N   UNL d   1       0.657  -3.816  -0.542  0.00  0.00    -0.300 N 
ATOM     24  H   UNL d   1       0.519  -4.822  -0.417  0.00  0.00     0.187 HD
BRANCH  23  25
ATOM     25  C   UNL d   1       1.894  -3.458  -1.119  0.00  0.00     0.048 A 
ATOM     26  C   UNL d   1       2.152  -2.162  -1.580  0.00  0.00     0.031 A 
ATOM     27  C   UNL d   1       3.408  -1.806  -2.081  0.00  0.00     0.018 A 
ATOM     28  C   UNL d   1       4.448  -2.741  -2.123  0.00  0.00     0.048 A 
ATOM     29  C   UNL d   1       4.202  -4.036  -1.652  0.00  0.00     0.018 A 
ATOM     30  C   UNL d   1       2.942  -4.387  -1.147  0.00  0.00     0.031 A 
BRANCH  28  31
ATOM     31  C   UNL d   1       5.811  -2.363  -2.650  0.00  0.00     0.417 C 
ATOM     32  F   UNL d   1       5.899  -1.065  -3.054  0.00  0.00    -0.166 F 
ATOM     33  F   UNL d   1       6.794  -2.532  -1.723  0.00  0.00    -0.166 F 
ATOM     34  F   UNL d   1       6.179  -3.113  -3.726  0.00  0.00    -0.166 F 
ENDBRANCH  28  31
ENDBRANCH  23  25
ENDBRANCH   2  23
TORSDOF 7
