REMARK  5 active torsions:
REMARK  status: ('A' for Active; 'I' for Inactive)
REMARK    1  A    between atoms: C_2  and  S_1 
REMARK    2  A    between atoms: N_4  and  S_1 
REMARK    3  A    between atoms: C_6  and  C_5 
REMARK    4  A    between atoms: C_13  and  N_7 
REMARK    5  A    between atoms: O_23  and  C_22 
ROOT
ATOM      1  N   UNL d   1       0.648   1.071  -0.031  0.00  0.00    -0.203 NA
ATOM      2  N   UNL d   1      -0.854   2.275   2.223  0.00  0.00    -0.376 N 
ATOM      3  C   UNL d   1       1.044   2.376   0.581  0.00  0.00     0.127 C 
ATOM      4  C   UNL d   1      -0.823   0.888   0.140  0.00  0.00     0.127 C 
ATOM      5  C   UNL d   1      -1.256   0.980   1.613  0.00  0.00     0.138 C 
ATOM      6  C   UNL d   1       0.591   2.558   2.047  0.00  0.00     0.138 C 
ENDROOT
BRANCH   1   7
ATOM      7  S   UNL d   1       1.574  -0.299   0.357  0.00  0.00     0.250 S 
ATOM      8  O   UNL d   1       1.873  -0.262   1.776  0.00  0.00    -0.205 OA
ATOM      9  O   UNL d   1       0.921  -1.454  -0.221  0.00  0.00    -0.205 OA
BRANCH   7  10
ATOM     10  C   UNL d   1       3.164  -0.288  -0.427  0.00  0.00     0.116 C 
ATOM     11  S   UNL d   1       3.622   1.086  -1.328  0.00  0.00    -0.074 SA
ATOM     12  C   UNL d   1       5.243   0.552  -1.456  0.00  0.00     0.042 C 
ATOM     13  C   UNL d   1       5.368  -0.753  -1.024  0.00  0.00     0.024 C 
ATOM     14  C   UNL d   1       4.166  -1.239  -0.433  0.00  0.00     0.034 C 
BRANCH  12  15
ATOM     15  C   UNL d   1       6.305   1.407  -1.911  0.00  0.00     0.117 A 
ATOM     16  O   UNL d   1       7.619   1.013  -1.875  0.00  0.00    -0.237 OA
ATOM     17  N   UNL d   1       8.442   2.052  -2.270  0.00  0.00    -0.272 N 
ATOM     18  C   UNL d   1       7.621   3.062  -2.553  0.00  0.00     0.117 A 
ATOM     19  HN  UNL d   1       9.460   2.047  -2.331  1.00  0.00     0.194 HD
ATOM     20  C   UNL d   1       6.274   2.711  -2.367  0.00  0.00     0.059 A 
ENDBRANCH  12  15
ENDBRANCH   7  10
ENDBRANCH   1   7
BRANCH   2  21
ATOM     21  C   UNL d   1      -1.579   2.786   3.324  0.00  0.00     0.064 A 
ATOM     22  C   UNL d   1      -1.259   3.974   4.050  0.00  0.00     0.094 A 
ATOM     23  C   UNL d   1      -2.145   4.497   5.018  0.00  0.00     0.039 A 
ATOM     24  C   UNL d   1      -3.359   3.884   5.300  0.00  0.00     0.003 A 
ATOM     25  C   UNL d   1      -3.675   2.705   4.659  0.00  0.00     0.002 A 
ATOM     26  C   UNL d   1      -2.796   2.169   3.711  0.00  0.00     0.032 A 
BRANCH  22  27
ATOM     27  O   UNL d   1      -0.045   4.586   3.842  0.00  0.00    -0.354 OA
ATOM     28  C   UNL d   1       0.053   5.978   4.119  0.00  0.00     0.210 C 
ENDBRANCH  22  27
ENDBRANCH   2  21
TORSDOF 5
