REMARK  19 active torsions:
REMARK  status: ('A' for Active; 'I' for Inactive)
REMARK    1  A    between atoms: C_2  and  C_1 
REMARK    2  A    between atoms: C_3  and  C_1 
REMARK    3  A    between atoms: C_5  and  C_1 
REMARK    4  A    between atoms: C_4  and  C_2 
REMARK    5  A    between atoms: C_6  and  C_2 
REMARK    6  A    between atoms: C_7  and  C_3 
REMARK    7  A    between atoms: C_8  and  C_4 
REMARK    8  A    between atoms: O_26  and  C_5 
REMARK    9  A    between atoms: O_25  and  C_6 
REMARK   10  A    between atoms: O_29  and  C_11 
REMARK   11  A    between atoms: O_30  and  C_12 
REMARK   12  A    between atoms: O_17  and  C_13 
REMARK   13  A    between atoms: O_18  and  C_14 
REMARK   14  A    between atoms: C_27  and  O_17 
REMARK   15  A    between atoms: C_28  and  O_18 
REMARK   16  A    between atoms: C_34  and  O_25 
REMARK   17  A    between atoms: C_33  and  O_26 
REMARK   18  A    between atoms: C_31  and  C_27 
REMARK   19  A    between atoms: C_32  and  C_28 
ROOT
ATOM      1  C   UNL d   1       1.086  -0.025   0.032  0.00  0.00     0.181 C 
ENDROOT
BRANCH   1   2
ATOM      2  C   UNL d   1       0.561  -0.061  -1.425  0.00  0.00     0.181 C 
BRANCH   2   3
ATOM      3  C   UNL d   1      -0.958  -0.206  -1.433  0.00  0.00     0.174 C 
ATOM      4  O   UNL d   1      -1.635   0.109  -0.454  0.00  0.00    -0.291 OA
BRANCH   3   5
ATOM      5  C   UNL d   1      -1.663  -0.731  -2.650  0.00  0.00     0.013 C 
ATOM      6  C   UNL d   1      -3.060  -0.858  -2.610  0.00  0.00     0.054 C 
ATOM      7  C   UNL d   1      -3.776  -1.378  -3.698  0.00  0.00     0.102 C 
ATOM      8  C   UNL d   1      -3.080  -1.848  -4.821  0.00  0.00     0.102 C 
ATOM      9  C   UNL d   1      -1.700  -1.641  -4.897  0.00  0.00     0.040 C 
ATOM     10  C   UNL d   1      -0.993  -1.097  -3.818  0.00  0.00     0.018 C 
BRANCH   7  11
ATOM     11  O   UNL d   1      -5.134  -1.414  -3.509  0.00  0.00    -0.353 OA
ATOM     12  C   UNL d   1      -5.940  -1.288  -4.679  0.00  0.00     0.210 C 
ENDBRANCH   7  11
BRANCH   8  13
ATOM     13  O   UNL d   1      -3.788  -2.480  -5.803  0.00  0.00    -0.344 OA
BRANCH  13  14
ATOM     14  C   UNL d   1      -3.124  -3.482  -6.577  0.00  0.00     0.214 C 
BRANCH  14  15
ATOM     15  C   UNL d   1      -2.926  -3.009  -7.997  0.00  0.00    -0.034 A 
ATOM     16  C   UNL d   1      -1.788  -3.392  -8.720  0.00  0.00     0.009 A 
ATOM     17  C   UNL d   1      -1.627  -2.995 -10.049  0.00  0.00     0.001 A 
ATOM     18  C   UNL d   1      -2.603  -2.218 -10.671  0.00  0.00     0.000 A 
ATOM     19  C   UNL d   1      -3.743  -1.838  -9.966  0.00  0.00     0.001 A 
ATOM     20  C   UNL d   1      -3.905  -2.235  -8.639  0.00  0.00     0.009 A 
ENDBRANCH  14  15
ENDBRANCH  13  14
ENDBRANCH   8  13
ENDBRANCH   3   5
ENDBRANCH   2   3
BRANCH   2  21
ATOM     21  C   UNL d   1       0.937   1.233  -2.111  0.00  0.00     0.271 C 
ATOM     22  O   UNL d   1       0.678   2.341  -1.675  0.00  0.00    -0.264 OA
BRANCH  21  23
ATOM     23  O   UNL d   1       1.625   0.993  -3.260  0.00  0.00    -0.321 OA
BRANCH  23  24
ATOM     24  C   UNL d   1       2.098   2.159  -3.956  0.00  0.00     0.174 C 
ATOM     25  C   UNL d   1       0.984   2.833  -4.739  0.00  0.00     0.034 C 
ENDBRANCH  23  24
ENDBRANCH  21  23
ENDBRANCH   2  21
ENDBRANCH   1   2
BRANCH   1  26
ATOM     26  C   UNL d   1       0.979  -1.392   0.695  0.00  0.00     0.174 C 
ATOM     27  O   UNL d   1       0.524  -2.368   0.098  0.00  0.00    -0.291 OA
BRANCH  26  28
ATOM     28  C   UNL d   1       1.441  -1.567   2.108  0.00  0.00     0.013 A 
ATOM     29  C   UNL d   1       1.623  -0.483   2.972  0.00  0.00     0.054 A 
ATOM     30  C   UNL d   1       2.163  -0.668   4.252  0.00  0.00     0.102 A 
ATOM     31  C   UNL d   1       2.433  -1.969   4.712  0.00  0.00     0.102 A 
ATOM     32  C   UNL d   1       2.224  -3.055   3.853  0.00  0.00     0.040 A 
ATOM     33  C   UNL d   1       1.727  -2.856   2.562  0.00  0.00     0.018 A 
BRANCH  30  34
ATOM     34  O   UNL d   1       2.414   0.375   5.112  0.00  0.00    -0.353 OA
ATOM     35  C   UNL d   1       2.647   1.645   4.502  0.00  0.00     0.210 C 
ENDBRANCH  30  34
BRANCH  31  36
ATOM     36  O   UNL d   1       2.913  -2.092   5.994  0.00  0.00    -0.344 OA
BRANCH  36  37
ATOM     37  C   UNL d   1       2.792  -3.387   6.586  0.00  0.00     0.214 C 
BRANCH  37  38
ATOM     38  C   UNL d   1       2.874  -3.296   8.091  0.00  0.00    -0.034 A 
ATOM     39  C   UNL d   1       2.012  -2.438   8.789  0.00  0.00     0.009 A 
ATOM     40  C   UNL d   1       2.008  -2.419  10.184  0.00  0.00     0.001 A 
ATOM     41  C   UNL d   1       2.865  -3.257  10.895  0.00  0.00     0.000 A 
ATOM     42  C   UNL d   1       3.732  -4.109  10.212  0.00  0.00     0.001 A 
ATOM     43  C   UNL d   1       3.735  -4.132   8.816  0.00  0.00     0.009 A 
ENDBRANCH  37  38
ENDBRANCH  36  37
ENDBRANCH  31  36
ENDBRANCH  26  28
ENDBRANCH   1  26
BRANCH   1  44
ATOM     44  C   UNL d   1       2.493   0.547   0.115  0.00  0.00     0.271 C 
ATOM     45  O   UNL d   1       2.776   1.513   0.806  0.00  0.00    -0.264 OA
BRANCH  44  46
ATOM     46  O   UNL d   1       3.386  -0.155  -0.629  0.00  0.00    -0.321 OA
BRANCH  46  47
ATOM     47  C   UNL d   1       4.728   0.377  -0.634  0.00  0.00     0.174 C 
ATOM     48  C   UNL d   1       5.513  -0.068   0.589  0.00  0.00     0.034 C 
ENDBRANCH  46  47
ENDBRANCH  44  46
ENDBRANCH   1  44
TORSDOF 19
