REMARK  5 active torsions:
REMARK  status: ('A' for Active; 'I' for Inactive)
REMARK    1  A    between atoms: C_7  and  C_1 
REMARK       I    between atoms: N_9  and  C_7 
REMARK    2  A    between atoms: C_17  and  C_8 
REMARK    3  A    between atoms: C_11  and  N_10 
REMARK    4  A    between atoms: C_18  and  C_11 
REMARK    5  A    between atoms: C_19  and  C_11 
ROOT
ATOM      1  C   UNL d   1      -0.793  -2.425  -0.062  0.00  0.00     0.296 C 
ATOM      2  N   UNL d   1       0.171  -3.436  -0.180  0.00  0.00    -0.342 N 
ATOM      3  N   UNL d   1       2.482  -5.100  -0.958  0.00  0.00     0.105 N 
ATOM      4  O   UNL d   1      -1.846  -2.503  -0.701  0.00  0.00    -0.263 OA
ATOM      5  C   UNL d   1       1.250  -3.704   0.779  0.00  0.00     0.156 C 
ATOM      6  C   UNL d   1       0.017  -4.456  -1.216  0.00  0.00     0.156 C 
ATOM      7  C   UNL d   1       1.374  -4.751  -1.895  0.00  0.00     0.293 C 
ATOM      8  C   UNL d   1       2.568  -4.013   0.049  0.00  0.00     0.293 C 
ENDROOT
BRANCH   1   9
ATOM      9  C   UNL d   1      -0.512  -1.289   0.797  0.00  0.00     0.233 A 
ATOM     10  O   UNL d   1      -1.546  -0.587   1.365  0.00  0.00    -0.268 OA
ATOM     11  C   UNL d   1      -0.876   0.386   2.059  0.00  0.00     0.175 A 
ATOM     12  N   UNL d   1       0.432   0.304   1.912  0.00  0.00    -0.277 N 
ATOM     13  N   UNL d   1       0.667  -0.771   1.085  0.00  0.00    -0.273 N 
ATOM     14  HN  UNL d   1       1.132   0.917   2.330  1.00  0.00     0.189 HD
ATOM     15  HN  UNL d   1       1.575  -1.101   0.758  1.00  0.00     0.189 HD
BRANCH  11  16
ATOM     16  C   UNL d   1      -1.665   1.317   2.853  0.00  0.00     0.017 A 
ATOM     17  C   UNL d   1      -3.062   1.224   2.944  0.00  0.00     0.016 A 
ATOM     18  C   UNL d   1      -3.784   2.116   3.741  0.00  0.00     0.001 A 
ATOM     19  C   UNL d   1      -3.120   3.114   4.452  0.00  0.00     0.000 A 
ATOM     20  C   UNL d   1      -1.734   3.226   4.363  0.00  0.00     0.001 A 
ATOM     21  C   UNL d   1      -1.012   2.333   3.569  0.00  0.00     0.016 A 
ENDBRANCH  11  16
ENDBRANCH   1   9
BRANCH   3  22
ATOM     22  C   UNL d   1       2.293  -6.464  -0.374  0.00  0.00     0.289 C 
BRANCH  22  23
ATOM     23  C   UNL d   1       2.276  -7.538  -1.469  0.00  0.00    -0.021 A 
ATOM     24  C   UNL d   1       3.369  -7.702  -2.338  0.00  0.00     0.010 A 
ATOM     25  C   UNL d   1       3.348  -8.676  -3.336  0.00  0.00     0.001 A 
ATOM     26  C   UNL d   1       2.231  -9.493  -3.487  0.00  0.00     0.000 A 
ATOM     27  C   UNL d   1       1.133  -9.336  -2.642  0.00  0.00     0.001 A 
ATOM     28  C   UNL d   1       1.154  -8.367  -1.637  0.00  0.00     0.010 A 
ENDBRANCH  22  23
BRANCH  22  29
ATOM     29  C   UNL d   1       3.296  -6.869   0.717  0.00  0.00    -0.021 A 
ATOM     30  C   UNL d   1       2.864  -7.701   1.768  0.00  0.00     0.010 A 
ATOM     31  C   UNL d   1       3.752  -8.130   2.757  0.00  0.00     0.001 A 
ATOM     32  C   UNL d   1       5.090  -7.742   2.711  0.00  0.00     0.000 A 
ATOM     33  C   UNL d   1       5.540  -6.933   1.667  0.00  0.00     0.001 A 
ATOM     34  C   UNL d   1       4.654  -6.511   0.675  0.00  0.00     0.010 A 
ENDBRANCH  22  29
ENDBRANCH   3  22
TORSDOF 5
