REMARK  5 active torsions:
REMARK  status: ('A' for Active; 'I' for Inactive)
REMARK    1  A    between atoms: C_15  and  N_1 
REMARK    2  A    between atoms: S_2  and  N_10 
REMARK    3  A    between atoms: C_9  and  S_2 
REMARK    4  A    between atoms: C_11  and  C_7 
REMARK    5  A    between atoms: N_10  and  C_11 
ROOT
ATOM      1  N   UNL d   1       3.478   0.804  -0.051  0.00  0.00    -0.210 NA
ATOM      2  H   UNL d   1       3.603   0.027   0.596  0.00  0.00     0.140 HD
ENDROOT
BRANCH   1   3
ATOM      3  S   UNL d   1       4.839   1.794  -0.159  0.00  0.00     0.242 S 
ATOM      4  O   UNL d   1       5.980   0.939  -0.405  0.00  0.00    -0.206 OA
ATOM      5  O   UNL d   1       4.499   2.868  -1.067  0.00  0.00    -0.206 OA
BRANCH   3   6
ATOM      6  C   UNL d   1       5.011   2.476   1.483  0.00  0.00     0.085 A 
ATOM      7  C   UNL d   1       5.201   1.644   2.624  0.00  0.00    -0.003 A 
ATOM      8  C   UNL d   1       5.178   2.273   3.896  0.00  0.00    -0.024 A 
ATOM      9  C   UNL d   1       5.414   0.240   2.609  0.00  0.00     0.014 A 
ATOM     10  C   UNL d   1       5.248   1.504   5.070  0.00  0.00     0.012 A 
ATOM     11  C   UNL d   1       5.083   3.670   3.995  0.00  0.00     0.012 A 
ATOM     12  C   UNL d   1       5.375   0.119   5.016  0.00  0.00     0.001 A 
ATOM     13  C   UNL d   1       5.488  -0.510   3.785  0.00  0.00     0.001 A 
ATOM     14  C   UNL d   1       4.969   4.466   2.859  0.00  0.00     0.002 A 
ATOM     15  C   UNL d   1       4.910   3.871   1.605  0.00  0.00     0.026 A 
ENDBRANCH   3   6
ENDBRANCH   1   3
BRANCH   1  16
ATOM     16  C   UNL d   1       2.180   1.486   0.069  0.00  0.00     0.165 C 
BRANCH  16  17
ATOM     17  C   UNL d   1       1.100   0.455   0.100  0.00  0.00     0.065 A 
ATOM     18  N   UNL d   1       0.365   0.246   1.199  0.00  0.00    -0.280 N 
ATOM     19  N   UNL d   1      -0.463  -0.769   0.820  0.00  0.00    -0.197 N 
ATOM     20  HN  UNL d   1       0.413   0.726   2.097  1.00  0.00     0.189 HD
ATOM     21  N   UNL d   1      -0.295  -1.221  -0.453  0.00  0.00    -0.282 N 
ATOM     22  C   UNL d   1       0.675  -0.424  -0.921  0.00  0.00     0.049 A 
ATOM     23  HN  UNL d   1      -0.786  -1.977  -0.931  1.00  0.00     0.189 HD
ATOM     24  C   UNL d   1       1.175  -0.523  -2.310  0.00  0.00     0.072 C 
BRANCH  19  25
ATOM     25  C   UNL d   1      -1.411  -1.323   1.720  0.00  0.00     0.074 A 
ATOM     26  C   UNL d   1      -1.631  -0.703   2.961  0.00  0.00     0.033 A 
ATOM     27  C   UNL d   1      -2.534  -1.254   3.871  0.00  0.00     0.002 A 
ATOM     28  C   UNL d   1      -3.211  -2.430   3.554  0.00  0.00     0.000 A 
ATOM     29  C   UNL d   1      -3.004  -3.046   2.319  0.00  0.00     0.002 A 
ATOM     30  C   UNL d   1      -2.115  -2.490   1.393  0.00  0.00     0.033 A 
ENDBRANCH  19  25
ENDBRANCH  16  17
ENDBRANCH   1  16
TORSDOF 5
