REMARK  8 active torsions:
REMARK  status: ('A' for Active; 'I' for Inactive)
REMARK    1  A    between atoms: C_20  and  N_1 
REMARK    2  A    between atoms: S_5  and  C_10 
REMARK    3  A    between atoms: N_17  and  S_5 
REMARK    4  A    between atoms: S_11  and  C_6 
REMARK    5  A    between atoms: C_25  and  S_11 
REMARK    6  A    between atoms: C_15  and  C_25 
REMARK       I    between atoms: N_16  and  C_15 
REMARK    7  A    between atoms: C_28  and  N_16 
REMARK    8  A    between atoms: C_26  and  C_20 
ROOT
ATOM      1  C   UNL d   1      -3.545  -1.871   0.089  0.00  0.00     0.185 C 
ENDROOT
BRANCH   1   2
ATOM      2  C   UNL d   1      -5.057  -1.886   0.050  0.00  0.00     0.231 C 
ATOM      3  N   UNL d   1      -5.734  -0.875   0.696  0.00  0.00    -0.327 N 
ATOM      4  H   UNL d   1      -5.160  -0.127   1.078  0.00  0.00     0.169 HD
ATOM      5  O   UNL d   1      -5.601  -2.791  -0.586  0.00  0.00    -0.272 OA
BRANCH   3   6
ATOM      6  C   UNL d   1      -7.128  -0.781   0.893  0.00  0.00     0.034 A 
ATOM      7  C   UNL d   1      -8.019  -1.811   0.561  0.00  0.00     0.031 A 
ATOM      8  C   UNL d   1      -9.379  -1.711   0.862  0.00  0.00     0.027 A 
ATOM      9  C   UNL d   1      -9.854  -0.574   1.509  0.00  0.00     0.074 A 
ATOM     10  C   UNL d   1      -9.000   0.491   1.795  0.00  0.00     0.027 A 
ATOM     11  C   UNL d   1      -7.636   0.380   1.495  0.00  0.00     0.031 A 
BRANCH   9  12
ATOM     12  S   UNL d   1     -11.542  -0.524   2.027  0.00  0.00     0.239 S 
ATOM     13  O   UNL d   1     -11.951   0.850   2.196  0.00  0.00    -0.206 OA
ATOM     14  O   UNL d   1     -12.312  -1.479   1.265  0.00  0.00    -0.206 OA
BRANCH  12  15
ATOM     15  N   UNL d   1     -11.407  -1.168   3.575  0.00  0.00    -0.225 NA
ATOM     16  H   UNL d   1     -11.703  -0.484   4.269  0.00  0.00     0.136 HD
ATOM     17  H   UNL d   1     -11.886  -2.066   3.627  0.00  0.00     0.136 HD
ENDBRANCH  12  15
ENDBRANCH   9  12
ENDBRANCH   3   6
ENDBRANCH   1   2
BRANCH   1  18
ATOM     18  S   UNL d   1      -2.789  -0.685   1.242  0.00  0.00    -0.083 SA
BRANCH  18  19
ATOM     19  C   UNL d   1      -1.128  -0.919   0.797  0.00  0.00     0.163 C 
ATOM     20  N   UNL d   1      -0.063  -0.275   1.367  0.00  0.00    -0.307 N 
ATOM     21  C   UNL d   1       1.017  -0.587   0.569  0.00  0.00     0.141 C 
ATOM     22  N   UNL d   1       0.640  -1.504  -0.303  0.00  0.00    -0.282 N 
ATOM     23  C   UNL d   1       2.324   0.005   0.572  0.00  0.00     0.050 A 
ATOM     24  N   UNL d   1      -0.708  -1.700  -0.168  0.00  0.00    -0.278 N 
ATOM     25  HN  UNL d   1       1.250  -1.985  -0.964  1.00  0.00     0.188 HD
ATOM     26  HN  UNL d   1      -1.282  -2.338  -0.720  1.00  0.00     0.189 HD
ATOM     27  S   UNL d   1       3.708  -0.922   0.153  0.00  0.00    -0.098 SA
ATOM     28  C   UNL d   1       2.664   1.328   0.784  0.00  0.00     0.023 A 
ATOM     29  C   UNL d   1       4.733   0.444   0.208  0.00  0.00     0.050 A 
ATOM     30  C   UNL d   1       4.051   1.583   0.568  0.00  0.00     0.009 A 
BRANCH  20  31
ATOM     31  C   UNL d   1      -0.044   0.402   2.652  0.00  0.00     0.159 C 
BRANCH  31  32
ATOM     32  C   UNL d   1      -0.360   1.866   2.558  0.00  0.00    -0.017 C 
ATOM     33  C   UNL d   1       0.132   2.781   3.405  0.00  0.00     0.008 C 
ENDBRANCH  31  32
ENDBRANCH  20  31
ENDBRANCH  18  19
ENDBRANCH   1  18
TORSDOF 8
