REMARK  16 active torsions:
REMARK  status: ('A' for Active; 'I' for Inactive)
REMARK    1  A    between atoms: C_2  and  C_1 
REMARK    2  A    between atoms: C_1  and  O_6 
REMARK    3  A    between atoms: C_3  and  C_1 
REMARK    4  A    between atoms: C_5  and  C_2 
REMARK    5  A    between atoms: C_2  and  O_7 
REMARK    6  A    between atoms: C_3  and  O_8 
REMARK    7  A    between atoms: C_3  and  C_4 
REMARK    8  A    between atoms: C_4  and  O_9 
REMARK    9  A    between atoms: C_15  and  C_4 
REMARK   10  A    between atoms: O_23  and  C_5 
REMARK   11  A    between atoms: C_10  and  O_6 
REMARK   12  A    between atoms: C_11  and  O_7 
REMARK   13  A    between atoms: C_12  and  O_8 
REMARK   14  A    between atoms: C_13  and  O_9 
REMARK   15  A    between atoms: C_14  and  O_17 
REMARK   16  A    between atoms: O_17  and  C_15 
ROOT
ATOM      1  C   UNL d   1       0.283  -0.420  -1.483  0.00  0.00     0.196 C 
ENDROOT
BRANCH   1   2
ATOM      2  O   UNL d   1      -1.147  -0.551  -1.416  0.00  0.00    -0.311 OA
BRANCH   2   3
ATOM      3  C   UNL d   1      -1.852   0.553  -1.054  0.00  0.00     0.255 C 
ATOM      4  O   UNL d   1      -1.376   1.661  -0.855  0.00  0.00    -0.266 OA
ATOM      5  C   UNL d   1      -3.309   0.234  -0.915  0.00  0.00     0.126 C 
ENDBRANCH   2   3
ENDBRANCH   1   2
BRANCH   1   6
ATOM      6  C   UNL d   1       0.932  -0.322  -0.056  0.00  0.00     0.188 C 
BRANCH   6   7
ATOM      7  O   UNL d   1       2.362  -0.047  -0.212  0.00  0.00    -0.311 OA
BRANCH   7   8
ATOM      8  C   UNL d   1       3.293  -1.037  -0.239  0.00  0.00     0.255 C 
ATOM      9  O   UNL d   1       3.114  -2.199   0.089  0.00  0.00    -0.266 OA
ATOM     10  C   UNL d   1       4.558  -0.554  -0.883  0.00  0.00     0.126 C 
ENDBRANCH   7   8
ENDBRANCH   6   7
BRANCH   6  11
ATOM     11  C   UNL d   1       0.583  -1.413   0.975  0.00  0.00     0.213 C 
BRANCH  11  12
ATOM     12  O   UNL d   1      -0.830  -1.562   1.202  0.00  0.00    -0.319 OA
BRANCH  12  13
ATOM     13  C   UNL d   1      -1.350  -0.853   2.239  0.00  0.00     0.254 C 
ATOM     14  O   UNL d   1      -0.759   0.009   2.873  0.00  0.00    -0.266 OA
ATOM     15  C   UNL d   1      -2.773  -1.259   2.488  0.00  0.00     0.126 C 
ENDBRANCH  12  13
ENDBRANCH  11  12
ENDBRANCH   6  11
ENDBRANCH   1   6
BRANCH   1  16
ATOM     16  C   UNL d   1       0.903  -1.554  -2.354  0.00  0.00     0.204 C 
BRANCH  16  17
ATOM     17  C   UNL d   1       0.620  -1.637  -3.869  0.00  0.00     0.261 C 
BRANCH  17  18
ATOM     18  C   UNL d   1       0.806  -0.343  -4.642  0.00  0.00     0.173 C 
ATOM     19  O   UNL d   1       1.077   0.743  -4.163  0.00  0.00    -0.648 OA
BRANCH  18  20
ATOM     20  O   UNL d   1       0.674  -0.514  -5.985  0.00  0.00    -0.774 OA
ATOM     21  H   UNL d   1       0.505  -1.445  -6.235  0.00  0.00     0.167 HD
ENDBRANCH  18  20
ENDBRANCH  17  18
BRANCH  17  22
ATOM     22  O   UNL d   1       1.695  -2.459  -4.446  0.00  0.00    -0.303 OA
BRANCH  22  23
ATOM     23  C   UNL d   1       1.453  -3.768  -4.701  0.00  0.00     0.255 C 
ATOM     24  O   UNL d   1       0.349  -4.287  -4.664  0.00  0.00    -0.266 OA
ATOM     25  C   UNL d   1       2.714  -4.465  -5.103  0.00  0.00     0.126 C 
ENDBRANCH  22  23
ENDBRANCH  17  22
ENDBRANCH  16  17
BRANCH  16  26
ATOM     26  O   UNL d   1       0.708  -2.861  -1.733  0.00  0.00    -0.310 OA
BRANCH  26  27
ATOM     27  C   UNL d   1      -0.514  -3.461  -1.776  0.00  0.00     0.255 C 
ATOM     28  O   UNL d   1      -1.508  -3.016  -2.330  0.00  0.00    -0.266 OA
ATOM     29  C   UNL d   1      -0.491  -4.752  -1.019  0.00  0.00     0.126 C 
ENDBRANCH  26  27
ENDBRANCH  16  26
ENDBRANCH   1  16
TORSDOF 16
