REMARK  4 active torsions:
REMARK  status: ('A' for Active; 'I' for Inactive)
REMARK    1  A    between atoms: C_8  and  C_1 
REMARK    2  A    between atoms: O_9  and  N_5 
REMARK    3  A    between atoms: C_7  and  O_9 
REMARK    4  A    between atoms: C_11  and  C_7 
ROOT
ATOM      1  N   UNL d   1       2.221  -3.901   0.077  0.00  0.00    -0.261 N 
ATOM      2  HN  UNL d   1       2.218  -4.921   0.099  1.00  0.00     0.194 HD
ATOM      3  C   UNL d   1       1.141  -3.176   0.056  0.00  0.00     0.040 C 
ATOM      4  C   UNL d   1       1.153  -1.656   0.018  0.00  0.00     0.071 C 
ENDROOT
BRANCH   1   5
ATOM      5  O   UNL d   1       3.397  -3.119   0.068  0.00  0.00    -0.195 OA
BRANCH   5   6
ATOM      6  C   UNL d   1       4.511  -3.912   0.118  0.00  0.00     0.315 C 
ATOM      7  O   UNL d   1       4.550  -5.134   0.147  0.00  0.00    -0.257 OA
BRANCH   6   8
ATOM      8  C   UNL d   1       5.743  -3.066   0.169  0.00  0.00     0.041 A 
ATOM      9  C   UNL d   1       6.973  -3.695   0.410  0.00  0.00     0.018 A 
ATOM     10  C   UNL d   1       8.154  -2.949   0.496  0.00  0.00     0.007 A 
ATOM     11  C   UNL d   1       8.130  -1.559   0.334  0.00  0.00    -0.062 A 
ATOM     12  C   UNL d   1       6.906  -0.930   0.075  0.00  0.00     0.007 A 
ATOM     13  C   UNL d   1       9.400  -0.766   0.451  0.00  0.00     0.048 C 
ATOM     14  C   UNL d   1       5.722  -1.675  -0.009  0.00  0.00     0.018 A 
ENDBRANCH   6   8
ENDBRANCH   5   6
ENDBRANCH   1   5
BRANCH   3  15
ATOM     15  C   UNL d   1      -0.167  -3.872   0.074  0.00  0.00     0.006 A 
ATOM     16  C   UNL d   1      -1.363  -3.170   0.048  0.00  0.00     0.064 A 
ATOM     17  S   UNL d   1      -2.746  -4.154   0.072  0.00  0.00    -0.100 SA
ATOM     18  C   UNL d   1      -1.806  -5.588   0.121  0.00  0.00     0.016 A 
ATOM     19  C   UNL d   1      -0.431  -5.310   0.121  0.00  0.00    -0.006 A 
ATOM     20  C   UNL d   1      -2.313  -6.905   0.159  0.00  0.00     0.019 A 
ATOM     21  C   UNL d   1       0.441  -6.433   0.164  0.00  0.00     0.014 A 
ATOM     22  C   UNL d   1      -0.057  -7.742   0.202  0.00  0.00     0.001 A 
ATOM     23  C   UNL d   1      -1.423  -7.975   0.199  0.00  0.00     0.001 A 
ENDBRANCH   3  15
TORSDOF 4
