REMARK  3 active torsions:
REMARK  status: ('A' for Active; 'I' for Inactive)
REMARK       I    between atoms: N_2  and  C_1 
REMARK    1  A    between atoms: C_7  and  C_1 
REMARK    2  A    between atoms: C_4  and  N_2 
REMARK    3  A    between atoms: N_3  and  C_5 
ROOT
ATOM      1  C   UNL d   1       0.951  -2.455  -0.657  0.00  0.00     0.061 A 
ATOM      2  C   UNL d   1       2.049  -3.102  -0.044  0.00  0.00     0.057 A 
ATOM      3  C   UNL d   1       0.359  -2.972  -1.826  0.00  0.00     0.032 A 
ATOM      4  C   UNL d   1       2.552  -4.242  -0.713  0.00  0.00     0.031 A 
ATOM      5  C   UNL d   1       0.888  -4.095  -2.452  0.00  0.00     0.002 A 
ATOM      6  C   UNL d   1       1.991  -4.727  -1.899  0.00  0.00     0.002 A 
ENDROOT
BRANCH   1   7
ATOM      7  N   UNL d   1       0.382  -1.250  -0.166  0.00  0.00    -0.325 N 
ATOM      8  C   UNL d   1       0.990  -0.040  -0.493  0.00  0.00     0.226 C 
ATOM      9  O   UNL d   1       2.102   0.056  -1.007  0.00  0.00    -0.273 OA
ATOM     10  H   UNL d   1      -0.623  -1.222  -0.261  0.00  0.00     0.169 HD
BRANCH   8  11
ATOM     11  C   UNL d   1       0.171   1.206  -0.085  0.00  0.00     0.078 C 
ATOM     12  C   UNL d   1      -1.300   1.224  -0.537  0.00  0.00     0.014 C 
ATOM     13  C   UNL d   1      -1.472   1.509  -2.027  0.00  0.00     0.001 C 
ATOM     14  C   UNL d   1      -0.774   2.801  -2.435  0.00  0.00     0.000 C 
ATOM     15  C   UNL d   1       0.695   2.790  -2.029  0.00  0.00     0.001 C 
ATOM     16  C   UNL d   1       0.868   2.506  -0.535  0.00  0.00     0.014 C 
ENDBRANCH   8  11
ENDBRANCH   1   7
BRANCH   2  17
ATOM     17  N   UNL d   1       2.595  -2.794   1.202  0.00  0.00    -0.379 N 
ATOM     18  C   UNL d   1       1.820  -2.136   2.249  0.00  0.00     0.123 C 
ATOM     19  C   UNL d   1       2.246  -2.702   3.608  0.00  0.00     0.020 C 
ATOM     20  C   UNL d   1       3.758  -2.624   3.817  0.00  0.00     0.003 C 
ATOM     21  C   UNL d   1       4.510  -3.241   2.638  0.00  0.00     0.020 C 
ATOM     22  C   UNL d   1       4.049  -2.635   1.310  0.00  0.00     0.123 C 
ENDBRANCH   2  17
TORSDOF 3
