REMARK  3 active torsions:
REMARK  status: ('A' for Active; 'I' for Inactive)
REMARK    1  A    between atoms: C_3  and  C_1 
REMARK    2  A    between atoms: C_16  and  N_2 
REMARK    3  A    between atoms: C_9  and  C_6 
ROOT
ATOM      1  C   UNL d   1      -0.487  -2.738   0.007  0.00  0.00     0.058 A 
ATOM      2  C   UNL d   1      -1.472  -3.335  -0.768  0.00  0.00     0.133 A 
ATOM      3  N   UNL d   1      -1.611  -4.699  -0.819  0.00  0.00    -0.342 N 
ATOM      4  HN  UNL d   1      -2.327  -5.126  -1.406  1.00  0.00     0.167 HD
ATOM      5  C   UNL d   1       0.254  -3.630   0.777  0.00  0.00     0.107 A 
ATOM      6  N   UNL d   1       0.144  -4.970   0.737  0.00  0.00    -0.355 N 
ATOM      7  HN  UNL d   1       0.738  -5.576   1.302  1.00  0.00     0.166 HD
ATOM      8  C   UNL d   1      -0.788  -5.463  -0.084  0.00  0.00     0.077 A 
ATOM      9  C   UNL d   1      -0.923  -6.948  -0.191  0.00  0.00     0.089 C 
ENDROOT
BRANCH   1  10
ATOM     10  C   UNL d   1      -0.214  -1.310   0.097  0.00  0.00     0.152 A 
ATOM     11  N   UNL d   1       1.041  -0.688   0.151  0.00  0.00    -0.224 N 
ATOM     12  N   UNL d   1       0.855   0.597   0.529  0.00  0.00     0.001 NA
ATOM     13  N   UNL d   1      -0.456   0.784   0.568  0.00  0.00    -0.007 NA
ATOM     14  N   UNL d   1      -1.126  -0.380   0.325  0.00  0.00    -0.269 N 
ATOM     15  HN  UNL d   1      -2.138  -0.509   0.321  1.00  0.00     0.185 HD
BRANCH  11  16
ATOM     16  C   UNL d   1       2.345  -1.214  -0.035  0.00  0.00     0.056 A 
ATOM     17  C   UNL d   1       2.583  -2.302  -0.884  0.00  0.00     0.031 A 
ATOM     18  C   UNL d   1       3.856  -2.874  -0.943  0.00  0.00     0.002 A 
ATOM     19  C   UNL d   1       4.893  -2.359  -0.167  0.00  0.00     0.000 A 
ATOM     20  C   UNL d   1       4.673  -1.246   0.640  0.00  0.00     0.002 A 
ATOM     21  C   UNL d   1       3.407  -0.658   0.696  0.00  0.00     0.031 A 
ENDBRANCH  11  16
ENDBRANCH   1  10
BRANCH   2  22
ATOM     22  C   UNL d   1      -2.489  -2.555  -1.594  0.00  0.00     0.433 C 
ATOM     23  F   UNL d   1      -2.185  -1.252  -1.833  0.00  0.00    -0.165 F 
ATOM     24  F   UNL d   1      -2.656  -3.095  -2.841  0.00  0.00    -0.165 F 
ATOM     25  F   UNL d   1      -3.732  -2.557  -1.030  0.00  0.00    -0.165 F 
ENDBRANCH   2  22
TORSDOF 3
