REMARK  5 active torsions:
REMARK  status: ('A' for Active; 'I' for Inactive)
REMARK    1  A    between atoms: N_5  and  C_1 
REMARK    2  A    between atoms: C_11  and  C_2 
REMARK       I    between atoms: C_6  and  N_5 
REMARK       I    between atoms: N_9  and  C_6 
REMARK    3  A    between atoms: C_14  and  N_9 
REMARK    4  A    between atoms: C_15  and  C_14 
REMARK    5  A    between atoms: C_16  and  C_15 
ROOT
ATOM      1  N   UNL d   1       0.400  -2.049  -0.148  0.00  0.00    -0.304 N 
ATOM      2  C   UNL d   1       1.405  -2.947   0.174  0.00  0.00     0.322 C 
ATOM      3  N   UNL d   1       2.690  -2.344   0.139  0.00  0.00    -0.338 N 
ATOM      4  O   UNL d   1       1.236  -4.139   0.403  0.00  0.00    -0.247 OA
ATOM      5  C   UNL d   1       2.884  -0.895   0.020  0.00  0.00     0.154 C 
ATOM      6  H   UNL d   1       0.739  -1.247  -0.650  0.00  0.00     0.171 HD
ENDROOT
BRANCH   1   7
ATOM      7  C   UNL d   1      -0.946  -2.277  -0.410  0.00  0.00     0.097 A 
ATOM      8  C   UNL d   1      -1.661  -1.629  -1.480  0.00  0.00     0.094 A 
ATOM      9  N   UNL d   1      -2.968  -1.915  -1.425  0.00  0.00    -0.258 N 
ATOM     10  O   UNL d   1      -3.121  -2.788  -0.375  0.00  0.00    -0.240 OA
ATOM     11  HN  UNL d   1      -3.701  -1.558  -2.037  1.00  0.00     0.195 HD
ATOM     12  C   UNL d   1      -1.925  -3.011   0.238  0.00  0.00     0.101 A 
ATOM     13  C   UNL d   1      -2.059  -3.852   1.439  0.00  0.00     0.081 C 
BRANCH   8  14
ATOM     14  C   UNL d   1      -1.129  -0.798  -2.569  0.00  0.00    -0.005 A 
ATOM     15  C   UNL d   1       0.132  -1.061  -3.129  0.00  0.00     0.014 A 
ATOM     16  C   UNL d   1       0.603  -0.318  -4.212  0.00  0.00     0.001 A 
ATOM     17  C   UNL d   1      -0.193   0.680  -4.767  0.00  0.00     0.000 A 
ATOM     18  C   UNL d   1      -1.447   0.954  -4.223  0.00  0.00     0.001 A 
ATOM     19  C   UNL d   1      -1.909   0.226  -3.124  0.00  0.00     0.014 A 
ENDBRANCH   8  14
ENDBRANCH   1   7
BRANCH   3  20
ATOM     20  C   UNL d   1       3.914  -3.108   0.448  0.00  0.00     0.133 C 
BRANCH  20  21
ATOM     21  C   UNL d   1       4.311  -4.276  -0.469  0.00  0.00     0.077 C 
BRANCH  21  22
ATOM     22  C   UNL d   1       5.783  -4.610  -0.240  0.00  0.00     0.010 A 
ATOM     23  N   UNL d   1       6.686  -4.005  -1.048  0.00  0.00    -0.369 N 
ATOM     24  C   UNL d   1       8.002  -4.212  -0.789  0.00  0.00     0.088 A 
ATOM     25  HN  UNL d   1       6.388  -3.413  -1.824  1.00  0.00     0.165 HD
ATOM     26  C   UNL d   1       8.476  -4.984   0.261  0.00  0.00     0.017 A 
ATOM     27  C   UNL d   1       7.532  -5.598   1.093  0.00  0.00     0.003 A 
ATOM     28  C   UNL d   1       6.173  -5.407   0.838  0.00  0.00     0.025 A 
ENDBRANCH  21  22
ENDBRANCH  20  21
ENDBRANCH   3  20
TORSDOF 5
