REMARK  2 active torsions:
REMARK  status: ('A' for Active; 'I' for Inactive)
REMARK    1  A    between atoms: C_9  and  N_3 
REMARK    2  A    between atoms: N_10  and  C_5 
ROOT
ATOM      1  N   UNL d   1      -0.907  -0.151  -0.790  0.00  0.00    -0.278 N 
ATOM      2  HN  UNL d   1      -1.555  -0.353  -1.552  1.00  0.00     0.189 HD
ATOM      3  N   UNL d   1      -0.364  -1.034   0.088  0.00  0.00    -0.265 N 
ATOM      4  C   UNL d   1       0.465   0.934   0.647  0.00  0.00     0.106 A 
ATOM      5  C   UNL d   1      -0.413   1.033  -0.445  0.00  0.00     0.136 A 
ATOM      6  C   UNL d   1       0.479  -0.401   0.975  0.00  0.00     0.143 A 
ATOM      7  C   UNL d   1       1.195   1.961   1.305  0.00  0.00     0.105 C 
ATOM      8  N   UNL d   1       1.786   2.796   1.854  0.00  0.00    -0.191 NA
ENDROOT
BRANCH   5   9
ATOM      9  N   UNL d   1      -0.742   2.166  -1.081  0.00  0.00    -0.383 N 
ATOM     10  H   UNL d   1      -0.575   3.085  -0.686  0.00  0.00     0.157 HD
ATOM     11  H   UNL d   1      -1.521   2.129  -1.730  0.00  0.00     0.157 HD
ENDBRANCH   5   9
BRANCH   3  12
ATOM     12  C   UNL d   1      -0.688  -2.419   0.036  0.00  0.00     0.056 A 
ATOM     13  C   UNL d   1      -1.532  -2.897  -0.978  0.00  0.00     0.031 A 
ATOM     14  C   UNL d   1      -1.857  -4.255  -1.039  0.00  0.00     0.002 A 
ATOM     15  C   UNL d   1      -1.349  -5.140  -0.090  0.00  0.00     0.000 A 
ATOM     16  C   UNL d   1      -0.514  -4.671   0.922  0.00  0.00     0.002 A 
ATOM     17  C   UNL d   1      -0.179  -3.316   0.986  0.00  0.00     0.031 A 
ENDBRANCH   3  12
TORSDOF 2
