REMARK  4 active torsions:
REMARK  status: ('A' for Active; 'I' for Inactive)
REMARK    1  A    between atoms: C_4  and  N_1 
REMARK    2  A    between atoms: C_2  and  C_3 
REMARK    3  A    between atoms: C_13  and  C_2 
REMARK    4  A    between atoms: C_15  and  C_2 
ROOT
ATOM      1  C   UNL d   1      -2.021  -4.662  -1.410  0.00  0.00     0.104 C 
ATOM      2  C   UNL d   1      -3.447  -4.451  -0.942  0.00  0.00     0.079 C 
ATOM      3  N   UNL d   1      -4.539  -4.288  -0.574  0.00  0.00    -0.196 NA
ENDROOT
BRANCH   1   4
ATOM      4  C   UNL d   1      -1.150  -3.434  -0.957  0.00  0.00    -0.009 A 
ATOM      5  C   UNL d   1      -1.786  -2.161  -0.894  0.00  0.00     0.013 A 
ATOM      6  C   UNL d   1      -1.110  -0.994  -0.516  0.00  0.00     0.037 A 
ATOM      7  C   UNL d   1       0.247  -1.056  -0.219  0.00  0.00     0.104 A 
ATOM      8  C   UNL d   1       0.923  -2.272  -0.305  0.00  0.00     0.060 A 
ATOM      9  C   UNL d   1       0.238  -3.445  -0.673  0.00  0.00     0.044 A 
ATOM     10 CL   UNL d   1       1.267  -4.827  -0.823  0.00  0.00    -0.084 Cl
BRANCH   7  11
ATOM     11  N   UNL d   1       0.973   0.162   0.159  0.00  0.00    -0.116 N 
ATOM     12  O   UNL d   1       2.187   0.061   0.382  0.00  0.00    -0.532 OA
ATOM     13  O   UNL d   1       0.328   1.217   0.231  0.00  0.00    -0.532 OA
ENDBRANCH   7  11
ENDBRANCH   1   4
BRANCH   1  14
ATOM     14  C   UNL d   1      -1.994  -4.843  -2.966  0.00  0.00    -0.031 A 
ATOM     15  C   UNL d   1      -0.877  -4.481  -3.745  0.00  0.00     0.009 A 
ATOM     16  C   UNL d   1      -0.819  -4.753  -5.115  0.00  0.00     0.001 A 
ATOM     17  C   UNL d   1      -1.877  -5.393  -5.747  0.00  0.00     0.000 A 
ATOM     18  C   UNL d   1      -2.998  -5.757  -5.010  0.00  0.00     0.001 A 
ATOM     19  C   UNL d   1      -3.055  -5.491  -3.637  0.00  0.00     0.009 A 
ENDBRANCH   1  14
BRANCH   1  20
ATOM     20  C   UNL d   1      -1.627  -6.062  -0.816  0.00  0.00     0.030 C 
ATOM     21  C   UNL d   1      -1.582  -6.151   0.709  0.00  0.00     0.007 C 
ENDBRANCH   1  20
TORSDOF 4
