REMARK  8 active torsions:
REMARK  status: ('A' for Active; 'I' for Inactive)
REMARK    1  A    between atoms: C_3  and  C_1 
REMARK    2  A    between atoms: S_4  and  C_1 
REMARK    3  A    between atoms: C_6  and  C_2 
REMARK    4  A    between atoms: C_7  and  C_2 
REMARK    5  A    between atoms: C_11  and  S_4 
REMARK    6  A    between atoms: C_5  and  C_11 
REMARK    7  A    between atoms: O_16  and  C_5 
REMARK    8  A    between atoms: O_15  and  N_8 
ROOT
ATOM      1  C   UNL d   1       0.966   0.107   0.149  0.00  0.00     0.097 C 
ATOM      2  C   UNL d   1       0.222   0.731   1.101  0.00  0.00     0.013 C 
ENDROOT
BRANCH   2   3
ATOM      3  C   UNL d   1      -1.261   0.686   1.074  0.00  0.00    -0.023 A 
ATOM      4  C   UNL d   1      -1.963  -0.379   1.650  0.00  0.00     0.012 A 
ATOM      5  C   UNL d   1      -3.358  -0.374   1.676  0.00  0.00     0.001 A 
ATOM      6  C   UNL d   1      -4.067   0.695   1.123  0.00  0.00     0.000 A 
ATOM      7  C   UNL d   1      -3.379   1.757   0.542  0.00  0.00     0.001 A 
ATOM      8  C   UNL d   1      -1.982   1.753   0.516  0.00  0.00     0.012 A 
ENDBRANCH   2   3
BRANCH   2   9
ATOM      9  C   UNL d   1       0.828   1.572   2.187  0.00  0.00     0.127 C 
ATOM     10  N   UNL d   1       0.136   2.092   3.153  0.00  0.00    -0.280 N 
ATOM     11  HN  UNL d   1      -0.869   1.983   3.282  1.00  0.00     0.193 HD
BRANCH  10  12
ATOM     12  O   UNL d   1       0.984   2.826   3.989  0.00  0.00    -0.290 OA
ATOM     13  H   UNL d   1       0.355   3.217   4.625  0.00  0.00     0.244 HD
ENDBRANCH  10  12
ENDBRANCH   2   9
BRANCH   1  14
ATOM     14  C   UNL d   1       0.306  -0.609  -1.030  0.00  0.00     0.424 C 
ATOM     15  F   UNL d   1       1.199  -1.165  -1.895  0.00  0.00    -0.166 F 
ATOM     16  F   UNL d   1      -0.526  -1.609  -0.648  0.00  0.00    -0.166 F 
ATOM     17  F   UNL d   1      -0.431   0.258  -1.780  0.00  0.00    -0.166 F 
ENDBRANCH   1  14
BRANCH   1  18
ATOM     18  S   UNL d   1       2.731   0.218   0.063  0.00  0.00    -0.115 SA
BRANCH  18  19
ATOM     19  C   UNL d   1       3.330  -0.741   1.481  0.00  0.00     0.190 C 
BRANCH  19  20
ATOM     20  C   UNL d   1       2.876  -2.181   1.547  0.00  0.00     0.268 C 
ATOM     21  O   UNL d   1       2.015  -2.711   0.860  0.00  0.00    -0.264 OA
BRANCH  20  22
ATOM     22  O   UNL d   1       3.562  -2.797   2.558  0.00  0.00    -0.326 OA
ATOM     23  C   UNL d   1       3.211  -4.163   2.792  0.00  0.00     0.213 C 
ENDBRANCH  20  22
ENDBRANCH  19  20
ENDBRANCH  18  19
ENDBRANCH   1  18
TORSDOF 8
