REMARK  3 active torsions:
REMARK  status: ('A' for Active; 'I' for Inactive)
REMARK    1  A    between atoms: C_2  and  C_1 
REMARK    2  A    between atoms: O_10  and  C_2 
REMARK    3  A    between atoms: N_9  and  C_3 
ROOT
ATOM      1  C   UNL d   1      -0.081  -1.268   0.059  0.00  0.00     0.146 A 
ATOM      2  C   UNL d   1      -0.953  -0.166   0.073  0.00  0.00     0.111 A 
ATOM      3  N   UNL d   1       1.279  -1.126  -0.011  0.00  0.00    -0.357 N 
ATOM      4  HN  UNL d   1       1.909  -1.928  -0.031  1.00  0.00     0.165 HD
ATOM      5  N   UNL d   1      -0.468   1.098   0.023  0.00  0.00    -0.354 N 
ATOM      6  HN  UNL d   1      -1.086   1.910   0.031  1.00  0.00     0.166 HD
ATOM      7  C   UNL d   1       1.731   0.143  -0.049  0.00  0.00     0.105 A 
ATOM      8  C   UNL d   1       0.877   1.229  -0.038  0.00  0.00     0.106 A 
ENDROOT
BRANCH   1   9
ATOM      9  C   UNL d   1      -0.624  -2.660   0.048  0.00  0.00     0.313 C 
ATOM     10  O   UNL d   1      -1.803  -2.950  -0.086  0.00  0.00    -0.258 OA
BRANCH   9  11
ATOM     11  O   UNL d   1       0.394  -3.556   0.171  0.00  0.00    -0.321 OA
ATOM     12  C   UNL d   1      -0.007  -4.925   0.147  0.00  0.00     0.213 C 
ENDBRANCH   9  11
ENDBRANCH   1   9
BRANCH   2  13
ATOM     13  N   UNL d   1      -2.330  -0.242   0.248  0.00  0.00    -0.287 NA
ATOM     14  H   UNL d   1      -2.766  -0.994  -0.283  0.00  0.00     0.125 HD
ATOM     15  H   UNL d   1      -2.744   0.673   0.105  0.00  0.00     0.125 HD
ENDBRANCH   2  13
TORSDOF 3
