REMARK  9 active torsions:
REMARK  status: ('A' for Active; 'I' for Inactive)
REMARK       I    between atoms: N_5  and  C_1 
REMARK    1  A    between atoms: C_17  and  C_1 
REMARK    2  A    between atoms: C_2  and  O_7 
REMARK    3  A    between atoms: C_3  and  C_8 
REMARK    4  A    between atoms: C_6  and  C_3 
REMARK    5  A    between atoms: C_4  and  C_18 
REMARK    6  A    between atoms: O_19  and  C_4 
REMARK    7  A    between atoms: C_8  and  N_5 
REMARK    8  A    between atoms: O_7  and  C_14 
REMARK    9  A    between atoms: C_18  and  C_17 
ROOT
ATOM      1  C   UNL d   1      -0.230  -0.818   3.731  0.00  0.00     0.177 C 
ATOM      2  O   UNL d   1       0.140  -0.886   4.900  0.00  0.00    -0.291 OA
ENDROOT
BRANCH   1   3
ATOM      3  C   UNL d   1       0.742  -0.619   2.570  0.00  0.00     0.206 C 
BRANCH   3   4
ATOM      4  N   UNL d   1       1.105   0.769   2.343  0.00  0.00    -0.354 N 
ATOM      5  C   UNL d   1       0.918   1.385   1.131  0.00  0.00     0.218 C 
ATOM      6  O   UNL d   1       0.303   0.868   0.204  0.00  0.00    -0.274 OA
ATOM      7  H   UNL d   1       1.586   1.266   3.097  0.00  0.00     0.162 HD
BRANCH   5   8
ATOM      8  C   UNL d   1       1.539   2.762   0.986  0.00  0.00     0.113 C 
BRANCH   8   9
ATOM      9  C   UNL d   1       0.818   3.849   1.771  0.00  0.00     0.119 C 
BRANCH   9  10
ATOM     10  C   UNL d   1       1.141   3.810   3.243  0.00  0.00     0.139 C 
ATOM     11  O   UNL d   1       1.834   2.960   3.781  0.00  0.00    -0.650 OA
BRANCH  10  12
ATOM     12  O   UNL d   1       0.568   4.821   3.930  0.00  0.00    -0.776 OA
ATOM     13  H   UNL d   1       0.035   5.432   3.385  0.00  0.00     0.167 HD
ENDBRANCH  10  12
ENDBRANCH   9  10
ENDBRANCH   8   9
ENDBRANCH   5   8
ENDBRANCH   3   4
ENDBRANCH   1   3
BRANCH   1  14
ATOM     14  C   UNL d   1      -1.682  -0.925   3.416  0.00  0.00     0.011 A 
ATOM     15  C   UNL d   1      -2.501  -1.759   4.189  0.00  0.00     0.018 A 
ATOM     16  C   UNL d   1      -3.867  -1.878   3.894  0.00  0.00     0.038 A 
ATOM     17  C   UNL d   1      -4.415  -1.157   2.830  0.00  0.00     0.074 A 
ATOM     18  C   UNL d   1      -3.605  -0.294   2.093  0.00  0.00     0.038 A 
ATOM     19  C   UNL d   1      -2.244  -0.184   2.376  0.00  0.00     0.018 A 
BRANCH  17  20
ATOM     20  O   UNL d   1      -5.725  -1.176   2.446  0.00  0.00    -0.290 OA
BRANCH  20  21
ATOM     21  C   UNL d   1      -6.393  -2.411   2.630  0.00  0.00     0.505 C 
ATOM     22  F   UNL d   1      -6.899  -2.447   3.887  0.00  0.00    -0.184 F 
ATOM     23  F   UNL d   1      -7.452  -2.424   1.781  0.00  0.00    -0.184 F 
ENDBRANCH  20  21
ENDBRANCH  17  20
ENDBRANCH   1  14
TORSDOF 9
