REMARK  7 active torsions:
REMARK  status: ('A' for Active; 'I' for Inactive)
REMARK       I    between atoms: N_4  and  C_1 
REMARK    1  A    between atoms: C_7  and  C_1 
REMARK    2  A    between atoms: C_2  and  C_7 
REMARK    3  A    between atoms: C_9  and  C_2 
REMARK    4  A    between atoms: C_3  and  C_9 
REMARK    5  A    between atoms: O_13  and  C_3 
REMARK    6  A    between atoms: C_12  and  N_4 
REMARK    7  A    between atoms: C_11  and  C_12 
ROOT
ATOM      1  C   UNL d   1       1.198   1.414   1.522  0.00  0.00     0.218 C 
ATOM      2  N   UNL d   1       2.549   1.276   1.286  0.00  0.00    -0.357 N 
ATOM      3  O   UNL d   1       0.739   1.853   2.569  0.00  0.00    -0.274 OA
ATOM      4  H   UNL d   1       2.869   1.073   0.348  0.00  0.00     0.162 HD
ENDROOT
BRANCH   1   5
ATOM      5  C   UNL d   1       0.339   1.055   0.310  0.00  0.00     0.112 C 
BRANCH   5   6
ATOM      6  C   UNL d   1      -1.216   1.035   0.485  0.00  0.00    -0.023 C 
ATOM      7  C   UNL d   1      -1.679  -0.151   1.380  0.00  0.00     0.010 C 
ATOM      8  C   UNL d   1      -1.578  -1.530   0.728  0.00  0.00     0.001 C 
ATOM      9  C   UNL d   1      -2.283  -1.568  -0.621  0.00  0.00     0.000 C 
ATOM     10  C   UNL d   1      -1.737  -0.495  -1.550  0.00  0.00     0.001 C 
ATOM     11  C   UNL d   1      -1.862   0.893  -0.928  0.00  0.00     0.010 C 
BRANCH   6  12
ATOM     12  C   UNL d   1      -1.774   2.335   1.136  0.00  0.00     0.119 C 
BRANCH  12  13
ATOM     13  C   UNL d   1      -1.354   3.611   0.441  0.00  0.00     0.140 C 
ATOM     14  O   UNL d   1      -1.897   4.048  -0.563  0.00  0.00    -0.650 OA
BRANCH  13  15
ATOM     15  O   UNL d   1      -0.288   4.198   1.022  0.00  0.00    -0.776 OA
ATOM     16  H   UNL d   1       0.025   3.724   1.822  0.00  0.00     0.167 HD
ENDBRANCH  13  15
ENDBRANCH  12  13
ENDBRANCH   6  12
ENDBRANCH   5   6
ENDBRANCH   1   5
BRANCH   2  17
ATOM     17  C   UNL d   1       3.561   1.463   2.311  0.00  0.00     0.162 C 
BRANCH  17  18
ATOM     18  C   UNL d   1       4.417   2.674   2.079  0.00  0.00    -0.025 A 
ATOM     19  C   UNL d   1       5.782   2.554   1.822  0.00  0.00     0.096 A 
ATOM     20  N   UNL d   1       6.624   3.602   1.658  0.00  0.00    -0.375 N 
ATOM     21  C   UNL d   1       6.088   4.835   1.761  0.00  0.00     0.087 A 
ATOM     22  HN  UNL d   1       7.616   3.465   1.465  1.00  0.00     0.164 HD
ATOM     23  C   UNL d   1       4.747   5.067   2.013  0.00  0.00     0.018 A 
ATOM     24  C   UNL d   1       3.902   3.971   2.172  0.00  0.00     0.011 A 
ENDBRANCH  17  18
ENDBRANCH   2  17
TORSDOF 7
