REMARK  2 active torsions:
REMARK  status: ('A' for Active; 'I' for Inactive)
REMARK    1  A    between atoms: C_2  and  C_1 
REMARK    2  A    between atoms: C_6  and  C_3 
ROOT
ATOM      1  C   UNL d   1       1.021  -0.130   0.072  0.00  0.00     0.039 C 
ATOM      2  C   UNL d   1       2.365  -0.105  -0.036  0.00  0.00     0.055 C 
ATOM      3  C   UNL d   1       3.176  -1.272   0.115  0.00  0.00     0.100 C 
ATOM      4  N   UNL d   1       3.829  -2.225   0.239  0.00  0.00    -0.191 NA
ENDROOT
BRANCH   2   5
ATOM      5  C   UNL d   1       3.022   1.182  -0.323  0.00  0.00    -0.014 A 
ATOM      6  C   UNL d   1       3.295   1.559  -1.645  0.00  0.00     0.036 A 
ATOM      7  C   UNL d   1       3.915   2.782  -1.905  0.00  0.00     0.034 A 
ATOM      8 CL   UNL d   1       4.250   3.242  -3.530  0.00  0.00    -0.084 Cl
ATOM      9  C   UNL d   1       4.267   3.637  -0.862  0.00  0.00     0.024 A 
ATOM     10  C   UNL d   1       3.998   3.266   0.456  0.00  0.00     0.003 A 
ATOM     11  C   UNL d   1       3.377   2.044   0.725  0.00  0.00     0.013 A 
ENDBRANCH   2   5
BRANCH   1  12
ATOM     12  C   UNL d   1       0.230  -1.340   0.354  0.00  0.00     0.026 A 
ATOM     13  C   UNL d   1      -0.042  -1.685   1.684  0.00  0.00     0.128 A 
ATOM     14  F   UNL d   1       0.388  -0.898   2.683  0.00  0.00    -0.205 F 
ATOM     15  C   UNL d   1      -0.757  -2.837   2.009  0.00  0.00     0.043 A 
ATOM     16  C   UNL d   1      -1.221  -3.671   0.996  0.00  0.00     0.005 A 
ATOM     17  C   UNL d   1      -0.975  -3.341  -0.338  0.00  0.00     0.025 A 
ATOM     18  C   UNL d   1      -0.255  -2.183  -0.658  0.00  0.00     0.047 A 
ATOM     19 CL   UNL d   1       0.003  -1.829  -2.331  0.00  0.00    -0.083 Cl
ENDBRANCH   1  12
TORSDOF 2
