REMARK  8 active torsions:
REMARK  status: ('A' for Active; 'I' for Inactive)
REMARK    1  A    between atoms: N_8  and  N_1 
REMARK    2  A    between atoms: N_7  and  N_3 
REMARK       I    between atoms: C_5  and  N_8 
REMARK    3  A    between atoms: O_20  and  C_5 
REMARK       I    between atoms: C_6  and  N_7 
REMARK    4  A    between atoms: O_19  and  C_6 
REMARK    5  A    between atoms: C_9  and  C_11 
REMARK    6  A    between atoms: C_12  and  C_10 
REMARK    7  A    between atoms: C_24  and  O_19 
REMARK    8  A    between atoms: C_23  and  O_20 
ROOT
ATOM      1  C   UNL d   1       4.793  -4.961  -3.675  0.00  0.00    -0.013 A 
ATOM      2  C   UNL d   1       3.740  -6.004  -6.086  0.00  0.00    -0.013 A 
ATOM      3  C   UNL d   1       4.936  -6.501  -5.550  0.00  0.00     0.014 A 
ATOM      4  C   UNL d   1       5.458  -5.986  -4.354  0.00  0.00     0.014 A 
ATOM      5  C   UNL d   1       3.605  -4.453  -4.218  0.00  0.00     0.014 A 
ATOM      6  C   UNL d   1       3.083  -4.969  -5.412  0.00  0.00     0.014 A 
ENDROOT
BRANCH   1   7
ATOM      7  C   UNL d   1       5.303  -4.397  -2.370  0.00  0.00     0.032 C 
ATOM      8  N   UNL d   1       4.603  -3.457  -1.805  0.00  0.00    -0.300 N 
ATOM      9  HN  UNL d   1       3.750  -3.123  -2.255  1.00  0.00     0.186 HD
ATOM     10  C   UNL d   1       6.598  -4.970  -1.831  0.00  0.00     0.070 C 
BRANCH   8  11
ATOM     11  N   UNL d   1       4.995  -2.916  -0.624  0.00  0.00    -0.245 N 
ATOM     12  C   UNL d   1       4.406  -1.779  -0.130  0.00  0.00     0.379 C 
ATOM     13  O   UNL d   1       3.458  -1.172  -0.609  0.00  0.00    -0.237 OA
ATOM     14  H   UNL d   1       5.811  -3.236  -0.129  0.00  0.00     0.192 HD
BRANCH  12  15
ATOM     15  O   UNL d   1       5.105  -1.386   0.970  0.00  0.00    -0.303 OA
BRANCH  15  16
ATOM     16  C   UNL d   1       4.817  -0.065   1.449  0.00  0.00     0.176 C 
ATOM     17  C   UNL d   1       5.726   0.920   0.734  0.00  0.00     0.034 C 
ENDBRANCH  15  16
ENDBRANCH  12  15
ENDBRANCH   8  11
ENDBRANCH   1   7
BRANCH   2  18
ATOM     18  C   UNL d   1       3.190  -6.606  -7.354  0.00  0.00     0.032 C 
ATOM     19  N   UNL d   1       3.811  -7.636  -7.855  0.00  0.00    -0.300 N 
ATOM     20  HN  UNL d   1       4.650  -7.992  -7.397  1.00  0.00     0.186 HD
ATOM     21  C   UNL d   1       1.955  -5.957  -7.948  0.00  0.00     0.070 C 
BRANCH  19  22
ATOM     22  N   UNL d   1       3.352  -8.238  -8.980  0.00  0.00    -0.245 N 
ATOM     23  C   UNL d   1       4.112  -9.157  -9.661  0.00  0.00     0.379 C 
ATOM     24  O   UNL d   1       5.205  -9.597  -9.336  0.00  0.00    -0.237 OA
ATOM     25  H   UNL d   1       2.502  -7.950  -9.437  0.00  0.00     0.192 HD
BRANCH  23  26
ATOM     26  O   UNL d   1       3.467  -9.456 -10.823  0.00  0.00    -0.303 OA
BRANCH  26  27
ATOM     27  C   UNL d   1       4.241 -10.172 -11.796  0.00  0.00     0.176 C 
ATOM     28  C   UNL d   1       4.978  -9.169 -12.665  0.00  0.00     0.034 C 
ENDBRANCH  26  27
ENDBRANCH  23  26
ENDBRANCH  19  22
ENDBRANCH   2  18
TORSDOF 8
