REMARK  4 active torsions:
REMARK  status: ('A' for Active; 'I' for Inactive)
REMARK    1  A    between atoms: C_2  and  C_1 
REMARK       I    between atoms: N_5  and  C_2 
REMARK    2  A    between atoms: C_4  and  C_3 
REMARK    3  A    between atoms: C_6  and  N_5 
REMARK    4  A    between atoms: O_23  and  C_12 
ROOT
ATOM      1  C   UNL d   1       1.842   0.086   0.025  0.00  0.00     0.063 A 
ATOM      2  C   UNL d   1       1.224  -0.851  -0.821  0.00  0.00     0.069 A 
ATOM      3  C   UNL d   1       1.033   0.864   0.846  0.00  0.00     0.108 A 
ATOM      4  N   UNL d   1      -0.322   0.833   0.830  0.00  0.00    -0.346 N 
ATOM      5  HN  UNL d   1      -0.886   1.448   1.416  1.00  0.00     0.167 HD
ATOM      6  C   UNL d   1      -0.874  -0.058  -0.004  0.00  0.00     0.140 A 
ATOM      7  C   UNL d   1      -0.177  -0.918  -0.826  0.00  0.00     0.073 A 
ENDROOT
BRANCH   1   8
ATOM      8  C   UNL d   1       3.309   0.134   0.153  0.00  0.00     0.260 C 
ATOM      9  N   UNL d   1       4.001   1.352   0.088  0.00  0.00    -0.318 N 
ATOM     10  C   UNL d   1       3.391   2.670  -0.102  0.00  0.00     0.159 C 
ATOM     11  O   UNL d   1       3.845  -0.958   0.344  0.00  0.00    -0.267 OA
BRANCH   9  12
ATOM     12  C   UNL d   1       5.425   1.331   0.157  0.00  0.00     0.038 A 
ATOM     13  C   UNL d   1       6.105   2.163   1.052  0.00  0.00     0.055 A 
ATOM     14  C   UNL d   1       7.502   2.115   1.134  0.00  0.00     0.058 A 
ATOM     15 CL   UNL d   1       8.268   3.109   2.325  0.00  0.00    -0.082 Cl
ATOM     16  C   UNL d   1       8.229   1.274   0.284  0.00  0.00     0.055 A 
ATOM     17  C   UNL d   1       7.554   0.466  -0.632  0.00  0.00     0.028 A 
ATOM     18 CL   UNL d   1       9.954   1.186   0.315  0.00  0.00    -0.083 Cl
ATOM     19  C   UNL d   1       6.158   0.482  -0.683  0.00  0.00     0.031 A 
ENDBRANCH   9  12
ENDBRANCH   1   8
BRANCH   2  20
ATOM     20  C   UNL d   1       2.013  -1.808  -1.675  0.00  0.00     0.418 C 
ATOM     21  F   UNL d   1       3.121  -1.253  -2.241  0.00  0.00    -0.166 F 
ATOM     22  F   UNL d   1       2.411  -2.921  -1.008  0.00  0.00    -0.166 F 
ATOM     23  F   UNL d   1       1.279  -2.267  -2.733  0.00  0.00    -0.166 F 
ENDBRANCH   2  20
BRANCH   6  24
ATOM     24  O   UNL d   1      -2.227  -0.081   0.018  0.00  0.00    -0.346 OA
ATOM     25  H   UNL d   1      -2.407   0.599   0.692  0.00  0.00     0.219 HD
ENDBRANCH   6  24
TORSDOF 4
