REMARK  1 active torsions:
REMARK  status: ('A' for Active; 'I' for Inactive)
REMARK       I    between atoms: C_3  and  N_4 
REMARK    1  A    between atoms: N_4  and  C_7 
ROOT
ATOM      1  C   UNL d   1       0.010   0.709   0.043  0.00  0.00     0.001 A 
ATOM      2  C   UNL d   1      -0.012  -0.684   0.013  0.00  0.00     0.080 A 
ATOM      3  C   UNL d   1       1.240   1.382   0.059  0.00  0.00     0.041 A 
ATOM      4  O   UNL d   1      -1.177  -1.398   0.022  0.00  0.00    -0.326 OA
ATOM      5  C   UNL d   1       2.443   0.675   0.019  0.00  0.00     0.035 A 
ATOM      6  O   UNL d   1      -2.359   0.650  -0.332  0.00  0.00    -0.362 OA
ATOM      7  C   UNL d   1      -2.314  -0.596   0.352  0.00  0.00     0.345 C 
ATOM      8  C   UNL d   1       1.179  -1.401  -0.048  0.00  0.00     0.040 A 
ATOM      9  C   UNL d   1       2.403  -0.724  -0.044  0.00  0.00     0.032 A 
ATOM     10  C   UNL d   1      -1.278   1.472   0.093  0.00  0.00     0.212 C 
ENDROOT
BRANCH   5  11
ATOM     11  N   UNL d   1       3.713   1.294   0.037  0.00  0.00    -0.327 N 
ATOM     12  C   UNL d   1       3.978   2.649   0.120  0.00  0.00     0.218 C 
ATOM     13  O   UNL d   1       3.157   3.557   0.195  0.00  0.00    -0.274 OA
ATOM     14  C   UNL d   1       5.452   2.971   0.119  0.00  0.00     0.117 C 
ATOM     15  H   UNL d   1       4.507   0.668  -0.007  0.00  0.00     0.169 HD
ENDBRANCH   5  11
TORSDOF 1
