REMARK  6 active torsions:
REMARK  status: ('A' for Active; 'I' for Inactive)
REMARK    1  A    between atoms: N_2  and  S_1 
REMARK    2  A    between atoms: C_4  and  S_1 
REMARK    3  A    between atoms: C_3  and  N_2 
REMARK    4  A    between atoms: N_7  and  C_18 
REMARK    5  A    between atoms: C_10  and  C_9 
REMARK    6  A    between atoms: O_21  and  C_15 
ROOT
ATOM      1  C   UNL d   1       0.596  -1.041   1.158  0.00  0.00     0.075 A 
ATOM      2  C   UNL d   1       0.720  -2.414   0.945  0.00  0.00     0.027 A 
ATOM      3  C   UNL d   1       0.209  -0.557   2.411  0.00  0.00     0.027 A 
ATOM      4  C   UNL d   1      -0.019  -2.847   3.225  0.00  0.00     0.032 A 
ATOM      5  C   UNL d   1      -0.100  -1.465   3.432  0.00  0.00     0.031 A 
ATOM      6  C   UNL d   1       0.422  -3.308   1.976  0.00  0.00     0.031 A 
ENDROOT
BRANCH   1   7
ATOM      7  S   UNL d   1       1.094   0.088  -0.120  0.00  0.00     0.248 S 
ATOM      8  O   UNL d   1       1.454   1.332   0.537  0.00  0.00    -0.205 OA
ATOM      9  O   UNL d   1       2.053  -0.586  -0.973  0.00  0.00    -0.205 OA
BRANCH   7  10
ATOM     10  N   UNL d   1      -0.314   0.415  -0.954  0.00  0.00    -0.151 NA
ATOM     11  H   UNL d   1      -0.308   1.382  -1.261  0.00  0.00     0.149 HD
BRANCH  10  12
ATOM     12  C   UNL d   1      -0.568  -0.445  -2.019  0.00  0.00     0.170 A 
ATOM     13  N   UNL d   1      -1.078  -1.648  -1.748  0.00  0.00    -0.342 N 
ATOM     14  C   UNL d   1      -1.368  -2.399  -2.827  0.00  0.00     0.092 A 
ATOM     15  HN  UNL d   1      -1.236  -1.974  -0.794  1.00  0.00     0.167 HD
ATOM     16  C   UNL d   1      -1.134  -1.995  -4.123  0.00  0.00     0.034 A 
ATOM     17  C   UNL d   1      -0.588  -0.740  -4.265  0.00  0.00     0.092 A 
ATOM     18  N   UNL d   1      -0.316   0.072  -3.225  0.00  0.00    -0.342 N 
ATOM     19  HN  UNL d   1       0.056   1.013  -3.350  1.00  0.00     0.167 HD
ENDBRANCH  10  12
ENDBRANCH   7  10
ENDBRANCH   1   7
BRANCH   4  20
ATOM     20  N   UNL d   1      -0.360  -3.691   4.301  0.00  0.00    -0.365 N 
ATOM     21  C   UNL d   1      -0.958  -4.814   4.048  0.00  0.00     0.102 C 
ATOM     22  HN  UNL d   1      -0.141  -3.424   5.260  1.00  0.00     0.165 HD
BRANCH  21  23
ATOM     23  C   UNL d   1      -1.438  -5.704   5.125  0.00  0.00     0.012 A 
ATOM     24  C   UNL d   1      -1.367  -5.348   6.476  0.00  0.00     0.077 A 
ATOM     25  C   UNL d   1      -1.929  -6.174   7.447  0.00  0.00     0.037 A 
ATOM     26  C   UNL d   1      -2.554  -7.365   7.072  0.00  0.00     0.003 A 
ATOM     27  C   UNL d   1      -2.603  -7.737   5.728  0.00  0.00     0.001 A 
ATOM     28  C   UNL d   1      -2.046  -6.908   4.753  0.00  0.00     0.015 A 
BRANCH  24  29
ATOM     29  O   UNL d   1      -0.774  -4.195   6.911  0.00  0.00    -0.360 OA
ATOM     30  H   UNL d   1      -0.428  -3.731   6.115  0.00  0.00     0.217 HD
ENDBRANCH  24  29
ENDBRANCH  21  23
ENDBRANCH   4  20
TORSDOF 6
