REMARK  4 active torsions:
REMARK  status: ('A' for Active; 'I' for Inactive)
REMARK    1  A    between atoms: C_2  and  S_1 
REMARK    2  A    between atoms: C_10  and  S_1 
REMARK    3  A    between atoms: N_4  and  C_3 
REMARK    4  A    between atoms: C_8  and  C_6 
ROOT
ATOM      1  C   UNL d   1       0.384   1.650   0.413  0.00  0.00     0.140 C 
ATOM      2  C   UNL d   1      -0.661   0.808   0.277  0.00  0.00     0.046 C 
ATOM      3  C   UNL d   1       1.290   1.976  -0.624  0.00  0.00     0.111 C 
ATOM      4  N   UNL d   1       1.991   2.244  -1.509  0.00  0.00    -0.191 NA
ENDROOT
BRANCH   1   5
ATOM      5  S   UNL d   1       0.726   2.332   1.982  0.00  0.00     0.193 S 
ATOM      6  O   UNL d   1       2.155   2.566   2.082  0.00  0.00    -0.221 OA
ATOM      7  O   UNL d   1       0.084   1.507   2.994  0.00  0.00    -0.221 OA
BRANCH   5   8
ATOM      8  C   UNL d   1      -0.099   3.961   2.016  0.00  0.00     0.058 C 
ATOM      9  C   UNL d   1      -1.622   3.800   1.921  0.00  0.00     0.031 C 
ATOM     10  C   UNL d   1       0.241   4.626   3.366  0.00  0.00     0.031 C 
ATOM     11  C   UNL d   1       0.399   4.868   0.884  0.00  0.00     0.031 C 
ENDBRANCH   5   8
ENDBRANCH   1   5
BRANCH   2  12
ATOM     12  C   UNL d   1      -1.052   0.060  -0.889  0.00  0.00    -0.025 A 
ATOM     13  C   UNL d   1      -0.187  -0.511  -1.878  0.00  0.00     0.055 A 
ATOM     14  C   UNL d   1      -0.889  -1.201  -2.845  0.00  0.00     0.144 A 
ATOM     15  S   UNL d   1      -2.564  -1.181  -2.575  0.00  0.00    -0.077 SA
ATOM     16  C   UNL d   1      -2.374  -0.254  -1.142  0.00  0.00     0.063 A 
BRANCH  14  17
ATOM     17  N   UNL d   1      -0.330  -1.898  -3.975  0.00  0.00    -0.108 N 
ATOM     18  O   UNL d   1       0.904  -1.885  -4.071  0.00  0.00    -0.531 OA
ATOM     19  O   UNL d   1      -1.105  -2.457  -4.762  0.00  0.00    -0.531 OA
ENDBRANCH  14  17
ENDBRANCH   2  12
TORSDOF 4
