REMARK  3 active torsions:
REMARK  status: ('A' for Active; 'I' for Inactive)
REMARK    1  A    between atoms: C_7  and  C_1 
REMARK    2  A    between atoms: C_10  and  N_2 
REMARK    3  A    between atoms: C_8  and  C_9 
ROOT
ATOM      1  C   UNL d   1      -0.195  -1.355   0.035  0.00  0.00     0.149 A 
ATOM      2  N   UNL d   1       1.038  -0.697   0.024  0.00  0.00    -0.224 N 
ATOM      3  N   UNL d   1       0.818   0.607   0.310  0.00  0.00     0.001 NA
ATOM      4  N   UNL d   1      -0.495   0.761   0.340  0.00  0.00    -0.007 NA
ATOM      5  N   UNL d   1      -1.134  -0.437   0.182  0.00  0.00    -0.269 N 
ATOM      6  HN  UNL d   1      -2.142  -0.592   0.179  1.00  0.00     0.185 HD
ENDROOT
BRANCH   1   7
ATOM      7  C   UNL d   1      -0.435  -2.804   0.072  0.00  0.00     0.026 A 
ATOM      8  C   UNL d   1      -1.440  -3.428  -0.698  0.00  0.00     0.061 A 
ATOM      9  C   UNL d   1      -1.607  -4.828  -0.587  0.00  0.00     0.017 A 
ATOM     10  C   UNL d   1      -0.798  -5.596   0.252  0.00  0.00     0.001 A 
ATOM     11  C   UNL d   1       0.176  -4.978   1.020  0.00  0.00     0.001 A 
ATOM     12  C   UNL d   1       0.339  -3.594   0.945  0.00  0.00     0.016 A 
BRANCH   8  13
ATOM     13  C   UNL d   1      -2.394  -2.688  -1.610  0.00  0.00     0.418 C 
ATOM     14  F   UNL d   1      -1.906  -1.536  -2.144  0.00  0.00    -0.166 F 
ATOM     15  F   UNL d   1      -2.746  -3.445  -2.695  0.00  0.00    -0.166 F 
ATOM     16  F   UNL d   1      -3.567  -2.377  -0.996  0.00  0.00    -0.166 F 
ENDBRANCH   8  13
ENDBRANCH   1   7
BRANCH   2  17
ATOM     17  C   UNL d   1       2.354  -1.198  -0.151  0.00  0.00     0.056 A 
ATOM     18  C   UNL d   1       2.602  -2.354  -0.901  0.00  0.00     0.032 A 
ATOM     19  C   UNL d   1       3.885  -2.908  -0.929  0.00  0.00     0.009 A 
ATOM     20  C   UNL d   1       4.932  -2.315  -0.214  0.00  0.00    -0.062 A 
ATOM     21  C   UNL d   1       4.696  -1.117   0.470  0.00  0.00     0.009 A 
ATOM     22  C   UNL d   1       6.285  -2.963  -0.193  0.00  0.00     0.048 C 
ATOM     23  C   UNL d   1       3.419  -0.550   0.489  0.00  0.00     0.032 A 
ENDBRANCH   2  17
TORSDOF 3
