REMARK  4 active torsions:
REMARK  status: ('A' for Active; 'I' for Inactive)
REMARK    1  A    between atoms: S_14  and  C_9 
REMARK    2  A    between atoms: C_20  and  S_14 
REMARK    3  A    between atoms: C_16  and  C_20 
REMARK    4  A    between atoms: C_19  and  C_16 
ROOT
ATOM      1  C   UNL d   1       1.215   0.991  -0.133  0.00  0.00     0.068 A 
ATOM      2  C   UNL d   1      -1.244   0.824  -0.051  0.00  0.00     0.088 A 
ATOM      3  C   UNL d   1      -0.672  -0.442  -0.013  0.00  0.00     0.032 A 
ATOM      4  S   UNL d   1      -0.112   2.081  -0.142  0.00  0.00    -0.066 SA
ATOM      5  C   UNL d   1       0.771  -0.328  -0.034  0.00  0.00     0.067 A 
ATOM      6  N   UNL d   1      -2.557   1.127  -0.034  0.00  0.00    -0.354 N 
ATOM      7  HN  UNL d   1      -2.897   2.089  -0.054  1.00  0.00     0.166 HD
ATOM      8  C   UNL d   1      -1.571  -1.544   0.031  0.00  0.00    -0.045 A 
ATOM      9  C   UNL d   1       2.589   1.237  -0.208  0.00  0.00     0.090 A 
ATOM     10  N   UNL d   1       3.446   0.199  -0.137  0.00  0.00    -0.346 N 
ATOM     11  HN  UNL d   1       4.455   0.346  -0.167  1.00  0.00     0.167 HD
ATOM     12  N   UNL d   1       1.643  -1.370   0.022  0.00  0.00    -0.350 N 
ATOM     13  HN  UNL d   1       1.334  -2.339   0.096  1.00  0.00     0.166 HD
ATOM     14  C   UNL d   1       2.932  -1.032  -0.027  0.00  0.00     0.181 A 
ATOM     15  C   UNL d   1      -2.947  -1.248   0.041  0.00  0.00     0.032 A 
ATOM     16  C   UNL d   1      -3.384   0.070   0.011  0.00  0.00     0.006 A 
ATOM     17  C   UNL d   1      -1.172  -2.995   0.041  0.00  0.00     0.049 C 
ATOM     18  C   UNL d   1      -4.856   0.367   0.010  0.00  0.00     0.068 C 
ENDROOT
BRANCH   9  19
ATOM     19  S   UNL d   1       3.216   2.885  -0.398  0.00  0.00    -0.103 SA
BRANCH  19  20
ATOM     20  C   UNL d   1       4.989   2.559  -0.645  0.00  0.00     0.164 C 
BRANCH  20  21
ATOM     21  C   UNL d   1       5.685   3.842  -1.057  0.00  0.00     0.169 C 
ATOM     22  O   UNL d   1       5.994   4.043  -2.233  0.00  0.00    -0.291 OA
BRANCH  21  23
ATOM     23  C   UNL d   1       6.014   4.888  -0.034  0.00  0.00     0.011 A 
ATOM     24  C   UNL d   1       5.768   4.720   1.335  0.00  0.00     0.016 A 
ATOM     25  C   UNL d   1       6.085   5.741   2.239  0.00  0.00     0.020 A 
ATOM     26  C   UNL d   1       6.649   6.930   1.780  0.00  0.00     0.011 A 
ATOM     27  C   UNL d   1       6.905   7.109   0.424  0.00  0.00     0.020 A 
ATOM     28 BR   UNL d   1       7.066   8.306   3.005  0.00  0.00    -0.051 Br
ATOM     29  C   UNL d   1       6.588   6.090  -0.480  0.00  0.00     0.016 A 
ENDBRANCH  21  23
ENDBRANCH  20  21
ENDBRANCH  19  20
ENDBRANCH   9  19
TORSDOF 4
