REMARK  4 active torsions:
REMARK  status: ('A' for Active; 'I' for Inactive)
REMARK    1  A    between atoms: C_7  and  C_1 
REMARK    2  A    between atoms: C_2  and  C_9 
REMARK       I    between atoms: N_8  and  C_2 
REMARK    3  A    between atoms: C_11  and  N_8 
REMARK    4  A    between atoms: O_14  and  C_13 
ROOT
ATOM      1  C   UNL d   1      -2.525  -1.431   0.014  0.00  0.00     0.015 A 
ATOM      2  C   UNL d   1      -2.859  -2.201   1.153  0.00  0.00     0.045 A 
ATOM      3  C   UNL d   1      -4.144  -2.769   1.260  0.00  0.00     0.018 A 
ATOM      4  C   UNL d   1      -3.488  -1.295  -1.006  0.00  0.00     0.015 A 
ATOM      5  C   UNL d   1      -4.755  -1.867  -0.891  0.00  0.00     0.001 A 
ATOM      6  C   UNL d   1      -5.088  -2.591   0.247  0.00  0.00     0.001 A 
ENDROOT
BRANCH   2   7
ATOM      7  C   UNL d   1      -1.827  -2.545   2.176  0.00  0.00     0.257 C 
ATOM      8  N   UNL d   1      -2.243  -2.668   3.489  0.00  0.00    -0.320 N 
ATOM      9  H   UNL d   1      -3.235  -2.631   3.678  0.00  0.00     0.169 HD
ATOM     10  O   UNL d   1      -0.680  -2.757   1.800  0.00  0.00    -0.267 OA
BRANCH   8  11
ATOM     11  C   UNL d   1      -1.426  -3.036   4.595  0.00  0.00     0.068 A 
ATOM     12  C   UNL d   1      -0.037  -2.850   4.697  0.00  0.00     0.092 A 
ATOM     13  C   UNL d   1       0.665  -3.276   5.827  0.00  0.00     0.039 A 
ATOM     14  C   UNL d   1      -0.002  -3.909   6.871  0.00  0.00     0.003 A 
ATOM     15  C   UNL d   1      -1.381  -4.077   6.803  0.00  0.00     0.002 A 
ATOM     16  C   UNL d   1      -2.089  -3.626   5.683  0.00  0.00     0.032 A 
BRANCH  12  17
ATOM     17  O   UNL d   1       0.728  -2.201   3.768  0.00  0.00    -0.358 OA
ATOM     18  H   UNL d   1       0.330  -2.392   2.891  0.00  0.00     0.217 HD
ENDBRANCH  12  17
ENDBRANCH   8  11
ENDBRANCH   2   7
BRANCH   1  19
ATOM     19  C   UNL d   1      -1.258  -0.721  -0.150  0.00  0.00     0.112 A 
ATOM     20  O   UNL d   1      -0.757  -0.675  -1.420  0.00  0.00    -0.237 OA
ATOM     21  N   UNL d   1       0.412   0.065  -1.438  0.00  0.00    -0.265 N 
ATOM     22  C   UNL d   1       0.614   0.451  -0.174  0.00  0.00     0.031 A 
ATOM     23  HN  UNL d   1       0.997   0.274  -2.248  1.00  0.00     0.194 HD
ATOM     24  C   UNL d   1      -0.412  -0.017   0.677  0.00  0.00     0.066 A 
ATOM     25  C   UNL d   1       1.788   1.282   0.174  0.00  0.00     0.070 C 
ENDBRANCH   1  19
TORSDOF 4
