REMARK  7 active torsions:
REMARK  status: ('A' for Active; 'I' for Inactive)
REMARK    1  A    between atoms: C_5  and  C_1 
REMARK    2  A    between atoms: O_12  and  C_2 
REMARK    3  A    between atoms: C_10  and  C_5 
REMARK    4  A    between atoms: C_7  and  C_16 
REMARK       I    between atoms: N_13  and  C_7 
REMARK    5  A    between atoms: O_19  and  C_10 
REMARK    6  A    between atoms: C_16  and  O_12 
REMARK    7  A    between atoms: C_17  and  N_13 
ROOT
ATOM      1  C   UNL d   1      -0.439  -1.217  -0.274  0.00  0.00     0.024 A 
ATOM      2  C   UNL d   1       0.925  -1.223  -0.545  0.00  0.00     0.152 A 
ATOM      3  N   UNL d   1       1.696  -0.126  -0.564  0.00  0.00    -0.333 N 
ATOM      4  HN  UNL d   1       2.695  -0.170  -0.765  1.00  0.00     0.168 HD
ATOM      5  C   UNL d   1      -0.979   0.044  -0.029  0.00  0.00     0.017 A 
ATOM      6  N   UNL d   1      -0.227   1.168  -0.046  0.00  0.00    -0.355 N 
ATOM      7  HN  UNL d   1      -0.637   2.084   0.132  1.00  0.00     0.166 HD
ATOM      8  C   UNL d   1       1.077   1.026  -0.305  0.00  0.00     0.182 A 
ATOM      9  C   UNL d   1      -2.441   0.289   0.217  0.00  0.00     0.069 C 
ENDROOT
BRANCH   2  10
ATOM     10  O   UNL d   1       1.525  -2.441  -0.810  0.00  0.00    -0.326 OA
BRANCH  10  11
ATOM     11  C   UNL d   1       2.944  -2.388  -0.819  0.00  0.00     0.280 C 
BRANCH  11  12
ATOM     12  C   UNL d   1       3.639  -1.849  -2.081  0.00  0.00     0.246 C 
ATOM     13  N   UNL d   1       3.243  -2.505  -3.240  0.00  0.00    -0.325 N 
ATOM     14  H   UNL d   1       2.398  -3.064  -3.172  0.00  0.00     0.169 HD
ATOM     15  O   UNL d   1       4.529  -1.006  -1.997  0.00  0.00    -0.271 OA
BRANCH  13  16
ATOM     16  C   UNL d   1       3.876  -2.451  -4.504  0.00  0.00     0.035 A 
ATOM     17  C   UNL d   1       5.057  -1.742  -4.754  0.00  0.00     0.032 A 
ATOM     18  C   UNL d   1       5.650  -1.761  -6.021  0.00  0.00     0.044 A 
ATOM     19  C   UNL d   1       5.066  -2.494  -7.043  0.00  0.00     0.116 A 
ATOM     20  C   UNL d   1       3.897  -3.208  -6.819  0.00  0.00     0.044 A 
ATOM     21  F   UNL d   1       5.637  -2.517  -8.254  0.00  0.00    -0.206 F 
ATOM     22  C   UNL d   1       3.301  -3.186  -5.551  0.00  0.00     0.032 A 
ENDBRANCH  13  16
ENDBRANCH  11  12
ENDBRANCH  10  11
ENDBRANCH   2  10
BRANCH   1  23
ATOM     23  C   UNL d   1      -1.216  -2.498  -0.135  0.00  0.00     0.156 C 
BRANCH  23  24
ATOM     24  C   UNL d   1      -1.220  -3.415  -1.335  0.00  0.00     0.262 C 
ATOM     25  O   UNL d   1      -0.851  -3.138  -2.470  0.00  0.00    -0.265 OA
BRANCH  24  26
ATOM     26  O   UNL d   1      -1.771  -4.608  -0.961  0.00  0.00    -0.326 OA
ATOM     27  C   UNL d   1      -1.902  -5.574  -2.005  0.00  0.00     0.213 C 
ENDBRANCH  24  26
ENDBRANCH  23  24
ENDBRANCH   1  23
TORSDOF 7
