REMARK  6 active torsions:
REMARK  status: ('A' for Active; 'I' for Inactive)
REMARK    1  A    between atoms: C_3  and  C_1 
REMARK    2  A    between atoms: N_4  and  C_1 
REMARK    3  A    between atoms: C_6  and  C_2 
REMARK       I    between atoms: N_10  and  C_3 
REMARK       I    between atoms: C_5  and  N_4 
REMARK    4  A    between atoms: C_13  and  C_5 
REMARK    5  A    between atoms: N_7  and  N_10 
REMARK    6  A    between atoms: C_18  and  C_17 
ROOT
ATOM      1  C   UNL d   1       1.080   0.094  -0.135  0.00  0.00     0.107 C 
ATOM      2  C   UNL d   1       0.364   0.971  -0.867  0.00  0.00     0.072 C 
ENDROOT
BRANCH   1   3
ATOM      3  C   UNL d   1       0.371  -1.004   0.636  0.00  0.00     0.286 C 
ATOM      4  N   UNL d   1      -0.929  -0.727   1.031  0.00  0.00    -0.265 N 
ATOM      5  H   UNL d   1      -1.330   0.193   0.907  0.00  0.00     0.190 HD
ATOM      6  O   UNL d   1       0.994  -2.033   0.903  0.00  0.00    -0.264 OA
BRANCH   4   7
ATOM      7  N   UNL d   1      -1.647  -1.651   1.732  0.00  0.00    -0.308 N 
ATOM      8  C   UNL d   1      -2.867  -1.323   2.016  0.00  0.00     0.118 C 
ATOM      9  HN  UNL d   1      -1.246  -2.546   2.015  1.00  0.00     0.186 HD
BRANCH   8  10
ATOM     10  C   UNL d   1      -3.741  -2.223   2.797  0.00  0.00    -0.019 A 
ATOM     11  C   UNL d   1      -3.238  -3.431   3.297  0.00  0.00     0.016 A 
ATOM     12  C   UNL d   1      -4.064  -4.271   4.043  0.00  0.00     0.043 A 
ATOM     13  C   UNL d   1      -5.383  -3.900   4.281  0.00  0.00     0.116 A 
ATOM     14  C   UNL d   1      -5.892  -2.702   3.787  0.00  0.00     0.043 A 
ATOM     15  F   UNL d   1      -6.175  -4.706   4.998  0.00  0.00    -0.206 F 
ATOM     16  C   UNL d   1      -5.069  -1.855   3.040  0.00  0.00     0.016 A 
ENDBRANCH   8  10
ENDBRANCH   4   7
ENDBRANCH   1   3
BRANCH   1  17
ATOM     17  N   UNL d   1       2.468   0.024  -0.083  0.00  0.00    -0.318 N 
ATOM     18  C   UNL d   1       3.273   1.122   0.173  0.00  0.00     0.256 C 
ATOM     19  O   UNL d   1       2.854   2.238   0.477  0.00  0.00    -0.267 OA
ATOM     20  H   UNL d   1       2.833  -0.876   0.226  0.00  0.00     0.169 HD
BRANCH  18  21
ATOM     21  C   UNL d   1       4.739   0.873   0.190  0.00  0.00     0.032 A 
ATOM     22  C   UNL d   1       5.348  -0.010  -0.710  0.00  0.00     0.017 A 
ATOM     23  C   UNL d   1       6.736  -0.177  -0.686  0.00  0.00     0.001 A 
ATOM     24  C   UNL d   1       7.514   0.530   0.233  0.00  0.00     0.000 A 
ATOM     25  C   UNL d   1       6.911   1.416   1.123  0.00  0.00     0.001 A 
ATOM     26  C   UNL d   1       5.527   1.594   1.097  0.00  0.00     0.017 A 
ENDBRANCH  18  21
ENDBRANCH   1  17
BRANCH   2  27
ATOM     27  C   UNL d   1       0.905   1.857  -1.841  0.00  0.00     0.077 A 
ATOM     28  O   UNL d   1       2.027   1.593  -2.595  0.00  0.00    -0.323 OA
ATOM     29  C   UNL d   1       2.188   2.597  -3.489  0.00  0.00     0.142 A 
ATOM     30  C   UNL d   1       1.188   3.525  -3.352  0.00  0.00     0.027 A 
ATOM     31  C   UNL d   1       0.375   3.061  -2.293  0.00  0.00     0.039 A 
ENDBRANCH   2  27
TORSDOF 6
