REMARK  9 active torsions:
REMARK  status: ('A' for Active; 'I' for Inactive)
REMARK    1  A    between atoms: N_7  and  S_1 
REMARK    2  A    between atoms: C_10  and  S_1 
REMARK    3  A    between atoms: C_22  and  C_4 
REMARK    4  A    between atoms: N_15  and  N_7 
REMARK    5  A    between atoms: C_8  and  C_11 
REMARK    6  A    between atoms: C_9  and  C_12 
REMARK    7  A    between atoms: C_13  and  C_32 
REMARK       I    between atoms: C_19  and  N_15 
REMARK    8  A    between atoms: C_33  and  C_19 
REMARK    9  A    between atoms: C_32  and  C_33 
ROOT
ATOM      1  N   UNL d   1       0.980   1.734  -2.058  0.00  0.00    -0.260 N 
ATOM      2  C   UNL d   1       0.470   2.168  -3.264  0.00  0.00     0.236 C 
ATOM      3  O   UNL d   1      -0.374   1.548  -3.902  0.00  0.00    -0.272 OA
ATOM      4  H   UNL d   1       1.694   2.252  -1.545  0.00  0.00     0.190 HD
ENDROOT
BRANCH   1   5
ATOM      5  N   UNL d   1       0.508   0.493  -1.466  0.00  0.00    -0.220 N 
ATOM      6  H   UNL d   1      -0.218  -0.052  -1.939  0.00  0.00     0.200 HD
BRANCH   5   7
ATOM      7  S   UNL d   1       1.175   0.041   0.014  0.00  0.00     0.276 S 
ATOM      8  O   UNL d   1       0.756   1.032   0.983  0.00  0.00    -0.199 OA
ATOM      9  O   UNL d   1       2.582  -0.216  -0.210  0.00  0.00    -0.199 OA
BRANCH   7  10
ATOM     10  C   UNL d   1       0.401  -1.504   0.443  0.00  0.00     0.082 A 
ATOM     11  C   UNL d   1       0.989  -2.705   0.024  0.00  0.00     0.041 A 
ATOM     12  C   UNL d   1       0.549  -3.930   0.554  0.00  0.00     0.050 A 
ATOM     13  C   UNL d   1      -0.485  -3.927   1.510  0.00  0.00     0.032 A 
ATOM     14  C   UNL d   1      -1.069  -2.725   1.949  0.00  0.00     0.050 A 
ATOM     15  C   UNL d   1      -0.626  -1.513   1.395  0.00  0.00     0.041 A 
BRANCH  12  16
ATOM     16  C   UNL d   1       1.211  -5.239   0.175  0.00  0.00     0.417 C 
ATOM     17  F   UNL d   1       2.231  -5.094  -0.713  0.00  0.00    -0.166 F 
ATOM     18  F   UNL d   1       1.737  -5.880   1.254  0.00  0.00    -0.166 F 
ATOM     19  F   UNL d   1       0.337  -6.113  -0.393  0.00  0.00    -0.166 F 
ENDBRANCH  12  16
BRANCH  14  20
ATOM     20  C   UNL d   1      -2.098  -2.751   3.059  0.00  0.00     0.417 C 
ATOM     21  F   UNL d   1      -2.529  -1.514   3.427  0.00  0.00    -0.166 F 
ATOM     22  F   UNL d   1      -3.212  -3.454   2.719  0.00  0.00    -0.166 F 
ATOM     23  F   UNL d   1      -1.615  -3.333   4.191  0.00  0.00    -0.166 F 
ENDBRANCH  14  20
ENDBRANCH   7  10
ENDBRANCH   5   7
ENDBRANCH   1   5
BRANCH   2  24
ATOM     24  C   UNL d   1       1.062   3.495  -3.699  0.00  0.00     0.112 C 
BRANCH  24  25
ATOM     25  C   UNL d   1       0.521   3.949  -5.050  0.00  0.00     0.096 C 
BRANCH  25  26
ATOM     26  C   UNL d   1       1.091   5.255  -5.460  0.00  0.00     0.148 A 
ATOM     27  N   UNL d   1       2.267   5.783  -5.206  0.00  0.00    -0.323 N 
ATOM     28  C   UNL d   1       2.211   6.989  -5.880  0.00  0.00     0.137 A 
ATOM     29  HN  UNL d   1       3.031   5.398  -4.650  1.00  0.00     0.169 HD
ATOM     30  N   UNL d   1       1.044   7.197  -6.514  0.00  0.00    -0.242 N 
ATOM     31  O   UNL d   1       0.305   6.049  -6.242  0.00  0.00    -0.223 OA
ATOM     32  HN  UNL d   1       0.765   8.007  -7.067  1.00  0.00     0.196 HD
BRANCH  28  33
ATOM     33  C   UNL d   1       3.329   7.930  -5.896  0.00  0.00     0.010 A 
ATOM     34  C   UNL d   1       4.521   7.620  -5.224  0.00  0.00     0.017 A 
ATOM     35  C   UNL d   1       5.605   8.507  -5.239  0.00  0.00     0.025 A 
ATOM     36  C   UNL d   1       5.500   9.713  -5.931  0.00  0.00     0.034 A 
ATOM     37  C   UNL d   1       4.326  10.039  -6.603  0.00  0.00     0.025 A 
ATOM     38 CL   UNL d   1       6.833  10.800  -5.957  0.00  0.00    -0.084 Cl
ATOM     39  C   UNL d   1       3.243   9.152  -6.586  0.00  0.00     0.017 A 
ENDBRANCH  28  33
ENDBRANCH  25  26
ENDBRANCH  24  25
ENDBRANCH   2  24
TORSDOF 9
