REMARK  5 active torsions:
REMARK  status: ('A' for Active; 'I' for Inactive)
REMARK    1  A    between atoms: C_8  and  N_1 
REMARK    2  A    between atoms: C_4  and  C_2 
REMARK       I    between atoms: N_7  and  C_4 
REMARK    3  A    between atoms: C_11  and  N_7 
REMARK    4  A    between atoms: C_14  and  C_8 
REMARK    5  A    between atoms: C_13  and  C_14 
ROOT
ATOM      1  N   UNL d   1       0.156  -0.854   0.468  0.00  0.00    -0.351 N 
ATOM      2  C   UNL d   1      -1.387   0.754  -0.279  0.00  0.00     0.105 C 
ATOM      3  C   UNL d   1       0.885   0.285   0.151  0.00  0.00     0.220 C 
ATOM      4  C   UNL d   1      -1.266  -0.581   0.449  0.00  0.00     0.140 C 
ATOM      5  C   UNL d   1      -0.074   1.446   0.065  0.00  0.00     0.118 C 
ATOM      6  O   UNL d   1       2.089   0.369  -0.027  0.00  0.00    -0.273 OA
ENDROOT
BRANCH   2   7
ATOM      7  C   UNL d   1      -1.584   0.542  -1.783  0.00  0.00     0.228 C 
ATOM      8  N   UNL d   1      -1.675   1.718  -2.512  0.00  0.00    -0.327 N 
ATOM      9  H   UNL d   1      -1.464   2.587  -2.041  0.00  0.00     0.169 HD
ATOM     10  O   UNL d   1      -1.701  -0.589  -2.245  0.00  0.00    -0.273 OA
BRANCH   8  11
ATOM     11  C   UNL d   1      -2.048   1.834  -3.875  0.00  0.00     0.034 A 
ATOM     12  C   UNL d   1      -2.499   0.761  -4.648  0.00  0.00     0.030 A 
ATOM     13  C   UNL d   1      -2.945   0.960  -5.960  0.00  0.00     0.009 A 
ATOM     14  C   UNL d   1      -2.950   2.235  -6.525  0.00  0.00    -0.062 A 
ATOM     15  C   UNL d   1      -2.445   3.303  -5.778  0.00  0.00     0.009 A 
ATOM     16  C   UNL d   1      -3.480   2.431  -7.915  0.00  0.00     0.048 C 
ATOM     17  C   UNL d   1      -2.006   3.104  -4.461  0.00  0.00     0.030 A 
ENDBRANCH   8  11
ENDBRANCH   2   7
BRANCH   1  18
ATOM     18  C   UNL d   1       0.662  -2.208   0.254  0.00  0.00     0.130 C 
BRANCH  18  19
ATOM     19  C   UNL d   1       1.936  -2.538   1.041  0.00  0.00     0.058 C 
BRANCH  19  20
ATOM     20  C   UNL d   1       2.347  -3.984   0.870  0.00  0.00    -0.057 A 
ATOM     21  C   UNL d   1       3.207  -4.360  -0.173  0.00  0.00     0.009 A 
ATOM     22  C   UNL d   1       3.589  -5.695  -0.331  0.00  0.00     0.024 A 
ATOM     23  C   UNL d   1       3.108  -6.661   0.549  0.00  0.00     0.034 A 
ATOM     24  C   UNL d   1       2.245  -6.305   1.583  0.00  0.00     0.024 A 
ATOM     25 CL   UNL d   1       3.584  -8.304   0.361  0.00  0.00    -0.084 Cl
ATOM     26  C   UNL d   1       1.864  -4.970   1.742  0.00  0.00     0.009 A 
ENDBRANCH  19  20
ENDBRANCH  18  19
ENDBRANCH   1  18
TORSDOF 5
