REMARK  1 active torsions:
REMARK  status: ('A' for Active; 'I' for Inactive)
REMARK    1  A    between atoms: C_3  and  C_1 
REMARK       I    between atoms: N_5  and  C_3 
ROOT
ATOM      1  C   UNL d   1      -0.227   3.342   1.330  0.00  0.00     0.073 C 
ATOM      2  S   UNL d   1      -1.309   2.835   2.554  0.00  0.00    -0.084 SA
ATOM      3  C   UNL d   1      -0.771   4.046   3.648  0.00  0.00     0.022 C 
ATOM      4  C   UNL d   1      -1.362   4.211   4.957  0.00  0.00     0.021 A 
ATOM      5  C   UNL d   1       0.617   4.331   1.794  0.00  0.00     0.026 C 
ATOM      6  C   UNL d   1       0.259   4.782   3.094  0.00  0.00     0.022 C 
ATOM      7  S   UNL d   1      -1.429   5.752   5.718  0.00  0.00    -0.101 SA
ATOM      8  C   UNL d   1      -1.925   3.240   5.764  0.00  0.00     0.021 A 
ATOM      9  C   UNL d   1      -2.189   5.115   7.108  0.00  0.00     0.050 A 
ATOM     10  C   UNL d   1      -2.395   3.759   7.007  0.00  0.00     0.008 A 
ENDROOT
BRANCH   1  11
ATOM     11  C   UNL d   1      -0.267   2.698   0.021  0.00  0.00     0.260 C 
ATOM     12  N   UNL d   1      -0.055   3.520  -1.107  0.00  0.00    -0.344 N 
ATOM     13  C   UNL d   1      -0.085   2.854  -2.413  0.00  0.00     0.156 C 
ATOM     14  C   UNL d   1      -0.468   4.929  -1.134  0.00  0.00     0.156 C 
ATOM     15  C   UNL d   1       0.533   3.707  -3.541  0.00  0.00     0.291 C 
ATOM     16  N   UNL d   1       0.071   5.110  -3.597  0.00  0.00     0.087 N 
ATOM     17  C   UNL d   1       0.218   5.717  -2.262  0.00  0.00     0.291 C 
ATOM     18  C   UNL d   1      -1.305   5.212  -4.081  0.00  0.00     0.310 C 
ATOM     19  O   UNL d   1      -0.461   1.490  -0.113  0.00  0.00    -0.267 OA
ENDBRANCH   1  11
TORSDOF 1
