REMARK  4 active torsions:
REMARK  status: ('A' for Active; 'I' for Inactive)
REMARK    1  A    between atoms: C_6  and  C_3 
REMARK    2  A    between atoms: O_14  and  C_7 
REMARK    3  A    between atoms: O_15  and  C_10 
REMARK    4  A    between atoms: O_16  and  C_11 
ROOT
ATOM      1  C   UNL d   1       2.505   1.569   0.038  0.00  0.00     0.015 A 
ATOM      2  C   UNL d   1       4.793   3.224   0.314  0.00  0.00     0.135 A 
ATOM      3  C   UNL d   1       3.738   3.300   1.254  0.00  0.00     0.105 A 
ATOM      4  C   UNL d   1       4.692   2.293  -0.745  0.00  0.00     0.105 A 
ATOM      5  C   UNL d   1       2.606   2.484   1.093  0.00  0.00     0.055 A 
ATOM      6  C   UNL d   1       3.551   1.491  -0.879  0.00  0.00     0.055 A 
ENDROOT
BRANCH   1   7
ATOM      7  C   UNL d   1       1.337   0.705  -0.067  0.00  0.00     0.138 A 
ATOM      8  N   UNL d   1       0.295   0.775   0.832  0.00  0.00    -0.323 N 
ATOM      9  C   UNL d   1      -0.509  -0.174   0.408  0.00  0.00     0.144 A 
ATOM     10  HN  UNL d   1       0.177   1.405   1.625  1.00  0.00     0.169 HD
ATOM     11  O   UNL d   1      -0.039  -0.832  -0.689  0.00  0.00    -0.223 OA
ATOM     12  C   UNL d   1      -1.810  -0.616   0.935  0.00  0.00     0.100 C 
ATOM     13  N   UNL d   1       1.184  -0.246  -1.003  0.00  0.00    -0.242 N 
ATOM     14  HN  UNL d   1       1.817  -0.483  -1.768  1.00  0.00     0.196 HD
ENDBRANCH   1   7
BRANCH   3  15
ATOM     15  O   UNL d   1       3.863   4.166   2.310  0.00  0.00    -0.353 OA
ATOM     16  C   UNL d   1       2.811   4.249   3.263  0.00  0.00     0.210 C 
ENDBRANCH   3  15
BRANCH   4  17
ATOM     17  O   UNL d   1       5.595   2.078  -1.760  0.00  0.00    -0.353 OA
ATOM     18  C   UNL d   1       6.972   2.278  -1.471  0.00  0.00     0.210 C 
ENDBRANCH   4  17
BRANCH   2  19
ATOM     19  O   UNL d   1       5.923   4.001   0.303  0.00  0.00    -0.351 OA
ATOM     20  C   UNL d   1       6.131   4.991   1.297  0.00  0.00     0.210 C 
ENDBRANCH   2  19
TORSDOF 4
