REMARK  5 active torsions:
REMARK  status: ('A' for Active; 'I' for Inactive)
REMARK    1  A    between atoms: C_2  and  C_1 
REMARK    2  A    between atoms: O_12  and  C_2 
REMARK    3  A    between atoms: N_7  and  C_3 
REMARK    4  A    between atoms: C_6  and  N_7 
REMARK    5  A    between atoms: C_16  and  O_12 
ROOT
ATOM      1  C   UNL d   1       0.856  -0.002  -0.102  0.00  0.00     0.135 C 
ATOM      2  C   UNL d   1       0.166   0.986   0.499  0.00  0.00     0.118 C 
ATOM      3  C   UNL d   1       0.215  -1.149  -0.641  0.00  0.00     0.107 C 
ATOM      4  N   UNL d   1      -0.339  -2.069  -1.083  0.00  0.00    -0.191 NA
ENDROOT
BRANCH   1   5
ATOM      5  C   UNL d   1       2.320   0.179  -0.252  0.00  0.00     0.305 C 
ATOM      6  O   UNL d   1       2.942   1.143   0.173  0.00  0.00    -0.258 OA
BRANCH   5   7
ATOM      7  O   UNL d   1       2.853  -0.847  -0.963  0.00  0.00    -0.317 OA
BRANCH   7   8
ATOM      8  C   UNL d   1       4.224  -0.697  -1.354  0.00  0.00     0.174 C 
ATOM      9  C   UNL d   1       4.281   0.048  -2.675  0.00  0.00     0.034 C 
ENDBRANCH   7   8
ENDBRANCH   5   7
ENDBRANCH   1   5
BRANCH   2  10
ATOM     10  N   UNL d   1      -1.180   1.063   0.756  0.00  0.00    -0.351 N 
ATOM     11  H   UNL d   1      -1.743   0.218   0.703  0.00  0.00     0.166 HD
BRANCH  10  12
ATOM     12  C   UNL d   1      -1.928   2.102   1.309  0.00  0.00     0.105 A 
ATOM     13  N   UNL d   1      -3.152   1.748   1.750  0.00  0.00    -0.352 N 
ATOM     14  C   UNL d   1      -3.929   2.707   2.299  0.00  0.00     0.090 A 
ATOM     15  HN  UNL d   1      -3.481   0.786   1.672  1.00  0.00     0.166 HD
ATOM     16  C   UNL d   1      -3.554   4.033   2.413  0.00  0.00     0.024 A 
ATOM     17  C   UNL d   1      -2.301   4.406   1.934  0.00  0.00    -0.057 A 
ATOM     18  C   UNL d   1      -1.475   3.418   1.387  0.00  0.00     0.055 A 
ATOM     19  C   UNL d   1      -1.861   5.837   2.001  0.00  0.00     0.048 C 
ENDBRANCH  10  12
ENDBRANCH   2  10
TORSDOF 5
