REMARK  3 active torsions:
REMARK  status: ('A' for Active; 'I' for Inactive)
REMARK    1  A    between atoms: C_7  and  N_1 
REMARK    2  A    between atoms: C_6  and  C_3 
REMARK    3  A    between atoms: O_10  and  C_6 
ROOT
ATOM      1  N   UNL d   1      -0.076  -1.087  -0.001  0.00  0.00    -0.317 N 
ATOM      2  C   UNL d   1       0.716   0.055   0.154  0.00  0.00     0.225 C 
ATOM      3  C   UNL d   1      -1.502   0.748  -0.404  0.00  0.00     0.111 C 
ATOM      4  C   UNL d   1      -1.477  -0.734  -0.074  0.00  0.00     0.148 C 
ATOM      5  C   UNL d   1      -0.188   1.264   0.153  0.00  0.00     0.120 C 
ATOM      6  O   UNL d   1       1.924   0.156   0.312  0.00  0.00    -0.273 OA
ENDROOT
BRANCH   1   7
ATOM      7  C   UNL d   1       0.370  -2.439   0.038  0.00  0.00     0.037 A 
ATOM      8  C   UNL d   1       1.699  -2.772   0.333  0.00  0.00     0.029 A 
ATOM      9  C   UNL d   1       2.120  -4.107   0.395  0.00  0.00     0.002 A 
ATOM     10  C   UNL d   1       1.223  -5.138   0.146  0.00  0.00     0.000 A 
ATOM     11  C   UNL d   1      -0.096  -4.833  -0.166  0.00  0.00     0.002 A 
ATOM     12  C   UNL d   1      -0.517  -3.499  -0.213  0.00  0.00     0.029 A 
ENDBRANCH   1   7
BRANCH   3  13
ATOM     13  C   UNL d   1      -1.617   0.988  -1.896  0.00  0.00     0.145 C 
ATOM     14  O   UNL d   1      -1.692   0.115  -2.744  0.00  0.00    -0.650 OA
BRANCH  13  15
ATOM     15  O   UNL d   1      -1.701   2.300  -2.216  0.00  0.00    -0.776 OA
ATOM     16  H   UNL d   1      -1.669   2.923  -1.465  0.00  0.00     0.167 HD
ENDBRANCH  13  15
ENDBRANCH   3  13
TORSDOF 3
