REMARK  4 active torsions:
REMARK  status: ('A' for Active; 'I' for Inactive)
REMARK    1  A    between atoms: C_7  and  C_1 
REMARK    2  A    between atoms: C_2  and  C_9 
REMARK    3  A    between atoms: N_3  and  C_8 
REMARK    4  A    between atoms: O_21  and  C_6 
ROOT
ATOM      1  N   UNL d   1       0.201  -2.643   4.374  0.00  0.00    -0.364 N 
ATOM      2  HN  UNL d   1       1.047  -3.211   4.328  1.00  0.00     0.165 HD
ATOM      3  C   UNL d   1      -0.838  -3.058   5.028  0.00  0.00     0.102 C 
ENDROOT
BRANCH   1   4
ATOM      4  C   UNL d   1       0.138  -1.391   3.727  0.00  0.00     0.054 A 
ATOM      5  C   UNL d   1       0.519  -1.371   2.375  0.00  0.00     0.047 A 
ATOM      6  C   UNL d   1       0.564  -0.177   1.635  0.00  0.00     0.050 A 
ATOM      7  C   UNL d   1       0.197   1.020   2.264  0.00  0.00     0.018 A 
ATOM      8  C   UNL d   1      -0.171   1.025   3.610  0.00  0.00     0.027 A 
ATOM      9  C   UNL d   1      -0.179  -0.166   4.345  0.00  0.00     0.060 A 
ATOM     10 CL   UNL d   1      -0.541  -0.043   6.032  0.00  0.00    -0.082 Cl
BRANCH   6  11
ATOM     11  C   UNL d   1       1.028  -0.162   0.199  0.00  0.00     0.417 C 
ATOM     12  F   UNL d   1       1.370  -1.389  -0.282  0.00  0.00    -0.166 F 
ATOM     13  F   UNL d   1       2.124   0.628   0.019  0.00  0.00    -0.166 F 
ATOM     14  F   UNL d   1       0.079   0.322  -0.649  0.00  0.00    -0.166 F 
ENDBRANCH   6  11
ENDBRANCH   1   4
BRANCH   3  15
ATOM     15  C   UNL d   1      -0.829  -4.354   5.742  0.00  0.00     0.016 A 
ATOM     16  C   UNL d   1      -1.779  -4.618   6.732  0.00  0.00     0.099 A 
ATOM     17  C   UNL d   1      -1.759  -5.849   7.397  0.00  0.00     0.069 A 
ATOM     18 CL   UNL d   1      -2.914  -6.187   8.635  0.00  0.00    -0.081 Cl
ATOM     19  C   UNL d   1      -0.810  -6.816   7.073  0.00  0.00     0.050 A 
ATOM     20  C   UNL d   1       0.132  -6.543   6.082  0.00  0.00     0.036 A 
ATOM     21  C   UNL d   1       0.135  -5.316   5.420  0.00  0.00     0.039 A 
ATOM     22 CL   UNL d   1       1.297  -7.739   5.668  0.00  0.00    -0.084 Cl
BRANCH  16  23
ATOM     23  O   UNL d   1      -2.707  -3.663   7.056  0.00  0.00    -0.358 OA
ATOM     24  H   UNL d   1      -3.232  -3.999   7.808  0.00  0.00     0.217 HD
ENDBRANCH  16  23
ENDBRANCH   3  15
TORSDOF 4
