REMARK  5 active torsions:
REMARK  status: ('A' for Active; 'I' for Inactive)
REMARK    1  A    between atoms: S_12  and  C_2 
REMARK    2  A    between atoms: C_7  and  C_18 
REMARK       I    between atoms: N_13  and  C_7 
REMARK       I    between atoms: C_8  and  N_14 
REMARK    3  A    between atoms: C_9  and  C_8 
REMARK    4  A    between atoms: C_18  and  S_12 
REMARK    5  A    between atoms: N_14  and  N_13 
ROOT
ATOM      1  C   UNL d   1       3.344   3.006   0.059  0.00  0.00     0.186 C 
ENDROOT
BRANCH   1   2
ATOM      2  C   UNL d   1       4.707   3.681  -0.015  0.00  0.00     0.245 C 
ATOM      3  N   UNL d   1       5.838   2.910   0.233  0.00  0.00    -0.267 N 
ATOM      4  H   UNL d   1       5.738   2.091   0.827  0.00  0.00     0.190 HD
ATOM      5  O   UNL d   1       4.805   4.867  -0.353  0.00  0.00    -0.271 OA
BRANCH   3   6
ATOM      6  N   UNL d   1       7.043   3.634   0.307  0.00  0.00    -0.264 N 
ATOM      7  C   UNL d   1       8.313   3.129   0.322  0.00  0.00     0.259 C 
ATOM      8  O   UNL d   1       9.274   3.885   0.172  0.00  0.00    -0.267 OA
ATOM      9  H   UNL d   1       6.974   4.609   0.007  0.00  0.00     0.190 HD
BRANCH   7  10
ATOM     10  C   UNL d   1       8.522   1.684   0.602  0.00  0.00     0.077 C 
ATOM     11  C   UNL d   1       9.449   0.949  -0.049  0.00  0.00    -0.082 C 
ATOM     12  C   UNL d   1      10.234   1.414  -1.251  0.00  0.00     0.043 C 
ATOM     13  C   UNL d   1       9.815  -0.446   0.391  0.00  0.00     0.043 C 
ENDBRANCH   7  10
ENDBRANCH   3   6
ENDBRANCH   1   2
BRANCH   1  14
ATOM     14  S   UNL d   1       3.329   1.534   1.111  0.00  0.00    -0.095 SA
BRANCH  14  15
ATOM     15  C   UNL d   1       1.657   1.012   0.974  0.00  0.00     0.115 A 
ATOM     16  S   UNL d   1       1.117  -0.407   1.775  0.00  0.00    -0.045 SA
ATOM     17  C   UNL d   1      -0.449  -0.136   1.169  0.00  0.00     0.103 A 
ATOM     18  C   UNL d   1      -0.465   1.012   0.381  0.00  0.00     0.067 A 
ATOM     19  N   UNL d   1      -1.486  -0.953   1.451  0.00  0.00    -0.358 N 
ATOM     20  C   UNL d   1      -1.702   1.367  -0.193  0.00  0.00     0.034 A 
ATOM     21  N   UNL d   1       0.756   1.667   0.269  0.00  0.00    -0.343 N 
ATOM     22  C   UNL d   1      -2.808   0.556   0.074  0.00  0.00     0.019 A 
ATOM     23  C   UNL d   1      -2.646  -0.560   0.881  0.00  0.00     0.089 A 
ATOM     24  HN  UNL d   1       0.926   2.516  -0.271  1.00  0.00     0.167 HD
ATOM     25  HN  UNL d   1      -1.401  -1.784   2.036  1.00  0.00     0.166 HD
ENDBRANCH  14  15
ENDBRANCH   1  14
TORSDOF 5
