REMARK  7 active torsions:
REMARK  status: ('A' for Active; 'I' for Inactive)
REMARK    1  A    between atoms: C_7  and  C_1 
REMARK       I    between atoms: C_8  and  N_9 
REMARK    2  A    between atoms: C_20  and  C_8 
REMARK    3  A    between atoms: N_9  and  C_16 
REMARK    4  A    between atoms: C_10  and  C_21 
REMARK    5  A    between atoms: O_17  and  C_10 
REMARK    6  A    between atoms: S_15  and  C_20 
REMARK    7  A    between atoms: C_21  and  S_15 
ROOT
ATOM      1  C   UNL d   1      -3.333  -1.511  -0.008  0.00  0.00    -0.002 A 
ATOM      2  C   UNL d   1      -4.152  -1.205  -1.107  0.00  0.00     0.016 A 
ATOM      3  C   UNL d   1      -3.845  -2.401   0.946  0.00  0.00     0.016 A 
ATOM      4  C   UNL d   1      -5.955  -2.595  -0.244  0.00  0.00     0.034 A 
ATOM      5  C   UNL d   1      -5.133  -2.933   0.829  0.00  0.00     0.030 A 
ATOM      6  C   UNL d   1      -5.443  -1.749  -1.231  0.00  0.00     0.030 A 
ENDROOT
BRANCH   4   7
ATOM      7  N   UNL d   1      -7.271  -3.087  -0.385  0.00  0.00    -0.327 N 
ATOM      8  C   UNL d   1      -8.010  -3.714   0.601  0.00  0.00     0.231 C 
ATOM      9  O   UNL d   1      -7.672  -3.872   1.777  0.00  0.00    -0.272 OA
ATOM     10  H   UNL d   1      -7.725  -2.901  -1.271  0.00  0.00     0.169 HD
BRANCH   8  11
ATOM     11  C   UNL d   1      -9.331  -4.296   0.133  0.00  0.00     0.177 C 
BRANCH  11  12
ATOM     12  S   UNL d   1      -9.135  -6.061  -0.287  0.00  0.00    -0.149 SA
BRANCH  12  13
ATOM     13  C   UNL d   1      -8.397  -6.729   1.246  0.00  0.00     0.184 C 
BRANCH  13  14
ATOM     14  C   UNL d   1      -9.298  -6.578   2.451  0.00  0.00     0.149 C 
ATOM     15  O   UNL d   1     -10.195  -7.361   2.733  0.00  0.00    -0.649 OA
BRANCH  14  16
ATOM     16  O   UNL d   1      -9.045  -5.487   3.211  0.00  0.00    -0.776 OA
ATOM     17  H   UNL d   1      -8.336  -4.890   2.864  0.00  0.00     0.167 HD
ENDBRANCH  14  16
ENDBRANCH  13  14
ENDBRANCH  12  13
ENDBRANCH  11  12
ENDBRANCH   8  11
ENDBRANCH   4   7
BRANCH   1  18
ATOM     18  C   UNL d   1      -1.995  -0.891   0.121  0.00  0.00     0.085 A 
ATOM     19  N   UNL d   1      -1.472  -0.053  -0.757  0.00  0.00    -0.349 N 
ATOM     20  C   UNL d   1      -0.226   0.385  -0.330  0.00  0.00     0.050 A 
ATOM     21  HN  UNL d   1      -1.922   0.233  -1.627  1.00  0.00     0.166 HD
ATOM     22  C   UNL d   1       0.615   1.293  -1.003  0.00  0.00     0.031 A 
ATOM     23  C   UNL d   1       0.206  -0.139   0.889  0.00  0.00     0.033 A 
ATOM     24  C   UNL d   1       1.847   1.650  -0.444  0.00  0.00     0.002 A 
ATOM     25  C   UNL d   1       2.253   1.115   0.775  0.00  0.00     0.002 A 
ATOM     26  C   UNL d   1       1.440   0.209   1.461  0.00  0.00     0.021 A 
ATOM     27  S   UNL d   1      -0.992  -1.205   1.489  0.00  0.00    -0.070 SA
ENDBRANCH   1  18
TORSDOF 7
