REMARK  2 active torsions:
REMARK  status: ('A' for Active; 'I' for Inactive)
REMARK    1  A    between atoms: C_5  and  C_1 
REMARK    2  A    between atoms: C_17  and  C_12 
ROOT
ATOM      1  C   UNL d   1      -3.834  -0.001   0.058  0.00  0.00     0.129 A 
ATOM      2  C   UNL d   1      -4.630  -0.719   0.916  0.00  0.00     0.074 A 
ATOM      3  N   UNL d   1      -5.955   0.568  -0.395  0.00  0.00    -0.260 N 
ATOM      4  HN  UNL d   1      -6.769   1.007  -0.826  1.00  0.00     0.195 HD
ATOM      5  O   UNL d   1      -4.632   0.761  -0.739  0.00  0.00    -0.235 OA
ATOM      6  C   UNL d   1      -5.957  -0.312   0.620  0.00  0.00     0.068 A 
ENDROOT
BRANCH   1   7
ATOM      7  C   UNL d   1      -2.356  -0.017   0.021  0.00  0.00     0.086 A 
ATOM      8  N   UNL d   1      -1.577  -0.833   0.808  0.00  0.00    -0.339 N 
ATOM      9  C   UNL d   1      -0.336  -0.527   0.489  0.00  0.00     0.111 A 
ATOM     10  HN  UNL d   1      -1.892  -1.524   1.489  1.00  0.00     0.167 HD
ATOM     11  C   UNL d   1       0.909  -1.041   0.945  0.00  0.00     0.050 A 
ATOM     12  N   UNL d   1      -0.289   0.489  -0.460  0.00  0.00    -0.316 N 
ATOM     13  C   UNL d   1       2.061  -0.518   0.479  0.00  0.00     0.012 A 
ATOM     14  C   UNL d   1       2.075   0.585  -0.484  0.00  0.00    -0.046 A 
ATOM     15  C   UNL d   1       0.893   1.048  -0.936  0.00  0.00     0.104 A 
ATOM     16  C   UNL d   1       3.399   1.137  -0.904  0.00  0.00     0.049 C 
ATOM     17  C   UNL d   1      -1.587   0.793  -0.780  0.00  0.00     0.130 A 
ENDBRANCH   1   7
BRANCH   6  18
ATOM     18  C   UNL d   1      -7.190  -0.701   1.304  0.00  0.00    -0.007 A 
ATOM     19  C   UNL d   1      -8.295   0.164   1.316  0.00  0.00     0.014 A 
ATOM     20  C   UNL d   1      -9.452  -0.169   2.023  0.00  0.00     0.001 A 
ATOM     21  C   UNL d   1      -9.522  -1.375   2.717  0.00  0.00     0.000 A 
ATOM     22  C   UNL d   1      -8.440  -2.253   2.696  0.00  0.00     0.001 A 
ATOM     23  C   UNL d   1      -7.279  -1.919   1.994  0.00  0.00     0.014 A 
ENDBRANCH   6  18
TORSDOF 2
