REMARK  2 active torsions:
REMARK  status: ('A' for Active; 'I' for Inactive)
REMARK    1  A    between atoms: O_11  and  C_6 
REMARK    2  A    between atoms: C_10  and  N_8 
ROOT
ATOM      1  C   UNL d   1       2.770  -0.594  -2.358  0.00  0.00     0.131 A 
ATOM      2  C   UNL d   1       2.199  -0.572  -1.093  0.00  0.00     0.116 A 
ATOM      3  N   UNL d   1       1.495   1.380  -2.548  0.00  0.00    -0.304 N 
ATOM      4  HN  UNL d   1       1.092   2.207  -2.989  1.00  0.00     0.176 HD
ATOM      5  S   UNL d   1       1.235   0.866  -0.991  0.00  0.00     0.007 SA
ATOM      6  C   UNL d   1       2.323   0.516  -3.109  0.00  0.00     0.170 A 
ATOM      7  C   UNL d   1       3.710  -1.558  -2.831  0.00  0.00     0.107 C 
ATOM      8  N   UNL d   1       2.336  -1.393  -0.016  0.00  0.00    -0.348 N 
ATOM      9  N   UNL d   1       4.468  -2.345  -3.223  0.00  0.00    -0.191 NA
ATOM     10  H   UNL d   1       1.978  -1.052   0.875  0.00  0.00     0.166 HD
ENDROOT
BRANCH   6  11
ATOM     11  O   UNL d   1       2.657   0.830  -4.366  0.00  0.00    -0.344 OA
ATOM     12  H   UNL d   1       2.189   1.660  -4.566  0.00  0.00     0.219 HD
ENDBRANCH   6  11
BRANCH   8  13
ATOM     13  C   UNL d   1       2.366  -2.805  -0.024  0.00  0.00     0.033 A 
ATOM     14  C   UNL d   1       2.980  -3.462   1.054  0.00  0.00     0.031 A 
ATOM     15  C   UNL d   1       3.058  -4.857   1.097  0.00  0.00     0.026 A 
ATOM     16  C   UNL d   1       2.517  -5.611   0.060  0.00  0.00     0.034 A 
ATOM     17  C   UNL d   1       1.900  -4.980  -1.016  0.00  0.00     0.026 A 
ATOM     18 CL   UNL d   1       2.605  -7.327   0.111  0.00  0.00    -0.084 Cl
ATOM     19  C   UNL d   1       1.825  -3.583  -1.056  0.00  0.00     0.031 A 
ENDBRANCH   8  13
TORSDOF 2
