REMARK  2 active torsions:
REMARK  status: ('A' for Active; 'I' for Inactive)
REMARK    1  A    between atoms: C_7  and  C_8 
REMARK    2  A    between atoms: O_13  and  C_7 
ROOT
ATOM      1  N   UNL d   1      -1.172  -1.114  -0.004  0.00  0.00    -0.344 N 
ATOM      2  HN  UNL d   1      -1.497  -2.081  -0.012  1.00  0.00     0.167 HD
ATOM      3  N   UNL d   1      -1.131   1.102   0.018  0.00  0.00    -0.344 N 
ATOM      4  C   UNL d   1      -1.915  -0.026   0.007  0.00  0.00     0.078 A 
ATOM      5  C   UNL d   1       0.126  -0.677  -0.003  0.00  0.00     0.061 A 
ATOM      6  C   UNL d   1       0.184   0.711   0.017  0.00  0.00     0.060 A 
ATOM      7  C   UNL d   1       2.533  -0.732  -0.003  0.00  0.00     0.040 A 
ATOM      8  C   UNL d   1       1.312  -1.423  -0.026  0.00  0.00     0.050 A 
ATOM      9  C   UNL d   1       1.380   1.429   0.018  0.00  0.00     0.033 A 
ATOM     10  C   UNL d   1       2.560   0.673   0.006  0.00  0.00     0.021 A 
ATOM     11  C   UNL d   1      -3.396   0.025   0.004  0.00  0.00     0.089 C 
ATOM     12  H   UNL d   1      -1.466   2.054   0.018  0.00  0.00     0.167 HD
ENDROOT
BRANCH   7  13
ATOM     13  C   UNL d   1       3.830  -1.451  -0.036  0.00  0.00     0.176 C 
ATOM     14  O   UNL d   1       4.837  -0.969  -0.529  0.00  0.00    -0.646 OA
BRANCH  13  15
ATOM     15  O   UNL d   1       3.814  -2.658   0.566  0.00  0.00    -0.773 OA
ATOM     16  H   UNL d   1       3.001  -2.869   1.062  0.00  0.00     0.167 HD
ENDBRANCH  13  15
ENDBRANCH   7  13
TORSDOF 2
