REMARK  7 active torsions:
REMARK  status: ('A' for Active; 'I' for Inactive)
REMARK    1  A    between atoms: O_5  and  C_1 
REMARK    2  A    between atoms: C_9  and  C_2 
REMARK    3  A    between atoms: C_3  and  O_5 
REMARK    4  A    between atoms: C_10  and  C_3 
REMARK    5  A    between atoms: C_4  and  O_7 
REMARK    6  A    between atoms: C_11  and  C_4 
REMARK    7  A    between atoms: O_7  and  C_12 
ROOT
ATOM      1  C   UNL d   1       1.119  -0.385   0.316  0.00  0.00     0.096 A 
ATOM      2  C   UNL d   1       0.427  -1.059  -0.706  0.00  0.00     0.043 A 
ATOM      3  C   UNL d   1       0.684   0.854   0.791  0.00  0.00     0.075 A 
ATOM      4  C   UNL d   1      -0.752  -0.519  -1.218  0.00  0.00     0.021 A 
ATOM      5  C   UNL d   1      -0.478   1.405   0.230  0.00  0.00     0.082 A 
ATOM      6  C   UNL d   1      -1.217   0.699  -0.729  0.00  0.00     0.038 A 
ENDROOT
BRANCH   1   7
ATOM      7  O   UNL d   1       2.220  -1.108   0.867  0.00  0.00    -0.274 OA
BRANCH   7   8
ATOM      8  C   UNL d   1       3.163  -0.869   1.857  0.00  0.00     0.298 C 
ATOM      9  O   UNL d   1       3.290   0.153   2.507  0.00  0.00    -0.259 OA
BRANCH   8  10
ATOM     10  C   UNL d   1       4.005  -2.105   1.988  0.00  0.00     0.040 A 
ATOM     11  C   UNL d   1       5.186  -2.057   2.741  0.00  0.00     0.019 A 
ATOM     12  C   UNL d   1       5.993  -3.197   2.864  0.00  0.00     0.025 A 
ATOM     13  C   UNL d   1       5.624  -4.389   2.240  0.00  0.00     0.034 A 
ATOM     14  C   UNL d   1       4.447  -4.456   1.502  0.00  0.00     0.025 A 
ATOM     15 CL   UNL d   1       6.619  -5.784   2.384  0.00  0.00    -0.084 Cl
ATOM     16  C   UNL d   1       3.641  -3.321   1.381  0.00  0.00     0.019 A 
ENDBRANCH   8  10
ENDBRANCH   7   8
ENDBRANCH   1   7
BRANCH   2  17
ATOM     17  C   UNL d   1       0.947  -2.335  -1.262  0.00  0.00     0.158 C 
ATOM     18  O   UNL d   1       2.140  -2.462  -1.515  0.00  0.00    -0.293 OA
ATOM     19  C   UNL d   1      -0.027  -3.455  -1.513  0.00  0.00     0.097 C 
ENDBRANCH   2  17
BRANCH   5  20
ATOM     20  O   UNL d   1      -0.938   2.653   0.719  0.00  0.00    -0.275 OA
BRANCH  20  21
ATOM     21  C   UNL d   1      -1.509   3.539  -0.192  0.00  0.00     0.298 C 
ATOM     22  O   UNL d   1      -1.522   3.433  -1.411  0.00  0.00    -0.259 OA
BRANCH  21  23
ATOM     23  C   UNL d   1      -2.208   4.657   0.497  0.00  0.00     0.040 A 
ATOM     24  C   UNL d   1      -3.168   5.380  -0.233  0.00  0.00     0.019 A 
ATOM     25  C   UNL d   1      -3.848   6.452   0.351  0.00  0.00     0.025 A 
ATOM     26  C   UNL d   1      -3.566   6.809   1.667  0.00  0.00     0.034 A 
ATOM     27  C   UNL d   1      -2.616   6.099   2.402  0.00  0.00     0.025 A 
ATOM     28 CL   UNL d   1      -4.391   8.136   2.386  0.00  0.00    -0.084 Cl
ATOM     29  C   UNL d   1      -1.937   5.021   1.821  0.00  0.00     0.019 A 
ENDBRANCH  21  23
ENDBRANCH  20  21
ENDBRANCH   5  20
TORSDOF 7
