REMARK  6 active torsions:
REMARK  status: ('A' for Active; 'I' for Inactive)
REMARK    1  A    between atoms: C_6  and  C_1 
REMARK    2  A    between atoms: C_3  and  C_6 
REMARK    3  A    between atoms: C_13  and  C_4 
REMARK    4  A    between atoms: C_8  and  O_12 
REMARK    5  A    between atoms: C_15  and  C_9 
REMARK    6  A    between atoms: O_12  and  C_19 
ROOT
ATOM      1  C   UNL d   1      -0.930  -3.730  -0.231  0.00  0.00     0.096 C 
ATOM      2  C   UNL d   1      -0.566  -5.007   0.019  0.00  0.00     0.038 C 
ATOM      3  C   UNL d   1      -2.319  -3.449  -0.345  0.00  0.00     0.103 C 
ATOM      4  N   UNL d   1      -3.464  -3.242  -0.402  0.00  0.00    -0.191 NA
ENDROOT
BRANCH   1   5
ATOM      5  C   UNL d   1       0.080  -2.640  -0.457  0.00  0.00     0.205 C 
ATOM      6  O   UNL d   1       1.214  -2.889  -0.854  0.00  0.00    -0.286 OA
BRANCH   5   7
ATOM      7  C   UNL d   1      -0.353  -1.263  -0.237  0.00  0.00     0.048 A 
ATOM      8  C   UNL d   1      -1.347  -0.716   0.631  0.00  0.00     0.056 A 
ATOM      9  C   UNL d   1      -1.350   0.653   0.450  0.00  0.00     0.086 A 
ATOM     10  O   UNL d   1      -0.391   0.988  -0.454  0.00  0.00    -0.314 OA
ATOM     11  C   UNL d   1       0.220  -0.160  -0.858  0.00  0.00     0.064 A 
ATOM     12  C   UNL d   1       1.304   0.031  -1.849  0.00  0.00     0.077 C 
BRANCH   9  13
ATOM     13  C   UNL d   1      -2.128   1.751   1.013  0.00  0.00    -0.002 A 
ATOM     14  C   UNL d   1      -1.638   3.065   1.010  0.00  0.00     0.014 A 
ATOM     15  C   UNL d   1      -2.369   4.103   1.593  0.00  0.00     0.001 A 
ATOM     16  C   UNL d   1      -3.606   3.841   2.179  0.00  0.00     0.000 A 
ATOM     17  C   UNL d   1      -4.116   2.545   2.173  0.00  0.00     0.001 A 
ATOM     18  C   UNL d   1      -3.381   1.507   1.594  0.00  0.00     0.014 A 
ENDBRANCH   9  13
ENDBRANCH   5   7
ENDBRANCH   1   5
BRANCH   2  19
ATOM     19  C   UNL d   1       0.799  -5.512   0.183  0.00  0.00    -0.035 A 
ATOM     20  C   UNL d   1       1.383  -5.540   1.453  0.00  0.00     0.014 A 
ATOM     21  C   UNL d   1       2.701  -5.983   1.619  0.00  0.00     0.038 A 
ATOM     22  C   UNL d   1       3.431  -6.437   0.522  0.00  0.00     0.078 A 
ATOM     23  C   UNL d   1       2.850  -6.389  -0.749  0.00  0.00     0.038 A 
ATOM     24  C   UNL d   1       1.539  -5.940  -0.921  0.00  0.00     0.014 A 
BRANCH  22  25
ATOM     25  O   UNL d   1       4.708  -6.907   0.534  0.00  0.00    -0.255 OA
BRANCH  25  26
ATOM     26  C   UNL d   1       5.243  -7.473   1.720  0.00  0.00     0.530 C 
ATOM     27  F   UNL d   1       4.311  -7.833   2.627  0.00  0.00    -0.144 F 
ATOM     28  F   UNL d   1       5.934  -8.586   1.382  0.00  0.00    -0.144 F 
ATOM     29  F   UNL d   1       6.102  -6.603   2.292  0.00  0.00    -0.144 F 
ENDBRANCH  25  26
ENDBRANCH  22  25
ENDBRANCH   2  19
TORSDOF 6
