REMARK  3 active torsions:
REMARK  status: ('A' for Active; 'I' for Inactive)
REMARK       I    between atoms: N_2  and  C_1 
REMARK    1  A    between atoms: C_4  and  C_1 
REMARK    2  A    between atoms: C_3  and  N_2 
REMARK    3  A    between atoms: C_14  and  N_2 
ROOT
ATOM      1  C   UNL d   1       0.817  -0.057   0.096  0.00  0.00     0.258 C 
ATOM      2  N   UNL d   1       0.107  -0.736   1.109  0.00  0.00    -0.313 N 
ATOM      3  O   UNL d   1       2.054  -0.034   0.091  0.00  0.00    -0.267 OA
ENDROOT
BRANCH   2   4
ATOM      4  C   UNL d   1      -1.308  -0.846   1.182  0.00  0.00     0.048 A 
ATOM      5  C   UNL d   1      -2.035  -1.815   0.442  0.00  0.00     0.001 A 
ATOM      6  C   UNL d   1      -3.453  -1.777   0.502  0.00  0.00    -0.024 A 
ATOM      7  C   UNL d   1      -1.433  -2.812  -0.359  0.00  0.00     0.014 A 
ATOM      8  C   UNL d   1      -4.209  -2.687  -0.255  0.00  0.00     0.012 A 
ATOM      9  C   UNL d   1      -4.098  -0.824   1.310  0.00  0.00     0.012 A 
ATOM     10  C   UNL d   1      -3.588  -3.645  -1.055  0.00  0.00     0.001 A 
ATOM     11  C   UNL d   1      -2.201  -3.717  -1.096  0.00  0.00     0.001 A 
ATOM     12  C   UNL d   1      -3.364   0.094   2.059  0.00  0.00     0.003 A 
ATOM     13  C   UNL d   1      -1.974   0.076   2.006  0.00  0.00     0.031 A 
ENDBRANCH   2   4
BRANCH   2  14
ATOM     14  C   UNL d   1       0.852  -1.631   2.005  0.00  0.00     0.128 C 
ATOM     15  C   UNL d   1       1.400  -0.927   3.234  0.00  0.00     0.027 C 
ENDBRANCH   2  14
BRANCH   1  16
ATOM     16  C   UNL d   1       0.126   0.588  -1.073  0.00  0.00     0.033 C 
ATOM     17  C   UNL d   1      -1.135   1.188  -1.006  0.00  0.00     0.027 C 
ATOM     18  C   UNL d   1      -1.768   1.556  -2.180  0.00  0.00    -0.022 C 
ATOM     19  C   UNL d   1      -3.136   2.079  -2.375  0.00  0.00     0.068 C 
ATOM     20  C   UNL d   1      -1.120   1.474  -3.397  0.00  0.00     0.075 C 
ATOM     21  C   UNL d   1      -3.227   1.924  -3.895  0.00  0.00     0.180 C 
ATOM     22  O   UNL d   1      -1.889   1.887  -4.452  0.00  0.00    -0.350 OA
ATOM     23  C   UNL d   1       0.178   1.022  -3.491  0.00  0.00     0.038 C 
ATOM     24  C   UNL d   1       0.794   0.556  -2.321  0.00  0.00     0.020 C 
ENDBRANCH   1  16
TORSDOF 3
