REMARK  6 active torsions:
REMARK  status: ('A' for Active; 'I' for Inactive)
REMARK    1  A    between atoms: N_3  and  C_14 
REMARK    2  A    between atoms: C_11  and  C_4 
REMARK    3  A    between atoms: C_19  and  C_5 
REMARK    4  A    between atoms: C_20  and  N_6 
REMARK    5  A    between atoms: C_14  and  C_15 
REMARK       I    between atoms: C_15  and  N_21 
REMARK    6  A    between atoms: N_21  and  N_17 
ROOT
ATOM      1  N   UNL d   1      -1.945   2.831  -1.248  0.00  0.00    -0.308 N 
ATOM      2  HN  UNL d   1      -0.943   2.647  -1.215  1.00  0.00     0.186 HD
ATOM      3  C   UNL d   1      -2.801   1.864  -1.356  0.00  0.00     0.122 C 
ENDROOT
BRANCH   1   4
ATOM      4  N   UNL d   1      -2.439   4.120  -1.181  0.00  0.00    -0.269 N 
ATOM      5  C   UNL d   1      -3.689   4.481  -0.662  0.00  0.00     0.254 C 
ATOM      6  O   UNL d   1      -4.533   3.676  -0.275  0.00  0.00    -0.270 OA
ATOM      7  H   UNL d   1      -1.708   4.824  -1.228  0.00  0.00     0.190 HD
BRANCH   5   8
ATOM      8  C   UNL d   1      -3.941   5.999  -0.652  0.00  0.00     0.234 C 
BRANCH   8   9
ATOM      9  N   UNL d   1      -4.569   6.456   0.610  0.00  0.00    -0.336 N 
ATOM     10  C   UNL d   1      -5.997   6.386   0.704  0.00  0.00     0.052 A 
ATOM     11  C   UNL d   1      -6.678   6.945   1.809  0.00  0.00     0.032 A 
ATOM     12  C   UNL d   1      -6.801   5.710  -0.238  0.00  0.00     0.031 A 
ATOM     13  C   UNL d   1      -8.072   6.829   1.953  0.00  0.00     0.021 A 
ATOM     14  S   UNL d   1      -5.826   7.809   3.110  0.00  0.00    -0.086 SA
ATOM     15  C   UNL d   1      -8.823   6.122   1.022  0.00  0.00     0.002 A 
ATOM     16  C   UNL d   1      -8.186   5.561  -0.073  0.00  0.00     0.002 A 
ATOM     17  C   UNL d   1      -4.234   7.022   2.989  0.00  0.00     0.032 A 
ATOM     18  C   UNL d   1      -3.728   6.550   1.758  0.00  0.00     0.052 A 
ATOM     19  C   UNL d   1      -3.485   6.926   4.174  0.00  0.00     0.021 A 
ATOM     20  C   UNL d   1      -2.384   6.122   1.767  0.00  0.00     0.031 A 
ATOM     21  C   UNL d   1      -1.636   6.031   2.946  0.00  0.00     0.002 A 
ATOM     22  C   UNL d   1      -2.201   6.402   4.156  0.00  0.00     0.002 A 
ENDBRANCH   8   9
ENDBRANCH   5   8
ENDBRANCH   1   4
BRANCH   3  23
ATOM     23  C   UNL d   1      -2.365   0.492  -1.409  0.00  0.00     0.028 C 
ATOM     24  C   UNL d   1      -3.113  -0.684  -1.152  0.00  0.00     0.078 C 
ATOM     25  N   UNL d   1      -2.448  -1.778  -1.541  0.00  0.00    -0.292 N 
ATOM     26  N   UNL d   1      -1.218  -1.338  -1.905  0.00  0.00    -0.266 N 
ATOM     27  HN  UNL d   1      -2.793  -2.738  -1.559  1.00  0.00     0.187 HD
ATOM     28  C   UNL d   1      -1.128   0.032  -1.813  0.00  0.00     0.132 C 
BRANCH  24  29
ATOM     29  C   UNL d   1      -4.475  -0.802  -0.515  0.00  0.00     0.034 A 
ATOM     30  S   UNL d   1      -5.197   0.386   0.480  0.00  0.00    -0.100 SA
ATOM     31  C   UNL d   1      -6.564  -0.588   0.787  0.00  0.00     0.050 A 
ATOM     32  C   UNL d   1      -6.486  -1.797   0.133  0.00  0.00     0.008 A 
ATOM     33  C   UNL d   1      -5.271  -1.927  -0.605  0.00  0.00     0.021 A 
ENDBRANCH  24  29
BRANCH  26  34
ATOM     34  C   UNL d   1      -0.224  -2.255  -2.350  0.00  0.00     0.056 A 
ATOM     35  C   UNL d   1      -0.541  -3.616  -2.462  0.00  0.00     0.031 A 
ATOM     36  C   UNL d   1       0.413  -4.531  -2.906  0.00  0.00     0.002 A 
ATOM     37  C   UNL d   1       1.695  -4.096  -3.229  0.00  0.00     0.000 A 
ATOM     38  C   UNL d   1       2.024  -2.748  -3.114  0.00  0.00     0.002 A 
ATOM     39  C   UNL d   1       1.071  -1.823  -2.675  0.00  0.00     0.031 A 
ENDBRANCH  26  34
ENDBRANCH   3  23
TORSDOF 6
