REMARK  5 active torsions:
REMARK  status: ('A' for Active; 'I' for Inactive)
REMARK    1  A    between atoms: S_8  and  C_2 
REMARK    2  A    between atoms: C_14  and  S_8 
REMARK    3  A    between atoms: C_9  and  C_14 
REMARK       I    between atoms: N_10  and  C_9 
REMARK    4  A    between atoms: C_17  and  N_10 
REMARK    5  A    between atoms: C_11  and  C_12 
ROOT
ATOM      1  C   UNL d   1       2.293   6.514  -0.967  0.00  0.00     0.231 C 
ATOM      2  N   UNL d   1       1.705   5.567  -0.146  0.00  0.00    -0.327 N 
ATOM      3  O   UNL d   1       1.678   7.400  -1.570  0.00  0.00    -0.272 OA
ATOM      4  H   UNL d   1       2.327   4.979   0.394  0.00  0.00     0.169 HD
ENDROOT
BRANCH   1   5
ATOM      5  C   UNL d   1       3.809   6.525  -1.027  0.00  0.00     0.185 C 
BRANCH   5   6
ATOM      6  S   UNL d   1       4.581   4.880  -1.067  0.00  0.00    -0.083 SA
BRANCH   6   7
ATOM      7  C   UNL d   1       6.242   5.371  -1.175  0.00  0.00     0.162 A 
ATOM      8  N   UNL d   1       7.298   4.533  -1.389  0.00  0.00    -0.326 N 
ATOM      9  C   UNL d   1       8.412   5.318  -1.301  0.00  0.00     0.201 A 
ATOM     10  C   UNL d   1       7.315   3.123  -1.666  0.00  0.00     0.159 C 
ATOM     11  N   UNL d   1       8.059   6.566  -1.105  0.00  0.00    -0.294 N 
ATOM     12  N   UNL d   1       6.686   6.599  -1.028  0.00  0.00    -0.279 N 
ATOM     13  HN  UNL d   1       8.687   7.366  -1.024  1.00  0.00     0.187 HD
ATOM     14  HN  UNL d   1       6.114   7.431  -0.883  1.00  0.00     0.189 HD
ENDBRANCH   6   7
ENDBRANCH   5   6
ENDBRANCH   1   5
BRANCH   2  15
ATOM     15  C   UNL d   1       0.313   5.332   0.002  0.00  0.00     0.034 A 
ATOM     16  C   UNL d   1      -0.658   5.947  -0.789  0.00  0.00     0.030 A 
ATOM     17  C   UNL d   1      -2.014   5.627  -0.653  0.00  0.00     0.010 A 
ATOM     18  C   UNL d   1      -2.460   4.677   0.281  0.00  0.00    -0.051 A 
ATOM     19  C   UNL d   1      -1.481   4.095   1.102  0.00  0.00     0.010 A 
ATOM     20  C   UNL d   1      -0.116   4.413   0.959  0.00  0.00     0.030 A 
BRANCH  18  21
ATOM     21  C   UNL d   1      -3.953   4.302   0.333  0.00  0.00    -0.024 C 
ATOM     22  C   UNL d   1      -4.284   3.228   1.392  0.00  0.00     0.019 C 
ATOM     23  C   UNL d   1      -4.813   5.545   0.650  0.00  0.00     0.019 C 
ATOM     24  C   UNL d   1      -4.391   3.737  -1.039  0.00  0.00     0.019 C 
ENDBRANCH  18  21
ENDBRANCH   2  15
TORSDOF 5
