REMARK  5 active torsions:
REMARK  status: ('A' for Active; 'I' for Inactive)
REMARK       I    between atoms: C_2  and  N_5 
REMARK    1  A    between atoms: C_6  and  C_2 
REMARK    2  A    between atoms: C_4  and  C_16 
REMARK       I    between atoms: N_7  and  C_4 
REMARK    3  A    between atoms: N_5  and  N_7 
REMARK    4  A    between atoms: O_10  and  C_8 
REMARK    5  A    between atoms: C_16  and  O_10 
ROOT
ATOM      1  C   UNL d   1       0.955   5.227   0.034  0.00  0.00     0.260 C 
ATOM      2  N   UNL d   1       0.268   5.642   1.150  0.00  0.00    -0.265 N 
ATOM      3  O   UNL d   1       1.187   6.019  -0.882  0.00  0.00    -0.269 OA
ATOM      4  H   UNL d   1      -0.126   6.582   1.162  0.00  0.00     0.190 HD
ENDROOT
BRANCH   1   5
ATOM      5  C   UNL d   1       1.480   3.791   0.002  0.00  0.00     0.280 C 
BRANCH   5   6
ATOM      6  O   UNL d   1       0.414   2.849   0.086  0.00  0.00    -0.341 OA
BRANCH   6   7
ATOM      7  C   UNL d   1       0.749   1.525   0.020  0.00  0.00     0.076 A 
ATOM      8  C   UNL d   1      -0.305   0.614   0.037  0.00  0.00    -0.018 A 
ATOM      9  C   UNL d   1      -0.079  -0.769   0.003  0.00  0.00    -0.043 A 
ATOM     10  C   UNL d   1      -1.768   0.927   0.073  0.00  0.00     0.042 A 
ATOM     11  C   UNL d   1       1.212  -1.286  -0.054  0.00  0.00    -0.055 A 
ATOM     12  C   UNL d   1      -1.363  -1.536   0.027  0.00  0.00     0.040 A 
ATOM     13  C   UNL d   1       1.499  -2.757  -0.087  0.00  0.00     0.049 C 
ATOM     14  C   UNL d   1       2.273  -0.373  -0.087  0.00  0.00     0.010 A 
ATOM     15  C   UNL d   1       2.046   1.014  -0.051  0.00  0.00     0.038 A 
ATOM     16  C   UNL d   1      -2.442  -0.451   0.100  0.00  0.00     0.009 A 
ENDBRANCH   6   7
ENDBRANCH   5   6
ENDBRANCH   1   5
BRANCH   2  17
ATOM     17  N   UNL d   1      -0.042   4.821   2.233  0.00  0.00    -0.263 N 
ATOM     18  C   UNL d   1      -0.837   5.322   3.241  0.00  0.00     0.270 C 
ATOM     19  O   UNL d   1      -1.225   6.485   3.284  0.00  0.00    -0.266 OA
ATOM     20  H   UNL d   1       0.390   3.901   2.293  0.00  0.00     0.190 HD
BRANCH  18  21
ATOM     21  C   UNL d   1      -1.204   4.358   4.311  0.00  0.00     0.036 A 
ATOM     22  C   UNL d   1      -1.389   3.001   4.029  0.00  0.00     0.059 A 
ATOM     23  C   UNL d   1      -1.799   2.144   5.047  0.00  0.00     0.117 A 
ATOM     24  F   UNL d   1      -2.002   0.850   4.768  0.00  0.00    -0.206 F 
ATOM     25  C   UNL d   1      -2.023   2.609   6.336  0.00  0.00     0.042 A 
ATOM     26  C   UNL d   1      -1.830   3.961   6.624  0.00  0.00     0.004 A 
ATOM     27  C   UNL d   1      -1.422   4.834   5.612  0.00  0.00     0.017 A 
ENDBRANCH  18  21
ENDBRANCH   2  17
TORSDOF 5
