REMARK  6 active torsions:
REMARK  status: ('A' for Active; 'I' for Inactive)
REMARK    1  A    between atoms: C_2  and  S_1 
REMARK    2  A    between atoms: N_8  and  S_1 
REMARK    3  A    between atoms: C_3  and  C_7 
REMARK    4  A    between atoms: C_9  and  N_8 
REMARK    5  A    between atoms: O_22  and  C_15 
REMARK    6  A    between atoms: O_23  and  C_20 
ROOT
ATOM      1  S   UNL d   1       0.364  -0.101   0.096  0.00  0.00     0.269 S 
ATOM      2  O   UNL d   1      -0.182  -1.437   0.250  0.00  0.00    -0.200 OA
ATOM      3  O   UNL d   1       1.668   0.237   0.625  0.00  0.00    -0.200 OA
ENDROOT
BRANCH   1   4
ATOM      4  C   UNL d   1      -0.783   0.902   1.022  0.00  0.00     0.121 A 
ATOM      5  S   UNL d   1      -0.444   2.573   1.155  0.00  0.00    -0.074 SA
ATOM      6  C   UNL d   1      -1.659   2.801   2.338  0.00  0.00     0.033 A 
ATOM      7  C   UNL d   1      -2.370   1.642   2.566  0.00  0.00     0.023 A 
ATOM      8  C   UNL d   1      -1.878   0.551   1.792  0.00  0.00     0.034 A 
BRANCH   6   9
ATOM      9  C   UNL d   1      -1.924   4.077   3.086  0.00  0.00     0.056 A 
ATOM     10  N   UNL d   1      -2.887   4.129   4.085  0.00  0.00    -0.353 N 
ATOM     11  C   UNL d   1      -2.914   5.329   4.625  0.00  0.00     0.047 A 
ATOM     12  HN  UNL d   1      -3.486   3.350   4.360  1.00  0.00     0.166 HD
ATOM     13  C   UNL d   1      -3.809   5.731   5.745  0.00  0.00     0.076 C 
ATOM     14  S   UNL d   1      -1.825   6.470   3.945  0.00  0.00    -0.087 SA
ATOM     15  C   UNL d   1      -1.248   5.261   2.873  0.00  0.00     0.082 A 
ENDBRANCH   6   9
ENDBRANCH   1   4
BRANCH   1  16
ATOM     16  N   UNL d   1       0.297   0.183  -1.559  0.00  0.00    -0.277 N 
ATOM     17  H   UNL d   1      -0.542  -0.203  -1.984  0.00  0.00     0.179 HD
BRANCH  16  18
ATOM     18  C   UNL d   1       0.817   1.375  -2.144  0.00  0.00     0.076 A 
ATOM     19  C   UNL d   1       2.179   1.603  -2.408  0.00  0.00     0.098 A 
ATOM     20  C   UNL d   1       2.571   2.808  -3.026  0.00  0.00     0.075 A 
ATOM     21  C   UNL d   1       1.633   3.769  -3.402  0.00  0.00     0.070 A 
ATOM     22  C   UNL d   1       0.285   3.531  -3.139  0.00  0.00     0.039 A 
ATOM     23  C   UNL d   1      -0.121   2.347  -2.515  0.00  0.00     0.036 A 
BRANCH  19  24
ATOM     24  O   UNL d   1       3.247   0.788  -2.145  0.00  0.00    -0.354 OA
ATOM     25  C   UNL d   1       3.054  -0.617  -2.186  0.00  0.00     0.210 C 
ENDBRANCH  19  24
BRANCH  21  26
ATOM     26  O   UNL d   1       1.895   4.957  -4.026  0.00  0.00    -0.356 OA
ATOM     27  C   UNL d   1       3.257   5.253  -4.311  0.00  0.00     0.210 C 
ENDBRANCH  21  26
ENDBRANCH  16  18
ENDBRANCH   1  16
TORSDOF 6
