REMARK  1 active torsions:
REMARK  status: ('A' for Active; 'I' for Inactive)
REMARK       I    between atoms: N_2  and  C_1 
REMARK    1  A    between atoms: C_4  and  N_2 
ROOT
ATOM      1  C   UNL d   1       1.041   1.397  -2.193  0.00  0.00     0.084 C 
ATOM      2  C   UNL d   1       1.002   2.894  -1.857  0.00  0.00     0.025 C 
ATOM      3  C   UNL d   1       2.490   0.905  -2.303  0.00  0.00     0.025 C 
ATOM      4  C   UNL d   1       3.320   1.746  -3.278  0.00  0.00     0.006 C 
ATOM      5  C   UNL d   1       1.815   3.734  -2.844  0.00  0.00     0.006 C 
ATOM      6  C   UNL d   1       3.267   3.252  -2.977  0.00  0.00    -0.019 C 
ATOM      7  C   UNL d   1       4.091   3.610  -1.737  0.00  0.00     0.010 C 
ENDROOT
BRANCH   1   8
ATOM      8  N   UNL d   1       0.290   1.124  -3.416  0.00  0.00    -0.357 N 
ATOM      9  C   UNL d   1      -0.320  -0.092  -3.648  0.00  0.00     0.213 C 
ATOM     10  O   UNL d   1      -0.331  -1.015  -2.845  0.00  0.00    -0.274 OA
ATOM     11  C   UNL d   1      -1.025  -0.172  -4.980  0.00  0.00     0.117 C 
ATOM     12  H   UNL d   1       0.415   1.746  -4.200  0.00  0.00     0.162 HD
ENDBRANCH   1   8
TORSDOF 1
