REMARK  6 active torsions:
REMARK  status: ('A' for Active; 'I' for Inactive)
REMARK    1  A    between atoms: N_2  and  C_1 
REMARK       I    between atoms: C_4  and  N_3 
REMARK    2  A    between atoms: C_9  and  C_4 
REMARK    3  A    between atoms: C_10  and  C_9 
REMARK    4  A    between atoms: C_18  and  C_10 
REMARK    5  A    between atoms: C_11  and  C_18 
REMARK    6  A    between atoms: O_19  and  C_11 
ROOT
ATOM      1  N   UNL d   1      -0.077   2.612   0.076  0.00  0.00    -0.214 N 
ATOM      2  N   UNL d   1       0.452   5.424   0.156  0.00  0.00    -0.349 N 
ATOM      3  C   UNL d   1       1.042   6.552   0.692  0.00  0.00     0.220 C 
ATOM      4  C   UNL d   1      -0.580   3.400   1.211  0.00  0.00     0.161 C 
ATOM      5  C   UNL d   1       1.145   3.137  -0.553  0.00  0.00     0.161 C 
ATOM      6  C   UNL d   1       0.924   4.609  -0.976  0.00  0.00     0.146 C 
ATOM      7  C   UNL d   1      -0.755   4.874   0.795  0.00  0.00     0.146 C 
ATOM      8  O   UNL d   1       0.608   7.047   1.738  0.00  0.00    -0.273 OA
ENDROOT
BRANCH   3   9
ATOM      9  C   UNL d   1       2.193   7.227  -0.052  0.00  0.00     0.112 C 
BRANCH   9  10
ATOM     10  C   UNL d   1       3.180   8.075   0.811  0.00  0.00    -0.030 C 
ATOM     11  C   UNL d   1       4.263   8.662  -0.127  0.00  0.00     0.016 C 
ATOM     12  C   UNL d   1       2.494   9.293   1.476  0.00  0.00     0.016 C 
BRANCH  10  13
ATOM     13  C   UNL d   1       3.828   7.240   1.947  0.00  0.00     0.119 C 
BRANCH  13  14
ATOM     14  C   UNL d   1       4.590   5.995   1.537  0.00  0.00     0.140 C 
ATOM     15  O   UNL d   1       4.834   5.644   0.396  0.00  0.00    -0.650 OA
BRANCH  14  16
ATOM     16  O   UNL d   1       5.001   5.280   2.612  0.00  0.00    -0.776 OA
ATOM     17  H   UNL d   1       4.733   5.668   3.467  0.00  0.00     0.167 HD
ENDBRANCH  14  16
ENDBRANCH  13  14
ENDBRANCH  10  13
ENDBRANCH   9  10
ENDBRANCH   3   9
BRANCH   1  18
ATOM     18  C   UNL d   1      -0.165   1.232   0.207  0.00  0.00     0.679 A 
ATOM     19  N   UNL d   1      -1.091   0.715   1.036  0.00  0.00    -0.202 N 
ATOM     20  C   UNL d   1      -1.242  -0.624   1.060  0.00  0.00     0.107 A 
ATOM     21  HN  UNL d   1      -1.662   1.319   1.627  1.00  0.00     0.183 HD
ATOM     22  C   UNL d   1      -0.499  -1.484   0.296  0.00  0.00     0.035 A 
ATOM     23  C   UNL d   1       0.436  -0.880  -0.501  0.00  0.00     0.107 A 
ATOM     24  N   UNL d   1       0.617   0.454  -0.561  0.00  0.00    -0.202 N 
ATOM     25  HN  UNL d   1       1.325   0.861  -1.172  1.00  0.00     0.183 HD
ENDBRANCH   1  18
TORSDOF 6
