REMARK  1 active torsions:
REMARK  status: ('A' for Active; 'I' for Inactive)
REMARK    1  A    between atoms: C_11  and  C_6 
ROOT
ATOM      1  C   UNL d   1      -1.060  -3.001  -0.278  0.00  0.00     0.045 A 
ATOM      2  C   UNL d   1      -1.527  -4.277  -0.936  0.00  0.00     0.257 A 
ATOM      3  N   UNL d   1      -0.368  -5.000  -1.171  0.00  0.00    -0.322 N 
ATOM      4  C   UNL d   1       0.404  -3.082  -0.179  0.00  0.00     0.006 A 
ATOM      5  C   UNL d   1       0.761  -4.315  -0.735  0.00  0.00     0.046 A 
ATOM      6  C   UNL d   1      -1.828  -1.986   0.145  0.00  0.00     0.029 C 
ATOM      7  O   UNL d   1      -2.657  -4.623  -1.218  0.00  0.00    -0.267 OA
ATOM      8  C   UNL d   1       1.378  -2.238   0.326  0.00  0.00     0.015 A 
ATOM      9  C   UNL d   1       2.068  -4.749  -0.812  0.00  0.00     0.030 A 
ATOM     10  C   UNL d   1       2.714  -2.659   0.260  0.00  0.00     0.001 A 
ATOM     11  C   UNL d   1       3.055  -3.902  -0.304  0.00  0.00     0.002 A 
ATOM     12  H   UNL d   1      -0.379  -5.909  -1.606  0.00  0.00     0.169 HD
ENDROOT
BRANCH   6  13
ATOM     13  C   UNL d   1      -3.290  -1.953   0.061  0.00  0.00    -0.032 A 
ATOM     14  C   UNL d   1      -4.067  -2.440   1.111  0.00  0.00     0.050 A 
ATOM     15  C   UNL d   1      -5.465  -2.388   1.039  0.00  0.00     0.096 A 
ATOM     16  O   UNL d   1      -6.114  -2.886   2.150  0.00  0.00    -0.347 OA
ATOM     17  C   UNL d   1      -6.134  -1.888  -0.104  0.00  0.00     0.063 A 
ATOM     18  C   UNL d   1      -7.485  -2.485   2.196  0.00  0.00     0.195 C 
ATOM     19  C   UNL d   1      -8.170  -2.699   0.853  0.00  0.00     0.149 C 
ATOM     20  N   UNL d   1      -7.545  -1.850  -0.171  0.00  0.00    -0.381 N 
ATOM     21  C   UNL d   1      -8.171  -1.915  -1.489  0.00  0.00     0.150 C 
ATOM     22  C   UNL d   1      -5.325  -1.387  -1.137  0.00  0.00     0.033 A 
ATOM     23  C   UNL d   1      -3.925  -1.422  -1.062  0.00  0.00     0.014 A 
ENDBRANCH   6  13
TORSDOF 1
