REMARK  5 active torsions:
REMARK  status: ('A' for Active; 'I' for Inactive)
REMARK    1  A    between atoms: C_4  and  C_1 
REMARK    2  A    between atoms: C_8  and  C_2 
REMARK    3  A    between atoms: C_7  and  C_12 
REMARK       I    between atoms: N_11  and  C_8 
REMARK       I    between atoms: C_10  and  N_13 
REMARK    4  A    between atoms: C_14  and  C_10 
REMARK    5  A    between atoms: N_13  and  N_11 
ROOT
ATOM      1  C   UNL d   1       0.596  -3.333   0.434  0.00  0.00     0.275 C 
ATOM      2  N   UNL d   1      -0.584  -3.773  -0.129  0.00  0.00    -0.263 N 
ATOM      3  O   UNL d   1       0.604  -2.844   1.563  0.00  0.00    -0.266 OA
ATOM      4  H   UNL d   1      -0.649  -4.316  -0.990  0.00  0.00     0.190 HD
ENDROOT
BRANCH   2   5
ATOM      5  N   UNL d   1      -1.764  -3.752   0.639  0.00  0.00    -0.263 N 
ATOM      6  C   UNL d   1      -2.769  -4.619   0.261  0.00  0.00     0.270 C 
ATOM      7  O   UNL d   1      -2.624  -5.438  -0.643  0.00  0.00    -0.266 OA
ATOM      8  H   UNL d   1      -1.887  -2.973   1.281  0.00  0.00     0.190 HD
BRANCH   6   9
ATOM      9  C   UNL d   1      -4.078  -4.490   0.953  0.00  0.00     0.034 A 
ATOM     10  C   UNL d   1      -5.233  -4.805   0.224  0.00  0.00     0.033 A 
ATOM     11  C   UNL d   1      -6.504  -4.705   0.812  0.00  0.00     0.048 A 
ATOM     12  C   UNL d   1      -6.596  -4.311   2.155  0.00  0.00     0.016 A 
ATOM     13  C   UNL d   1      -5.446  -4.012   2.889  0.00  0.00     0.002 A 
ATOM     14  C   UNL d   1      -4.184  -4.097   2.289  0.00  0.00     0.017 A 
BRANCH  11  15
ATOM     15  C   UNL d   1      -7.753  -5.006   0.018  0.00  0.00     0.417 C 
ATOM     16  F   UNL d   1      -7.507  -5.367  -1.271  0.00  0.00    -0.166 F 
ATOM     17  F   UNL d   1      -8.485  -6.018   0.558  0.00  0.00    -0.166 F 
ATOM     18  F   UNL d   1      -8.589  -3.933  -0.050  0.00  0.00    -0.166 F 
ENDBRANCH  11  15
ENDBRANCH   6   9
ENDBRANCH   2   5
BRANCH   1  19
ATOM     19  C   UNL d   1       1.815  -3.452  -0.358  0.00  0.00     0.098 A 
ATOM     20  C   UNL d   1       2.000  -3.771  -1.698  0.00  0.00     0.200 A 
ATOM     21  O   UNL d   1       3.323  -3.697  -2.003  0.00  0.00    -0.232 OA
ATOM     22  N   UNL d   1       4.045  -3.362  -0.889  0.00  0.00    -0.264 N 
ATOM     23  C   UNL d   1       3.157  -3.230   0.102  0.00  0.00     0.047 A 
ATOM     24  HN  UNL d   1       5.056  -3.239  -0.828  1.00  0.00     0.194 HD
ATOM     25  C   UNL d   1       3.677  -2.910   1.455  0.00  0.00     0.071 C 
BRANCH  20  26
ATOM     26  C   UNL d   1       1.170  -4.151  -2.855  0.00  0.00     0.442 C 
ATOM     27  F   UNL d   1      -0.143  -4.271  -2.536  0.00  0.00    -0.164 F 
ATOM     28  F   UNL d   1       1.241  -3.242  -3.858  0.00  0.00    -0.164 F 
ATOM     29  F   UNL d   1       1.545  -5.348  -3.374  0.00  0.00    -0.164 F 
ENDBRANCH  20  26
ENDBRANCH   1  19
TORSDOF 5
