REMARK  2 active torsions:
REMARK  status: ('A' for Active; 'I' for Inactive)
REMARK    1  A    between atoms: N_7  and  C_1 
REMARK    2  A    between atoms: N_8  and  C_2 
REMARK       I    between atoms: C_9  and  N_7 
REMARK       I    between atoms: C_10  and  N_8 
ROOT
ATOM      1  C   UNL d   1       0.627  -1.783   0.007  0.00  0.00     0.069 C 
ATOM      2  C   UNL d   1      -0.791  -1.746   0.087  0.00  0.00     0.069 C 
ATOM      3  C   UNL d   1       1.391  -0.587  -0.034  0.00  0.00    -0.026 C 
ATOM      4  C   UNL d   1      -1.442  -0.488  -0.075  0.00  0.00    -0.026 C 
ATOM      5  C   UNL d   1       0.733   0.669  -0.052  0.00  0.00    -0.047 C 
ATOM      6  C   UNL d   1      -0.682   0.718  -0.077  0.00  0.00    -0.047 C 
ATOM      7  C   UNL d   1      -2.951  -0.378  -0.192  0.00  0.00     0.051 C 
ATOM      8  C   UNL d   1       2.904  -0.621   0.021  0.00  0.00     0.051 C 
ATOM      9  C   UNL d   1      -1.408   2.050  -0.106  0.00  0.00     0.049 C 
ATOM     10  C   UNL d   1       1.521   1.961  -0.027  0.00  0.00     0.049 C 
ENDROOT
BRANCH   1  11
ATOM     11  N   UNL d   1       1.302  -3.024  -0.033  0.00  0.00    -0.325 N 
ATOM     12  C   UNL d   1       2.050  -3.434  -1.123  0.00  0.00     0.218 C 
ATOM     13  O   UNL d   1       2.303  -2.764  -2.120  0.00  0.00    -0.274 OA
ATOM     14  C   UNL d   1       2.526  -4.860  -0.998  0.00  0.00     0.117 C 
ATOM     15  H   UNL d   1       0.840  -3.786   0.458  0.00  0.00     0.169 HD
ENDBRANCH   1  11
BRANCH   2  16
ATOM     16  N   UNL d   1      -1.636  -2.888   0.280  0.00  0.00    -0.325 N 
ATOM     17  C   UNL d   1      -1.357  -4.147   0.768  0.00  0.00     0.218 C 
ATOM     18  O   UNL d   1      -0.273  -4.558   1.173  0.00  0.00    -0.274 OA
ATOM     19  C   UNL d   1      -2.574  -5.034   0.830  0.00  0.00     0.117 C 
ATOM     20  H   UNL d   1      -2.625  -2.707   0.204  0.00  0.00     0.169 HD
ENDBRANCH   2  16
TORSDOF 2
