REMARK  7 active torsions:
REMARK  status: ('A' for Active; 'I' for Inactive)
REMARK    1  A    between atoms: C_3  and  C_1 
REMARK    2  A    between atoms: C_8  and  C_2 
REMARK       I    between atoms: C_7  and  N_10 
REMARK    3  A    between atoms: C_18  and  C_7 
REMARK    4  A    between atoms: N_10  and  C_8 
REMARK    5  A    between atoms: O_21  and  C_9 
REMARK    6  A    between atoms: O_22  and  C_11 
REMARK    7  A    between atoms: C_13  and  C_18 
ROOT
ATOM      1  C   UNL d   1       2.050  -4.194   0.253  0.00  0.00     0.222 C 
ATOM      2  N   UNL d   1       1.660  -4.066   1.570  0.00  0.00    -0.356 N 
ATOM      3  O   UNL d   1       1.261  -4.089  -0.690  0.00  0.00    -0.273 OA
ATOM      4  H   UNL d   1       2.259  -4.459   2.288  0.00  0.00     0.162 HD
ENDROOT
BRANCH   1   5
ATOM      5  C   UNL d   1       3.525  -4.432   0.039  0.00  0.00     0.141 C 
BRANCH   5   6
ATOM      6  C   UNL d   1       3.934  -5.886  -0.025  0.00  0.00    -0.047 A 
ATOM      7  C   UNL d   1       4.914  -6.364   0.857  0.00  0.00     0.047 A 
ATOM      8  C   UNL d   1       5.453  -7.652   0.737  0.00  0.00     0.102 A 
ATOM      9  C   UNL d   1       4.921  -8.527  -0.224  0.00  0.00     0.101 A 
ATOM     10  C   UNL d   1       3.928  -8.058  -1.096  0.00  0.00     0.040 A 
ATOM     11  C   UNL d   1       3.446  -6.749  -1.011  0.00  0.00     0.010 A 
BRANCH   8  12
ATOM     12  O   UNL d   1       6.494  -8.072   1.524  0.00  0.00    -0.353 OA
ATOM     13  C   UNL d   1       7.405  -7.051   1.932  0.00  0.00     0.210 C 
ENDBRANCH   8  12
BRANCH   9  14
ATOM     14  O   UNL d   1       5.313  -9.815  -0.481  0.00  0.00    -0.353 OA
ATOM     15  C   UNL d   1       5.775 -10.572   0.631  0.00  0.00     0.210 C 
ENDBRANCH   9  14
ENDBRANCH   5   6
ENDBRANCH   1   5
BRANCH   2  16
ATOM     16  C   UNL d   1       0.266  -3.834   1.864  0.00  0.00     0.164 C 
BRANCH  16  17
ATOM     17  C   UNL d   1       0.036  -3.855   3.333  0.00  0.00     0.001 A 
ATOM     18  C   UNL d   1      -0.005  -2.795   4.235  0.00  0.00     0.167 A 
ATOM     19  O   UNL d   1      -0.303  -3.268   5.487  0.00  0.00    -0.310 OA
ATOM     20  C   UNL d   1      -0.459  -4.612   5.397  0.00  0.00     0.050 A 
ATOM     21  C   UNL d   1      -0.802  -5.328   6.641  0.00  0.00     0.076 C 
ATOM     22  C   UNL d   1      -0.257  -5.023   4.100  0.00  0.00     0.044 A 
BRANCH  18  23
ATOM     23  C   UNL d   1       0.181  -1.323   4.137  0.00  0.00     0.440 C 
ATOM     24  F   UNL d   1       0.470  -0.916   2.875  0.00  0.00    -0.164 F 
ATOM     25  F   UNL d   1      -0.931  -0.641   4.520  0.00  0.00    -0.164 F 
ATOM     26  F   UNL d   1       1.198  -0.886   4.927  0.00  0.00    -0.164 F 
ENDBRANCH  18  23
ENDBRANCH  16  17
ENDBRANCH   2  16
TORSDOF 7
