REMARK  4 active torsions:
REMARK  status: ('A' for Active; 'I' for Inactive)
REMARK    1  A    between atoms: N_2  and  C_1 
REMARK    2  A    between atoms: N_3  and  C_1 
REMARK    3  A    between atoms: C_4  and  N_2 
REMARK    4  A    between atoms: C_9  and  N_3 
ROOT
ATOM      1  C   UNL d   1       1.057   0.227  -0.949  0.00  0.00     0.177 C 
ATOM      2  S   UNL d   1       0.980   1.548  -1.982  0.00  0.00    -0.040 SA
ENDROOT
BRANCH   1   3
ATOM      3  N   UNL d   1       2.145   0.162  -0.124  0.00  0.00    -0.319 N 
ATOM      4  H   UNL d   1       2.715   0.997  -0.134  0.00  0.00     0.169 HD
BRANCH   3   5
ATOM      5  C   UNL d   1       2.492  -0.844   0.785  0.00  0.00     0.106 A 
ATOM      6  N   UNL d   1       1.939  -2.073   0.677  0.00  0.00    -0.352 N 
ATOM      7  C   UNL d   1       2.334  -3.007   1.573  0.00  0.00     0.089 A 
ATOM      8  HN  UNL d   1       1.254  -2.287  -0.048  1.00  0.00     0.166 HD
ATOM      9  C   UNL d   1       3.235  -2.765   2.595  0.00  0.00     0.017 A 
ATOM     10  C   UNL d   1       3.781  -1.493   2.699  0.00  0.00     0.005 A 
ATOM     11  C   UNL d   1       3.421  -0.522   1.770  0.00  0.00     0.048 A 
ENDBRANCH   3   5
ENDBRANCH   1   3
BRANCH   1  12
ATOM     12  N   UNL d   1       0.135  -0.777  -0.826  0.00  0.00    -0.333 N 
ATOM     13  H   UNL d   1       0.530  -1.664  -0.516  0.00  0.00     0.168 HD
BRANCH  12  14
ATOM     14  C   UNL d   1      -1.268  -0.729  -0.958  0.00  0.00     0.034 A 
ATOM     15  C   UNL d   1      -2.003   0.448  -0.802  0.00  0.00     0.036 A 
ATOM     16  C   UNL d   1      -3.408   0.447  -0.847  0.00  0.00    -0.054 A 
ATOM     17  C   UNL d   1      -4.145   1.740  -0.623  0.00  0.00     0.049 C 
ATOM     18  C   UNL d   1      -4.090  -0.762  -1.074  0.00  0.00    -0.056 A 
ATOM     19  C   UNL d   1      -3.348  -1.945  -1.215  0.00  0.00     0.009 A 
ATOM     20  C   UNL d   1      -5.590  -0.811  -1.147  0.00  0.00     0.049 C 
ATOM     21  C   UNL d   1      -1.953  -1.932  -1.136  0.00  0.00     0.030 A 
ENDBRANCH  12  14
ENDBRANCH   1  12
TORSDOF 4
