REMARK  2 active torsions:
REMARK  status: ('A' for Active; 'I' for Inactive)
REMARK    1  A    between atoms: C_4  and  C_1 
REMARK    2  A    between atoms: N_12  and  C_5 
ROOT
ATOM      1  C   UNL d   1      -1.168  -1.220   0.011  0.00  0.00     0.058 A 
ATOM      2  N   UNL d   1       0.192  -1.336   0.252  0.00  0.00    -0.335 N 
ATOM      3  HN  UNL d   1       0.675  -2.208   0.465  1.00  0.00     0.168 HD
ATOM      4  C   UNL d   1       0.766  -0.163   0.164  0.00  0.00     0.142 A 
ATOM      5  S   UNL d   1      -0.280   1.148  -0.200  0.00  0.00    -0.064 SA
ATOM      6  C   UNL d   1      -1.605   0.063  -0.251  0.00  0.00     0.084 A 
ENDROOT
BRANCH   1   7
ATOM      7  C   UNL d   1      -2.058  -2.427   0.029  0.00  0.00     0.033 A 
ATOM      8  S   UNL d   1      -3.729  -2.426  -0.340  0.00  0.00    -0.076 SA
ATOM      9  C   UNL d   1      -3.831  -4.098  -0.110  0.00  0.00     0.075 A 
ATOM     10 CL   UNL d   1      -5.330  -4.901  -0.346  0.00  0.00    -0.076 Cl
ATOM     11  C   UNL d   1      -2.644  -4.673   0.262  0.00  0.00     0.033 A 
ATOM     12  C   UNL d   1      -1.606  -3.696   0.342  0.00  0.00     0.023 A 
ENDBRANCH   1   7
BRANCH   4  13
ATOM     13  N   UNL d   1       2.087   0.024   0.320  0.00  0.00    -0.380 N 
ATOM     14  H   UNL d   1       2.657  -0.811   0.246  0.00  0.00     0.158 HD
ATOM     15  H   UNL d   1       2.500   0.849  -0.094  0.00  0.00     0.158 HD
ENDBRANCH   4  13
TORSDOF 2
