REMARK  3 active torsions:
REMARK  status: ('A' for Active; 'I' for Inactive)
REMARK    1  A    between atoms: C_10  and  N_1 
REMARK    2  A    between atoms: C_7  and  C_2 
REMARK    3  A    between atoms: N_9  and  C_8 
ROOT
ATOM      1  N   UNL d   1      -0.141  -1.365  -0.116  0.00  0.00    -0.225 N 
ATOM      2  C   UNL d   1       1.076  -0.695   0.023  0.00  0.00     0.139 A 
ATOM      3  N   UNL d   1      -0.452   0.726  -0.504  0.00  0.00    -0.007 NA
ATOM      4  N   UNL d   1      -1.058  -0.448  -0.527  0.00  0.00     0.001 NA
ATOM      5  N   UNL d   1       0.865   0.593  -0.173  0.00  0.00    -0.270 N 
ATOM      6  HN  UNL d   1       1.552   1.342  -0.093  1.00  0.00     0.185 HD
ENDROOT
BRANCH   2   7
ATOM      7  C   UNL d   1       2.300  -1.360   0.256  0.00  0.00     0.068 C 
ATOM      8  C   UNL d   1       3.049  -1.781  -0.771  0.00  0.00     0.089 C 
BRANCH   8   9
ATOM      9  N   UNL d   1       4.252  -2.466  -0.751  0.00  0.00    -0.386 N 
ATOM     10  C   UNL d   1       4.902  -3.016   0.453  0.00  0.00     0.148 C 
ATOM     11  C   UNL d   1       6.278  -2.363   0.640  0.00  0.00     0.187 C 
ATOM     12  O   UNL d   1       7.109  -2.567  -0.515  0.00  0.00    -0.388 OA
ATOM     13  C   UNL d   1       6.489  -2.001  -1.684  0.00  0.00     0.187 C 
ATOM     14  C   UNL d   1       5.104  -2.618  -1.950  0.00  0.00     0.148 C 
ENDBRANCH   8   9
ENDBRANCH   2   7
BRANCH   1  15
ATOM     15  C   UNL d   1      -0.535  -2.712   0.125  0.00  0.00     0.056 A 
ATOM     16  C   UNL d   1       0.223  -3.582   0.918  0.00  0.00     0.032 A 
ATOM     17  C   UNL d   1      -0.240  -4.876   1.188  0.00  0.00     0.009 A 
ATOM     18  C   UNL d   1      -1.456  -5.324   0.665  0.00  0.00    -0.062 A 
ATOM     19  C   UNL d   1      -2.204  -4.465  -0.143  0.00  0.00     0.009 A 
ATOM     20  C   UNL d   1      -1.957  -6.697   1.008  0.00  0.00     0.048 C 
ATOM     21  C   UNL d   1      -1.754  -3.167  -0.404  0.00  0.00     0.032 A 
ENDBRANCH   1  15
TORSDOF 3
