REMARK  8 active torsions:
REMARK  status: ('A' for Active; 'I' for Inactive)
REMARK    1  A    between atoms: C_6  and  N_1 
REMARK    2  A    between atoms: C_11  and  C_4 
REMARK    3  A    between atoms: N_8  and  C_9 
REMARK       I    between atoms: C_10  and  N_8 
REMARK    4  A    between atoms: C_9  and  N_13 
REMARK    5  A    between atoms: C_18  and  C_10 
REMARK    6  A    between atoms: O_21  and  C_11 
REMARK    7  A    between atoms: N_13  and  C_12 
REMARK    8  A    between atoms: C_27  and  O_21 
ROOT
ATOM      1  C   UNL d   1      -0.497  -2.356   0.119  0.00  0.00     0.154 C 
ATOM      2  C   UNL d   1       0.184  -3.295   0.933  0.00  0.00     0.080 C 
ATOM      3  N   UNL d   1      -1.295  -2.740  -0.924  0.00  0.00    -0.349 N 
ATOM      4  HN  UNL d   1      -1.835  -2.056  -1.453  1.00  0.00     0.167 HD
ATOM      5  C   UNL d   1       0.223  -4.616   0.471  0.00  0.00     0.035 C 
ATOM      6  C   UNL d   1      -1.345  -4.051  -1.232  0.00  0.00     0.090 C 
ATOM      7  C   UNL d   1      -0.563  -5.005  -0.612  0.00  0.00     0.019 C 
ENDROOT
BRANCH   2   8
ATOM      8  N   UNL d   1       0.869  -3.037   2.157  0.00  0.00    -0.330 N 
ATOM      9  H   UNL d   1       1.710  -3.579   2.354  0.00  0.00     0.168 HD
BRANCH   8  10
ATOM     10  C   UNL d   1       0.383  -2.320   3.236  0.00  0.00     0.179 C 
ATOM     11  S   UNL d   1      -1.230  -1.986   3.573  0.00  0.00    -0.040 SA
BRANCH  10  12
ATOM     12  N   UNL d   1       1.331  -1.838   4.128  0.00  0.00    -0.299 N 
ATOM     13  C   UNL d   1       2.678  -2.161   4.207  0.00  0.00     0.257 C 
ATOM     14  O   UNL d   1       3.170  -3.125   3.619  0.00  0.00    -0.267 OA
ATOM     15  H   UNL d   1       0.961  -1.174   4.793  0.00  0.00     0.171 HD
BRANCH  13  16
ATOM     16  C   UNL d   1       3.523  -1.364   5.139  0.00  0.00     0.032 A 
ATOM     17  C   UNL d   1       4.412  -2.056   5.971  0.00  0.00     0.017 A 
ATOM     18  C   UNL d   1       5.344  -1.360   6.746  0.00  0.00     0.001 A 
ATOM     19  C   UNL d   1       5.405   0.031   6.684  0.00  0.00     0.000 A 
ATOM     20  C   UNL d   1       4.504   0.728   5.881  0.00  0.00     0.001 A 
ATOM     21  C   UNL d   1       3.554   0.032   5.122  0.00  0.00     0.017 A 
ENDBRANCH  13  16
ENDBRANCH  10  12
ENDBRANCH   8  10
ENDBRANCH   2   8
BRANCH   1  22
ATOM     22  N   UNL d   1      -0.184  -0.945   0.207  0.00  0.00    -0.241 N 
ATOM     23  N   UNL d   1       0.603  -0.486   1.202  0.00  0.00    -0.296 N 
ATOM     24  C   UNL d   1       0.731   0.816   1.022  0.00  0.00     0.041 A 
ATOM     25  HN  UNL d   1       1.020  -1.039   1.950  1.00  0.00     0.187 HD
ATOM     26  C   UNL d   1       1.499   1.571   2.036  0.00  0.00     0.071 C 
ATOM     27  C   UNL d   1       0.159   1.238  -0.195  0.00  0.00     0.087 A 
ATOM     28  C   UNL d   1      -0.451   0.091  -0.703  0.00  0.00     0.050 A 
ATOM     29  C   UNL d   1      -1.168  -0.120  -1.994  0.00  0.00     0.071 C 
BRANCH  27  30
ATOM     30  C   UNL d   1       0.294   2.548  -0.799  0.00  0.00     0.297 C 
ATOM     31  O   UNL d   1      -0.027   2.821  -1.954  0.00  0.00    -0.259 OA
BRANCH  30  32
ATOM     32  O   UNL d   1       0.941   3.416   0.036  0.00  0.00    -0.318 OA
BRANCH  32  33
ATOM     33  C   UNL d   1       1.604   4.529  -0.568  0.00  0.00     0.174 C 
ATOM     34  C   UNL d   1       2.992   4.087  -1.000  0.00  0.00     0.034 C 
ENDBRANCH  32  33
ENDBRANCH  30  32
ENDBRANCH  27  30
ENDBRANCH   1  22
TORSDOF 8
