REMARK  5 active torsions:
REMARK  status: ('A' for Active; 'I' for Inactive)
REMARK    1  A    between atoms: C_2  and  N_1 
REMARK    2  A    between atoms: C_7  and  C_3 
REMARK    3  A    between atoms: O_12  and  C_5 
REMARK    4  A    between atoms: O_13  and  C_9 
REMARK    5  A    between atoms: C_15  and  O_13 
ROOT
ATOM      1  C   UNL d   1      -2.271  -2.276  -0.613  0.00  0.00     0.102 A 
ATOM      2  C   UNL d   1      -1.945   0.068   0.011  0.00  0.00    -0.031 A 
ATOM      3  C   UNL d   1      -1.562  -1.280   0.080  0.00  0.00     0.051 A 
ATOM      4  C   UNL d   1      -3.401  -1.906  -1.365  0.00  0.00     0.102 A 
ATOM      5  C   UNL d   1      -3.777  -0.554  -1.423  0.00  0.00     0.040 A 
ATOM      6  C   UNL d   1      -3.055   0.429  -0.746  0.00  0.00     0.014 A 
ENDROOT
BRANCH   2   7
ATOM      7  C   UNL d   1      -1.167   1.081   0.728  0.00  0.00     0.042 C 
ATOM      8  C   UNL d   1      -0.072   1.669   0.208  0.00  0.00     0.077 C 
ATOM      9  C   UNL d   1       0.516   1.486  -1.152  0.00  0.00     0.075 C 
BRANCH   8  10
ATOM     10  N   UNL d   1       0.648   2.592   1.081  0.00  0.00    -0.120 N 
ATOM     11  O   UNL d   1       0.011   3.180   1.965  0.00  0.00    -0.532 OA
ATOM     12  O   UNL d   1       1.863   2.722   0.880  0.00  0.00    -0.532 OA
ENDBRANCH   8  10
ENDBRANCH   2   7
BRANCH   1  13
ATOM     13  O   UNL d   1      -1.905  -3.595  -0.593  0.00  0.00    -0.353 OA
ATOM     14  C   UNL d   1      -0.736  -3.976   0.116  0.00  0.00     0.210 C 
ENDBRANCH   1  13
BRANCH   4  15
ATOM     15  O   UNL d   1      -4.244  -2.707  -2.096  0.00  0.00    -0.349 OA
BRANCH  15  16
ATOM     16  C   UNL d   1      -4.019  -4.114  -2.108  0.00  0.00     0.171 C 
ATOM     17  C   UNL d   1      -5.111  -4.770  -2.937  0.00  0.00     0.034 C 
ENDBRANCH  15  16
ENDBRANCH   4  15
TORSDOF 5
