REMARK  5 active torsions:
REMARK  status: ('A' for Active; 'I' for Inactive)
REMARK    1  A    between atoms: N_10  and  C_1 
REMARK    2  A    between atoms: C_18  and  N_2 
REMARK    3  A    between atoms: C_6  and  S_17 
REMARK       I    between atoms: C_16  and  N_10 
REMARK    4  A    between atoms: C_20  and  C_16 
REMARK    5  A    between atoms: S_17  and  C_20 
ROOT
ATOM      1  C   UNL d   1       0.721  -1.004   0.111  0.00  0.00     0.152 C 
ATOM      2  N   UNL d   1       0.379   0.027   1.003  0.00  0.00    -0.239 N 
ATOM      3  N   UNL d   1      -0.636   0.793   0.516  0.00  0.00    -0.302 N 
ATOM      4  HN  UNL d   1      -0.985   1.677   0.886  1.00  0.00     0.186 HD
ATOM      5  C   UNL d   1      -0.279  -0.994  -0.850  0.00  0.00     0.107 C 
ATOM      6  C   UNL d   1      -1.068   0.129  -0.550  0.00  0.00     0.134 C 
ATOM      7  C   UNL d   1      -0.444  -1.784  -2.028  0.00  0.00     0.105 C 
ATOM      8  N   UNL d   1      -0.636  -2.341  -3.025  0.00  0.00    -0.191 NA
ENDROOT
BRANCH   1   9
ATOM      9  N   UNL d   1       1.906  -1.731   0.237  0.00  0.00    -0.310 N 
ATOM     10  C   UNL d   1       2.162  -2.942  -0.380  0.00  0.00     0.233 C 
ATOM     11  O   UNL d   1       1.299  -3.658  -0.873  0.00  0.00    -0.272 OA
ATOM     12  H   UNL d   1       2.634  -1.336   0.824  0.00  0.00     0.170 HD
BRANCH  10  13
ATOM     13  C   UNL d   1       3.616  -3.389  -0.289  0.00  0.00     0.184 C 
BRANCH  13  14
ATOM     14  S   UNL d   1       4.673  -2.417  -1.414  0.00  0.00    -0.096 SA
BRANCH  14  15
ATOM     15  C   UNL d   1       5.029  -1.056  -0.374  0.00  0.00     0.113 C 
ATOM     16  N   UNL d   1       5.821  -1.193   0.661  0.00  0.00    -0.344 N 
ATOM     17  C   UNL d   1       5.684  -0.094   1.494  0.00  0.00     0.050 A 
ATOM     18  HN  UNL d   1       6.441  -1.985   0.828  1.00  0.00     0.167 HD
ATOM     19  C   UNL d   1       6.321   0.087   2.738  0.00  0.00     0.031 A 
ATOM     20  C   UNL d   1       4.757   0.860   1.067  0.00  0.00     0.034 A 
ATOM     21  C   UNL d   1       5.917   1.135   3.571  0.00  0.00     0.002 A 
ATOM     22  C   UNL d   1       4.933   2.027   3.156  0.00  0.00     0.002 A 
ATOM     23  C   UNL d   1       4.366   1.931   1.882  0.00  0.00     0.021 A 
ATOM     24  S   UNL d   1       4.235   0.452  -0.522  0.00  0.00    -0.063 SA
ENDBRANCH  14  15
ENDBRANCH  13  14
ENDBRANCH  10  13
ENDBRANCH   1   9
BRANCH   2  25
ATOM     25  C   UNL d   1       0.926   0.327   2.290  0.00  0.00     0.058 A 
ATOM     26  C   UNL d   1       0.731   1.603   2.841  0.00  0.00     0.031 A 
ATOM     27  C   UNL d   1       1.257   1.915   4.097  0.00  0.00     0.002 A 
ATOM     28  C   UNL d   1       1.970   0.957   4.815  0.00  0.00     0.000 A 
ATOM     29  C   UNL d   1       2.147  -0.319   4.286  0.00  0.00     0.002 A 
ATOM     30  C   UNL d   1       1.613  -0.641   3.035  0.00  0.00     0.031 A 
ENDBRANCH   2  25
TORSDOF 5
