REMARK  4 active torsions:
REMARK  status: ('A' for Active; 'I' for Inactive)
REMARK    1  A    between atoms: C_2  and  C_1 
REMARK    2  A    between atoms: C_15  and  C_3 
REMARK    3  A    between atoms: C_17  and  C_9 
REMARK    4  A    between atoms: C_12  and  C_16 
ROOT
ATOM      1  C   UNL d   1      -0.434   0.977   0.049  0.00  0.00     0.179 A 
ATOM      2  C   UNL d   1      -0.107  -1.020   0.734  0.00  0.00     0.175 A 
ATOM      3  O   UNL d   1      -0.609   0.177   1.160  0.00  0.00    -0.272 OA
ATOM      4  N   UNL d   1       0.062   0.287  -0.961  0.00  0.00    -0.277 N 
ATOM      5  HN  UNL d   1       0.261   0.646  -1.895  1.00  0.00     0.189 HD
ATOM      6  N   UNL d   1       0.263  -1.000  -0.527  0.00  0.00    -0.277 N 
ATOM      7  HN  UNL d   1       0.625  -1.782  -1.073  1.00  0.00     0.189 HD
ENDROOT
BRANCH   1   8
ATOM      8  C   UNL d   1      -0.753   2.420   0.003  0.00  0.00     0.077 A 
ATOM      9  C   UNL d   1      -0.440   3.402  -0.982  0.00  0.00     0.082 A 
ATOM     10  N   UNL d   1      -0.971   4.586  -0.624  0.00  0.00    -0.259 N 
ATOM     11  O   UNL d   1      -1.603   4.389   0.584  0.00  0.00    -0.241 OA
ATOM     12  HN  UNL d   1      -0.916   5.461  -1.146  1.00  0.00     0.195 HD
ATOM     13  C   UNL d   1      -1.474   3.092   0.962  0.00  0.00     0.089 A 
ATOM     14  C   UNL d   1      -2.140   2.710   2.222  0.00  0.00     0.080 C 
BRANCH   9  15
ATOM     15  C   UNL d   1       0.328   3.288  -2.225  0.00  0.00    -0.006 A 
ATOM     16  C   UNL d   1       1.500   2.524  -2.296  0.00  0.00     0.014 A 
ATOM     17  C   UNL d   1       2.189   2.381  -3.503  0.00  0.00     0.001 A 
ATOM     18  C   UNL d   1       1.736   3.033  -4.646  0.00  0.00     0.000 A 
ATOM     19  C   UNL d   1       0.600   3.835  -4.582  0.00  0.00     0.001 A 
ATOM     20  C   UNL d   1      -0.101   3.963  -3.380  0.00  0.00     0.014 A 
ENDBRANCH   9  15
ENDBRANCH   1   8
BRANCH   2  21
ATOM     21  C   UNL d   1      -0.125  -2.130   1.670  0.00  0.00     0.032 A 
ATOM     22  C   UNL d   1       0.344  -2.044   2.996  0.00  0.00     0.062 A 
ATOM     23  C   UNL d   1       0.240  -3.180   3.829  0.00  0.00     0.017 A 
ATOM     24  C   UNL d   1      -0.278  -4.383   3.350  0.00  0.00     0.001 A 
ATOM     25  C   UNL d   1      -0.697  -4.477   2.030  0.00  0.00     0.001 A 
ATOM     26  C   UNL d   1      -0.618  -3.361   1.197  0.00  0.00     0.017 A 
BRANCH  22  27
ATOM     27  C   UNL d   1       0.963  -0.797   3.581  0.00  0.00     0.418 C 
ATOM     28  F   UNL d   1       1.513   0.052   2.671  0.00  0.00    -0.166 F 
ATOM     29  F   UNL d   1       0.064  -0.061   4.291  0.00  0.00    -0.166 F 
ATOM     30  F   UNL d   1       1.975  -1.082   4.452  0.00  0.00    -0.166 F 
ENDBRANCH  22  27
ENDBRANCH   2  21
TORSDOF 4
