REMARK  5 active torsions:
REMARK  status: ('A' for Active; 'I' for Inactive)
REMARK    1  A    between atoms: C_4  and  C_1 
REMARK    2  A    between atoms: N_6  and  C_2 
REMARK       I    between atoms: C_3  and  N_5 
REMARK       I    between atoms: N_7  and  C_3 
REMARK    3  A    between atoms: C_8  and  N_7 
REMARK    4  A    between atoms: O_21  and  C_16 
REMARK    5  A    between atoms: C_25  and  O_21 
ROOT
ATOM      1  C   UNL d   1      -3.850   5.677  -0.803  0.00  0.00     0.301 C 
ATOM      2  N   UNL d   1      -3.044   4.571  -0.542  0.00  0.00    -0.336 N 
ATOM      3  N   UNL d   1      -1.222   2.393  -0.122  0.00  0.00    -0.266 NA
ATOM      4  N   UNL d   1      -4.585   6.102   0.291  0.00  0.00    -0.208 NA
ATOM      5  O   UNL d   1      -3.842   6.242  -1.893  0.00  0.00    -0.254 OA
ATOM      6  C   UNL d   1      -1.845   4.416  -1.377  0.00  0.00     0.142 C 
ATOM      7  C   UNL d   1      -3.052   3.808   0.718  0.00  0.00     0.142 C 
ATOM      8  C   UNL d   1      -2.536   2.365   0.553  0.00  0.00     0.117 C 
ATOM      9  C   UNL d   1      -1.352   2.964  -1.484  0.00  0.00     0.117 C 
ATOM     10  H   UNL d   1      -4.013   6.074   1.121  0.00  0.00     0.138 HD
ENDROOT
BRANCH   4  11
ATOM     11  C   UNL d   1      -5.397   7.258   0.190  0.00  0.00     0.050 A 
ATOM     12  C   UNL d   1      -6.491   7.380  -0.681  0.00  0.00     0.090 A 
ATOM     13  C   UNL d   1      -7.136   8.619  -0.793  0.00  0.00     0.038 A 
ATOM     14  C   UNL d   1      -6.732   9.712  -0.025  0.00  0.00     0.003 A 
ATOM     15  C   UNL d   1      -5.682   9.574   0.877  0.00  0.00     0.002 A 
ATOM     16  C   UNL d   1      -5.028   8.348   0.996  0.00  0.00     0.027 A 
BRANCH  12  17
ATOM     17  O   UNL d   1      -7.032   6.406  -1.480  0.00  0.00    -0.350 OA
BRANCH  17  18
ATOM     18  C   UNL d   1      -7.125   5.101  -0.908  0.00  0.00     0.171 C 
ATOM     19  C   UNL d   1      -8.277   4.372  -1.581  0.00  0.00     0.034 C 
ENDBRANCH  17  18
ENDBRANCH  12  17
ENDBRANCH   4  11
BRANCH   3  20
ATOM     20  C   UNL d   1      -0.547   1.168  -0.109  0.00  0.00     0.097 A 
ATOM     21  C   UNL d   1       0.845   1.109  -0.188  0.00  0.00     0.086 A 
ATOM     22  C   UNL d   1       1.465  -0.155  -0.177  0.00  0.00     0.021 A 
ATOM     23  C   UNL d   1       0.702  -1.308  -0.064  0.00  0.00     0.018 A 
ATOM     24  C   UNL d   1      -0.662  -1.158   0.035  0.00  0.00     0.089 A 
ATOM     25  N   UNL d   1      -1.288   0.039   0.015  0.00  0.00    -0.356 N 
ATOM     26  HN  UNL d   1      -2.304   0.092   0.092  1.00  0.00     0.166 HD
BRANCH  21  27
ATOM     27  C   UNL d   1       1.716   2.329  -0.292  0.00  0.00     0.420 C 
ATOM     28  F   UNL d   1       1.173   3.508   0.118  0.00  0.00    -0.166 F 
ATOM     29  F   UNL d   1       2.866   2.201   0.436  0.00  0.00    -0.166 F 
ATOM     30  F   UNL d   1       2.133   2.544  -1.575  0.00  0.00    -0.166 F 
ENDBRANCH  21  27
ENDBRANCH   3  20
TORSDOF 5
