REMARK  6 active torsions:
REMARK  status: ('A' for Active; 'I' for Inactive)
REMARK    1  A    between atoms: O_14  and  C_1 
REMARK    2  A    between atoms: C_3  and  C_2 
REMARK       I    between atoms: N_9  and  C_3 
REMARK    3  A    between atoms: O_16  and  C_4 
REMARK    4  A    between atoms: O_15  and  C_5 
REMARK    5  A    between atoms: C_13  and  N_9 
REMARK    6  A    between atoms: C_17  and  C_13 
ROOT
ATOM      1  N   UNL d   1      -7.053   3.242  -6.614  0.00  0.00    -0.191 NA
ATOM      2  C   UNL d   1      -6.641   3.048  -5.549  0.00  0.00     0.099 C 
ATOM      3  C   UNL d   1      -6.130   2.816  -4.228  0.00  0.00     0.044 A 
ATOM      4  C   UNL d   1      -5.153   2.374  -1.627  0.00  0.00    -0.040 A 
ATOM      5  C   UNL d   1      -6.245   1.552  -3.641  0.00  0.00     0.023 A 
ATOM      6  C   UNL d   1      -5.516   3.854  -3.522  0.00  0.00     0.023 A 
ATOM      7  C   UNL d   1      -5.752   1.332  -2.351  0.00  0.00     0.010 A 
ATOM      8  C   UNL d   1      -5.027   3.634  -2.229  0.00  0.00     0.010 A 
ENDROOT
BRANCH   4   9
ATOM      9  C   UNL d   1      -4.643   2.137  -0.228  0.00  0.00     0.161 C 
BRANCH   9  10
ATOM     10  N   UNL d   1      -3.231   1.824  -0.216  0.00  0.00    -0.353 N 
ATOM     11  C   UNL d   1      -2.791   0.524  -0.107  0.00  0.00     0.252 C 
ATOM     12  O   UNL d   1      -3.568  -0.424  -0.015  0.00  0.00    -0.268 OA
ATOM     13  H   UNL d   1      -2.589   2.582  -0.389  0.00  0.00     0.163 HD
BRANCH  11  14
ATOM     14  C   UNL d   1      -1.316   0.267  -0.096  0.00  0.00     0.037 A 
ATOM     15  C   UNL d   1      -0.342   1.268  -0.101  0.00  0.00     0.057 A 
ATOM     16  C   UNL d   1       1.030   0.952  -0.104  0.00  0.00     0.105 A 
ATOM     17  C   UNL d   1       1.433  -0.396  -0.081  0.00  0.00     0.135 A 
ATOM     18  C   UNL d   1       0.453  -1.408   0.017  0.00  0.00     0.105 A 
ATOM     19  C   UNL d   1      -0.903  -1.069  -0.038  0.00  0.00     0.057 A 
BRANCH  16  20
ATOM     20  O   UNL d   1       1.805   2.083  -0.128  0.00  0.00    -0.353 OA
ATOM     21  C   UNL d   1       3.218   1.961  -0.174  0.00  0.00     0.210 C 
ENDBRANCH  16  20
BRANCH  17  22
ATOM     22  O   UNL d   1       2.770  -0.701  -0.027  0.00  0.00    -0.351 OA
ATOM     23  C   UNL d   1       3.219  -1.610  -1.035  0.00  0.00     0.210 C 
ENDBRANCH  17  22
BRANCH  18  24
ATOM     24  O   UNL d   1       0.892  -2.702   0.174  0.00  0.00    -0.353 OA
ATOM     25  C   UNL d   1      -0.054  -3.643   0.673  0.00  0.00     0.210 C 
ENDBRANCH  18  24
ENDBRANCH  11  14
ENDBRANCH   9  10
ENDBRANCH   4   9
TORSDOF 6
