REMARK  2 active torsions:
REMARK  status: ('A' for Active; 'I' for Inactive)
REMARK    1  A    between atoms: N_6  and  C_1 
REMARK       I    between atoms: C_8  and  N_6 
REMARK    2  A    between atoms: C_10  and  C_8 
ROOT
ATOM      1  C   UNL d   1      -3.128   0.950  -0.312  0.00  0.00     0.152 C 
ATOM      2  C   UNL d   1      -1.014   0.350  -0.142  0.00  0.00     0.058 C 
ATOM      3  N   UNL d   1      -1.899   1.422  -0.236  0.00  0.00    -0.335 N 
ATOM      4  HN  UNL d   1      -1.639   2.408  -0.244  1.00  0.00     0.168 HD
ATOM      5  C   UNL d   1      -1.625  -0.885  -0.105  0.00  0.00     0.014 C 
ATOM      6  S   UNL d   1      -3.260  -0.750  -0.463  0.00  0.00    -0.056 SA
ATOM      7  C   UNL d   1       0.447   0.388  -0.049  0.00  0.00    -0.002 A 
ATOM      8  C   UNL d   1      -0.963  -2.171   0.194  0.00  0.00     0.053 C 
ATOM      9  C   UNL d   1       1.163  -0.839  -0.149  0.00  0.00    -0.045 A 
ATOM     10  C   UNL d   1       0.441  -2.152  -0.401  0.00  0.00     0.044 C 
ATOM     11  C   UNL d   1       1.161   1.577   0.121  0.00  0.00     0.014 A 
ATOM     12  C   UNL d   1       2.563  -0.845  -0.101  0.00  0.00     0.008 A 
ATOM     13  C   UNL d   1       2.562   1.552   0.180  0.00  0.00     0.001 A 
ATOM     14  C   UNL d   1       3.259   0.346   0.067  0.00  0.00     0.001 A 
ENDROOT
BRANCH   1  15
ATOM     15  N   UNL d   1      -4.270   1.730  -0.241  0.00  0.00    -0.303 N 
ATOM     16  C   UNL d   1      -5.553   1.230  -0.112  0.00  0.00     0.257 C 
ATOM     17  O   UNL d   1      -5.914   0.054  -0.161  0.00  0.00    -0.267 OA
ATOM     18  H   UNL d   1      -4.077   2.713  -0.093  0.00  0.00     0.171 HD
BRANCH  16  19
ATOM     19  C   UNL d   1      -6.623   2.208   0.179  0.00  0.00     0.035 A 
ATOM     20  C   UNL d   1      -6.651   3.476  -0.399  0.00  0.00     0.059 A 
ATOM     21  C   UNL d   1      -7.701   4.332  -0.081  0.00  0.00     0.117 A 
ATOM     22  F   UNL d   1      -7.736   5.552  -0.631  0.00  0.00    -0.206 F 
ATOM     23  C   UNL d   1      -8.721   3.947   0.787  0.00  0.00     0.042 A 
ATOM     24  C   UNL d   1      -8.708   2.671   1.343  0.00  0.00     0.004 A 
ATOM     25  C   UNL d   1      -7.664   1.801   1.033  0.00  0.00     0.017 A 
ENDBRANCH  16  19
ENDBRANCH   1  15
TORSDOF 2
