REMARK  5 active torsions:
REMARK  status: ('A' for Active; 'I' for Inactive)
REMARK    1  A    between atoms: C_3  and  C_1 
REMARK    2  A    between atoms: N_4  and  C_2 
REMARK       I    between atoms: C_5  and  N_4 
REMARK    3  A    between atoms: C_8  and  C_5 
REMARK    4  A    between atoms: N_7  and  C_12 
REMARK    5  A    between atoms: C_12  and  C_8 
ROOT
ATOM      1  N   UNL d   1       2.643  -6.659  -0.520  0.00  0.00    -0.326 N 
ATOM      2  C   UNL d   1       1.583  -6.094   0.164  0.00  0.00     0.223 C 
ATOM      3  O   UNL d   1       1.674  -5.204   1.006  0.00  0.00    -0.273 OA
ATOM      4  H   UNL d   1       2.439  -7.401  -1.183  0.00  0.00     0.169 HD
ENDROOT
BRANCH   1   5
ATOM      5  C   UNL d   1       4.015  -6.311  -0.421  0.00  0.00     0.057 A 
ATOM      6  C   UNL d   1       4.492  -5.321   0.450  0.00  0.00     0.047 A 
ATOM      7  C   UNL d   1       5.862  -5.010   0.525  0.00  0.00     0.050 A 
ATOM      8  C   UNL d   1       6.766  -5.713  -0.281  0.00  0.00     0.018 A 
ATOM      9  C   UNL d   1       6.309  -6.694  -1.160  0.00  0.00     0.027 A 
ATOM     10  C   UNL d   1       4.944  -6.987  -1.231  0.00  0.00     0.060 A 
ATOM     11 CL   UNL d   1       4.429  -8.204  -2.350  0.00  0.00    -0.082 Cl
BRANCH   7  12
ATOM     12  C   UNL d   1       6.358  -3.951   1.483  0.00  0.00     0.417 C 
ATOM     13  F   UNL d   1       5.374  -3.161   1.990  0.00  0.00    -0.166 F 
ATOM     14  F   UNL d   1       7.252  -3.103   0.901  0.00  0.00    -0.166 F 
ATOM     15  F   UNL d   1       7.000  -4.489   2.557  0.00  0.00    -0.166 F 
ENDBRANCH   7  12
ENDBRANCH   1   5
BRANCH   2  16
ATOM     16  C   UNL d   1       0.234  -6.693  -0.199  0.00  0.00     0.133 C 
BRANCH  16  17
ATOM     17  C   UNL d   1      -0.825  -5.584  -0.184  0.00  0.00     0.282 C 
BRANCH  17  18
ATOM     18  N   UNL d   1      -2.225  -6.024  -0.317  0.00  0.00     0.093 N 
ATOM     19  C   UNL d   1      -2.511  -6.865  -1.495  0.00  0.00     0.298 C 
ATOM     20  C   UNL d   1      -2.458  -6.105  -2.828  0.00  0.00     0.198 C 
ATOM     21  O   UNL d   1      -3.361  -4.993  -2.828  0.00  0.00    -0.388 OA
ATOM     22  C   UNL d   1      -3.083  -4.105  -1.738  0.00  0.00     0.198 C 
ATOM     23  C   UNL d   1      -3.123  -4.840  -0.382  0.00  0.00     0.298 C 
ENDBRANCH  17  18
ENDBRANCH  16  17
ENDBRANCH   2  16
TORSDOF 5
