REMARK  6 active torsions:
REMARK  status: ('A' for Active; 'I' for Inactive)
REMARK    1  A    between atoms: C_4  and  C_1 
REMARK    2  A    between atoms: N_2  and  C_3 
REMARK    3  A    between atoms: C_5  and  C_4 
REMARK    4  A    between atoms: C_6  and  C_4 
REMARK    5  A    between atoms: O_13  and  C_5 
REMARK    6  A    between atoms: O_14  and  C_6 
ROOT
ATOM      1  C   UNL d   1      -0.588   1.214   0.071  0.00  0.00     0.066 A 
ATOM      2  C   UNL d   1       0.709   1.153   0.604  0.00  0.00     0.126 A 
ATOM      3  N   UNL d   1      -1.153   0.099  -0.499  0.00  0.00    -0.366 N 
ATOM      4  HN  UNL d   1      -2.106   0.133  -0.862  1.00  0.00     0.165 HD
ATOM      5  C   UNL d   1       1.437  -0.047   0.484  0.00  0.00     0.039 A 
ATOM      6  C   UNL d   1      -0.436  -1.044  -0.574  0.00  0.00     0.088 A 
ATOM      7  C   UNL d   1       0.857  -1.160  -0.115  0.00  0.00     0.020 A 
ENDROOT
BRANCH   1   8
ATOM      8  C   UNL d   1      -1.521   2.412   0.026  0.00  0.00     0.237 C 
BRANCH   8   9
ATOM      9  C   UNL d   1      -2.295   2.562   1.312  0.00  0.00     0.278 C 
ATOM     10  O   UNL d   1      -1.911   2.214   2.422  0.00  0.00    -0.264 OA
BRANCH   9  11
ATOM     11  O   UNL d   1      -3.534   3.086   1.055  0.00  0.00    -0.326 OA
ATOM     12  C   UNL d   1      -4.395   3.180   2.191  0.00  0.00     0.213 C 
ENDBRANCH   9  11
ENDBRANCH   8   9
BRANCH   8  13
ATOM     13  C   UNL d   1      -0.887   3.661  -0.524  0.00  0.00     0.278 C 
ATOM     14  O   UNL d   1       0.042   3.647  -1.327  0.00  0.00    -0.264 OA
BRANCH  13  15
ATOM     15  O   UNL d   1      -1.490   4.793  -0.072  0.00  0.00    -0.326 OA
ATOM     16  C   UNL d   1      -0.907   6.029  -0.498  0.00  0.00     0.213 C 
ENDBRANCH  13  15
ENDBRANCH   8  13
ENDBRANCH   1   8
BRANCH   2  17
ATOM     17  N   UNL d   1       1.366   2.266   1.300  0.00  0.00    -0.114 N 
ATOM     18  O   UNL d   1       0.688   3.250   1.615  0.00  0.00    -0.532 OA
ATOM     19  O   UNL d   1       2.573   2.152   1.553  0.00  0.00    -0.532 OA
ENDBRANCH   2  17
TORSDOF 6
