REMARK  3 active torsions:
REMARK  status: ('A' for Active; 'I' for Inactive)
REMARK    1  A    between atoms: C_7  and  C_1 
REMARK       I    between atoms: C_4  and  N_3 
REMARK       I    between atoms: N_8  and  C_4 
REMARK    2  A    between atoms: C_6  and  C_5 
REMARK       I    between atoms: N_17  and  C_7 
REMARK    3  A    between atoms: C_16  and  N_8 
ROOT
ATOM      1  C   UNL d   1       0.808  -1.196  -0.130  0.00  0.00     0.038 C 
ATOM      2  C   UNL d   1      -0.511  -1.170  -0.395  0.00  0.00     0.109 C 
ATOM      3  N   UNL d   1      -1.280  -0.014  -0.292  0.00  0.00    -0.309 N 
ATOM      4  C   UNL d   1      -2.670   0.102  -0.503  0.00  0.00     0.326 C 
ATOM      5  C   UNL d   1       1.613   0.054   0.180  0.00  0.00     0.135 C 
ATOM      6  N   UNL d   1      -3.315  -1.015  -0.989  0.00  0.00    -0.309 N 
ATOM      7  C   UNL d   1       0.836   1.298  -0.262  0.00  0.00     0.039 C 
ATOM      8  C   UNL d   1      -0.617   1.211   0.187  0.00  0.00     0.134 C 
ATOM      9  O   UNL d   1      -3.248   1.171  -0.278  0.00  0.00    -0.246 OA
ATOM     10  H   UNL d   1      -2.877  -1.907  -0.853  0.00  0.00     0.170 HD
ENDROOT
BRANCH   1  11
ATOM     11  C   UNL d   1       1.619  -2.448  -0.182  0.00  0.00     0.247 C 
ATOM     12  O   UNL d   1       2.842  -2.408  -0.227  0.00  0.00    -0.268 OA
ATOM     13  N   UNL d   1       0.966  -3.636  -0.103  0.00  0.00    -0.366 N 
ATOM     14  H   UNL d   1      -0.005  -3.738   0.147  0.00  0.00     0.159 HD
ATOM     15  H   UNL d   1       1.553  -4.457  -0.028  0.00  0.00     0.159 HD
ENDBRANCH   1  11
BRANCH   6  16
ATOM     16  C   UNL d   1      -4.615  -1.063  -1.549  0.00  0.00     0.036 A 
ATOM     17  C   UNL d   1      -5.365   0.075  -1.865  0.00  0.00     0.031 A 
ATOM     18  C   UNL d   1      -6.598  -0.038  -2.517  0.00  0.00     0.026 A 
ATOM     19  C   UNL d   1      -7.091  -1.293  -2.855  0.00  0.00     0.034 A 
ATOM     20  C   UNL d   1      -6.375  -2.439  -2.517  0.00  0.00     0.026 A 
ATOM     21 CL   UNL d   1      -8.574  -1.427  -3.714  0.00  0.00    -0.084 Cl
ATOM     22  C   UNL d   1      -5.141  -2.323  -1.866  0.00  0.00     0.031 A 
ENDBRANCH   6  16
BRANCH   5  23
ATOM     23  C   UNL d   1       2.060   0.129   1.646  0.00  0.00     0.395 C 
ATOM     24  F   UNL d   1       1.729  -0.973   2.355  0.00  0.00    -0.170 F 
ATOM     25  F   UNL d   1       3.401   0.283   1.734  0.00  0.00    -0.170 F 
ATOM     26  F   UNL d   1       1.504   1.185   2.288  0.00  0.00    -0.170 F 
ENDBRANCH   5  23
TORSDOF 3
