REMARK  9 active torsions:
REMARK  status: ('A' for Active; 'I' for Inactive)
REMARK    1  A    between atoms: C_7  and  N_1 
REMARK    2  A    between atoms: C_8  and  C_4 
REMARK    3  A    between atoms: C_9  and  C_6 
REMARK       I    between atoms: C_10  and  N_11 
REMARK    4  A    between atoms: C_22  and  C_10 
REMARK    5  A    between atoms: N_11  and  C_17 
REMARK    6  A    between atoms: C_12  and  C_23 
REMARK    7  A    between atoms: O_19  and  C_12 
REMARK    8  A    between atoms: O_18  and  C_22 
REMARK    9  A    between atoms: C_23  and  O_18 
ROOT
ATOM      1  C   UNL d   1       2.240  -1.286  -0.088  0.00  0.00     0.056 A 
ATOM      2  C   UNL d   1       3.394  -0.747   0.495  0.00  0.00     0.034 A 
ATOM      3  C   UNL d   1       2.388  -2.383  -0.925  0.00  0.00     0.034 A 
ATOM      4  C   UNL d   1       4.768  -2.472  -0.556  0.00  0.00     0.034 A 
ATOM      5  C   UNL d   1       4.649  -1.346   0.271  0.00  0.00     0.032 A 
ATOM      6  C   UNL d   1       3.620  -2.984  -1.138  0.00  0.00     0.032 A 
ENDROOT
BRANCH   1   7
ATOM      7  N   UNL d   1       0.958  -0.687   0.091  0.00  0.00    -0.260 N 
ATOM      8  N   UNL d   1       0.927   0.650   0.362  0.00  0.00    -0.297 N 
ATOM      9  C   UNL d   1      -0.313   1.047   0.077  0.00  0.00     0.036 C 
ATOM     10  HN  UNL d   1       1.693   1.225   0.711  1.00  0.00     0.187 HD
ATOM     11  C   UNL d   1      -1.144  -0.067  -0.157  0.00  0.00     0.055 C 
ATOM     12  C   UNL d   1      -0.349  -1.201  -0.053  0.00  0.00     0.044 C 
BRANCH   9  13
ATOM     13  C   UNL d   1      -0.713   2.517   0.065  0.00  0.00    -0.007 C 
ATOM     14  C   UNL d   1       0.493   3.454   0.287  0.00  0.00     0.021 C 
ATOM     15  C   UNL d   1      -1.341   2.879  -1.299  0.00  0.00     0.021 C 
ATOM     16  C   UNL d   1      -1.748   2.798   1.172  0.00  0.00     0.021 C 
ENDBRANCH   9  13
BRANCH  12  17
ATOM     17  C   UNL d   1      -0.833  -2.665  -0.030  0.00  0.00    -0.007 C 
ATOM     18  C   UNL d   1      -0.027  -3.558   0.937  0.00  0.00     0.021 C 
ATOM     19  C   UNL d   1      -2.290  -2.721   0.525  0.00  0.00     0.021 C 
ATOM     20  C   UNL d   1      -0.963  -3.268  -1.448  0.00  0.00     0.021 C 
ENDBRANCH  12  17
ENDBRANCH   1   7
BRANCH   4  21
ATOM     21  N   UNL d   1       6.034  -3.035  -0.796  0.00  0.00    -0.325 N 
ATOM     22  C   UNL d   1       6.313  -4.087  -1.665  0.00  0.00     0.245 C 
ATOM     23  O   UNL d   1       5.521  -4.702  -2.372  0.00  0.00    -0.271 OA
ATOM     24  H   UNL d   1       6.820  -2.634  -0.301  0.00  0.00     0.169 HD
BRANCH  22  25
ATOM     25  C   UNL d   1       7.796  -4.405  -1.743  0.00  0.00     0.271 C 
BRANCH  25  26
ATOM     26  O   UNL d   1       8.363  -4.559  -0.437  0.00  0.00    -0.372 OA
BRANCH  26  27
ATOM     27  C   UNL d   1       9.675  -5.118  -0.524  0.00  0.00     0.277 C 
BRANCH  27  28
ATOM     28  C   UNL d   1      10.658  -4.043  -0.961  0.00  0.00     0.164 C 
ATOM     29  O   UNL d   1      11.495  -4.181  -1.832  0.00  0.00    -0.648 OA
BRANCH  28  30
ATOM     30  O   UNL d   1      10.464  -2.882  -0.284  0.00  0.00    -0.775 OA
ATOM     31  H   UNL d   1       9.720  -2.974   0.344  0.00  0.00     0.167 HD
ENDBRANCH  28  30
ENDBRANCH  27  28
ENDBRANCH  26  27
ENDBRANCH  25  26
ENDBRANCH  22  25
ENDBRANCH   4  21
TORSDOF 9
