REMARK  3 active torsions:
REMARK  status: ('A' for Active; 'I' for Inactive)
REMARK    1  A    between atoms: N_5  and  N_1 
REMARK    2  A    between atoms: C_6  and  N_3 
REMARK    3  A    between atoms: O_15  and  C_7 
ROOT
ATOM      1  N   UNL d   1       0.969   0.024  -0.208  0.00  0.00    -0.244 N 
ATOM      2  HN  UNL d   1       0.511  -0.658  -0.813  1.00  0.00     0.208 HD
ATOM      3  N   UNL d   1       0.380   0.999   0.301  0.00  0.00    -0.284 N 
ATOM      4  HN  UNL d   1       0.855   1.745   0.809  1.00  0.00     0.188 HD
ENDROOT
BRANCH   3   5
ATOM      5  C   UNL d   1      -1.014   0.955   0.094  0.00  0.00     0.083 A 
ATOM      6  C   UNL d   1      -1.753   2.075  -0.340  0.00  0.00     0.097 A 
ATOM      7  C   UNL d   1      -3.156   1.996  -0.416  0.00  0.00     0.063 A 
ATOM      8  C   UNL d   1      -3.829   0.830  -0.065  0.00  0.00     0.036 A 
ATOM      9  C   UNL d   1      -3.119  -0.282   0.361  0.00  0.00     0.026 A 
ATOM     10 CL   UNL d   1      -5.546   0.773  -0.139  0.00  0.00    -0.084 Cl
ATOM     11  C   UNL d   1      -1.725  -0.214   0.443  0.00  0.00     0.035 A 
BRANCH   6  12
ATOM     12  O   UNL d   1      -1.299   3.316  -0.708  0.00  0.00    -0.354 OA
ATOM     13  C   UNL d   1       0.097   3.561  -0.741  0.00  0.00     0.210 C 
ENDBRANCH   6  12
ENDBRANCH   3   5
BRANCH   1  14
ATOM     14  N   UNL d   1       2.291  -0.035   0.130  0.00  0.00    -0.309 N 
ATOM     15  C   UNL d   1       3.082   1.144   0.485  0.00  0.00     0.170 C 
ATOM     16  C   UNL d   1       3.973   1.556  -0.691  0.00  0.00     0.189 C 
ATOM     17  O   UNL d   1       4.795   0.456  -1.125  0.00  0.00    -0.388 OA
ATOM     18  C   UNL d   1       3.978  -0.649  -1.554  0.00  0.00     0.189 C 
ATOM     19  C   UNL d   1       3.066  -1.139  -0.425  0.00  0.00     0.170 C 
ENDBRANCH   1  14
TORSDOF 3
