REMARK  4 active torsions:
REMARK  status: ('A' for Active; 'I' for Inactive)
REMARK    1  A    between atoms: C_10  and  N_2 
REMARK    2  A    between atoms: C_8  and  C_14 
REMARK    3  A    between atoms: O_22  and  C_11 
REMARK    4  A    between atoms: O_23  and  C_18 
ROOT
ATOM      1  C   UNL d   1      -0.916  -0.520  -0.070  0.00  0.00     0.056 A 
ATOM      2  N   UNL d   1      -1.745  -1.679  -0.153  0.00  0.00    -0.345 N 
ATOM      3  C   UNL d   1       0.496  -0.393  -0.110  0.00  0.00     0.024 A 
ATOM      4  N   UNL d   1       0.228   2.000   0.101  0.00  0.00    -0.356 N 
ATOM      5  HN  UNL d   1       0.642   2.928   0.189  1.00  0.00     0.166 HD
ATOM      6  C   UNL d   1       1.036   0.916   0.021  0.00  0.00     0.079 A 
ATOM      7  C   UNL d   1      -1.696   0.635   0.003  0.00  0.00    -0.007 A 
ATOM      8  C   UNL d   1      -1.112   1.875   0.065  0.00  0.00     0.014 A 
ATOM      9  C   UNL d   1       2.443   1.054   0.050  0.00  0.00     0.098 A 
ATOM     10  C   UNL d   1      -3.145  -1.204  -0.064  0.00  0.00     0.134 A 
ATOM     11  C   UNL d   1      -3.147   0.323  -0.029  0.00  0.00     0.063 A 
ATOM     12  C   UNL d   1       3.293  -0.062  -0.015  0.00  0.00     0.075 A 
ATOM     13  C   UNL d   1       1.392  -1.471  -0.290  0.00  0.00     0.053 A 
ATOM     14  C   UNL d   1       2.773  -1.330  -0.186  0.00  0.00     0.071 A 
ATOM     15  C   UNL d   1      -1.919   3.135   0.079  0.00  0.00     0.068 C 
ENDROOT
BRANCH   2  16
ATOM     16  C   UNL d   1      -1.565  -3.051   0.094  0.00  0.00     0.035 A 
ATOM     17  C   UNL d   1      -0.609  -3.542   0.990  0.00  0.00     0.045 A 
ATOM     18  C   UNL d   1      -0.362  -4.920   1.134  0.00  0.00     0.050 A 
ATOM     19  C   UNL d   1      -1.167  -5.832   0.439  0.00  0.00     0.016 A 
ATOM     20  C   UNL d   1      -2.177  -5.373  -0.398  0.00  0.00     0.003 A 
ATOM     21  C   UNL d   1      -2.360  -4.000  -0.576  0.00  0.00     0.029 A 
BRANCH  18  22
ATOM     22  C   UNL d   1       0.768  -5.420   1.996  0.00  0.00     0.417 C 
ATOM     23  F   UNL d   1       1.535  -4.430   2.531  0.00  0.00    -0.166 F 
ATOM     24  F   UNL d   1       0.328  -6.161   3.051  0.00  0.00    -0.166 F 
ATOM     25  F   UNL d   1       1.628  -6.226   1.311  0.00  0.00    -0.166 F 
ENDBRANCH  18  22
ENDBRANCH   2  16
BRANCH   9  26
ATOM     26  O   UNL d   1       3.173   2.221   0.153  0.00  0.00    -0.354 OA
ATOM     27  C   UNL d   1       2.487   3.464   0.097  0.00  0.00     0.210 C 
ENDBRANCH   9  26
BRANCH  14  28
ATOM     28  O   UNL d   1       3.480  -2.496  -0.260  0.00  0.00    -0.356 OA
ATOM     29  C   UNL d   1       4.888  -2.411  -0.071  0.00  0.00     0.210 C 
ENDBRANCH  14  28
TORSDOF 4
