REMARK  8 active torsions:
REMARK  status: ('A' for Active; 'I' for Inactive)
REMARK    1  A    between atoms: N_6  and  C_1 
REMARK    2  A    between atoms: C_11  and  C_3 
REMARK    3  A    between atoms: C_4  and  C_8 
REMARK    4  A    between atoms: C_5  and  C_9 
REMARK       I    between atoms: C_12  and  N_6 
REMARK    5  A    between atoms: C_22  and  C_7 
REMARK    6  A    between atoms: O_23  and  C_12 
REMARK    7  A    between atoms: C_19  and  C_30 
REMARK    8  A    between atoms: C_30  and  O_23 
ROOT
ATOM      1  C   UNL d   1       0.620   9.313  -0.796  0.00  0.00     0.086 A 
ATOM      2  O   UNL d   1       0.959   8.042  -1.170  0.00  0.00    -0.312 OA
ATOM      3  C   UNL d   1       0.533   9.380   0.581  0.00  0.00     0.040 A 
ATOM      4  C   UNL d   1       1.110   7.306  -0.033  0.00  0.00     0.078 A 
ATOM      5  C   UNL d   1       0.867   8.094   1.070  0.00  0.00     0.038 A 
ENDROOT
BRANCH   4   6
ATOM      6  C   UNL d   1       1.475   5.871  -0.204  0.00  0.00     0.245 C 
BRANCH   6   7
ATOM      7  O   UNL d   1       0.285   5.094  -0.001  0.00  0.00    -0.297 OA
BRANCH   7   8
ATOM      8  C   UNL d   1      -0.004   4.889   1.311  0.00  0.00     0.365 C 
ATOM      9  N   UNL d   1      -1.318   4.518   1.430  0.00  0.00    -0.297 N 
ATOM     10  H   UNL d   1      -1.771   4.185   0.592  0.00  0.00     0.171 HD
ATOM     11  O   UNL d   1       0.805   5.060   2.213  0.00  0.00    -0.238 OA
BRANCH   9  12
ATOM     12  C   UNL d   1      -2.082   4.712   2.565  0.00  0.00     0.079 A 
ATOM     13  S   UNL d   1      -1.557   5.780   3.770  0.00  0.00    -0.072 SA
ATOM     14  C   UNL d   1      -2.964   5.571   4.722  0.00  0.00     0.017 A 
ATOM     15  C   UNL d   1      -3.833   4.695   4.091  0.00  0.00     0.022 A 
ATOM     16  C   UNL d   1      -3.337   4.223   2.832  0.00  0.00     0.039 A 
BRANCH  14  17
ATOM     17  C   UNL d   1      -3.110   6.313   5.990  0.00  0.00    -0.019 A 
ATOM     18  C   UNL d   1      -4.384   6.614   6.494  0.00  0.00     0.013 A 
ATOM     19  C   UNL d   1      -4.535   7.339   7.682  0.00  0.00     0.001 A 
ATOM     20  C   UNL d   1      -3.415   7.777   8.383  0.00  0.00     0.000 A 
ATOM     21  C   UNL d   1      -2.143   7.488   7.904  0.00  0.00     0.001 A 
ATOM     22  C   UNL d   1      -1.993   6.758   6.723  0.00  0.00     0.013 A 
ENDBRANCH  14  17
ENDBRANCH   9  12
ENDBRANCH   7   8
ENDBRANCH   6   7
ENDBRANCH   4   6
BRANCH   1  23
ATOM     23  C   UNL d   1       0.479  10.286  -1.876  0.00  0.00    -0.001 A 
ATOM     24  C   UNL d   1       0.530   9.892  -3.221  0.00  0.00     0.030 A 
ATOM     25  C   UNL d   1       0.478  10.832  -4.264  0.00  0.00     0.049 A 
ATOM     26  C   UNL d   1       0.361  12.194  -3.945  0.00  0.00     0.032 A 
ATOM     27  C   UNL d   1       0.299  12.616  -2.608  0.00  0.00     0.049 A 
ATOM     28  C   UNL d   1       0.347  11.651  -1.587  0.00  0.00     0.030 A 
BRANCH  25  29
ATOM     29  C   UNL d   1       0.584  10.365  -5.696  0.00  0.00     0.417 C 
ATOM     30  F   UNL d   1       0.566  11.384  -6.599  0.00  0.00    -0.166 F 
ATOM     31  F   UNL d   1       1.734   9.677  -5.934  0.00  0.00    -0.166 F 
ATOM     32  F   UNL d   1      -0.433   9.533  -6.051  0.00  0.00    -0.166 F 
ENDBRANCH  25  29
BRANCH  27  33
ATOM     33  C   UNL d   1       0.214  14.079  -2.247  0.00  0.00     0.417 C 
ATOM     34  F   UNL d   1       0.276  14.910  -3.323  0.00  0.00    -0.166 F 
ATOM     35  F   UNL d   1      -0.941  14.389  -1.598  0.00  0.00    -0.166 F 
ATOM     36  F   UNL d   1       1.224  14.465  -1.419  0.00  0.00    -0.166 F 
ENDBRANCH  27  33
ENDBRANCH   1  23
TORSDOF 8
