REMARK  2 active torsions:
REMARK  status: ('A' for Active; 'I' for Inactive)
REMARK    1  A    between atoms: C_4  and  C_3 
REMARK    2  A    between atoms: O_11  and  C_7 
ROOT
ATOM      1  C   UNL d   1      -0.903  -0.581  -0.150  0.00  0.00     0.228 C 
ATOM      2  N   UNL d   1      -0.771   0.803  -0.146  0.00  0.00    -0.356 N 
ATOM      3  C   UNL d   1       0.315  -1.410  -0.600  0.00  0.00     0.111 C 
ATOM      4  O   UNL d   1      -1.965  -1.112   0.188  0.00  0.00    -0.273 OA
ATOM      5  C   UNL d   1      -1.912   1.617   0.252  0.00  0.00     0.152 C 
ATOM      6  C   UNL d   1       0.422   1.518  -0.582  0.00  0.00     0.125 C 
ATOM      7  C   UNL d   1       1.512  -1.245   0.356  0.00  0.00     0.019 C 
ATOM      8  C   UNL d   1       1.602   1.315   0.359  0.00  0.00     0.020 C 
ATOM      9  C   UNL d   1       2.345   0.009   0.107  0.00  0.00     0.003 C 
ENDROOT
BRANCH   3  10
ATOM     10  C   UNL d   1      -0.008  -2.900  -0.736  0.00  0.00    -0.042 A 
ATOM     11  C   UNL d   1       0.119  -3.530  -1.985  0.00  0.00     0.044 A 
ATOM     12  C   UNL d   1      -0.103  -4.904  -2.119  0.00  0.00     0.068 A 
ATOM     13  C   UNL d   1      -0.477  -5.650  -0.999  0.00  0.00     0.037 A 
ATOM     14  C   UNL d   1      -0.628  -5.036   0.243  0.00  0.00     0.003 A 
ATOM     15  C   UNL d   1      -0.391  -3.670   0.375  0.00  0.00     0.008 A 
BRANCH  12  16
ATOM     16  O   UNL d   1       0.025  -5.625  -3.276  0.00  0.00    -0.356 OA
ATOM     17  C   UNL d   1       0.422  -4.903  -4.435  0.00  0.00     0.210 C 
ENDBRANCH  12  16
ENDBRANCH   3  10
TORSDOF 2
