REMARK  6 active torsions:
REMARK  status: ('A' for Active; 'I' for Inactive)
REMARK    1  A    between atoms: S_9  and  C_1 
REMARK    2  A    between atoms: C_8  and  N_2 
REMARK    3  A    between atoms: C_10  and  C_3 
REMARK    4  A    between atoms: C_13  and  S_9 
REMARK    5  A    between atoms: O_20  and  C_10 
REMARK    6  A    between atoms: C_25  and  O_20 
ROOT
ATOM      1  C   UNL d   1      -0.282  -1.369   0.003  0.00  0.00     0.135 A 
ATOM      2  N   UNL d   1       0.964  -0.763   0.129  0.00  0.00    -0.233 N 
ATOM      3  C   UNL d   1      -1.184  -0.321   0.085  0.00  0.00     0.161 A 
ATOM      4  N   UNL d   1       0.788   0.561   0.395  0.00  0.00    -0.234 N 
ATOM      5  HN  UNL d   1       1.529   1.225   0.618  1.00  0.00     0.209 HD
ATOM      6  N   UNL d   1      -0.498   0.844   0.317  0.00  0.00    -0.278 N 
ATOM      7  HN  UNL d   1      -0.913   1.771   0.412  1.00  0.00     0.189 HD
ENDROOT
BRANCH   1   8
ATOM      8  S   UNL d   1      -0.564  -3.079  -0.163  0.00  0.00    -0.050 SA
BRANCH   8   9
ATOM      9  C   UNL d   1       0.065  -3.713   1.393  0.00  0.00     0.075 A 
ATOM     10  N   UNL d   1       0.672  -2.869   2.256  0.00  0.00    -0.360 N 
ATOM     11  C   UNL d   1       1.155  -3.393   3.406  0.00  0.00     0.089 A 
ATOM     12  HN  UNL d   1       0.763  -1.875   2.048  1.00  0.00     0.166 HD
ATOM     13  C   UNL d   1       1.063  -4.736   3.743  0.00  0.00     0.017 A 
ATOM     14  C   UNL d   1       0.438  -5.590   2.845  0.00  0.00     0.004 A 
ATOM     15  C   UNL d   1      -0.069  -5.075   1.651  0.00  0.00     0.037 A 
ENDBRANCH   8   9
ENDBRANCH   1   8
BRANCH   2  16
ATOM     16  C   UNL d   1       2.294  -1.246  -0.011  0.00  0.00     0.062 A 
ATOM     17  C   UNL d   1       2.613  -2.357  -0.798  0.00  0.00     0.055 A 
ATOM     18  C   UNL d   1       3.935  -2.807  -0.853  0.00  0.00     0.037 A 
ATOM     19 CL   UNL d   1       4.325  -4.174  -1.824  0.00  0.00    -0.084 Cl
ATOM     20  C   UNL d   1       4.942  -2.164  -0.138  0.00  0.00     0.048 A 
ATOM     21  C   UNL d   1       4.627  -1.038   0.616  0.00  0.00     0.037 A 
ATOM     22  C   UNL d   1       3.320  -0.564   0.667  0.00  0.00     0.055 A 
ATOM     23 CL   UNL d   1       5.857  -0.240   1.515  0.00  0.00    -0.084 Cl
ENDBRANCH   2  16
BRANCH   3  24
ATOM     24  C   UNL d   1      -2.628  -0.333  -0.076  0.00  0.00     0.314 C 
ATOM     25  O   UNL d   1      -3.295  -1.337  -0.297  0.00  0.00    -0.257 OA
BRANCH  24  26
ATOM     26  O   UNL d   1      -3.137   0.935  -0.055  0.00  0.00    -0.317 OA
BRANCH  26  27
ATOM     27  C   UNL d   1      -4.428   1.106  -0.648  0.00  0.00     0.175 C 
ATOM     28  C   UNL d   1      -4.243   1.311  -2.142  0.00  0.00     0.034 C 
ENDBRANCH  26  27
ENDBRANCH  24  26
ENDBRANCH   3  24
TORSDOF 6
