REMARK  2 active torsions:
REMARK  status: ('A' for Active; 'I' for Inactive)
REMARK    1  A    between atoms: C_6  and  C_1 
REMARK    2  A    between atoms: C_17  and  C_12 
ROOT
ATOM      1  C   UNL d   1       2.803  -4.419  -1.167  0.00  0.00    -0.042 A 
ATOM      2  C   UNL d   1       3.812  -4.556  -0.196  0.00  0.00    -0.043 A 
ATOM      3  C   UNL d   1       1.978  -2.375  -0.024  0.00  0.00    -0.002 A 
ATOM      4  C   UNL d   1       1.946  -3.300  -1.084  0.00  0.00     0.022 A 
ATOM      5  C   UNL d   1       3.825  -3.645   0.884  0.00  0.00     0.016 A 
ATOM      6  C   UNL d   1       2.909  -2.578   1.006  0.00  0.00    -0.045 A 
ATOM      7  C   UNL d   1       2.619  -5.413  -2.320  0.00  0.00    -0.020 C 
ATOM      8  C   UNL d   1       4.866  -5.670  -0.261  0.00  0.00    -0.020 C 
ATOM      9  C   UNL d   1       3.433  -6.705  -2.091  0.00  0.00     0.015 C 
ATOM     10  C   UNL d   1       4.846  -6.410  -1.619  0.00  0.00     0.015 C 
ATOM     11  C   UNL d   1       3.049  -4.738  -3.640  0.00  0.00     0.020 C 
ATOM     12  C   UNL d   1       1.139  -5.852  -2.453  0.00  0.00     0.020 C 
ATOM     13  C   UNL d   1       4.611  -6.676   0.884  0.00  0.00     0.020 C 
ATOM     14  C   UNL d   1       6.295  -5.098  -0.102  0.00  0.00     0.020 C 
ENDROOT
BRANCH   3  15
ATOM     15  C   UNL d   1       1.044  -1.247  -0.051  0.00  0.00     0.050 A 
ATOM     16  N   UNL d   1       1.406   0.022   0.372  0.00  0.00    -0.353 N 
ATOM     17  C   UNL d   1       0.409   0.863   0.203  0.00  0.00     0.047 A 
ATOM     18  HN  UNL d   1       2.317   0.268   0.760  1.00  0.00     0.166 HD
ATOM     19  C   UNL d   1       0.460   2.310   0.546  0.00  0.00     0.076 C 
ATOM     20  S   UNL d   1      -1.016   0.193  -0.481  0.00  0.00    -0.087 SA
ATOM     21  C   UNL d   1      -0.251  -1.338  -0.534  0.00  0.00     0.081 A 
ENDBRANCH   3  15
BRANCH   6  22
ATOM     22  C   UNL d   1       2.969  -1.735   2.261  0.00  0.00     0.035 C 
ATOM     23  C   UNL d   1       4.016  -0.634   2.206  0.00  0.00     0.010 C 
ENDBRANCH   6  22
TORSDOF 2
