REMARK  4 active torsions:
REMARK  status: ('A' for Active; 'I' for Inactive)
REMARK    1  A    between atoms: C_5  and  C_1 
REMARK    2  A    between atoms: C_9  and  C_2 
REMARK    3  A    between atoms: N_12  and  C_6 
REMARK    4  A    between atoms: C_8  and  C_10 
ROOT
ATOM      1  C   UNL d   1      -0.516   0.614  -0.567  0.00  0.00     0.136 A 
ATOM      2  C   UNL d   1      -1.643  -0.043  -0.071  0.00  0.00     0.050 A 
ATOM      3  N   UNL d   1       0.668  -0.140  -0.488  0.00  0.00    -0.332 N 
ATOM      4  HN  UNL d   1       1.579   0.180  -0.818  1.00  0.00     0.168 HD
ATOM      5  C   UNL d   1       0.452  -1.304   0.064  0.00  0.00     0.143 A 
ATOM      6  S   UNL d   1      -1.170  -1.617   0.476  0.00  0.00    -0.051 SA
ENDROOT
BRANCH   2   7
ATOM      7  C   UNL d   1      -3.062   0.352   0.036  0.00  0.00    -0.016 A 
ATOM      8  C   UNL d   1      -3.829   0.010   1.167  0.00  0.00     0.029 A 
ATOM      9  C   UNL d   1      -5.184   0.372   1.280  0.00  0.00     0.048 A 
ATOM     10  C   UNL d   1      -5.769   1.129   0.258  0.00  0.00     0.016 A 
ATOM     11  C   UNL d   1      -5.027   1.475  -0.869  0.00  0.00     0.002 A 
ATOM     12  C   UNL d   1      -3.695   1.068  -0.989  0.00  0.00     0.013 A 
BRANCH   9  13
ATOM     13  C   UNL d   1      -6.010  -0.055   2.469  0.00  0.00     0.417 C 
ATOM     14  F   UNL d   1      -5.324  -0.818   3.365  0.00  0.00    -0.166 F 
ATOM     15  F   UNL d   1      -6.499   1.002   3.174  0.00  0.00    -0.166 F 
ATOM     16  F   UNL d   1      -7.095  -0.795   2.106  0.00  0.00    -0.166 F 
ENDBRANCH   9  13
ENDBRANCH   2   7
BRANCH   1  17
ATOM     17  C   UNL d   1      -0.410   1.993  -1.157  0.00  0.00     0.434 C 
ATOM     18  F   UNL d   1      -1.512   2.763  -0.968  0.00  0.00    -0.165 F 
ATOM     19  F   UNL d   1       0.629   2.697  -0.633  0.00  0.00    -0.165 F 
ATOM     20  F   UNL d   1      -0.208   1.942  -2.503  0.00  0.00    -0.165 F 
ENDBRANCH   1  17
BRANCH   5  21
ATOM     21  N   UNL d   1       1.421  -2.200   0.281  0.00  0.00    -0.380 N 
ATOM     22  H   UNL d   1       2.288  -2.063  -0.226  0.00  0.00     0.158 HD
ATOM     23  H   UNL d   1       1.167  -3.168   0.436  0.00  0.00     0.158 HD
ENDBRANCH   5  21
TORSDOF 4
