REMARK  5 active torsions:
REMARK  status: ('A' for Active; 'I' for Inactive)
REMARK    1  A    between atoms: S_10  and  C_1 
REMARK    2  A    between atoms: C_5  and  C_4 
REMARK    3  A    between atoms: C_9  and  C_5 
REMARK    4  A    between atoms: C_8  and  S_10 
REMARK    5  A    between atoms: O_20  and  C_16 
ROOT
ATOM      1  C   UNL d   1       4.275   3.559  -0.164  0.00  0.00     0.063 C 
ATOM      2  C   UNL d   1       3.373   2.596   0.070  0.00  0.00     0.057 C 
ENDROOT
BRANCH   1   3
ATOM      3  C   UNL d   1       5.755   3.401  -0.115  0.00  0.00     0.182 C 
ATOM      4  O   UNL d   1       6.449   4.396   0.085  0.00  0.00    -0.288 OA
BRANCH   3   5
ATOM      5  C   UNL d   1       6.403   2.076  -0.304  0.00  0.00     0.014 A 
ATOM      6  C   UNL d   1       5.854   1.079  -1.119  0.00  0.00     0.018 A 
ATOM      7  C   UNL d   1       6.470  -0.172  -1.217  0.00  0.00     0.037 A 
ATOM      8  C   UNL d   1       7.659  -0.424  -0.534  0.00  0.00     0.068 A 
ATOM      9  C   UNL d   1       8.257   0.598   0.206  0.00  0.00     0.037 A 
ATOM     10  C   UNL d   1       7.630   1.841   0.329  0.00  0.00     0.018 A 
BRANCH   8  11
ATOM     11  O   UNL d   1       8.340  -1.609  -0.566  0.00  0.00    -0.356 OA
ATOM     12  C   UNL d   1       7.524  -2.771  -0.686  0.00  0.00     0.210 C 
ENDBRANCH   8  11
ENDBRANCH   3   5
ENDBRANCH   1   3
BRANCH   2  13
ATOM     13  S   UNL d   1       1.674   2.917  -0.045  0.00  0.00    -0.066 SA
BRANCH  13  14
ATOM     14  C   UNL d   1       1.028   1.362  -0.641  0.00  0.00     0.148 A 
ATOM     15  N   UNL d   1      -0.306   1.313  -0.807  0.00  0.00    -0.341 N 
ATOM     16  C   UNL d   1      -0.834   0.165  -1.275  0.00  0.00     0.008 A 
ATOM     17  HN  UNL d   1      -0.897   2.115  -0.587  1.00  0.00     0.167 HD
ATOM     18  C   UNL d   1      -2.321   0.120  -1.467  0.00  0.00     0.068 C 
ATOM     19  C   UNL d   1      -0.056  -0.933  -1.576  0.00  0.00     0.041 A 
ATOM     20  C   UNL d   1       1.298  -0.786  -1.374  0.00  0.00     0.092 A 
ATOM     21  N   UNL d   1       1.867   0.343  -0.914  0.00  0.00    -0.346 N 
ATOM     22  HN  UNL d   1       2.875   0.424  -0.781  1.00  0.00     0.167 HD
ENDBRANCH  13  14
ENDBRANCH   2  13
TORSDOF 5
