REMARK  1 active torsions:
REMARK  status: ('A' for Active; 'I' for Inactive)
REMARK    1  A    between atoms: C_4  and  N_1 
ROOT
ATOM      1  N   UNL d   1       1.715  -0.731   0.067  0.00  0.00    -0.252 N 
ATOM      2  C   UNL d   1       1.794   0.645   0.093  0.00  0.00     0.232 C 
ATOM      3  C   UNL d   1       0.412  -1.159  -0.068  0.00  0.00     0.240 C 
ATOM      4  C   UNL d   1      -0.510   0.037  -0.052  0.00  0.00     0.050 C 
ATOM      5  C   UNL d   1       0.424   1.234  -0.086  0.00  0.00     0.123 C 
ATOM      6  O   UNL d   1       2.788   1.356   0.174  0.00  0.00    -0.273 OA
ATOM      7  O   UNL d   1      -0.011  -2.308  -0.120  0.00  0.00    -0.272 OA
ATOM      8  C   UNL d   1      -1.514  -0.004  -1.203  0.00  0.00     0.020 C 
ATOM      9  C   UNL d   1      -1.409   0.019   1.188  0.00  0.00     0.020 C 
ATOM     10  C   UNL d   1      -2.639   0.833   0.797  0.00  0.00     0.001 C 
ATOM     11  C   UNL d   1      -2.696   0.831  -0.728  0.00  0.00     0.001 C 
ENDROOT
BRANCH   1  12
ATOM     12  C   UNL d   1       2.842  -1.609   0.149  0.00  0.00     0.048 A 
ATOM     13  C   UNL d   1       4.063  -1.184   0.699  0.00  0.00     0.054 A 
ATOM     14  C   UNL d   1       5.157  -2.053   0.787  0.00  0.00     0.037 A 
ATOM     15 CL   UNL d   1       6.625  -1.503   1.498  0.00  0.00    -0.084 Cl
ATOM     16  C   UNL d   1       5.071  -3.357   0.319  0.00  0.00     0.048 A 
ATOM     17  C   UNL d   1       3.876  -3.791  -0.234  0.00  0.00     0.037 A 
ATOM     18  C   UNL d   1       2.772  -2.935  -0.315  0.00  0.00     0.054 A 
ATOM     19 CL   UNL d   1       3.752  -5.397  -0.840  0.00  0.00    -0.084 Cl
ENDBRANCH   1  12
TORSDOF 1
