REMARK  3 active torsions:
REMARK  status: ('A' for Active; 'I' for Inactive)
REMARK    1  A    between atoms: N_6  and  C_1 
REMARK    2  A    between atoms: C_9  and  C_4 
REMARK    3  A    between atoms: C_10  and  N_7 
ROOT
ATOM      1  C   UNL d   1       0.202  -1.242  -0.025  0.00  0.00     0.147 A 
ATOM      2  N   UNL d   1       0.832  -0.561   0.909  0.00  0.00    -0.336 N 
ATOM      3  HN  UNL d   1       1.278  -0.985   1.723  1.00  0.00     0.168 HD
ATOM      4  C   UNL d   1       0.816   0.797   0.655  0.00  0.00     0.051 A 
ATOM      5  S   UNL d   1      -0.488  -0.238  -1.257  0.00  0.00    -0.064 SA
ATOM      6  C   UNL d   1       0.126   1.156  -0.481  0.00  0.00     0.083 A 
ENDROOT
BRANCH   1   7
ATOM      7  N   UNL d   1       0.157  -2.610  -0.045  0.00  0.00    -0.358 N 
ATOM      8  C   UNL d   1       0.732  -3.275   1.151  0.00  0.00     0.145 C 
ATOM      9  C   UNL d   1       1.006  -4.762   0.877  0.00  0.00     0.143 C 
ATOM     10  N   UNL d   1      -0.236  -5.407   0.412  0.00  0.00    -0.378 N 
ATOM     11  C   UNL d   1      -0.772  -4.810  -0.819  0.00  0.00     0.143 C 
ATOM     12  C   UNL d   1      -1.040  -3.299  -0.583  0.00  0.00     0.145 C 
BRANCH  10  13
ATOM     13  C   UNL d   1      -0.513  -6.697   0.811  0.00  0.00     0.030 A 
ATOM     14  C   UNL d   1      -0.874  -7.715  -0.082  0.00  0.00     0.032 A 
ATOM     15  C   UNL d   1      -1.183  -9.002   0.374  0.00  0.00     0.044 A 
ATOM     16  C   UNL d   1      -1.147  -9.276   1.735  0.00  0.00     0.116 A 
ATOM     17  C   UNL d   1      -0.804  -8.293   2.646  0.00  0.00     0.044 A 
ATOM     18  F   UNL d   1      -1.453 -10.504   2.172  0.00  0.00    -0.206 F 
ATOM     19  C   UNL d   1      -0.487  -7.016   2.181  0.00  0.00     0.032 A 
ENDBRANCH  10  13
ENDBRANCH   1   7
BRANCH   4  20
ATOM     20  C   UNL d   1       1.483   1.732   1.553  0.00  0.00    -0.009 A 
ATOM     21  C   UNL d   1       2.010   2.947   1.096  0.00  0.00     0.015 A 
ATOM     22  C   UNL d   1       2.664   3.815   1.976  0.00  0.00     0.024 A 
ATOM     23  C   UNL d   1       2.793   3.473   3.321  0.00  0.00     0.034 A 
ATOM     24  C   UNL d   1       2.282   2.266   3.792  0.00  0.00     0.024 A 
ATOM     25 CL   UNL d   1       3.595   4.544   4.402  0.00  0.00    -0.084 Cl
ATOM     26  C   UNL d   1       1.633   1.398   2.908  0.00  0.00     0.015 A 
ENDBRANCH   4  20
TORSDOF 3
