REMARK  3 active torsions:
REMARK  status: ('A' for Active; 'I' for Inactive)
REMARK    1  A    between atoms: C_6  and  C_1 
REMARK    2  A    between atoms: C_7  and  C_3 
REMARK    3  A    between atoms: O_12  and  C_6 
ROOT
ATOM      1  C   UNL d   1       1.433   1.014   0.064  0.00  0.00     0.048 C 
ATOM      2  C   UNL d   1       1.323  -0.330  -0.013  0.00  0.00     0.021 C 
ATOM      3  C   UNL d   1       0.225   1.907  -0.175  0.00  0.00     0.069 C 
ATOM      4  N   UNL d   1       0.092  -0.899  -0.261  0.00  0.00    -0.330 N 
ATOM      5  C   UNL d   1      -1.108  -0.252  -0.323  0.00  0.00     0.222 C 
ATOM      6  C   UNL d   1      -1.112   1.193   0.085  0.00  0.00     0.117 C 
ATOM      7  O   UNL d   1      -2.140  -0.864  -0.593  0.00  0.00    -0.273 OA
ATOM      8  C   UNL d   1       2.446  -1.333   0.063  0.00  0.00     0.069 C 
ATOM      9  H   UNL d   1       0.029  -1.901  -0.420  0.00  0.00     0.168 HD
ENDROOT
BRANCH   3  10
ATOM     10  C   UNL d   1       0.203   3.224   0.608  0.00  0.00    -0.043 A 
ATOM     11  C   UNL d   1       0.090   4.496  -0.004  0.00  0.00    -0.055 A 
ATOM     12  C   UNL d   1       0.075   4.741  -1.490  0.00  0.00     0.049 C 
ATOM     13  C   UNL d   1       0.019   5.643   0.810  0.00  0.00     0.007 A 
ATOM     14  C   UNL d   1       0.054   5.554   2.200  0.00  0.00     0.001 A 
ATOM     15  C   UNL d   1       0.179   4.313   2.806  0.00  0.00     0.001 A 
ATOM     16  C   UNL d   1       0.256   3.164   2.021  0.00  0.00     0.008 A 
ENDBRANCH   3  10
BRANCH   1  17
ATOM     17  C   UNL d   1       2.754   1.644   0.332  0.00  0.00     0.291 C 
ATOM     18  O   UNL d   1       3.574   1.198   1.121  0.00  0.00    -0.260 OA
BRANCH  17  19
ATOM     19  O   UNL d   1       2.896   2.770  -0.409  0.00  0.00    -0.323 OA
ATOM     20  C   UNL d   1       4.033   3.580  -0.095  0.00  0.00     0.213 C 
ENDBRANCH  17  19
ENDBRANCH   1  17
TORSDOF 3
