REMARK  7 active torsions:
REMARK  status: ('A' for Active; 'I' for Inactive)
REMARK       I    between atoms: N_4  and  C_1 
REMARK    1  A    between atoms: C_12  and  C_1 
REMARK    2  A    between atoms: C_2  and  C_6 
REMARK    3  A    between atoms: C_5  and  C_2 
REMARK    4  A    between atoms: C_3  and  C_13 
REMARK    5  A    between atoms: O_15  and  C_3 
REMARK    6  A    between atoms: C_6  and  N_4 
REMARK    7  A    between atoms: C_13  and  C_12 
ROOT
ATOM      1  C   UNL d   1       0.603  -0.692  -0.414  0.00  0.00     0.218 C 
ATOM      2  N   UNL d   1       0.451  -0.865   0.937  0.00  0.00    -0.354 N 
ATOM      3  O   UNL d   1       1.056  -1.556  -1.159  0.00  0.00    -0.274 OA
ATOM      4  H   UNL d   1      -0.048  -0.162   1.488  0.00  0.00     0.162 HD
ENDROOT
BRANCH   2   5
ATOM      5  C   UNL d   1       0.942  -2.045   1.622  0.00  0.00     0.206 C 
BRANCH   5   6
ATOM      6  C   UNL d   1      -0.172  -2.813   2.318  0.00  0.00     0.177 C 
ATOM      7  O   UNL d   1      -0.683  -2.427   3.367  0.00  0.00    -0.291 OA
BRANCH   6   8
ATOM      8  C   UNL d   1      -0.673  -4.063   1.689  0.00  0.00     0.011 A 
ATOM      9  C   UNL d   1      -1.045  -5.133   2.514  0.00  0.00     0.018 A 
ATOM     10  C   UNL d   1      -1.542  -6.309   1.947  0.00  0.00     0.043 A 
ATOM     11  C   UNL d   1      -1.682  -6.400   0.567  0.00  0.00     0.116 A 
ATOM     12  C   UNL d   1      -1.327  -5.339  -0.260  0.00  0.00     0.043 A 
ATOM     13  F   UNL d   1      -2.172  -7.521   0.024  0.00  0.00    -0.206 F 
ATOM     14  C   UNL d   1      -0.818  -4.167   0.300  0.00  0.00     0.018 A 
ENDBRANCH   6   8
ENDBRANCH   5   6
ENDBRANCH   2   5
BRANCH   1  15
ATOM     15  C   UNL d   1       0.145   0.648  -0.948  0.00  0.00     0.113 C 
BRANCH  15  16
ATOM     16  C   UNL d   1      -1.366   0.703  -1.118  0.00  0.00     0.119 C 
BRANCH  16  17
ATOM     17  C   UNL d   1      -2.061   1.037   0.178  0.00  0.00     0.139 C 
ATOM     18  O   UNL d   1      -1.506   1.112   1.264  0.00  0.00    -0.650 OA
BRANCH  17  19
ATOM     19  O   UNL d   1      -3.387   1.233   0.024  0.00  0.00    -0.776 OA
ATOM     20  H   UNL d   1      -3.708   1.128  -0.893  0.00  0.00     0.167 HD
ENDBRANCH  17  19
ENDBRANCH  16  17
ENDBRANCH  15  16
ENDBRANCH   1  15
TORSDOF 7
