REMARK  8 active torsions:
REMARK  status: ('A' for Active; 'I' for Inactive)
REMARK    1  A    between atoms: C_2  and  C_1 
REMARK       I    between atoms: N_4  and  C_1 
REMARK    2  A    between atoms: C_9  and  C_2 
REMARK    3  A    between atoms: C_10  and  C_2 
REMARK    4  A    between atoms: O_12  and  C_2 
REMARK    5  A    between atoms: C_3  and  N_5 
REMARK    6  A    between atoms: N_6  and  C_3 
REMARK    7  A    between atoms: N_5  and  N_4 
REMARK    8  A    between atoms: C_11  and  N_6 
ROOT
ATOM      1  C   UNL d   1       0.999   0.154   0.247  0.00  0.00     0.280 C 
ATOM      2  N   UNL d   1       0.288   1.329   0.411  0.00  0.00    -0.265 N 
ATOM      3  O   UNL d   1       2.222   0.163   0.046  0.00  0.00    -0.268 OA
ATOM      4  H   UNL d   1      -0.726   1.365   0.481  0.00  0.00     0.190 HD
ENDROOT
BRANCH   1   5
ATOM      5  C   UNL d   1       0.216  -1.196   0.367  0.00  0.00     0.195 C 
BRANCH   5   6
ATOM      6  C   UNL d   1      -0.605  -1.228   1.666  0.00  0.00    -0.010 A 
ATOM      7  C   UNL d   1      -1.925  -0.742   1.720  0.00  0.00     0.011 A 
ATOM      8  C   UNL d   1      -2.630  -0.705   2.927  0.00  0.00     0.001 A 
ATOM      9  C   UNL d   1      -2.034  -1.163   4.098  0.00  0.00     0.000 A 
ATOM     10  C   UNL d   1      -0.736  -1.659   4.068  0.00  0.00     0.001 A 
ATOM     11  C   UNL d   1      -0.026  -1.685   2.867  0.00  0.00     0.011 A 
ENDBRANCH   5   6
BRANCH   5  12
ATOM     12  C   UNL d   1      -0.600  -1.576  -0.882  0.00  0.00    -0.010 A 
ATOM     13  C   UNL d   1      -0.902  -2.934  -1.119  0.00  0.00     0.011 A 
ATOM     14  C   UNL d   1      -1.691  -3.330  -2.203  0.00  0.00     0.001 A 
ATOM     15  C   UNL d   1      -2.211  -2.376  -3.068  0.00  0.00     0.000 A 
ATOM     16  C   UNL d   1      -1.927  -1.029  -2.860  0.00  0.00     0.001 A 
ATOM     17  C   UNL d   1      -1.123  -0.633  -1.784  0.00  0.00     0.011 A 
ENDBRANCH   5  12
BRANCH   5  18
ATOM     18  O   UNL d   1       1.245  -2.216   0.479  0.00  0.00    -0.371 OA
ATOM     19  H   UNL d   1       2.095  -1.754   0.335  0.00  0.00     0.212 HD
ENDBRANCH   5  18
ENDBRANCH   1   5
BRANCH   2  20
ATOM     20  N   UNL d   1       0.957   2.530   0.160  0.00  0.00    -0.273 N 
ATOM     21  H   UNL d   1       1.937   2.555   0.438  0.00  0.00     0.189 HD
BRANCH  20  22
ATOM     22  C   UNL d   1       0.349   3.614  -0.405  0.00  0.00     0.191 C 
ATOM     23  S   UNL d   1      -1.313   3.796  -0.525  0.00  0.00    -0.039 SA
BRANCH  22  24
ATOM     24  N   UNL d   1       1.146   4.631  -0.852  0.00  0.00    -0.332 N 
ATOM     25  H   UNL d   1       0.633   5.491  -1.021  0.00  0.00     0.168 HD
BRANCH  24  26
ATOM     26  C   UNL d   1       2.511   4.654  -1.212  0.00  0.00     0.034 A 
ATOM     27  C   UNL d   1       3.288   3.511  -1.443  0.00  0.00     0.032 A 
ATOM     28  C   UNL d   1       4.634   3.625  -1.794  0.00  0.00     0.044 A 
ATOM     29  C   UNL d   1       5.199   4.878  -1.957  0.00  0.00     0.116 A 
ATOM     30  C   UNL d   1       4.439   6.027  -1.780  0.00  0.00     0.044 A 
ATOM     31  F   UNL d   1       6.489   4.987  -2.305  0.00  0.00    -0.206 F 
ATOM     32  C   UNL d   1       3.093   5.915  -1.415  0.00  0.00     0.032 A 
ENDBRANCH  24  26
ENDBRANCH  22  24
ENDBRANCH  20  22
ENDBRANCH   2  20
TORSDOF 8
