REMARK  4 active torsions:
REMARK  status: ('A' for Active; 'I' for Inactive)
REMARK    1  A    between atoms: N_2  and  S_1 
REMARK    2  A    between atoms: C_7  and  S_1 
REMARK    3  A    between atoms: C_9  and  N_2 
REMARK    4  A    between atoms: O_13  and  C_8 
ROOT
ATOM      1  N   UNL d   1       0.609  -0.884  -1.554  0.00  0.00    -0.279 N 
ATOM      2  H   UNL d   1      -0.281  -1.370  -1.463  0.00  0.00     0.179 HD
ENDROOT
BRANCH   1   3
ATOM      3  S   UNL d   1       1.013  -0.032  -0.149  0.00  0.00     0.263 S 
ATOM      4  O   UNL d   1       2.429   0.255  -0.165  0.00  0.00    -0.200 OA
ATOM      5  O   UNL d   1       0.399  -0.755   0.948  0.00  0.00    -0.200 OA
BRANCH   3   6
ATOM      6  C   UNL d   1       0.129   1.499  -0.343  0.00  0.00     0.079 A 
ATOM      7  C   UNL d   1      -1.201   1.589   0.086  0.00  0.00     0.025 A 
ATOM      8  C   UNL d   1      -1.905   2.776  -0.107  0.00  0.00     0.002 A 
ATOM      9  C   UNL d   1      -1.283   3.868  -0.715  0.00  0.00     0.000 A 
ATOM     10  C   UNL d   1       0.053   3.783  -1.117  0.00  0.00     0.002 A 
ATOM     11  C   UNL d   1       0.766   2.602  -0.921  0.00  0.00     0.025 A 
ENDBRANCH   3   6
ENDBRANCH   1   3
BRANCH   1  12
ATOM     12  C   UNL d   1       0.916  -0.290  -2.811  0.00  0.00     0.058 A 
ATOM     13  C   UNL d   1       2.200  -0.339  -3.344  0.00  0.00     0.120 A 
ATOM     14  N   UNL d   1       2.554   0.246  -4.514  0.00  0.00    -0.345 N 
ATOM     15  C   UNL d   1       1.589   0.934  -5.162  0.00  0.00     0.141 A 
ATOM     16  HN  UNL d   1       3.501   0.170  -4.887  1.00  0.00     0.167 HD
ATOM     17  C   UNL d   1       0.291   1.067  -4.691  0.00  0.00     0.058 A 
ATOM     18  C   UNL d   1      -0.052   0.436  -3.497  0.00  0.00     0.036 A 
BRANCH  15  19
ATOM     19  O   UNL d   1       1.869   1.562  -6.359  0.00  0.00    -0.341 OA
ATOM     20  C   UNL d   1       3.204   1.341  -6.803  0.00  0.00     0.211 C 
ENDBRANCH  15  19
ENDBRANCH   1  12
TORSDOF 4
