REMARK  8 active torsions:
REMARK  status: ('A' for Active; 'I' for Inactive)
REMARK    1  A    between atoms: C_16  and  N_1 
REMARK    2  A    between atoms: S_13  and  C_2 
REMARK    3  A    between atoms: C_19  and  C_3 
REMARK    4  A    between atoms: C_10  and  N_12 
REMARK       I    between atoms: N_12  and  C_14 
REMARK    5  A    between atoms: C_27  and  S_13 
REMARK    6  A    between atoms: C_14  and  C_27 
REMARK    7  A    between atoms: C_17  and  O_21 
REMARK    8  A    between atoms: O_21  and  C_19 
ROOT
ATOM      1  N   UNL d   1      -0.439  -1.421  -0.149  0.00  0.00    -0.277 N 
ATOM      2  C   UNL d   1       0.808  -0.832  -0.355  0.00  0.00     0.168 C 
ATOM      3  C   UNL d   1      -1.283  -0.316  -0.006  0.00  0.00     0.129 C 
ATOM      4  N   UNL d   1       0.744   0.465  -0.181  0.00  0.00    -0.278 N 
ATOM      5  HN  UNL d   1       1.531   1.114  -0.197  1.00  0.00     0.189 HD
ATOM      6  N   UNL d   1      -0.556   0.790   0.022  0.00  0.00    -0.285 N 
ATOM      7  HN  UNL d   1      -0.916   1.732   0.172  1.00  0.00     0.188 HD
ENDROOT
BRANCH   2   8
ATOM      8  S   UNL d   1       2.170  -1.543  -1.175  0.00  0.00    -0.083 SA
BRANCH   8   9
ATOM      9  C   UNL d   1       1.633  -1.442  -2.912  0.00  0.00     0.185 C 
BRANCH   9  10
ATOM     10  C   UNL d   1       1.814  -0.064  -3.533  0.00  0.00     0.232 C 
ATOM     11  N   UNL d   1       0.975   0.914  -3.009  0.00  0.00    -0.324 N 
ATOM     12  H   UNL d   1       0.781   0.822  -2.014  0.00  0.00     0.169 HD
ATOM     13  O   UNL d   1       2.632   0.117  -4.430  0.00  0.00    -0.272 OA
BRANCH  11  14
ATOM     14  C   UNL d   1       1.047   2.248  -3.447  0.00  0.00     0.071 A 
ATOM     15  C   UNL d   1       0.906   2.630  -4.769  0.00  0.00     0.131 A 
ATOM     16  O   UNL d   1       0.561   1.839  -5.823  0.00  0.00    -0.321 OA
ATOM     17  C   UNL d   1       1.039   3.950  -5.138  0.00  0.00     0.107 A 
ATOM     18  C   UNL d   1       0.560   2.797  -6.898  0.00  0.00     0.352 A 
ATOM     19  O   UNL d   1       0.842   4.144  -6.470  0.00  0.00    -0.323 OA
ATOM     20  C   UNL d   1       1.323   4.944  -4.223  0.00  0.00     0.040 A 
ATOM     21  C   UNL d   1       1.431   4.582  -2.879  0.00  0.00     0.005 A 
ATOM     22  C   UNL d   1       1.265   3.245  -2.488  0.00  0.00     0.032 A 
ENDBRANCH  11  14
ENDBRANCH   9  10
ENDBRANCH   8   9
ENDBRANCH   2   8
BRANCH   1  23
ATOM     23  C   UNL d   1      -0.732  -2.816  -0.173  0.00  0.00     0.043 A 
ATOM     24  C   UNL d   1       0.239  -3.732   0.269  0.00  0.00     0.030 A 
ATOM     25  C   UNL d   1       0.029  -5.107   0.156  0.00  0.00     0.002 A 
ATOM     26  C   UNL d   1      -1.162  -5.585  -0.376  0.00  0.00     0.000 A 
ATOM     27  C   UNL d   1      -2.154  -4.688  -0.767  0.00  0.00     0.002 A 
ATOM     28  C   UNL d   1      -1.945  -3.309  -0.663  0.00  0.00     0.030 A 
ENDBRANCH   1  23
BRANCH   3  29
ATOM     29  C   UNL d   1      -2.772  -0.279   0.060  0.00  0.00     0.254 C 
BRANCH  29  30
ATOM     30  O   UNL d   1      -3.231  -1.097   1.131  0.00  0.00    -0.343 OA
BRANCH  30  31
ATOM     31  C   UNL d   1      -4.592  -1.177   1.277  0.00  0.00     0.076 A 
ATOM     32  C   UNL d   1      -5.056  -1.923   2.353  0.00  0.00    -0.018 A 
ATOM     33  C   UNL d   1      -6.427  -2.088   2.593  0.00  0.00    -0.043 A 
ATOM     34  C   UNL d   1      -4.231  -2.629   3.381  0.00  0.00     0.042 A 
ATOM     35  C   UNL d   1      -6.676  -2.921   3.810  0.00  0.00     0.040 A 
ATOM     36  C   UNL d   1      -7.382  -1.513   1.760  0.00  0.00    -0.055 A 
ATOM     37  C   UNL d   1      -5.270  -3.270   4.311  0.00  0.00     0.009 A 
ATOM     38  C   UNL d   1      -6.922  -0.754   0.678  0.00  0.00     0.010 A 
ATOM     39  C   UNL d   1      -8.849  -1.691   2.008  0.00  0.00     0.049 C 
ATOM     40  C   UNL d   1      -5.545  -0.585   0.441  0.00  0.00     0.038 A 
ENDBRANCH  30  31
ENDBRANCH  29  30
ENDBRANCH   3  29
TORSDOF 8
