REMARK  3 active torsions:
REMARK  status: ('A' for Active; 'I' for Inactive)
REMARK    1  A    between atoms: S_10  and  C_5 
REMARK    2  A    between atoms: C_9  and  N_8 
REMARK    3  A    between atoms: C_13  and  C_11 
ROOT
ATOM      1  C   UNL d   1       3.579  -1.434  -1.132  0.00  0.00     0.166 A 
ATOM      2  S   UNL d   1       2.245  -2.022  -2.060  0.00  0.00    -0.027 SA
ATOM      3  N   UNL d   1       4.675  -2.147  -1.311  0.00  0.00    -0.278 N 
ATOM      4  HN  UNL d   1       5.537  -1.992  -0.788  1.00  0.00     0.189 HD
ATOM      5  C   UNL d   1       3.324  -3.150  -2.765  0.00  0.00     0.127 A 
ATOM      6  N   UNL d   1       4.539  -3.122  -2.275  0.00  0.00    -0.286 N 
ATOM      7  HN  UNL d   1       5.291  -3.745  -2.571  1.00  0.00     0.188 HD
ATOM      8  N   UNL d   1       3.454  -0.333  -0.339  0.00  0.00    -0.335 N 
ATOM      9  H   UNL d   1       2.546   0.116  -0.326  0.00  0.00     0.168 HD
ENDROOT
BRANCH   8  10
ATOM     10  C   UNL d   1       4.496   0.613  -0.152  0.00  0.00     0.040 A 
ATOM     11  C   UNL d   1       4.548   1.461   0.977  0.00  0.00    -0.032 A 
ATOM     12  C   UNL d   1       5.631   2.374   1.077  0.00  0.00     0.009 A 
ATOM     13  C   UNL d   1       6.629   2.455   0.111  0.00  0.00     0.001 A 
ATOM     14  C   UNL d   1       6.571   1.626  -0.997  0.00  0.00     0.002 A 
ATOM     15  C   UNL d   1       5.519   0.725  -1.125  0.00  0.00     0.030 A 
BRANCH  11  16
ATOM     16  C   UNL d   1       3.621   1.481   2.179  0.00  0.00     0.036 C 
ATOM     17  C   UNL d   1       2.374   0.616   2.242  0.00  0.00     0.010 C 
ENDBRANCH  11  16
ENDBRANCH   8  10
BRANCH   5  18
ATOM     18  S   UNL d   1       2.886  -4.253  -4.044  0.00  0.00    -0.117 SA
ATOM     19  H   UNL d   1       1.590  -3.932  -4.116  0.00  0.00     0.109 HD
ENDBRANCH   5  18
TORSDOF 3
