REMARK  5 active torsions:
REMARK  status: ('A' for Active; 'I' for Inactive)
REMARK    1  A    between atoms: C_2  and  S_1 
REMARK    2  A    between atoms: N_4  and  S_1 
REMARK    3  A    between atoms: N_3  and  C_9 
REMARK    4  A    between atoms: C_19  and  N_4 
REMARK    5  A    between atoms: C_20  and  C_19 
ROOT
ATOM      1  C   UNL d   1       1.387   2.549  -0.365  0.00  0.00     0.170 C 
ENDROOT
BRANCH   1   2
ATOM      2  N   UNL d   1       2.283   2.017  -1.386  0.00  0.00    -0.311 N 
ATOM      3  H   UNL d   1       2.691   2.658  -2.065  0.00  0.00     0.172 HD
BRANCH   2   4
ATOM      4  S   UNL d   1       3.222   0.678  -1.044  0.00  0.00     0.259 S 
ATOM      5  O   UNL d   1       4.176   0.568  -2.123  0.00  0.00    -0.201 OA
ATOM      6  O   UNL d   1       3.654   0.777   0.333  0.00  0.00    -0.201 OA
BRANCH   4   7
ATOM      7  C   UNL d   1       2.052  -0.650  -1.252  0.00  0.00     0.088 A 
ATOM      8  C   UNL d   1       1.498  -0.750  -2.540  0.00  0.00     0.068 A 
ATOM      9  C   UNL d   1       0.632  -1.787  -2.842  0.00  0.00     0.117 A 
ATOM     10  F   UNL d   1       0.104  -1.870  -4.070  0.00  0.00    -0.206 F 
ATOM     11  C   UNL d   1       0.319  -2.748  -1.895  0.00  0.00     0.043 A 
ATOM     12  C   UNL d   1       0.855  -2.647  -0.611  0.00  0.00     0.011 A 
ATOM     13  C   UNL d   1       1.707  -1.582  -0.253  0.00  0.00    -0.038 A 
ATOM     14  C   UNL d   1       2.215  -1.564   1.162  0.00  0.00     0.050 C 
ENDBRANCH   4   7
ENDBRANCH   2   4
ENDBRANCH   1   2
BRANCH   1  15
ATOM     15  C   UNL d   1       0.812   3.878  -0.792  0.00  0.00    -0.040 A 
ATOM     16  C   UNL d   1       0.055   3.990  -1.962  0.00  0.00     0.011 A 
ATOM     17  C   UNL d   1      -0.392   5.242  -2.402  0.00  0.00     0.030 A 
ATOM     18  C   UNL d   1      -0.101   6.420  -1.700  0.00  0.00     0.030 A 
ATOM     19  C   UNL d   1       0.610   6.283  -0.501  0.00  0.00     0.030 A 
ATOM     20  C   UNL d   1       1.061   5.036  -0.050  0.00  0.00     0.011 A 
BRANCH  18  21
ATOM     21  N   UNL d   1      -0.423   7.651  -2.243  0.00  0.00    -0.378 N 
ATOM     22  C   UNL d   1       0.326   8.862  -1.878  0.00  0.00     0.153 C 
ATOM     23  C   UNL d   1       0.316   9.845  -3.073  0.00  0.00     0.291 C 
ATOM     24  N   UNL d   1      -1.054  10.187  -3.523  0.00  0.00     0.087 N 
ATOM     25  C   UNL d   1      -1.789   8.939  -3.844  0.00  0.00     0.291 C 
ATOM     26  C   UNL d   1      -0.999  11.065  -4.691  0.00  0.00     0.310 C 
ATOM     27  C   UNL d   1      -1.805   7.928  -2.671  0.00  0.00     0.153 C 
ENDBRANCH  18  21
ENDBRANCH   1  15
TORSDOF 5
