REMARK  3 active torsions:
REMARK  status: ('A' for Active; 'I' for Inactive)
REMARK    1  A    between atoms: C_10  and  C_2 
REMARK    2  A    between atoms: N_5  and  C_9 
REMARK    3  A    between atoms: S_14  and  C_8 
ROOT
ATOM      1  O   UNL d   1      -0.630  -0.172  -1.000  0.00  0.00    -0.267 OA
ATOM      2  C   UNL d   1      -0.294  -1.023   0.018  0.00  0.00     0.175 A 
ATOM      3  N   UNL d   1       0.466  -0.448   0.928  0.00  0.00    -0.277 N 
ATOM      4  HN  UNL d   1       0.841  -0.880   1.773  1.00  0.00     0.189 HD
ATOM      5  N   UNL d   1       0.654   0.852   0.514  0.00  0.00    -0.272 N 
ATOM      6  HN  UNL d   1       1.196   1.571   0.993  1.00  0.00     0.189 HD
ATOM      7  C   UNL d   1      -0.001   0.987  -0.622  0.00  0.00     0.203 A 
ENDROOT
BRANCH   2   8
ATOM      8  C   UNL d   1      -0.795  -2.391  -0.038  0.00  0.00     0.019 A 
ATOM      9  C   UNL d   1      -1.625  -2.846  -1.075  0.00  0.00     0.052 A 
ATOM     10  C   UNL d   1      -2.075  -4.177  -1.078  0.00  0.00     0.103 A 
ATOM     11  C   UNL d   1      -1.710  -5.062  -0.056  0.00  0.00     0.036 A 
ATOM     12  C   UNL d   1      -0.889  -4.613   0.975  0.00  0.00     0.003 A 
ATOM     13  C   UNL d   1      -0.436  -3.291   0.981  0.00  0.00     0.016 A 
BRANCH  10  14
ATOM     14  N   UNL d   1      -2.939  -4.652  -2.167  0.00  0.00    -0.116 N 
ATOM     15  O   UNL d   1      -3.245  -3.841  -3.053  0.00  0.00    -0.532 OA
ATOM     16  O   UNL d   1      -3.310  -5.833  -2.137  0.00  0.00    -0.532 OA
ENDBRANCH  10  14
ENDBRANCH   2   8
BRANCH   7  17
ATOM     17  S   UNL d   1      -0.076   2.449  -1.556  0.00  0.00    -0.089 SA
ATOM     18  C   UNL d   1       0.893   3.556  -0.505  0.00  0.00     0.099 C 
ENDBRANCH   7  17
TORSDOF 3
