REMARK  9 active torsions:
REMARK  status: ('A' for Active; 'I' for Inactive)
REMARK    1  A    between atoms: N_3  and  S_1 
REMARK    2  A    between atoms: C_4  and  S_1 
REMARK    3  A    between atoms: S_2  and  C_5 
REMARK    4  A    between atoms: N_10  and  S_2 
REMARK    5  A    between atoms: C_13  and  N_3 
REMARK    6  A    between atoms: C_23  and  N_10 
REMARK    7  A    between atoms: C_21  and  C_23 
REMARK    8  A    between atoms: C_24  and  C_21 
REMARK    9  A    between atoms: O_22  and  C_24 
ROOT
ATOM      1  C   UNL d   1       1.232   4.639   2.842  0.00  0.00     0.079 A 
ATOM      2  C   UNL d   1       0.888   2.688   0.885  0.00  0.00     0.042 A 
ATOM      3  C   UNL d   1      -0.030   4.444   2.275  0.00  0.00     0.027 A 
ATOM      4  C   UNL d   1       2.323   3.862   2.438  0.00  0.00     0.027 A 
ATOM      5  C   UNL d   1      -0.195   3.473   1.284  0.00  0.00     0.031 A 
ATOM      6  C   UNL d   1       2.145   2.877   1.463  0.00  0.00     0.031 A 
ENDROOT
BRANCH   2   7
ATOM      7  N   UNL d   1       0.720   1.747  -0.166  0.00  0.00    -0.281 N 
ATOM      8  H   UNL d   1       1.179   0.844  -0.066  0.00  0.00     0.179 HD
BRANCH   7   9
ATOM      9  S   UNL d   1       0.782   2.303  -1.766  0.00  0.00     0.263 S 
ATOM     10  O   UNL d   1      -0.123   3.418  -1.926  0.00  0.00    -0.200 OA
ATOM     11  O   UNL d   1       0.679   1.124  -2.603  0.00  0.00    -0.200 OA
BRANCH   9  12
ATOM     12  C   UNL d   1       2.449   2.912  -1.921  0.00  0.00     0.079 A 
ATOM     13  C   UNL d   1       3.464   2.041  -2.330  0.00  0.00     0.026 A 
ATOM     14  C   UNL d   1       4.766   2.523  -2.481  0.00  0.00     0.008 A 
ATOM     15  C   UNL d   1       5.059   3.871  -2.233  0.00  0.00    -0.062 A 
ATOM     16  C   UNL d   1       4.029   4.735  -1.833  0.00  0.00     0.008 A 
ATOM     17  C   UNL d   1       6.458   4.379  -2.423  0.00  0.00     0.048 C 
ATOM     18  C   UNL d   1       2.723   4.261  -1.686  0.00  0.00     0.026 A 
ENDBRANCH   9  12
ENDBRANCH   7   9
ENDBRANCH   2   7
BRANCH   1  19
ATOM     19  S   UNL d   1       1.489   5.955   4.006  0.00  0.00     0.258 S 
ATOM     20  O   UNL d   1       2.671   6.673   3.579  0.00  0.00    -0.201 OA
ATOM     21  O   UNL d   1       0.234   6.631   4.241  0.00  0.00    -0.201 OA
BRANCH  19  22
ATOM     22  N   UNL d   1       1.924   5.146   5.418  0.00  0.00    -0.315 N 
ATOM     23  H   UNL d   1       2.719   5.600   5.865  0.00  0.00     0.172 HD
BRANCH  22  24
ATOM     24  C   UNL d   1       0.838   4.655   6.278  0.00  0.00     0.134 C 
BRANCH  24  25
ATOM     25  C   UNL d   1       1.427   3.947   7.498  0.00  0.00     0.046 C 
BRANCH  25  26
ATOM     26  C   UNL d   1       0.326   3.469   8.439  0.00  0.00     0.168 C 
BRANCH  26  27
ATOM     27  O   UNL d   1      -0.506   2.546   7.740  0.00  0.00    -0.396 OA
ATOM     28  C   UNL d   1      -1.605   2.116   8.532  0.00  0.00     0.201 C 
ENDBRANCH  26  27
ENDBRANCH  25  26
ENDBRANCH  24  25
ENDBRANCH  22  24
ENDBRANCH  19  22
ENDBRANCH   1  19
TORSDOF 9
