REMARK  5 active torsions:
REMARK  status: ('A' for Active; 'I' for Inactive)
REMARK    1  A    between atoms: C_5  and  C_1 
REMARK    2  A    between atoms: C_2  and  N_4 
REMARK    3  A    between atoms: C_3  and  C_2 
REMARK    4  A    between atoms: N_4  and  C_8 
REMARK    5  A    between atoms: O_16  and  N_6 
ROOT
ATOM      1  C   UNL d   1       1.876  -4.622  -1.768  0.00  0.00     0.137 C 
ATOM      2  N   UNL d   1       1.868  -3.568  -2.545  0.00  0.00    -0.252 N 
ATOM      3  HN  UNL d   1       1.185  -2.817  -2.451  1.00  0.00     0.196 HD
ENDROOT
BRANCH   1   4
ATOM      4  N   UNL d   1       0.999  -4.741  -0.696  0.00  0.00    -0.340 N 
ATOM      5  H   UNL d   1       0.884  -5.668  -0.303  0.00  0.00     0.167 HD
BRANCH   4   6
ATOM      6  C   UNL d   1       0.562  -3.719   0.176  0.00  0.00     0.034 A 
ATOM      7  C   UNL d   1       0.888  -2.366   0.019  0.00  0.00     0.045 A 
ATOM      8  C   UNL d   1       0.436  -1.385   0.918  0.00  0.00     0.050 A 
ATOM      9  C   UNL d   1      -0.377  -1.771   1.992  0.00  0.00     0.016 A 
ATOM     10  C   UNL d   1      -0.735  -3.106   2.154  0.00  0.00     0.003 A 
ATOM     11  C   UNL d   1      -0.277  -4.068   1.248  0.00  0.00     0.029 A 
BRANCH   8  12
ATOM     12  C   UNL d   1       0.825   0.062   0.745  0.00  0.00     0.417 C 
ATOM     13  F   UNL d   1       1.583   0.304  -0.360  0.00  0.00    -0.166 F 
ATOM     14  F   UNL d   1       1.549   0.530   1.800  0.00  0.00    -0.166 F 
ATOM     15  F   UNL d   1      -0.256   0.885   0.643  0.00  0.00    -0.166 F 
ENDBRANCH   8  12
ENDBRANCH   4   6
ENDBRANCH   1   4
BRANCH   1  16
ATOM     16  C   UNL d   1       2.797  -5.789  -1.974  0.00  0.00     0.025 A 
ATOM     17  C   UNL d   1       3.424  -6.366  -0.875  0.00  0.00     0.102 A 
ATOM     18  N   UNL d   1       4.229  -7.454  -0.944  0.00  0.00    -0.374 N 
ATOM     19  C   UNL d   1       4.441  -7.970  -2.174  0.00  0.00     0.087 A 
ATOM     20  HN  UNL d   1       4.654  -7.862  -0.110  1.00  0.00     0.164 HD
ATOM     21  C   UNL d   1       3.872  -7.461  -3.332  0.00  0.00     0.018 A 
ATOM     22  C   UNL d   1       3.024  -6.360  -3.225  0.00  0.00     0.018 A 
ENDBRANCH   1  16
BRANCH   2  23
ATOM     23  O   UNL d   1       2.874  -3.561  -3.512  0.00  0.00    -0.288 OA
ATOM     24  H   UNL d   1       2.717  -2.711  -3.965  0.00  0.00     0.244 HD
ENDBRANCH   2  23
TORSDOF 5
