REMARK  4 active torsions:
REMARK  status: ('A' for Active; 'I' for Inactive)
REMARK    1  A    between atoms: C_3  and  C_1 
REMARK       I    between atoms: N_4  and  C_1 
REMARK    2  A    between atoms: C_2  and  C_3 
REMARK       I    between atoms: N_5  and  C_2 
REMARK    3  A    between atoms: C_8  and  N_4 
REMARK    4  A    between atoms: C_9  and  N_5 
ROOT
ATOM      1  C   UNL d   1       0.337  -0.457   1.278  0.00  0.00     0.206 C 
ENDROOT
BRANCH   1   2
ATOM      2  C   UNL d   1       1.492  -1.107   2.001  0.00  0.00     0.231 C 
ATOM      3  N   UNL d   1       1.446  -0.894   3.369  0.00  0.00    -0.327 N 
ATOM      4  H   UNL d   1       0.639  -0.402   3.735  0.00  0.00     0.169 HD
ATOM      5  O   UNL d   1       2.332  -1.774   1.403  0.00  0.00    -0.273 OA
BRANCH   3   6
ATOM      6  C   UNL d   1       2.370  -1.354   4.332  0.00  0.00     0.034 A 
ATOM      7  C   UNL d   1       3.568  -2.001   4.015  0.00  0.00     0.029 A 
ATOM      8  C   UNL d   1       4.421  -2.450   5.027  0.00  0.00     0.002 A 
ATOM      9  C   UNL d   1       4.091  -2.253   6.362  0.00  0.00     0.000 A 
ATOM     10  C   UNL d   1       2.908  -1.593   6.690  0.00  0.00     0.002 A 
ATOM     11  C   UNL d   1       2.055  -1.142   5.679  0.00  0.00     0.029 A 
ENDBRANCH   3   6
ENDBRANCH   1   2
BRANCH   1  12
ATOM     12  C   UNL d   1       0.458  -0.225  -0.214  0.00  0.00     0.231 C 
ATOM     13  N   UNL d   1       1.607  -0.680  -0.819  0.00  0.00    -0.327 N 
ATOM     14  H   UNL d   1       2.205  -1.290  -0.258  0.00  0.00     0.169 HD
ATOM     15  O   UNL d   1      -0.477   0.332  -0.793  0.00  0.00    -0.273 OA
BRANCH  13  16
ATOM     16  C   UNL d   1       1.965  -0.554  -2.174  0.00  0.00     0.034 A 
ATOM     17  C   UNL d   1       1.358   0.345  -3.052  0.00  0.00     0.029 A 
ATOM     18  C   UNL d   1       1.738   0.386  -4.395  0.00  0.00     0.002 A 
ATOM     19  C   UNL d   1       2.726  -0.474  -4.871  0.00  0.00     0.000 A 
ATOM     20  C   UNL d   1       3.356  -1.356  -3.996  0.00  0.00     0.002 A 
ATOM     21  C   UNL d   1       2.988  -1.384  -2.649  0.00  0.00     0.029 A 
ENDBRANCH  13  16
ENDBRANCH   1  12
TORSDOF 4
