REMARK  7 active torsions:
REMARK  status: ('A' for Active; 'I' for Inactive)
REMARK    1  A    between atoms: N_2  and  C_1 
REMARK    2  A    between atoms: C_3  and  C_6 
REMARK    3  A    between atoms: C_5  and  O_12 
REMARK    4  A    between atoms: N_13  and  C_7 
REMARK    5  A    between atoms: N_9  and  N_13 
REMARK    6  A    between atoms: O_12  and  C_23 
REMARK    7  A    between atoms: C_24  and  C_22 
ROOT
ATOM      1  N   UNL d   1       1.853   2.348  -0.331  0.00  0.00    -0.299 N 
ATOM      2  H   UNL d   1       1.609   3.274   0.038  0.00  0.00     0.187 HD
ENDROOT
BRANCH   1   3
ATOM      3  N   UNL d   1       3.137   2.039  -0.640  0.00  0.00    -0.311 N 
ATOM      4  C   UNL d   1       3.959   3.036  -0.559  0.00  0.00     0.118 C 
ATOM      5  HN  UNL d   1       3.430   1.101  -0.913  1.00  0.00     0.186 HD
BRANCH   4   6
ATOM      6  C   UNL d   1       5.397   2.886  -0.841  0.00  0.00    -0.019 A 
ATOM      7  C   UNL d   1       6.130   4.017  -1.201  0.00  0.00     0.015 A 
ATOM      8  C   UNL d   1       7.501   3.899  -1.436  0.00  0.00     0.038 A 
ATOM      9  C   UNL d   1       8.148   2.667  -1.285  0.00  0.00     0.078 A 
ATOM     10  C   UNL d   1       7.398   1.532  -0.975  0.00  0.00     0.038 A 
ATOM     11  C   UNL d   1       6.022   1.642  -0.743  0.00  0.00     0.015 A 
BRANCH   9  12
ATOM     12  O   UNL d   1       9.485   2.688  -1.536  0.00  0.00    -0.255 OA
BRANCH  12  13
ATOM     13  C   UNL d   1      10.345   1.849  -0.773  0.00  0.00     0.530 C 
ATOM     14  F   UNL d   1       9.723   1.141   0.192  0.00  0.00    -0.144 F 
ATOM     15  F   UNL d   1      10.973   0.990  -1.605  0.00  0.00    -0.144 F 
ATOM     16  F   UNL d   1      11.283   2.622  -0.180  0.00  0.00    -0.144 F 
ENDBRANCH  12  13
ENDBRANCH   9  12
ENDBRANCH   4   6
ENDBRANCH   1   3
BRANCH   1  17
ATOM     17  C   UNL d   1       0.797   1.658  -0.968  0.00  0.00     0.081 A 
ATOM     18  C   UNL d   1      -0.539   2.115  -0.954  0.00  0.00     0.131 A 
ATOM     19  C   UNL d   1      -1.571   1.374  -1.568  0.00  0.00     0.054 A 
ATOM     20  C   UNL d   1      -1.295   0.158  -2.212  0.00  0.00     0.050 A 
ATOM     21  C   UNL d   1       0.028  -0.298  -2.235  0.00  0.00     0.018 A 
ATOM     22  C   UNL d   1       1.047   0.436  -1.619  0.00  0.00     0.034 A 
BRANCH  18  23
ATOM     23  N   UNL d   1      -0.901   3.405  -0.339  0.00  0.00    -0.113 N 
ATOM     24  O   UNL d   1      -2.069   3.793  -0.459  0.00  0.00    -0.532 OA
ATOM     25  O   UNL d   1      -0.015   4.049   0.250  0.00  0.00    -0.532 OA
ENDBRANCH  18  23
BRANCH  20  26
ATOM     26  C   UNL d   1      -2.386  -0.649  -2.874  0.00  0.00     0.417 C 
ATOM     27  F   UNL d   1      -3.622  -0.089  -2.754  0.00  0.00    -0.166 F 
ATOM     28  F   UNL d   1      -2.176  -0.811  -4.208  0.00  0.00    -0.166 F 
ATOM     29  F   UNL d   1      -2.492  -1.903  -2.354  0.00  0.00    -0.166 F 
ENDBRANCH  20  26
ENDBRANCH   1  17
TORSDOF 7
