REMARK  4 active torsions:
REMARK  status: ('A' for Active; 'I' for Inactive)
REMARK    1  A    between atoms: N_9  and  C_3 
REMARK    2  A    between atoms: C_10  and  C_5 
REMARK    3  A    between atoms: C_11  and  N_9 
REMARK    4  A    between atoms: C_15  and  C_11 
ROOT
ATOM      1  N   UNL d   1      -1.656   0.927   0.096  0.00  0.00    -0.325 N 
ATOM      2  HN  UNL d   1      -2.306   1.712   0.125  1.00  0.00     0.169 HD
ATOM      3  C   UNL d   1      -0.319   1.134   0.156  0.00  0.00     0.129 A 
ATOM      4  C   UNL d   1       0.572   0.050   0.141  0.00  0.00     0.100 A 
ATOM      5  C   UNL d   1      -2.111  -0.343  -0.002  0.00  0.00     0.134 A 
ATOM      6  N   UNL d   1      -1.309  -1.419  -0.085  0.00  0.00    -0.343 N 
ATOM      7  HN  UNL d   1      -1.694  -2.356  -0.204  1.00  0.00     0.167 HD
ATOM      8  C   UNL d   1       0.021  -1.217  -0.006  0.00  0.00     0.032 A 
ATOM      9 CL   UNL d   1       2.277   0.230   0.403  0.00  0.00    -0.078 Cl
ATOM     10  C   UNL d   1       0.861  -2.459  -0.066  0.00  0.00     0.070 C 
ENDROOT
BRANCH   3  11
ATOM     11  N   UNL d   1       0.128   2.455   0.293  0.00  0.00    -0.366 N 
ATOM     12  C   UNL d   1       1.067   2.947  -0.717  0.00  0.00     0.151 C 
BRANCH  11  13
ATOM     13  C   UNL d   1      -0.840   3.441   0.796  0.00  0.00     0.162 C 
BRANCH  13  14
ATOM     14  C   UNL d   1      -0.247   4.321   1.883  0.00  0.00    -0.040 A 
ATOM     15  C   UNL d   1       0.882   3.940   2.629  0.00  0.00     0.009 A 
ATOM     16  C   UNL d   1       1.365   4.746   3.661  0.00  0.00     0.001 A 
ATOM     17  C   UNL d   1       0.712   5.934   3.980  0.00  0.00     0.000 A 
ATOM     18  C   UNL d   1      -0.422   6.317   3.267  0.00  0.00     0.001 A 
ATOM     19  C   UNL d   1      -0.899   5.518   2.226  0.00  0.00     0.009 A 
ENDBRANCH  13  14
ENDBRANCH  11  13
ENDBRANCH   3  11
BRANCH   5  20
ATOM     20  C   UNL d   1      -3.579  -0.577   0.060  0.00  0.00     0.076 A 
ATOM     21  N   UNL d   1      -4.015  -1.856  -0.139  0.00  0.00    -0.363 N 
ATOM     22  C   UNL d   1      -5.337  -2.110  -0.037  0.00  0.00     0.088 A 
ATOM     23  HN  UNL d   1      -3.356  -2.603  -0.360  1.00  0.00     0.165 HD
ATOM     24  C   UNL d   1      -6.282  -1.147   0.255  0.00  0.00     0.017 A 
ATOM     25  C   UNL d   1      -5.848   0.157   0.449  0.00  0.00     0.004 A 
ATOM     26  C   UNL d   1      -4.485   0.447   0.349  0.00  0.00     0.033 A 
ENDBRANCH   5  20
TORSDOF 4
