REMARK  1 active torsions:
REMARK  status: ('A' for Active; 'I' for Inactive)
REMARK    1  A    between atoms: C_4  and  C_2 
ROOT
ATOM      1  S   UNL d   1      -1.041   0.015  -0.020  0.00  0.00    -0.087 SA
ATOM      2  C   UNL d   1       0.144   1.253  -0.035  0.00  0.00     0.033 A 
ATOM      3  C   UNL d   1       0.131  -1.240   0.029  0.00  0.00     0.022 A 
ATOM      4  C   UNL d   1      -0.246  -2.635   0.087  0.00  0.00     0.021 A 
ATOM      5  C   UNL d   1       1.415   0.715  -0.024  0.00  0.00     0.023 A 
ATOM      6  C   UNL d   1       1.408  -0.710   0.014  0.00  0.00     0.021 A 
ATOM      7  S   UNL d   1       0.794  -3.816   0.786  0.00  0.00    -0.101 SA
ATOM      8  C   UNL d   1      -1.416  -3.224  -0.363  0.00  0.00     0.021 A 
ATOM      9  C   UNL d   1      -0.316  -5.080   0.496  0.00  0.00     0.050 A 
ATOM     10  C   UNL d   1      -1.456  -4.631  -0.128  0.00  0.00     0.008 A 
ENDROOT
BRANCH   2  11
ATOM     11  C   UNL d   1      -0.197   2.646  -0.054  0.00  0.00     0.066 A 
ATOM     12  N   UNL d   1      -1.479   3.131  -0.086  0.00  0.00    -0.300 N 
ATOM     13  N   UNL d   1      -1.556   4.474  -0.094  0.00  0.00    -0.311 N 
ATOM     14  H   UNL d   1      -2.341   2.596  -0.102  0.00  0.00     0.187 HD
ATOM     15  C   UNL d   1      -0.279   4.859  -0.064  0.00  0.00     0.109 A 
ATOM     16  HN  UNL d   1      -2.391   5.059  -0.118  1.00  0.00     0.186 HD
ATOM     17  C   UNL d   1       0.608   3.768  -0.040  0.00  0.00     0.051 A 
ENDBRANCH   2  11
TORSDOF 1
