REMARK  4 active torsions:
REMARK  status: ('A' for Active; 'I' for Inactive)
REMARK    1  A    between atoms: N_2  and  C_1 
REMARK    2  A    between atoms: N_4  and  C_1 
REMARK    3  A    between atoms: C_3  and  N_2 
REMARK    4  A    between atoms: C_8  and  N_4 
ROOT
ATOM      1  C   UNL d   1       0.970   0.125   0.078  0.00  0.00     0.177 C 
ATOM      2  S   UNL d   1       2.645   0.227   0.072  0.00  0.00    -0.040 SA
ENDROOT
BRANCH   1   3
ATOM      3  N   UNL d   1       0.425  -1.060   0.487  0.00  0.00    -0.319 N 
ATOM      4  H   UNL d   1       1.113  -1.741   0.782  0.00  0.00     0.169 HD
BRANCH   3   5
ATOM      5  C   UNL d   1      -0.919  -1.354   0.752  0.00  0.00     0.106 A 
ATOM      6  N   UNL d   1      -1.893  -0.501   0.358  0.00  0.00    -0.352 N 
ATOM      7  C   UNL d   1      -3.158  -0.790   0.732  0.00  0.00     0.089 A 
ATOM      8  HN  UNL d   1      -1.679   0.327  -0.198  1.00  0.00     0.166 HD
ATOM      9  C   UNL d   1      -3.509  -1.904   1.477  0.00  0.00     0.017 A 
ATOM     10  C   UNL d   1      -2.501  -2.785   1.845  0.00  0.00     0.005 A 
ATOM     11  C   UNL d   1      -1.189  -2.514   1.471  0.00  0.00     0.048 A 
ENDBRANCH   3   5
ENDBRANCH   1   3
BRANCH   1  12
ATOM     12  N   UNL d   1       0.100   1.106  -0.307  0.00  0.00    -0.333 N 
ATOM     13  H   UNL d   1      -0.806   0.762  -0.621  0.00  0.00     0.168 HD
BRANCH  12  14
ATOM     14  C   UNL d   1       0.215   2.501  -0.169  0.00  0.00     0.034 A 
ATOM     15  C   UNL d   1      -0.517   3.312  -1.040  0.00  0.00     0.031 A 
ATOM     16  C   UNL d   1      -0.498   4.703  -0.891  0.00  0.00     0.026 A 
ATOM     17  C   UNL d   1       0.213   5.277   0.160  0.00  0.00     0.034 A 
ATOM     18  C   UNL d   1       0.919   4.474   1.053  0.00  0.00     0.026 A 
ATOM     19 CL   UNL d   1       0.199   6.984   0.374  0.00  0.00    -0.084 Cl
ATOM     20  C   UNL d   1       0.929   3.087   0.881  0.00  0.00     0.031 A 
ENDBRANCH  12  14
ENDBRANCH   1  12
TORSDOF 4
