REMARK  5 active torsions:
REMARK  status: ('A' for Active; 'I' for Inactive)
REMARK    1  A    between atoms: C_8  and  C_1 
REMARK    2  A    between atoms: C_12  and  C_7 
REMARK       I    between atoms: C_9  and  N_10 
REMARK    3  A    between atoms: C_13  and  C_9 
REMARK    4  A    between atoms: N_10  and  C_11 
REMARK    5  A    between atoms: O_24  and  C_19 
ROOT
ATOM      1  C   UNL d   1      -0.250  -2.808   0.381  0.00  0.00     0.043 A 
ATOM      2  C   UNL d   1      -1.116  -2.891  -0.735  0.00  0.00     0.049 A 
ATOM      3  C   UNL d   1      -0.160  -3.985   1.199  0.00  0.00     0.018 A 
ATOM      4  C   UNL d   1      -1.689  -4.171  -1.030  0.00  0.00     0.030 A 
ATOM      5  C   UNL d   1      -0.776  -5.200   0.909  0.00  0.00     0.001 A 
ATOM      6  C   UNL d   1      -1.524  -5.302  -0.235  0.00  0.00     0.002 A 
ENDROOT
BRANCH   1   7
ATOM      7  C   UNL d   1       0.671  -1.745   0.848  0.00  0.00     0.177 A 
ATOM      8  O   UNL d   1       1.805  -2.259   1.466  0.00  0.00    -0.273 OA
ATOM      9  C   UNL d   1       2.309  -1.202   2.173  0.00  0.00     0.174 A 
ATOM     10  N   UNL d   1       1.660  -0.091   1.897  0.00  0.00    -0.277 N 
ATOM     11  N   UNL d   1       0.597  -0.447   1.052  0.00  0.00    -0.277 N 
ATOM     12  HN  UNL d   1       1.886   0.846   2.231  1.00  0.00     0.189 HD
ATOM     13  HN  UNL d   1      -0.105   0.185   0.666  1.00  0.00     0.189 HD
BRANCH   9  14
ATOM     14  C   UNL d   1       3.331  -1.532   3.182  0.00  0.00     0.019 A 
ATOM     15  C   UNL d   1       3.857  -0.557   4.055  0.00  0.00     0.052 A 
ATOM     16  C   UNL d   1       4.770  -0.914   5.061  0.00  0.00     0.069 A 
ATOM     17  C   UNL d   1       5.176  -2.243   5.196  0.00  0.00     0.037 A 
ATOM     18  C   UNL d   1       4.670  -3.220   4.349  0.00  0.00     0.004 A 
ATOM     19  C   UNL d   1       3.760  -2.865   3.350  0.00  0.00     0.016 A 
BRANCH  16  20
ATOM     20  O   UNL d   1       5.362  -0.069   5.960  0.00  0.00    -0.356 OA
ATOM     21  C   UNL d   1       4.668   1.133   6.261  0.00  0.00     0.210 C 
ENDBRANCH  16  20
ENDBRANCH   9  14
ENDBRANCH   1   7
BRANCH   2  22
ATOM     22  N   UNL d   1      -1.622  -1.937  -1.663  0.00  0.00    -0.322 N 
ATOM     23  C   UNL d   1      -1.735  -0.567  -1.622  0.00  0.00     0.256 C 
ATOM     24  O   UNL d   1      -1.128   0.179  -0.868  0.00  0.00    -0.267 OA
ATOM     25  H   UNL d   1      -2.223  -2.361  -2.348  0.00  0.00     0.169 HD
BRANCH  23  26
ATOM     26  C   UNL d   1      -2.786   0.032  -2.554  0.00  0.00     0.032 A 
ATOM     27  C   UNL d   1      -3.166   1.368  -2.330  0.00  0.00     0.020 A 
ATOM     28  C   UNL d   1      -4.192   1.969  -3.075  0.00  0.00     0.043 A 
ATOM     29  C   UNL d   1      -4.848   1.238  -4.054  0.00  0.00     0.116 A 
ATOM     30  C   UNL d   1      -4.485  -0.076  -4.316  0.00  0.00     0.043 A 
ATOM     31  F   UNL d   1      -5.844   1.800  -4.753  0.00  0.00    -0.206 F 
ATOM     32  C   UNL d   1      -3.452  -0.676  -3.578  0.00  0.00     0.020 A 
ENDBRANCH  23  26
ENDBRANCH   2  22
TORSDOF 5
