REMARK  1 active torsions:
REMARK  status: ('A' for Active; 'I' for Inactive)
REMARK    1  A    between atoms: C_14  and  O_21 
ROOT
ATOM      1  C   UNL d   1      -0.475  -1.618  -0.760  0.00  0.00    -0.016 C 
ATOM      2  C   UNL d   1       1.888   1.709   1.155  0.00  0.00    -0.014 C 
ATOM      3  C   UNL d   1      -1.955  -1.296  -0.984  0.00  0.00    -0.068 C 
ATOM      4  C   UNL d   1       0.249  -0.473   0.053  0.00  0.00     0.002 C 
ATOM      5  C   UNL d   1       0.606   2.090   0.356  0.00  0.00     0.001 C 
ATOM      6  C   UNL d   1      -0.148   0.954  -0.386  0.00  0.00    -0.004 C 
ATOM      7  C   UNL d   1      -2.937  -2.200  -0.864  0.00  0.00     0.053 C 
ATOM      8  C   UNL d   1       2.512   0.316   0.922  0.00  0.00     0.012 C 
ATOM      9  C   UNL d   1       1.776  -0.592  -0.039  0.00  0.00     0.007 C 
ATOM     10  C   UNL d   1      -0.361  -2.931   0.076  0.00  0.00     0.022 C 
ATOM     11  C   UNL d   1      -1.671   1.117  -0.428  0.00  0.00     0.010 C 
ATOM     12  C   UNL d   1      -0.198   3.026   1.295  0.00  0.00     0.008 C 
ATOM     13  C   UNL d   1      -2.289   0.117  -1.392  0.00  0.00     0.035 C 
ATOM     14  C   UNL d   1       1.428   1.836   2.632  0.00  0.00     0.126 C 
ATOM     15  C   UNL d   1      -2.665  -3.626  -0.572  0.00  0.00     0.149 C 
ATOM     16  C   UNL d   1       0.457   2.999   2.672  0.00  0.00     0.033 C 
ATOM     17  O   UNL d   1      -3.598  -4.420  -0.510  0.00  0.00    -0.293 OA
ATOM     18  C   UNL d   1      -1.228  -4.065  -0.452  0.00  0.00     0.084 C 
ATOM     19  C   UNL d   1       0.178  -1.837  -2.147  0.00  0.00     0.020 C 
ATOM     20  C   UNL d   1       2.965   2.762   0.796  0.00  0.00     0.018 C 
ENDROOT
BRANCH  14  21
ATOM     21  O   UNL d   1       0.726   0.661   3.041  0.00  0.00    -0.395 OA
ATOM     22  H   UNL d   1       0.275   0.848   3.882  0.00  0.00     0.210 HD
ENDBRANCH  14  21
TORSDOF 1
