REMARK  3 active torsions:
REMARK  status: ('A' for Active; 'I' for Inactive)
REMARK       I    between atoms: N_2  and  C_1 
REMARK    1  A    between atoms: C_6  and  C_1 
REMARK    2  A    between atoms: C_7  and  N_2 
REMARK    3  A    between atoms: N_5  and  C_3 
ROOT
ATOM      1  C   UNL d   1      -0.920  -0.930  -0.814  0.00  0.00     0.256 C 
ATOM      2  N   UNL d   1       0.174  -1.306  -0.049  0.00  0.00    -0.323 N 
ATOM      3  O   UNL d   1      -1.717  -1.691  -1.352  0.00  0.00    -0.267 OA
ATOM      4  H   UNL d   1       0.590  -0.604   0.548  0.00  0.00     0.169 HD
ENDROOT
BRANCH   2   5
ATOM      5  C   UNL d   1       0.739  -2.599   0.008  0.00  0.00     0.035 A 
ATOM      6  C   UNL d   1       0.393  -3.630  -0.860  0.00  0.00     0.032 A 
ATOM      7  C   UNL d   1       1.048  -4.870  -0.808  0.00  0.00     0.031 A 
ATOM      8  C   UNL d   1       2.071  -5.134   0.112  0.00  0.00     0.029 A 
ATOM      9  C   UNL d   1       2.385  -4.090   0.996  0.00  0.00     0.031 A 
ATOM     10  C   UNL d   1       1.743  -2.839   0.944  0.00  0.00     0.032 A 
BRANCH   8  11
ATOM     11  N   UNL d   1       2.720  -6.359   0.184  0.00  0.00    -0.390 N 
ATOM     12  C   UNL d   1       2.168  -7.559  -0.438  0.00  0.00     0.149 C 
ATOM     13  C   UNL d   1       4.150  -6.407   0.475  0.00  0.00     0.149 C 
ENDBRANCH   8  11
ENDBRANCH   2   5
BRANCH   1  14
ATOM     14  C   UNL d   1      -1.145   0.536  -0.967  0.00  0.00     0.032 A 
ATOM     15  C   UNL d   1      -0.085   1.453  -0.986  0.00  0.00     0.017 A 
ATOM     16  C   UNL d   1      -0.337   2.803  -1.254  0.00  0.00     0.001 A 
ATOM     17  C   UNL d   1      -1.638   3.238  -1.504  0.00  0.00     0.000 A 
ATOM     18  C   UNL d   1      -2.696   2.331  -1.481  0.00  0.00     0.001 A 
ATOM     19  C   UNL d   1      -2.450   0.983  -1.215  0.00  0.00     0.017 A 
ENDBRANCH   1  14
TORSDOF 3
