REMARK  6 active torsions:
REMARK  status: ('A' for Active; 'I' for Inactive)
REMARK    1  A    between atoms: N_2  and  C_1 
REMARK    2  A    between atoms: N_3  and  C_1 
REMARK    3  A    between atoms: C_12  and  N_3 
REMARK    4  A    between atoms: C_5  and  C_8 
REMARK    5  A    between atoms: O_18  and  C_9 
REMARK    6  A    between atoms: O_19  and  C_13 
ROOT
ATOM      1  N   UNL d   1      -0.106  -0.500   0.608  0.00  0.00    -0.358 N 
ATOM      2  C   UNL d   1      -0.936  -1.329  -0.257  0.00  0.00     0.126 C 
ATOM      3  C   UNL d   1       0.451  -1.182   1.772  0.00  0.00     0.126 C 
ATOM      4  C   UNL d   1      -1.617  -2.688   1.859  0.00  0.00     0.024 C 
ATOM      5  C   UNL d   1      -2.046  -2.029   0.527  0.00  0.00     0.029 C 
ATOM      6  C   UNL d   1      -0.635  -1.798   2.642  0.00  0.00     0.029 C 
ENDROOT
BRANCH   1   7
ATOM      7  C   UNL d   1       0.669   0.526   0.076  0.00  0.00     0.174 C 
ATOM      8  S   UNL d   1       1.711   0.355  -1.222  0.00  0.00    -0.041 SA
BRANCH   7   9
ATOM      9  N   UNL d   1       0.654   1.710   0.778  0.00  0.00    -0.333 N 
ATOM     10  H   UNL d   1       1.453   2.313   0.633  0.00  0.00     0.168 HD
BRANCH   9  11
ATOM     11  C   UNL d   1      -0.373   2.182   1.626  0.00  0.00     0.034 A 
ATOM     12  C   UNL d   1      -0.059   3.123   2.603  0.00  0.00     0.032 A 
ATOM     13  C   UNL d   1      -1.042   3.540   3.518  0.00  0.00     0.039 A 
ATOM     14  C   UNL d   1      -2.341   3.045   3.430  0.00  0.00     0.068 A 
ATOM     15  C   UNL d   1      -2.676   2.179   2.392  0.00  0.00     0.039 A 
ATOM     16  C   UNL d   1      -1.695   1.760   1.491  0.00  0.00     0.032 A 
BRANCH  14  17
ATOM     17  O   UNL d   1      -3.380   3.329   4.273  0.00  0.00    -0.356 OA
ATOM     18  C   UNL d   1      -3.030   3.927   5.517  0.00  0.00     0.210 C 
ENDBRANCH  14  17
ENDBRANCH   9  11
ENDBRANCH   7   9
ENDBRANCH   1   7
BRANCH   4  19
ATOM     19  C   UNL d   1      -1.142  -4.134   1.759  0.00  0.00    -0.021 A 
ATOM     20  C   UNL d   1      -1.612  -5.158   2.611  0.00  0.00     0.074 A 
ATOM     21  C   UNL d   1      -1.198  -6.486   2.418  0.00  0.00     0.037 A 
ATOM     22  C   UNL d   1      -0.313  -6.825   1.397  0.00  0.00     0.003 A 
ATOM     23  C   UNL d   1       0.173  -5.831   0.563  0.00  0.00     0.001 A 
ATOM     24  C   UNL d   1      -0.224  -4.505   0.756  0.00  0.00     0.010 A 
BRANCH  20  25
ATOM     25  O   UNL d   1      -2.600  -5.026   3.553  0.00  0.00    -0.355 OA
ATOM     26  C   UNL d   1      -2.372  -4.081   4.592  0.00  0.00     0.210 C 
ENDBRANCH  20  25
ENDBRANCH   4  19
TORSDOF 6
