REMARK  8 active torsions:
REMARK  status: ('A' for Active; 'I' for Inactive)
REMARK    1  A    between atoms: N_7  and  S_1 
REMARK    2  A    between atoms: C_10  and  S_1 
REMARK    3  A    between atoms: C_3  and  S_23 
REMARK    4  A    between atoms: N_14  and  N_7 
REMARK    5  A    between atoms: C_8  and  C_11 
REMARK    6  A    between atoms: C_9  and  C_12 
REMARK       I    between atoms: C_15  and  N_14 
REMARK    7  A    between atoms: C_31  and  C_15 
REMARK    8  A    between atoms: S_23  and  C_31 
ROOT
ATOM      1  N   UNL d   1       0.004  -0.104  -1.326  0.00  0.00    -0.220 N 
ATOM      2  H   UNL d   1      -0.605  -0.895  -1.569  0.00  0.00     0.200 HD
ENDROOT
BRANCH   1   3
ATOM      3  S   UNL d   1       0.346   0.098   0.310  0.00  0.00     0.276 S 
ATOM      4  O   UNL d   1       1.768  -0.122   0.487  0.00  0.00    -0.199 OA
ATOM      5  O   UNL d   1      -0.640  -0.634   1.064  0.00  0.00    -0.199 OA
BRANCH   3   6
ATOM      6  C   UNL d   1       0.036   1.831   0.594  0.00  0.00     0.082 A 
ATOM      7  C   UNL d   1      -1.216   2.376   0.296  0.00  0.00     0.041 A 
ATOM      8  C   UNL d   1      -1.464   3.734   0.554  0.00  0.00     0.050 A 
ATOM      9  C   UNL d   1      -0.435   4.531   1.094  0.00  0.00     0.032 A 
ATOM     10  C   UNL d   1       0.824   3.987   1.404  0.00  0.00     0.050 A 
ATOM     11  C   UNL d   1       1.044   2.625   1.157  0.00  0.00     0.041 A 
BRANCH   8  12
ATOM     12  C   UNL d   1      -2.819   4.354   0.284  0.00  0.00     0.417 C 
ATOM     13  F   UNL d   1      -3.734   3.470  -0.198  0.00  0.00    -0.166 F 
ATOM     14  F   UNL d   1      -3.369   4.892   1.406  0.00  0.00    -0.166 F 
ATOM     15  F   UNL d   1      -2.752   5.364  -0.625  0.00  0.00    -0.166 F 
ENDBRANCH   8  12
BRANCH  10  16
ATOM     16  C   UNL d   1       1.902   4.867   1.996  0.00  0.00     0.417 C 
ATOM     17  F   UNL d   1       3.014   4.180   2.376  0.00  0.00    -0.166 F 
ATOM     18  F   UNL d   1       2.328   5.819   1.123  0.00  0.00    -0.166 F 
ATOM     19  F   UNL d   1       1.479   5.534   3.103  0.00  0.00    -0.166 F 
ENDBRANCH  10  16
ENDBRANCH   3   6
ENDBRANCH   1   3
BRANCH   1  20
ATOM     20  N   UNL d   1       0.885   0.422  -2.340  0.00  0.00    -0.260 N 
ATOM     21  C   UNL d   1       0.919  -0.178  -3.581  0.00  0.00     0.246 C 
ATOM     22  O   UNL d   1       0.242  -1.177  -3.837  0.00  0.00    -0.271 OA
ATOM     23  H   UNL d   1       1.626   1.069  -2.058  0.00  0.00     0.190 HD
BRANCH  21  24
ATOM     24  C   UNL d   1       1.914   0.393  -4.582  0.00  0.00     0.186 C 
BRANCH  24  25
ATOM     25  S   UNL d   1       1.833   2.204  -4.752  0.00  0.00    -0.095 SA
BRANCH  25  26
ATOM     26  C   UNL d   1       2.921   2.701  -3.473  0.00  0.00     0.115 A 
ATOM     27  S   UNL d   1       3.844   4.141  -3.518  0.00  0.00    -0.045 SA
ATOM     28  C   UNL d   1       4.461   3.766  -1.972  0.00  0.00     0.103 A 
ATOM     29  N   UNL d   1       5.335   4.553  -1.314  0.00  0.00    -0.358 N 
ATOM     30  C   UNL d   1       3.925   2.562  -1.526  0.00  0.00     0.067 A 
ATOM     31  C   UNL d   1       5.676   4.070  -0.096  0.00  0.00     0.089 A 
ATOM     32  HN  UNL d   1       5.701   5.426  -1.694  1.00  0.00     0.166 HD
ATOM     33  C   UNL d   1       5.219   2.884   0.462  0.00  0.00     0.019 A 
ATOM     34  C   UNL d   1       4.333   2.097  -0.267  0.00  0.00     0.034 A 
ATOM     35  N   UNL d   1       3.025   1.967  -2.387  0.00  0.00    -0.343 N 
ATOM     36  HN  UNL d   1       2.522   1.098  -2.209  1.00  0.00     0.167 HD
ENDBRANCH  25  26
ENDBRANCH  24  25
ENDBRANCH  21  24
ENDBRANCH   1  20
TORSDOF 8
