REMARK  2 active torsions:
REMARK  status: ('A' for Active; 'I' for Inactive)
REMARK    1  A    between atoms: C_10  and  N_2 
REMARK    2  A    between atoms: C_16  and  C_10 
ROOT
ATOM      1  C   UNL d   1       0.718   0.374  -0.138  0.00  0.00     0.073 A 
ATOM      2  N   UNL d   1       3.022   1.061   0.112  0.00  0.00    -0.286 N 
ATOM      3  C   UNL d   1       1.177  -0.903  -0.097  0.00  0.00     0.093 A 
ATOM      4  C   UNL d   1       1.676   1.462  -0.069  0.00  0.00     0.263 C 
ATOM      5  C   UNL d   1       3.429  -0.280   0.255  0.00  0.00     0.182 C 
ATOM      6  N   UNL d   1       2.479  -1.255   0.056  0.00  0.00    -0.326 N 
ATOM      7  C   UNL d   1      -0.713   0.386  -0.170  0.00  0.00    -0.026 A 
ATOM      8  C   UNL d   1      -1.224  -0.906  -0.141  0.00  0.00    -0.008 A 
ATOM      9  S   UNL d   1       0.001  -2.099  -0.165  0.00  0.00    -0.075 SA
ATOM     10  S   UNL d   1       4.956  -0.839   0.677  0.00  0.00    -0.040 SA
ATOM     11  C   UNL d   1      -1.600   1.596  -0.115  0.00  0.00     0.041 C 
ATOM     12  O   UNL d   1       1.307   2.630  -0.123  0.00  0.00    -0.267 OA
ATOM     13  C   UNL d   1      -2.679  -1.259  -0.065  0.00  0.00     0.051 C 
ATOM     14  C   UNL d   1      -3.079   1.232  -0.328  0.00  0.00     0.009 C 
ATOM     15  C   UNL d   1      -3.503  -0.047   0.428  0.00  0.00    -0.014 C 
ATOM     16  C   UNL d   1      -3.391   0.129   1.949  0.00  0.00     0.010 C 
ATOM     17  H   UNL d   1       2.731  -2.232   0.146  0.00  0.00     0.169 HD
ENDROOT
BRANCH   2  18
ATOM     18  C   UNL d   1       3.983   2.172   0.170  0.00  0.00     0.173 C 
BRANCH  18  19
ATOM     19  C   UNL d   1       4.477   2.579  -1.206  0.00  0.00    -0.040 A 
ATOM     20  C   UNL d   1       3.792   3.551  -1.952  0.00  0.00     0.009 A 
ATOM     21  C   UNL d   1       4.201   3.877  -3.247  0.00  0.00     0.001 A 
ATOM     22  C   UNL d   1       5.303   3.239  -3.812  0.00  0.00     0.000 A 
ATOM     23  C   UNL d   1       6.010   2.294  -3.073  0.00  0.00     0.001 A 
ATOM     24  C   UNL d   1       5.603   1.970  -1.778  0.00  0.00     0.009 A 
ENDBRANCH  18  19
ENDBRANCH   2  18
TORSDOF 2
