REMARK  5 active torsions:
REMARK  status: ('A' for Active; 'I' for Inactive)
REMARK    1  A    between atoms: C_8  and  C_1 
REMARK    2  A    between atoms: C_10  and  C_2 
REMARK    3  A    between atoms: C_9  and  C_3 
REMARK    4  A    between atoms: O_17  and  C_9 
REMARK    5  A    between atoms: O_18  and  C_10 
ROOT
ATOM      1  C   UNL d   1       0.014  -1.869   0.056  0.00  0.00     0.011 A 
ATOM      2  C   UNL d   1      -1.209  -1.143   0.059  0.00  0.00     0.073 A 
ATOM      3  C   UNL d   1       1.223  -1.126   0.025  0.00  0.00     0.073 A 
ATOM      4  N   UNL d   1      -0.008   0.947  -0.046  0.00  0.00    -0.362 N 
ATOM      5  HN  UNL d   1      -0.015   1.965  -0.095  1.00  0.00     0.165 HD
ATOM      6  C   UNL d   1       1.167   0.273  -0.012  0.00  0.00     0.022 A 
ATOM      7  C   UNL d   1      -1.171   0.258  -0.016  0.00  0.00     0.022 A 
ATOM      8  C   UNL d   1      -2.374   1.155  -0.048  0.00  0.00     0.069 C 
ATOM      9  C   UNL d   1       2.377   1.164   0.008  0.00  0.00     0.069 C 
ENDROOT
BRANCH   1  10
ATOM     10  C   UNL d   1       0.020  -3.349   0.092  0.00  0.00    -0.017 A 
ATOM     11  C   UNL d   1       0.819  -4.106  -0.750  0.00  0.00     0.061 A 
ATOM     12  S   UNL d   1       0.643  -5.794  -0.513  0.00  0.00    -0.113 SA
ATOM     13  C   UNL d   1      -0.552  -5.555   0.678  0.00  0.00     0.050 A 
ATOM     14  C   UNL d   1      -0.776  -4.215   0.920  0.00  0.00     0.020 A 
ENDBRANCH   1  10
BRANCH   2  15
ATOM     15  C   UNL d   1      -2.527  -1.813   0.062  0.00  0.00     0.295 C 
ATOM     16  O   UNL d   1      -2.889  -2.633  -0.765  0.00  0.00    -0.259 OA
BRANCH  15  17
ATOM     17  O   UNL d   1      -3.249  -1.371   1.126  0.00  0.00    -0.322 OA
ATOM     18  C   UNL d   1      -4.587  -1.875   1.189  0.00  0.00     0.213 C 
ENDBRANCH  15  17
ENDBRANCH   2  15
BRANCH   3  19
ATOM     19  C   UNL d   1       2.557  -1.761   0.139  0.00  0.00     0.295 C 
ATOM     20  O   UNL d   1       2.893  -2.503   1.048  0.00  0.00    -0.259 OA
BRANCH  19  21
ATOM     21  O   UNL d   1       3.331  -1.359  -0.901  0.00  0.00    -0.322 OA
ATOM     22  C   UNL d   1       4.704  -1.753  -0.813  0.00  0.00     0.213 C 
ENDBRANCH  19  21
ENDBRANCH   3  19
TORSDOF 5
