REMARK  8 active torsions:
REMARK  status: ('A' for Active; 'I' for Inactive)
REMARK    1  A    between atoms: C_2  and  C_1 
REMARK    2  A    between atoms: C_15  and  C_1 
REMARK    3  A    between atoms: N_3  and  C_10 
REMARK    4  A    between atoms: C_11  and  C_4 
REMARK    5  A    between atoms: C_7  and  C_5 
REMARK    6  A    between atoms: C_13  and  C_5 
REMARK    7  A    between atoms: C_9  and  C_7 
REMARK    8  A    between atoms: C_17  and  C_9 
ROOT
ATOM      1  C   UNL d   1       1.020   0.010   0.666  0.00  0.00    -0.004 C 
ATOM      2  C   UNL d   1       0.474   1.070  -0.004  0.00  0.00     0.066 C 
ATOM      3  C   UNL d   1       0.785   2.446   0.266  0.00  0.00     0.101 C 
ATOM      4  N   UNL d   1       1.017   3.566   0.442  0.00  0.00    -0.191 NA
ENDROOT
BRANCH   2   5
ATOM      5  C   UNL d   1      -0.596   0.889  -1.022  0.00  0.00    -0.014 A 
ATOM      6  C   UNL d   1      -1.917   1.232  -0.688  0.00  0.00     0.015 A 
ATOM      7  C   UNL d   1      -2.947   1.088  -1.620  0.00  0.00     0.037 A 
ATOM      8  C   UNL d   1      -2.655   0.598  -2.897  0.00  0.00     0.102 A 
ATOM      9  C   UNL d   1      -1.342   0.247  -3.243  0.00  0.00     0.037 A 
ATOM     10  C   UNL d   1      -0.315   0.395  -2.304  0.00  0.00     0.015 A 
BRANCH   8  11
ATOM     11  N   UNL d   1      -3.734   0.454  -3.882  0.00  0.00    -0.116 N 
ATOM     12  O   UNL d   1      -4.883   0.756  -3.527  0.00  0.00    -0.532 OA
ATOM     13  O   UNL d   1      -3.432   0.040  -5.010  0.00  0.00    -0.532 OA
ENDBRANCH   8  11
ENDBRANCH   2   5
BRANCH   1  14
ATOM     14  C   UNL d   1       0.450  -1.328   0.403  0.00  0.00     0.022 C 
ATOM     15  C   UNL d   1       1.063  -2.485   0.072  0.00  0.00    -0.040 C 
BRANCH  15  16
ATOM     16  C   UNL d   1       2.550  -2.642  -0.204  0.00  0.00     0.123 C 
BRANCH  16  17
ATOM     17  C   UNL d   1       3.225  -3.547   0.829  0.00  0.00     0.163 C 
ATOM     18  O   UNL d   1       2.616  -4.092   1.751  0.00  0.00    -0.292 OA
BRANCH  17  19
ATOM     19  C   UNL d   1       4.698  -3.771   0.750  0.00  0.00     0.010 A 
ATOM     20  C   UNL d   1       5.345  -4.175   1.927  0.00  0.00     0.015 A 
ATOM     21  C   UNL d   1       6.716  -4.428   1.935  0.00  0.00     0.001 A 
ATOM     22  C   UNL d   1       7.451  -4.288   0.760  0.00  0.00     0.000 A 
ATOM     23  C   UNL d   1       6.814  -3.893  -0.418  0.00  0.00     0.001 A 
ATOM     24  C   UNL d   1       5.439  -3.630  -0.428  0.00  0.00     0.015 A 
ENDBRANCH  17  19
ENDBRANCH  16  17
ENDBRANCH  15  16
BRANCH  15  25
ATOM     25  C   UNL d   1       0.223  -3.723   0.006  0.00  0.00    -0.029 A 
ATOM     26  C   UNL d   1       0.422  -4.708  -0.973  0.00  0.00     0.013 A 
ATOM     27  C   UNL d   1      -0.301  -5.909  -0.944  0.00  0.00     0.024 A 
ATOM     28  C   UNL d   1      -1.238  -6.136   0.060  0.00  0.00     0.034 A 
ATOM     29  C   UNL d   1      -1.465  -5.172   1.034  0.00  0.00     0.024 A 
ATOM     30 CL   UNL d   1      -2.104  -7.621   0.109  0.00  0.00    -0.084 Cl
ATOM     31  C   UNL d   1      -0.733  -3.981   1.010  0.00  0.00     0.013 A 
ENDBRANCH  15  25
ENDBRANCH   1  14
BRANCH   1  32
ATOM     32  C   UNL d   1       1.957   0.199   1.840  0.00  0.00    -0.024 A 
ATOM     33  C   UNL d   1       1.830  -0.646   2.960  0.00  0.00     0.012 A 
ATOM     34  C   UNL d   1       2.573  -0.439   4.128  0.00  0.00     0.001 A 
ATOM     35  C   UNL d   1       3.454   0.631   4.212  0.00  0.00     0.000 A 
ATOM     36  C   UNL d   1       3.636   1.453   3.106  0.00  0.00     0.001 A 
ATOM     37  C   UNL d   1       2.924   1.216   1.922  0.00  0.00     0.012 A 
ENDBRANCH   1  32
TORSDOF 8
