REMARK  3 active torsions:
REMARK  status: ('A' for Active; 'I' for Inactive)
REMARK    1  A    between atoms: C_10  and  C_3 
REMARK    2  A    between atoms: C_9  and  C_4 
REMARK    3  A    between atoms: C_8  and  C_5 
ROOT
ATOM      1  N   UNL d   1      -1.306  -0.047   0.011  0.00  0.00    -0.355 N 
ATOM      2  HN  UNL d   1      -2.326  -0.083   0.016  1.00  0.00     0.166 HD
ATOM      3  C   UNL d   1      -0.661   1.144  -0.048  0.00  0.00     0.043 A 
ATOM      4  C   UNL d   1      -0.577  -1.190   0.063  0.00  0.00     0.043 A 
ATOM      5  C   UNL d   1       1.507   0.051  -0.003  0.00  0.00    -0.022 A 
ATOM      6  C   UNL d   1       0.732   1.216  -0.050  0.00  0.00     0.042 A 
ATOM      7  C   UNL d   1       0.817  -1.165   0.052  0.00  0.00     0.042 A 
ENDROOT
BRANCH   5   8
ATOM      8  C   UNL d   1       2.988   0.107  -0.016  0.00  0.00    -0.026 A 
ATOM      9  C   UNL d   1       3.755  -0.871  -0.674  0.00  0.00     0.013 A 
ATOM     10  C   UNL d   1       5.154  -0.815  -0.694  0.00  0.00     0.007 A 
ATOM     11  C   UNL d   1       5.831   0.232  -0.065  0.00  0.00    -0.062 A 
ATOM     12  C   UNL d   1       5.088   1.213   0.594  0.00  0.00     0.007 A 
ATOM     13  C   UNL d   1       7.328   0.291  -0.106  0.00  0.00     0.048 C 
ATOM     14  C   UNL d   1       3.690   1.145   0.623  0.00  0.00     0.013 A 
ENDBRANCH   5   8
BRANCH   4  15
ATOM     15  C   UNL d   1      -1.352  -2.453   0.110  0.00  0.00    -0.009 A 
ATOM     16  C   UNL d   1      -2.633  -2.535  -0.468  0.00  0.00     0.013 A 
ATOM     17  C   UNL d   1      -3.368  -3.726  -0.454  0.00  0.00     0.001 A 
ATOM     18  C   UNL d   1      -2.839  -4.865   0.144  0.00  0.00     0.000 A 
ATOM     19  C   UNL d   1      -1.582  -4.811   0.736  0.00  0.00     0.001 A 
ATOM     20  C   UNL d   1      -0.851  -3.619   0.722  0.00  0.00     0.013 A 
ENDBRANCH   4  15
BRANCH   3  21
ATOM     21  C   UNL d   1      -1.520   2.350  -0.094  0.00  0.00    -0.009 A 
ATOM     22  C   UNL d   1      -2.800   2.346   0.492  0.00  0.00     0.013 A 
ATOM     23  C   UNL d   1      -3.616   3.483   0.479  0.00  0.00     0.001 A 
ATOM     24  C   UNL d   1      -3.169   4.654  -0.125  0.00  0.00     0.000 A 
ATOM     25  C   UNL d   1      -1.915   4.685  -0.724  0.00  0.00     0.001 A 
ATOM     26  C   UNL d   1      -1.104   3.545  -0.712  0.00  0.00     0.013 A 
ENDBRANCH   3  21
TORSDOF 3
