REMARK  10 active torsions:
REMARK  status: ('A' for Active; 'I' for Inactive)
REMARK    1  A    between atoms: N_14  and  C_1 
REMARK    2  A    between atoms: C_19  and  N_2 
REMARK    3  A    between atoms: C_15  and  C_3 
REMARK    4  A    between atoms: C_20  and  N_4 
REMARK    5  A    between atoms: C_18  and  C_5 
REMARK    6  A    between atoms: C_8  and  S_16 
REMARK       I    between atoms: C_17  and  N_14 
REMARK    7  A    between atoms: O_26  and  C_15 
REMARK    8  A    between atoms: S_16  and  C_23 
REMARK    9  A    between atoms: C_23  and  C_17 
REMARK   10  A    between atoms: C_35  and  O_26 
ROOT
ATOM      1  C   UNL d   1       3.230  -3.939  -0.183  0.00  0.00     0.185 C 
ENDROOT
BRANCH   1   2
ATOM      2  S   UNL d   1       2.782  -5.695  -0.005  0.00  0.00    -0.083 SA
BRANCH   2   3
ATOM      3  C   UNL d   1       4.319  -6.385   0.434  0.00  0.00     0.168 A 
ATOM      4  N   UNL d   1       4.920  -7.487  -0.165  0.00  0.00    -0.275 N 
ATOM      5  C   UNL d   1       5.986  -7.796   0.694  0.00  0.00     0.139 A 
ATOM      6  N   UNL d   1       5.964  -6.953   1.715  0.00  0.00    -0.282 N 
ATOM      7  N   UNL d   1       4.943  -6.059   1.539  0.00  0.00    -0.278 N 
ATOM      8  HN  UNL d   1       6.606  -6.967   2.507  1.00  0.00     0.188 HD
ATOM      9  HN  UNL d   1       4.710  -5.281   2.156  1.00  0.00     0.189 HD
BRANCH   4  10
ATOM     10  C   UNL d   1       4.531  -8.149  -1.369  0.00  0.00     0.043 A 
ATOM     11  C   UNL d   1       4.027  -7.413  -2.453  0.00  0.00     0.030 A 
ATOM     12  C   UNL d   1       3.648  -8.058  -3.632  0.00  0.00     0.002 A 
ATOM     13  C   UNL d   1       3.801  -9.435  -3.754  0.00  0.00     0.000 A 
ATOM     14  C   UNL d   1       4.318 -10.173  -2.692  0.00  0.00     0.002 A 
ATOM     15  C   UNL d   1       4.665  -9.538  -1.497  0.00  0.00     0.030 A 
ENDBRANCH   4  10
BRANCH   5  16
ATOM     16  C   UNL d   1       7.029  -8.820   0.513  0.00  0.00     0.010 A 
ATOM     17  C   UNL d   1       7.657  -9.031  -0.725  0.00  0.00     0.017 A 
ATOM     18  C   UNL d   1       8.595 -10.056  -0.889  0.00  0.00     0.025 A 
ATOM     19  C   UNL d   1       8.953 -10.850   0.197  0.00  0.00     0.034 A 
ATOM     20  C   UNL d   1       8.389 -10.617   1.449  0.00  0.00     0.025 A 
ATOM     21 CL   UNL d   1      10.095 -12.118  -0.011  0.00  0.00    -0.084 Cl
ATOM     22  C   UNL d   1       7.433  -9.605   1.606  0.00  0.00     0.017 A 
ENDBRANCH   5  16
ENDBRANCH   2   3
ENDBRANCH   1   2
BRANCH   1  23
ATOM     23  C   UNL d   1       2.013  -3.097  -0.546  0.00  0.00     0.233 C 
ATOM     24  N   UNL d   1       0.753  -3.573  -0.034  0.00  0.00    -0.310 N 
ATOM     25  H   UNL d   1       0.763  -4.366   0.601  0.00  0.00     0.170 HD
ATOM     26  O   UNL d   1       2.074  -1.991  -1.055  0.00  0.00    -0.272 OA
BRANCH  24  27
ATOM     27  C   UNL d   1      -0.439  -2.868  -0.195  0.00  0.00     0.147 A 
ATOM     28  C   UNL d   1      -1.028  -2.450  -1.374  0.00  0.00     0.102 A 
ATOM     29  C   UNL d   1      -2.270  -1.916  -0.966  0.00  0.00     0.129 A 
ATOM     30  N   UNL d   1      -2.503  -2.072   0.336  0.00  0.00    -0.302 N 
ATOM     31  N   UNL d   1      -1.356  -2.604   0.820  0.00  0.00    -0.239 N 
ATOM     32  HN  UNL d   1      -3.353  -1.843   0.851  1.00  0.00     0.186 HD
BRANCH  28  33
ATOM     33  C   UNL d   1      -0.547  -2.604  -2.728  0.00  0.00     0.298 C 
ATOM     34  O   UNL d   1       0.464  -3.229  -3.018  0.00  0.00    -0.259 OA
BRANCH  33  35
ATOM     35  O   UNL d   1      -1.363  -1.980  -3.623  0.00  0.00    -0.318 OA
BRANCH  35  36
ATOM     36  C   UNL d   1      -0.837  -1.820  -4.947  0.00  0.00     0.174 C 
ATOM     37  C   UNL d   1      -0.091  -0.500  -4.991  0.00  0.00     0.034 C 
ENDBRANCH  35  36
ENDBRANCH  33  35
ENDBRANCH  28  33
BRANCH  31  38
ATOM     38  C   UNL d   1      -1.191  -2.829   2.211  0.00  0.00     0.058 A 
ATOM     39  C   UNL d   1       0.085  -2.850   2.795  0.00  0.00     0.031 A 
ATOM     40  C   UNL d   1       0.224  -3.114   4.158  0.00  0.00     0.002 A 
ATOM     41  C   UNL d   1      -0.904  -3.352   4.939  0.00  0.00     0.000 A 
ATOM     42  C   UNL d   1      -2.175  -3.307   4.367  0.00  0.00     0.002 A 
ATOM     43  C   UNL d   1      -2.324  -3.029   3.008  0.00  0.00     0.031 A 
ENDBRANCH  31  38
ENDBRANCH  24  27
ENDBRANCH   1  23
TORSDOF 10
