REMARK  0 active torsions:
REMARK  status: ('A' for Active; 'I' for Inactive)
ROOT
ATOM      1  C   UNL d   1       0.020   0.743   0.055  0.00  0.00     0.045 A 
ATOM      2  C   UNL d   1      -1.252   1.486  -0.005  0.00  0.00     0.164 C 
ATOM      3  C   UNL d   1      -0.017  -0.652  -0.008  0.00  0.00     0.082 A 
ATOM      4  C   UNL d   1       1.238   1.426   0.108  0.00  0.00     0.042 A 
ATOM      5  O   UNL d   1      -1.175  -1.382  -0.073  0.00  0.00    -0.350 OA
ATOM      6  O   UNL d   1      -1.288   2.701   0.154  0.00  0.00    -0.292 OA
ATOM      7  C   UNL d   1       1.175  -1.372  -0.050  0.00  0.00     0.039 A 
ATOM      8  C   UNL d   1       2.424   0.697   0.072  0.00  0.00     0.035 A 
ATOM      9  C   UNL d   1      -2.463   0.670  -0.352  0.00  0.00     0.110 C 
ATOM     10  C   UNL d   1      -2.333  -0.659   0.362  0.00  0.00     0.183 C 
ATOM     11  C   UNL d   1       2.398  -0.697  -0.010  0.00  0.00     0.026 A 
ATOM     12 CL   UNL d   1       3.934   1.519   0.104  0.00  0.00    -0.084 Cl
ENDROOT
TORSDOF 0
