REMARK  3 active torsions:
REMARK  status: ('A' for Active; 'I' for Inactive)
REMARK    1  A    between atoms: N_2  and  C_1 
REMARK    2  A    between atoms: C_5  and  C_14 
REMARK    3  A    between atoms: C_15  and  C_6 
ROOT
ATOM      1  C   UNL d   1      -0.711   0.248   0.001  0.00  0.00     0.162 A 
ATOM      2  C   UNL d   1      -1.177  -1.066   0.003  0.00  0.00     0.134 A 
ATOM      3  N   UNL d   1       1.099  -1.115   0.082  0.00  0.00    -0.263 N 
ATOM      4  HN  UNL d   1       2.057  -1.462   0.120  1.00  0.00     0.194 HD
ATOM      5  C   UNL d   1       0.706   0.159   0.058  0.00  0.00     0.064 A 
ATOM      6  O   UNL d   1      -0.048  -1.863   0.044  0.00  0.00    -0.235 OA
ATOM      7  C   UNL d   1       1.733   1.230   0.100  0.00  0.00     0.073 C 
ENDROOT
BRANCH   2   8
ATOM      8  C   UNL d   1      -2.489  -1.635  -0.013  0.00  0.00     0.044 C 
ATOM      9  C   UNL d   1      -2.660  -2.971   0.015  0.00  0.00     0.036 C 
BRANCH   9  10
ATOM     10  C   UNL d   1      -3.931  -3.635   0.064  0.00  0.00     0.071 A 
ATOM     11  N   UNL d   1      -5.108  -2.988   0.049  0.00  0.00    -0.298 N 
ATOM     12  N   UNL d   1      -6.027  -3.962   0.166  0.00  0.00    -0.306 N 
ATOM     13  HN  UNL d   1      -5.269  -1.984  -0.032  1.00  0.00     0.187 HD
ATOM     14  C   UNL d   1      -7.428  -3.625   0.237  0.00  0.00     0.177 C 
ATOM     15  C   UNL d   1      -5.494  -5.213   0.232  0.00  0.00     0.135 A 
ATOM     16  C   UNL d   1      -4.133  -5.041   0.167  0.00  0.00     0.079 A 
ATOM     17 CL   UNL d   1      -2.960  -6.266   0.227  0.00  0.00    -0.080 Cl
ENDBRANCH   9  10
ENDBRANCH   2   8
BRANCH   1  18
ATOM     18  N   UNL d   1      -1.488   1.450  -0.039  0.00  0.00    -0.111 N 
ATOM     19  O   UNL d   1      -2.719   1.347  -0.081  0.00  0.00    -0.532 OA
ATOM     20  O   UNL d   1      -0.867   2.520  -0.031  0.00  0.00    -0.532 OA
ENDBRANCH   1  18
TORSDOF 3
