REMARK  4 active torsions:
REMARK  status: ('A' for Active; 'I' for Inactive)
REMARK    1  A    between atoms: C_10  and  C_3 
REMARK    2  A    between atoms: C_12  and  N_6 
REMARK    3  A    between atoms: O_16  and  C_10 
REMARK    4  A    between atoms: C_22  and  O_16 
ROOT
ATOM      1  N   UNL d   1       1.018  -0.551  -0.080  0.00  0.00    -0.121 N 
ATOM      2  C   UNL d   1       1.602   0.669   0.008  0.00  0.00     0.713 A 
ATOM      3  C   UNL d   1       2.006  -1.486  -0.222  0.00  0.00     0.220 A 
ATOM      4  N   UNL d   1       3.197  -0.953  -0.200  0.00  0.00    -0.258 N 
ATOM      5  HN  UNL d   1       4.100  -1.421  -0.277  1.00  0.00     0.190 HD
ATOM      6  N   UNL d   1       2.937   0.429  -0.043  0.00  0.00    -0.084 N 
ATOM      7  N   UNL d   1       0.728   1.636   0.091  0.00  0.00    -0.187 N 
ATOM      8  HN  UNL d   1       0.902   2.639   0.150  1.00  0.00     0.184 HD
ATOM      9  C   UNL d   1      -0.337  -0.419   0.007  0.00  0.00     0.086 A 
ATOM     10  C   UNL d   1      -0.492   0.975   0.080  0.00  0.00     0.077 A 
ATOM     11  C   UNL d   1      -1.413  -1.309   0.029  0.00  0.00     0.033 A 
ATOM     12  C   UNL d   1      -1.790   1.507   0.127  0.00  0.00     0.032 A 
ATOM     13  C   UNL d   1      -2.695  -0.751   0.085  0.00  0.00     0.002 A 
ATOM     14  C   UNL d   1      -2.885   0.631   0.124  0.00  0.00     0.002 A 
ENDROOT
BRANCH   6  15
ATOM     15  C   UNL d   1       4.011   1.349  -0.036  0.00  0.00     0.074 A 
ATOM     16  C   UNL d   1       3.809   2.735   0.021  0.00  0.00     0.032 A 
ATOM     17  C   UNL d   1       4.888   3.630  -0.017  0.00  0.00     0.009 A 
ATOM     18  C   UNL d   1       6.202   3.160  -0.105  0.00  0.00    -0.062 A 
ATOM     19  C   UNL d   1       6.421   1.782  -0.135  0.00  0.00     0.009 A 
ATOM     20  C   UNL d   1       7.347   4.123  -0.183  0.00  0.00     0.048 C 
ATOM     21  C   UNL d   1       5.340   0.894  -0.099  0.00  0.00     0.032 A 
ENDBRANCH   6  15
BRANCH   3  22
ATOM     22  C   UNL d   1       1.608  -2.904  -0.365  0.00  0.00     0.330 C 
ATOM     23  O   UNL d   1       0.774  -3.272  -1.169  0.00  0.00    -0.256 OA
BRANCH  22  24
ATOM     24  O   UNL d   1       2.257  -3.628   0.563  0.00  0.00    -0.316 OA
BRANCH  24  25
ATOM     25  C   UNL d   1       1.786  -4.967   0.760  0.00  0.00     0.175 C 
ATOM     26  C   UNL d   1       1.083  -4.998   2.102  0.00  0.00     0.034 C 
ENDBRANCH  24  25
ENDBRANCH  22  24
ENDBRANCH   3  22
TORSDOF 4
