REMARK  4 active torsions:
REMARK  status: ('A' for Active; 'I' for Inactive)
REMARK       I    between atoms: N_2  and  C_1 
REMARK    1  A    between atoms: C_4  and  C_1 
REMARK    2  A    between atoms: C_7  and  N_2 
REMARK    3  A    between atoms: C_3  and  O_6 
REMARK    4  A    between atoms: O_6  and  C_13 
ROOT
ATOM      1  C   UNL d   1       2.443   0.000  -0.354  0.00  0.00     0.032 A 
ATOM      2  C   UNL d   1       3.022  -1.273  -0.444  0.00  0.00     0.020 A 
ATOM      3  C   UNL d   1       3.251   1.133  -0.471  0.00  0.00     0.020 A 
ATOM      4  C   UNL d   1       5.218  -0.281  -0.661  0.00  0.00     0.078 A 
ATOM      5  C   UNL d   1       4.410  -1.414  -0.583  0.00  0.00     0.038 A 
ATOM      6  C   UNL d   1       4.635   0.988  -0.586  0.00  0.00     0.038 A 
ENDROOT
BRANCH   1   7
ATOM      7  C   UNL d   1       0.969   0.101  -0.175  0.00  0.00     0.253 C 
ATOM      8  N   UNL d   1       0.430   0.897   0.857  0.00  0.00    -0.348 N 
ATOM      9  C   UNL d   1       1.245   1.618   1.831  0.00  0.00     0.153 C 
ATOM     10  O   UNL d   1       0.278  -0.559  -0.947  0.00  0.00    -0.267 OA
BRANCH   8  11
ATOM     11  C   UNL d   1      -1.053   1.002   0.922  0.00  0.00     0.087 C 
ATOM     12  C   UNL d   1      -1.625   1.964  -0.136  0.00  0.00     0.025 C 
ATOM     13  C   UNL d   1      -1.532   3.432   0.268  0.00  0.00     0.002 C 
ATOM     14  C   UNL d   1      -2.176   3.693   1.625  0.00  0.00     0.000 C 
ATOM     15  C   UNL d   1      -1.634   2.778   2.715  0.00  0.00     0.002 C 
ATOM     16  C   UNL d   1      -1.660   1.303   2.309  0.00  0.00     0.025 C 
ENDBRANCH   8  11
ENDBRANCH   1   7
BRANCH   4  17
ATOM     17  O   UNL d   1       6.577  -0.276  -0.743  0.00  0.00    -0.255 OA
BRANCH  17  18
ATOM     18  C   UNL d   1       7.212  -1.264  -1.541  0.00  0.00     0.530 C 
ATOM     19  F   UNL d   1       6.371  -1.931  -2.357  0.00  0.00    -0.144 F 
ATOM     20  F   UNL d   1       8.139  -0.650  -2.312  0.00  0.00    -0.144 F 
ATOM     21  F   UNL d   1       7.848  -2.149  -0.745  0.00  0.00    -0.144 F 
ENDBRANCH  17  18
ENDBRANCH   4  17
TORSDOF 4
