REMARK  4 active torsions:
REMARK  status: ('A' for Active; 'I' for Inactive)
REMARK    1  A    between atoms: C_2  and  C_1 
REMARK       I    between atoms: N_3  and  C_2 
REMARK       I    between atoms: C_9  and  N_3 
REMARK    2  A    between atoms: S_13  and  C_6 
REMARK    3  A    between atoms: S_14  and  C_7 
REMARK       I    between atoms: N_10  and  C_9 
REMARK    4  A    between atoms: C_15  and  N_10 
ROOT
ATOM      1  C   UNL d   1      -2.518  -1.158   0.368  0.00  0.00     0.264 C 
ATOM      2  N   UNL d   1      -3.699  -0.487   0.064  0.00  0.00    -0.275 N 
ATOM      3  C   UNL d   1      -4.159   0.618  -0.627  0.00  0.00     0.327 C 
ATOM      4  N   UNL d   1      -3.304   1.218  -1.508  0.00  0.00    -0.309 N 
ATOM      5  O   UNL d   1      -2.560  -2.373   0.559  0.00  0.00    -0.267 OA
ATOM      6  O   UNL d   1      -5.345   0.910  -0.464  0.00  0.00    -0.247 OA
ATOM      7  H   UNL d   1      -4.497  -1.037   0.360  0.00  0.00     0.173 HD
ATOM      8  H   UNL d   1      -2.442   0.734  -1.709  0.00  0.00     0.170 HD
ENDROOT
BRANCH   1   9
ATOM      9  C   UNL d   1      -1.286  -0.426   0.521  0.00  0.00     0.091 C 
ATOM     10  C   UNL d   1      -0.393  -0.099  -0.488  0.00  0.00     0.076 C 
ATOM     11  S   UNL d   1       0.946   0.719   0.212  0.00  0.00    -0.006 SA
ATOM     12  N   UNL d   1       0.467   0.542   1.781  0.00  0.00    -0.319 N 
ATOM     13  C   UNL d   1      -0.695  -0.103   1.795  0.00  0.00     0.093 C 
ATOM     14  HN  UNL d   1       0.976   0.872   2.601  1.00  0.00     0.175 HD
BRANCH  10  15
ATOM     15  S   UNL d   1      -0.474  -0.339  -2.224  0.00  0.00    -0.125 SA
ATOM     16  C   UNL d   1      -0.973  -2.064  -2.384  0.00  0.00     0.096 C 
ENDBRANCH  10  15
BRANCH  13  17
ATOM     17  S   UNL d   1      -1.431  -0.517   3.345  0.00  0.00    -0.115 SA
ATOM     18  C   UNL d   1       0.037  -0.759   4.379  0.00  0.00     0.097 C 
ENDBRANCH  13  17
ENDBRANCH   1   9
BRANCH   4  19
ATOM     19  C   UNL d   1      -3.651   2.226  -2.446  0.00  0.00     0.036 A 
ATOM     20  C   UNL d   1      -4.814   3.000  -2.364  0.00  0.00     0.031 A 
ATOM     21  C   UNL d   1      -5.138   3.917  -3.372  0.00  0.00     0.026 A 
ATOM     22  C   UNL d   1      -4.296   4.071  -4.469  0.00  0.00     0.034 A 
ATOM     23  C   UNL d   1      -3.119   3.336  -4.551  0.00  0.00     0.026 A 
ATOM     24 CL   UNL d   1      -4.715   5.164  -5.728  0.00  0.00    -0.084 Cl
ATOM     25  C   UNL d   1      -2.793   2.428  -3.537  0.00  0.00     0.031 A 
ENDBRANCH   4  19
TORSDOF 4
