REMARK  3 active torsions:
REMARK  status: ('A' for Active; 'I' for Inactive)
REMARK    1  A    between atoms: N_3  and  C_1 
REMARK    2  A    between atoms: C_10  and  N_2 
REMARK       I    between atoms: C_7  and  N_3 
REMARK       I    between atoms: N_9  and  C_7 
REMARK    3  A    between atoms: C_12  and  N_9 
ROOT
ATOM      1  C   UNL d   1      -0.124  -1.123   0.438  0.00  0.00     0.133 C 
ATOM      2  N   UNL d   1       1.191  -0.736   0.180  0.00  0.00    -0.240 N 
ATOM      3  N   UNL d   1       1.323   0.611   0.312  0.00  0.00    -0.297 N 
ATOM      4  HN  UNL d   1       2.145   1.175   0.093  1.00  0.00     0.187 HD
ATOM      5  C   UNL d   1      -0.756  -0.021   0.972  0.00  0.00     0.076 C 
ATOM      6  C   UNL d   1       0.155   1.040   0.787  0.00  0.00     0.026 C 
ATOM      7  C   UNL d   1      -0.066   2.492   0.983  0.00  0.00     0.070 C 
ENDROOT
BRANCH   1   8
ATOM      8  N   UNL d   1      -0.657  -2.345   0.074  0.00  0.00    -0.293 N 
ATOM      9  C   UNL d   1      -1.520  -3.138   0.778  0.00  0.00     0.326 C 
ATOM     10  N   UNL d   1      -1.600  -2.893   2.127  0.00  0.00    -0.309 N 
ATOM     11  O   UNL d   1      -2.031  -4.083   0.188  0.00  0.00    -0.247 OA
ATOM     12  H   UNL d   1      -0.978  -2.178   2.476  0.00  0.00     0.170 HD
ATOM     13  H   UNL d   1      -0.349  -2.766  -0.797  0.00  0.00     0.172 HD
BRANCH  10  14
ATOM     14  C   UNL d   1      -2.255  -3.684   3.098  0.00  0.00     0.037 A 
ATOM     15  C   UNL d   1      -3.133  -4.726   2.787  0.00  0.00     0.053 A 
ATOM     16  C   UNL d   1      -3.739  -5.461   3.808  0.00  0.00     0.036 A 
ATOM     17 CL   UNL d   1      -4.827  -6.736   3.412  0.00  0.00    -0.084 Cl
ATOM     18  C   UNL d   1      -3.477  -5.173   5.144  0.00  0.00     0.024 A 
ATOM     19  C   UNL d   1      -2.598  -4.141   5.464  0.00  0.00     0.004 A 
ATOM     20  C   UNL d   1      -1.992  -3.399   4.445  0.00  0.00     0.029 A 
ENDBRANCH  10  14
ENDBRANCH   1   8
BRANCH   2  21
ATOM     21  C   UNL d   1       2.337  -1.552  -0.080  0.00  0.00     0.058 A 
ATOM     22  C   UNL d   1       2.296  -2.952   0.030  0.00  0.00     0.031 A 
ATOM     23  C   UNL d   1       3.444  -3.718  -0.200  0.00  0.00     0.002 A 
ATOM     24  C   UNL d   1       4.646  -3.097  -0.517  0.00  0.00     0.000 A 
ATOM     25  C   UNL d   1       4.708  -1.708  -0.606  0.00  0.00     0.002 A 
ATOM     26  C   UNL d   1       3.560  -0.938  -0.391  0.00  0.00     0.031 A 
ENDBRANCH   2  21
TORSDOF 3
