REMARK  4 active torsions:
REMARK  status: ('A' for Active; 'I' for Inactive)
REMARK    1  A    between atoms: N_16  and  C_3 
REMARK    2  A    between atoms: C_12  and  C_4 
REMARK    3  A    between atoms: C_11  and  C_6 
REMARK    4  A    between atoms: O_21  and  C_12 
ROOT
ATOM      1  N   UNL d   1       0.058  -1.537  -0.139  0.00  0.00    -0.302 N 
ATOM      2  C   UNL d   1       1.072  -0.616  -0.049  0.00  0.00     0.154 A 
ATOM      3  C   UNL d   1       0.474  -2.876  -0.215  0.00  0.00     0.111 A 
ATOM      4  C   UNL d   1      -1.383   0.447  -0.064  0.00  0.00     0.067 C 
ATOM      5  C   UNL d   1       1.826  -2.985  -0.159  0.00  0.00     0.127 A 
ATOM      6  C   UNL d   1      -1.314  -1.067   0.073  0.00  0.00     0.174 C 
ATOM      7  N   UNL d   1       1.000   0.666   0.017  0.00  0.00    -0.340 N 
ATOM      8  HN  UNL d   1       1.833   1.247   0.115  1.00  0.00     0.168 HD
ATOM      9  C   UNL d   1      -0.268   1.214  -0.053  0.00  0.00     0.022 C 
ATOM     10  S   UNL d   1       2.632  -1.435  -0.022  0.00  0.00    -0.039 SA
ATOM     11  C   UNL d   1       2.537  -4.213  -0.165  0.00  0.00     0.110 C 
ATOM     12  N   UNL d   1       3.084  -5.235  -0.141  0.00  0.00    -0.191 NA
ATOM     13  C   UNL d   1      -0.222   2.722  -0.100  0.00  0.00     0.069 C 
ENDROOT
BRANCH   3  14
ATOM     14  N   UNL d   1      -0.405  -3.933  -0.328  0.00  0.00    -0.287 NA
ATOM     15  H   UNL d   1      -1.296  -3.786   0.138  0.00  0.00     0.125 HD
ATOM     16  H   UNL d   1      -0.016  -4.847  -0.096  0.00  0.00     0.125 HD
ENDBRANCH   3  14
BRANCH   6  17
ATOM     17  C   UNL d   1      -1.851  -1.524   1.431  0.00  0.00     0.010 A 
ATOM     18  S   UNL d   1      -3.210  -2.565   1.531  0.00  0.00    -0.104 SA
ATOM     19  C   UNL d   1      -3.144  -2.587   3.238  0.00  0.00     0.050 A 
ATOM     20  C   UNL d   1      -2.107  -1.826   3.728  0.00  0.00     0.008 A 
ATOM     21  C   UNL d   1      -1.357  -1.214   2.685  0.00  0.00     0.017 A 
ENDBRANCH   6  17
BRANCH   4  22
ATOM     22  C   UNL d   1      -2.758   1.011  -0.102  0.00  0.00     0.293 C 
ATOM     23  O   UNL d   1      -3.091   2.091   0.358  0.00  0.00    -0.259 OA
BRANCH  22  24
ATOM     24  O   UNL d   1      -3.604   0.124  -0.688  0.00  0.00    -0.323 OA
ATOM     25  C   UNL d   1      -4.986   0.493  -0.648  0.00  0.00     0.213 C 
ENDBRANCH  22  24
ENDBRANCH   4  22
TORSDOF 4
