REMARK  7 active torsions:
REMARK  status: ('A' for Active; 'I' for Inactive)
REMARK    1  A    between atoms: C_15  and  C_3 
REMARK    2  A    between atoms: N_19  and  C_4 
REMARK    3  A    between atoms: C_8  and  C_10 
REMARK    4  A    between atoms: C_13  and  N_24 
REMARK    5  A    between atoms: C_31  and  N_19 
REMARK    6  A    between atoms: N_24  and  C_32 
REMARK    7  A    between atoms: C_32  and  C_31 
ROOT
ATOM      1  N   UNL d   1       0.647   0.369   0.119  0.00  0.00    -0.331 N 
ATOM      2  HN  UNL d   1       1.636   0.614   0.162  1.00  0.00     0.168 HD
ATOM      3  C   UNL d   1       0.246  -0.905   0.255  0.00  0.00     0.117 A 
ATOM      4  C   UNL d   1      -0.293   1.315  -0.077  0.00  0.00     0.105 A 
ATOM      5  N   UNL d   1      -1.037  -1.299   0.211  0.00  0.00    -0.344 N 
ATOM      6  HN  UNL d   1      -1.291  -2.281   0.324  1.00  0.00     0.167 HD
ATOM      7  C   UNL d   1      -1.653   0.988  -0.144  0.00  0.00     0.094 A 
ATOM      8  C   UNL d   1      -1.982  -0.350   0.012  0.00  0.00     0.032 A 
ATOM      9 CL   UNL d   1      -2.843   2.218  -0.380  0.00  0.00    -0.079 Cl
ATOM     10  C   UNL d   1      -3.381  -0.886  -0.033  0.00  0.00     0.070 C 
ENDROOT
BRANCH   4  11
ATOM     11  N   UNL d   1       0.134   2.638  -0.328  0.00  0.00    -0.276 NA
ATOM     12  H   UNL d   1      -0.499   3.297   0.121  0.00  0.00     0.129 HD
BRANCH  11  13
ATOM     13  C   UNL d   1       1.544   2.915  -0.032  0.00  0.00     0.108 C 
BRANCH  13  14
ATOM     14  C   UNL d   1       2.022   4.195  -0.743  0.00  0.00     0.108 C 
BRANCH  14  15
ATOM     15  N   UNL d   1       3.459   4.393  -0.502  0.00  0.00    -0.278 NA
ATOM     16  H   UNL d   1       3.997   3.570  -0.762  0.00  0.00     0.129 HD
BRANCH  15  17
ATOM     17  C   UNL d   1       4.010   5.498  -1.173  0.00  0.00     0.079 A 
ATOM     18  N   UNL d   1       3.228   6.323  -1.894  0.00  0.00    -0.356 N 
ATOM     19  C   UNL d   1       3.808   7.375  -2.519  0.00  0.00     0.105 A 
ATOM     20  HN  UNL d   1       2.223   6.160  -1.967  1.00  0.00     0.166 HD
ATOM     21  C   UNL d   1       5.160   7.668  -2.456  0.00  0.00     0.063 A 
ATOM     22  C   UNL d   1       5.959   6.819  -1.692  0.00  0.00     0.021 A 
ATOM     23  C   UNL d   1       5.379   5.728  -1.044  0.00  0.00     0.043 A 
BRANCH  21  24
ATOM     24  C   UNL d   1       5.724   8.854  -3.173  0.00  0.00     0.418 C 
ATOM     25  F   UNL d   1       4.798   9.556  -3.883  0.00  0.00    -0.166 F 
ATOM     26  F   UNL d   1       6.302   9.750  -2.327  0.00  0.00    -0.166 F 
ATOM     27  F   UNL d   1       6.692   8.508  -4.067  0.00  0.00    -0.166 F 
ENDBRANCH  21  24
ENDBRANCH  15  17
ENDBRANCH  14  15
ENDBRANCH  13  14
ENDBRANCH  11  13
ENDBRANCH   4  11
BRANCH   3  28
ATOM     28  C   UNL d   1       1.274  -1.937   0.467  0.00  0.00     0.011 A 
ATOM     29  C   UNL d   1       2.637  -1.617   0.551  0.00  0.00     0.032 A 
ATOM     30  C   UNL d   1       3.562  -2.626   0.768  0.00  0.00     0.088 A 
ATOM     31  N   UNL d   1       3.234  -3.927   0.903  0.00  0.00    -0.375 N 
ATOM     32  C   UNL d   1       1.925  -4.231   0.815  0.00  0.00     0.088 A 
ATOM     33  HN  UNL d   1       3.942  -4.644   1.065  1.00  0.00     0.164 HD
ATOM     34  C   UNL d   1       0.930  -3.291   0.601  0.00  0.00     0.032 A 
ENDBRANCH   3  28
TORSDOF 7
