REMARK  5 active torsions:
REMARK  status: ('A' for Active; 'I' for Inactive)
REMARK    1  A    between atoms: C_15  and  N_2 
REMARK    2  A    between atoms: C_11  and  C_4 
REMARK    3  A    between atoms: C_14  and  N_5 
REMARK       I    between atoms: N_13  and  C_11 
REMARK    4  A    between atoms: C_20  and  C_12 
REMARK    5  A    between atoms: C_21  and  N_13 
ROOT
ATOM      1  C   UNL d   1       0.751  -1.162   0.184  0.00  0.00     0.247 C 
ATOM      2  N   UNL d   1      -0.017   0.016   0.482  0.00  0.00    -0.265 N 
ATOM      3  S   UNL d   1       0.618  -1.583  -1.607  0.00  0.00    -0.037 SA
ATOM      4  C   UNL d   1       0.692  -3.235  -1.138  0.00  0.00     0.158 C 
ATOM      5  N   UNL d   1       0.413  -2.424   0.884  0.00  0.00    -0.241 N 
ATOM      6  N   UNL d   1       0.572  -3.583   0.100  0.00  0.00    -0.283 N 
ATOM      7  HN  UNL d   1       0.589  -4.541   0.452  1.00  0.00     0.188 HD
ATOM      8  S   UNL d   1       2.529  -0.666   0.422  0.00  0.00    -0.056 SA
ATOM      9  C   UNL d   1       0.644   1.173   0.066  0.00  0.00     0.268 C 
ATOM     10  C   UNL d   1       2.119   1.016   0.257  0.00  0.00     0.074 C 
ATOM     11  C   UNL d   1       3.041   1.987   0.368  0.00  0.00     0.035 C 
ATOM     12  O   UNL d   1       0.103   2.165  -0.393  0.00  0.00    -0.266 OA
ENDROOT
BRANCH   2  13
ATOM     13  C   UNL d   1      -1.376   0.095   0.892  0.00  0.00     0.041 A 
ATOM     14  C   UNL d   1      -2.322  -0.898   0.644  0.00  0.00     0.030 A 
ATOM     15  C   UNL d   1      -3.642  -0.741   1.093  0.00  0.00     0.002 A 
ATOM     16  C   UNL d   1      -4.020   0.387   1.820  0.00  0.00     0.000 A 
ATOM     17  C   UNL d   1      -3.086   1.375   2.094  0.00  0.00     0.002 A 
ATOM     18  C   UNL d   1      -1.782   1.231   1.624  0.00  0.00     0.030 A 
ENDBRANCH   2  13
BRANCH   5  19
ATOM     19  C   UNL d   1       0.323  -2.616   2.268  0.00  0.00     0.055 A 
ATOM     20  C   UNL d   1      -0.289  -3.783   2.769  0.00  0.00     0.032 A 
ATOM     21  C   UNL d   1      -0.320  -4.083   4.137  0.00  0.00     0.009 A 
ATOM     22  C   UNL d   1       0.292  -3.234   5.056  0.00  0.00    -0.062 A 
ATOM     23  C   UNL d   1       0.825  -2.030   4.593  0.00  0.00     0.009 A 
ATOM     24  C   UNL d   1       0.355  -3.597   6.509  0.00  0.00     0.048 C 
ATOM     25  C   UNL d   1       0.822  -1.721   3.223  0.00  0.00     0.032 A 
ENDBRANCH   5  19
BRANCH   4  26
ATOM     26  C   UNL d   1       0.955  -4.082  -2.350  0.00  0.00     0.281 C 
ATOM     27  N   UNL d   1       1.938  -5.047  -2.195  0.00  0.00    -0.321 N 
ATOM     28  H   UNL d   1       2.214  -5.284  -1.247  0.00  0.00     0.169 HD
ATOM     29  O   UNL d   1       0.271  -3.890  -3.354  0.00  0.00    -0.265 OA
BRANCH  27  30
ATOM     30  C   UNL d   1       2.396  -5.883  -3.245  0.00  0.00     0.035 A 
ATOM     31  C   UNL d   1       2.258  -5.534  -4.594  0.00  0.00     0.029 A 
ATOM     32  C   UNL d   1       2.629  -6.419  -5.609  0.00  0.00     0.002 A 
ATOM     33  C   UNL d   1       3.159  -7.662  -5.286  0.00  0.00     0.000 A 
ATOM     34  C   UNL d   1       3.360  -7.999  -3.947  0.00  0.00     0.002 A 
ATOM     35  C   UNL d   1       2.998  -7.106  -2.929  0.00  0.00     0.029 A 
ENDBRANCH  27  30
ENDBRANCH   4  26
BRANCH  11  36
ATOM     36  C   UNL d   1       2.873   3.452   0.314  0.00  0.00    -0.035 A 
ATOM     37  C   UNL d   1       1.729   4.128   0.758  0.00  0.00     0.011 A 
ATOM     38  C   UNL d   1       1.598   5.511   0.611  0.00  0.00     0.001 A 
ATOM     39  C   UNL d   1       2.649   6.256   0.093  0.00  0.00     0.000 A 
ATOM     40  C   UNL d   1       3.831   5.617  -0.271  0.00  0.00     0.001 A 
ATOM     41  C   UNL d   1       3.939   4.225  -0.167  0.00  0.00     0.011 A 
ENDBRANCH  11  36
TORSDOF 5
