REMARK  5 active torsions:
REMARK  status: ('A' for Active; 'I' for Inactive)
REMARK    1  A    between atoms: C_14  and  C_6 
REMARK    2  A    between atoms: C_20  and  C_14 
REMARK    3  A    between atoms: O_18  and  C_22 
REMARK    4  A    between atoms: C_23  and  C_20 
REMARK    5  A    between atoms: C_22  and  C_23 
ROOT
ATOM      1  C   UNL d   1      -2.059   2.012   0.196  0.00  0.00    -0.036 C 
ATOM      2  C   UNL d   1      -1.807   0.613   0.840  0.00  0.00    -0.002 C 
ATOM      3  C   UNL d   1       0.746   0.802   0.239  0.00  0.00    -0.002 C 
ATOM      4  C   UNL d   1      -0.496  -0.108   0.429  0.00  0.00    -0.005 C 
ATOM      5  C   UNL d   1       2.149   0.304   0.765  0.00  0.00    -0.036 C 
ATOM      6  C   UNL d   1      -3.128   1.750  -0.941  0.00  0.00    -0.002 C 
ATOM      7  C   UNL d   1      -0.760   2.712  -0.229  0.00  0.00     0.010 C 
ATOM      8  C   UNL d   1       0.434   2.269   0.597  0.00  0.00     0.006 C 
ATOM      9  C   UNL d   1      -3.057  -0.225   0.479  0.00  0.00     0.006 C 
ATOM     10  C   UNL d   1      -4.025   0.716  -0.229  0.00  0.00     0.006 C 
ATOM     11  C   UNL d   1      -0.215  -1.300   1.339  0.00  0.00     0.006 C 
ATOM     12  C   UNL d   1       2.281  -1.259   0.805  0.00  0.00    -0.006 C 
ATOM     13  C   UNL d   1       0.975  -2.061   0.798  0.00  0.00     0.006 C 
ATOM     14  C   UNL d   1      -2.698   2.917   1.301  0.00  0.00     0.016 C 
ATOM     15  C   UNL d   1       2.399   0.843   2.201  0.00  0.00     0.016 C 
ATOM     16  C   UNL d   1       3.229   0.959  -0.178  0.00  0.00     0.010 C 
ATOM     17  C   UNL d   1       3.192  -1.825  -0.292  0.00  0.00     0.005 C 
ATOM     18  C   UNL d   1       4.592   0.278  -0.306  0.00  0.00     0.001 C 
ATOM     19  C   UNL d   1       4.584  -1.234  -0.202  0.00  0.00     0.000 C 
ENDROOT
BRANCH   6  20
ATOM     20  C   UNL d   1      -2.582   1.246  -2.331  0.00  0.00    -0.014 C 
ATOM     21  C   UNL d   1      -1.910   2.368  -3.153  0.00  0.00     0.010 C 
BRANCH  20  22
ATOM     22  C   UNL d   1      -3.657   0.600  -3.250  0.00  0.00     0.007 C 
BRANCH  22  23
ATOM     23  C   UNL d   1      -3.127   0.091  -4.602  0.00  0.00     0.026 C 
BRANCH  23  24
ATOM     24  C   UNL d   1      -2.162  -1.079  -4.469  0.00  0.00     0.164 C 
BRANCH  24  25
ATOM     25  O   UNL d   1      -1.664  -1.405  -5.767  0.00  0.00    -0.401 OA
ATOM     26  H   UNL d   1      -0.995  -2.100  -5.651  0.00  0.00     0.209 HD
ENDBRANCH  24  25
ENDBRANCH  23  24
ENDBRANCH  22  23
ENDBRANCH  20  22
ENDBRANCH   6  20
TORSDOF 5
