REMARK  3 active torsions:
REMARK  status: ('A' for Active; 'I' for Inactive)
REMARK    1  A    between atoms: C_2  and  C_1 
REMARK       I    between atoms: N_4  and  C_1 
REMARK       I    between atoms: C_3  and  N_5 
REMARK    2  A    between atoms: C_6  and  C_3 
REMARK    3  A    between atoms: N_5  and  N_4 
ROOT
ATOM      1  C   UNL d   1       0.810  -0.067   0.043  0.00  0.00     0.271 C 
ATOM      2  N   UNL d   1       0.224   0.589  -1.024  0.00  0.00    -0.263 N 
ATOM      3  O   UNL d   1       0.152  -0.500   0.985  0.00  0.00    -0.266 OA
ATOM      4  H   UNL d   1       0.730   0.980  -1.817  0.00  0.00     0.190 HD
ENDROOT
BRANCH   2   5
ATOM      5  N   UNL d   1      -1.167   0.736  -1.040  0.00  0.00    -0.263 N 
ATOM      6  C   UNL d   1      -1.764   1.105  -2.229  0.00  0.00     0.270 C 
ATOM      7  O   UNL d   1      -1.118   1.376  -3.239  0.00  0.00    -0.266 OA
ATOM      8  H   UNL d   1      -1.665   0.297  -0.267  0.00  0.00     0.190 HD
BRANCH   6   9
ATOM      9  C   UNL d   1      -3.254   1.137  -2.248  0.00  0.00     0.036 A 
ATOM     10  C   UNL d   1      -3.903   0.977  -3.483  0.00  0.00     0.057 A 
ATOM     11  C   UNL d   1      -5.281   1.012  -3.496  0.00  0.00     0.106 A 
ATOM     12  O   UNL d   1      -6.071   0.863  -4.593  0.00  0.00    -0.323 OA
ATOM     13  C   UNL d   1      -6.013   1.210  -2.349  0.00  0.00     0.105 A 
ATOM     14  C   UNL d   1      -7.383   0.972  -4.003  0.00  0.00     0.352 A 
ATOM     15  O   UNL d   1      -7.353   1.212  -2.581  0.00  0.00    -0.323 OA
ATOM     16  C   UNL d   1      -5.408   1.390  -1.123  0.00  0.00     0.041 A 
ATOM     17  C   UNL d   1      -4.009   1.354  -1.073  0.00  0.00     0.020 A 
ENDBRANCH   6   9
ENDBRANCH   2   5
BRANCH   1  18
ATOM     18  C   UNL d   1       2.294  -0.223  -0.034  0.00  0.00     0.044 A 
ATOM     19  C   UNL d   1       3.131  -0.049   1.108  0.00  0.00    -0.010 A 
ATOM     20  C   UNL d   1       4.530  -0.222   0.939  0.00  0.00    -0.025 A 
ATOM     21  C   UNL d   1       2.677   0.298   2.405  0.00  0.00     0.013 A 
ATOM     22  C   UNL d   1       5.402  -0.057   2.028  0.00  0.00     0.012 A 
ATOM     23  C   UNL d   1       5.052  -0.561  -0.319  0.00  0.00     0.012 A 
ATOM     24  C   UNL d   1       4.920   0.276   3.292  0.00  0.00     0.001 A 
ATOM     25  C   UNL d   1       3.557   0.453   3.481  0.00  0.00     0.001 A 
ATOM     26  C   UNL d   1       4.218  -0.741  -1.419  0.00  0.00     0.002 A 
ATOM     27  C   UNL d   1       2.846  -0.579  -1.278  0.00  0.00     0.018 A 
ENDBRANCH   1  18
TORSDOF 3
