REMARK  3 active torsions:
REMARK  status: ('A' for Active; 'I' for Inactive)
REMARK    1  A    between atoms: C_9  and  C_4 
REMARK    2  A    between atoms: O_12  and  C_6 
REMARK    3  A    between atoms: O_14  and  C_11 
ROOT
ATOM      1  N   UNL d   1      -0.455  -1.854   0.025  0.00  0.00    -0.355 N 
ATOM      2  HN  UNL d   1      -0.100  -2.810   0.039  1.00  0.00     0.166 HD
ATOM      3  C   UNL d   1      -0.021   0.529   0.021  0.00  0.00     0.026 A 
ATOM      4  C   UNL d   1      -1.792  -1.623   0.003  0.00  0.00     0.045 A 
ATOM      5  C   UNL d   1       0.400  -0.816   0.030  0.00  0.00     0.045 A 
ATOM      6  C   UNL d   1      -1.413   0.737   0.020  0.00  0.00     0.080 A 
ATOM      7  C   UNL d   1      -2.298  -0.332   0.014  0.00  0.00     0.067 A 
ATOM      8  C   UNL d   1       0.955   1.562   0.011  0.00  0.00     0.053 A 
ATOM      9  C   UNL d   1       1.760  -1.085   0.039  0.00  0.00     0.033 A 
ATOM     10  C   UNL d   1       2.317   1.268   0.016  0.00  0.00     0.069 A 
ATOM     11  C   UNL d   1       2.715  -0.064   0.033  0.00  0.00     0.039 A 
ENDROOT
BRANCH   4  12
ATOM     12  C   UNL d   1      -2.660  -2.819  -0.037  0.00  0.00    -0.009 A 
ATOM     13  C   UNL d   1      -2.256  -4.029   0.556  0.00  0.00     0.013 A 
ATOM     14  C   UNL d   1      -3.075  -5.163   0.533  0.00  0.00     0.001 A 
ATOM     15  C   UNL d   1      -4.317  -5.114  -0.090  0.00  0.00     0.000 A 
ATOM     16  C   UNL d   1      -4.739  -3.935  -0.697  0.00  0.00     0.001 A 
ATOM     17  C   UNL d   1      -3.918  -2.804  -0.672  0.00  0.00     0.013 A 
ENDBRANCH   4  12
BRANCH   6  18
ATOM     18  O   UNL d   1      -2.007   1.972   0.022  0.00  0.00    -0.360 OA
ATOM     19  H   UNL d   1      -1.337   2.668   0.055  0.00  0.00     0.217 HD
ENDBRANCH   6  18
BRANCH  10  20
ATOM     20  O   UNL d   1       3.338   2.176   0.005  0.00  0.00    -0.356 OA
ATOM     21  C   UNL d   1       2.982   3.553  -0.025  0.00  0.00     0.210 C 
ENDBRANCH  10  20
TORSDOF 3
