REMARK  4 active torsions:
REMARK  status: ('A' for Active; 'I' for Inactive)
REMARK    1  A    between atoms: C_2  and  S_1 
REMARK    2  A    between atoms: C_15  and  S_1 
REMARK    3  A    between atoms: C_4  and  C_3 
REMARK    4  A    between atoms: C_7  and  C_5 
ROOT
ATOM      1  C   UNL d   1      -1.284  -1.744  -2.306  0.00  0.00     0.145 C 
ATOM      2  C   UNL d   1      -0.386  -1.894  -1.315  0.00  0.00     0.054 C 
ATOM      3  C   UNL d   1      -2.661  -2.045  -2.203  0.00  0.00     0.112 C 
ATOM      4  N   UNL d   1      -3.795  -2.282  -2.120  0.00  0.00    -0.191 NA
ENDROOT
BRANCH   1   5
ATOM      5  S   UNL d   1      -0.692  -1.269  -3.868  0.00  0.00     0.216 S 
ATOM      6  O   UNL d   1      -0.894  -2.361  -4.803  0.00  0.00    -0.216 OA
ATOM      7  O   UNL d   1       0.631  -0.680  -3.738  0.00  0.00    -0.216 OA
BRANCH   5   8
ATOM      8  C   UNL d   1      -1.763   0.065  -4.384  0.00  0.00     0.065 A 
ATOM      9  C   UNL d   1      -1.444   1.380  -4.025  0.00  0.00     0.024 A 
ATOM     10  C   UNL d   1      -2.210   2.435  -4.524  0.00  0.00     0.002 A 
ATOM     11  C   UNL d   1      -3.279   2.177  -5.384  0.00  0.00     0.000 A 
ATOM     12  C   UNL d   1      -3.589   0.865  -5.746  0.00  0.00     0.002 A 
ATOM     13  C   UNL d   1      -2.828  -0.196  -5.252  0.00  0.00     0.024 A 
ENDBRANCH   5   8
ENDBRANCH   1   5
BRANCH   2  14
ATOM     14  C   UNL d   1      -0.727  -2.336  -0.008  0.00  0.00     0.007 A 
ATOM     15  S   UNL d   1      -0.481  -3.978   0.438  0.00  0.00    -0.090 SA
ATOM     16  C   UNL d   1      -0.975  -3.706   2.062  0.00  0.00     0.016 A 
ATOM     17  C   UNL d   1      -1.338  -2.385   2.244  0.00  0.00     0.021 A 
ATOM     18  C   UNL d   1      -1.201  -1.602   1.061  0.00  0.00     0.020 A 
BRANCH  16  19
ATOM     19  C   UNL d   1      -0.962  -4.758   3.030  0.00  0.00    -0.008 C 
ATOM     20  C   UNL d   1       0.159  -5.121   3.921  0.00  0.00     0.009 A 
ATOM     21  C   UNL d   1      -0.077  -5.958   5.021  0.00  0.00     0.080 A 
ATOM     22  C   UNL d   1       1.457  -4.627   3.727  0.00  0.00     0.015 A 
ATOM     23  C   UNL d   1       0.945  -6.264   5.923  0.00  0.00     0.037 A 
ATOM     24  O   UNL d   1      -1.309  -6.478   5.312  0.00  0.00    -0.347 OA
ATOM     25  C   UNL d   1       2.229  -5.767   5.715  0.00  0.00     0.003 A 
ATOM     26  C   UNL d   1       2.487  -4.954   4.614  0.00  0.00     0.001 A 
ATOM     27  C   UNL d   1      -2.218  -6.561   4.210  0.00  0.00     0.204 C 
ATOM     28  C   UNL d   1      -2.089  -5.471   3.193  0.00  0.00     0.013 C 
ENDBRANCH  16  19
ENDBRANCH   2  14
TORSDOF 4
