REMARK  2 active torsions:
REMARK  status: ('A' for Active; 'I' for Inactive)
REMARK    1  A    between atoms: C_4  and  C_1 
REMARK    2  A    between atoms: C_2  and  C_3 
REMARK       I    between atoms: N_12  and  C_4 
ROOT
ATOM      1  C   UNL d   1       0.806   1.244  -0.015  0.00  0.00     0.062 A 
ATOM      2  C   UNL d   1       1.516   0.037  -0.021  0.00  0.00     0.066 A 
ATOM      3  N   UNL d   1      -1.306   0.026   0.024  0.00  0.00    -0.374 N 
ATOM      4  HN  UNL d   1      -2.326   0.031   0.036  1.00  0.00     0.164 HD
ATOM      5  C   UNL d   1      -0.588   1.176  -0.013  0.00  0.00     0.105 A 
ATOM      6  C   UNL d   1       0.776  -1.164   0.020  0.00  0.00     0.034 A 
ATOM      7  C   UNL d   1      -0.607  -1.121   0.042  0.00  0.00     0.088 A 
ENDROOT
BRANCH   1   8
ATOM      8  C   UNL d   1       1.359   2.615  -0.036  0.00  0.00     0.251 C 
ATOM      9  O   UNL d   1       0.817   3.492  -0.695  0.00  0.00    -0.268 OA
ATOM     10  N   UNL d   1       2.435   2.905   0.749  0.00  0.00    -0.366 N 
ATOM     11  H   UNL d   1       3.021   2.221   1.209  0.00  0.00     0.159 HD
ATOM     12  H   UNL d   1       2.812   3.842   0.662  0.00  0.00     0.159 HD
ENDBRANCH   1   8
BRANCH   2  13
ATOM     13  C   UNL d   1       3.009  -0.098  -0.096  0.00  0.00     0.418 C 
ATOM     14  F   UNL d   1       3.704   1.044  -0.324  0.00  0.00    -0.166 F 
ATOM     15  F   UNL d   1       3.519  -0.606   1.061  0.00  0.00    -0.166 F 
ATOM     16  F   UNL d   1       3.398  -0.960  -1.077  0.00  0.00    -0.166 F 
ENDBRANCH   2  13
TORSDOF 2
