REMARK  6 active torsions:
REMARK  status: ('A' for Active; 'I' for Inactive)
REMARK    1  A    between atoms: O_3  and  S_1 
REMARK    2  A    between atoms: C_5  and  S_1 
REMARK    3  A    between atoms: C_4  and  C_2 
REMARK    4  A    between atoms: C_6  and  O_3 
REMARK    5  A    between atoms: O_18  and  C_4 
REMARK    6  A    between atoms: C_22  and  O_18 
ROOT
ATOM      1  C   UNL d   1       1.678   2.340   4.385  0.00  0.00     0.048 C 
ATOM      2  C   UNL d   1       1.107   1.836   1.855  0.00  0.00     0.081 C 
ATOM      3  C   UNL d   1       1.586   3.645   3.571  0.00  0.00     0.023 C 
ATOM      4  C   UNL d   1       0.315   1.625   4.276  0.00  0.00     0.023 C 
ATOM      5  C   UNL d   1       2.744   1.424   3.749  0.00  0.00     0.023 C 
ATOM      6  C   UNL d   1       1.241   3.352   2.109  0.00  0.00     0.041 C 
ATOM      7  C   UNL d   1      -0.019   1.332   2.797  0.00  0.00     0.041 C 
ATOM      8  C   UNL d   1       2.407   1.126   2.289  0.00  0.00     0.041 C 
ENDROOT
BRANCH   2   9
ATOM      9  O   UNL d   1       0.736   1.536   0.501  0.00  0.00    -0.261 OA
BRANCH   9  10
ATOM     10  S   UNL d   1       1.767   1.882  -0.727  0.00  0.00     0.298 S 
ATOM     11  O   UNL d   1       2.902   0.985  -0.638  0.00  0.00    -0.193 OA
ATOM     12  O   UNL d   1       1.943   3.316  -0.783  0.00  0.00    -0.193 OA
BRANCH  10  13
ATOM     13  C   UNL d   1       0.970   1.462  -2.252  0.00  0.00     0.086 A 
ATOM     14  C   UNL d   1      -0.251   0.797  -2.315  0.00  0.00     0.026 A 
ATOM     15  C   UNL d   1      -0.813   0.546  -3.574  0.00  0.00     0.008 A 
ATOM     16  C   UNL d   1      -0.162   0.958  -4.752  0.00  0.00    -0.062 A 
ATOM     17  C   UNL d   1       1.072   1.607  -4.663  0.00  0.00     0.008 A 
ATOM     18  C   UNL d   1      -0.791   0.723  -6.094  0.00  0.00     0.048 C 
ATOM     19  C   UNL d   1       1.637   1.858  -3.419  0.00  0.00     0.026 A 
ENDBRANCH  10  13
ENDBRANCH   9  10
ENDBRANCH   2   9
BRANCH   1  20
ATOM     20  C   UNL d   1       2.140   2.642   5.806  0.00  0.00     0.267 C 
ATOM     21  O   UNL d   1       2.851   3.589   6.110  0.00  0.00    -0.264 OA
BRANCH  20  22
ATOM     22  O   UNL d   1       1.817   1.616   6.641  0.00  0.00    -0.321 OA
BRANCH  22  23
ATOM     23  C   UNL d   1       2.650   1.484   7.801  0.00  0.00     0.174 C 
ATOM     24  C   UNL d   1       3.802   0.563   7.439  0.00  0.00     0.034 C 
ENDBRANCH  22  23
ENDBRANCH  20  22
ENDBRANCH   1  20
TORSDOF 6
