REMARK  1 active torsions:
REMARK  status: ('A' for Active; 'I' for Inactive)
REMARK    1  A    between atoms: C_4  and  C_7 
ROOT
ATOM      1  C   UNL d   1      -4.552   0.123  -0.654  0.00  0.00     0.125 C 
ATOM      2  N   UNL d   1      -4.381   2.335  -1.978  0.00  0.00    -0.191 NA
ATOM      3  N   UNL d   1      -6.859  -1.034  -0.516  0.00  0.00    -0.191 NA
ATOM      4  C   UNL d   1      -4.461   1.338  -1.390  0.00  0.00     0.111 C 
ATOM      5  C   UNL d   1      -5.826  -0.509  -0.588  0.00  0.00     0.111 C 
ENDROOT
BRANCH   1   6
ATOM      6  C   UNL d   1      -3.505  -0.466  -0.042  0.00  0.00     0.052 C 
ATOM      7  C   UNL d   1      -2.174   0.051  -0.007  0.00  0.00     0.008 A 
ATOM      8  S   UNL d   1      -0.856  -1.073   0.004  0.00  0.00    -0.078 SA
ATOM      9  C   UNL d   1      -1.689   1.350   0.059  0.00  0.00     0.021 A 
ATOM     10  C   UNL d   1       0.289   0.168   0.034  0.00  0.00     0.075 A 
ATOM     11  C   UNL d   1      -0.263   1.419   0.063  0.00  0.00     0.033 A 
ATOM     12 CL   UNL d   1       1.964  -0.211   0.036  0.00  0.00    -0.076 Cl
ENDBRANCH   1   6
TORSDOF 1
