REMARK  4 active torsions:
REMARK  status: ('A' for Active; 'I' for Inactive)
REMARK    1  A    between atoms: C_7  and  N_1 
REMARK    2  A    between atoms: N_6  and  C_9 
REMARK    3  A    between atoms: N_15  and  C_7 
REMARK    4  A    between atoms: C_17  and  N_15 
ROOT
ATOM      1  N   UNL d   1       1.913   0.033  -0.167  0.00  0.00    -0.267 N 
ATOM      2  C   UNL d   1       1.146   1.160  -0.102  0.00  0.00     0.262 A 
ATOM      3  C   UNL d   1       1.161  -1.104  -0.086  0.00  0.00     0.262 A 
ATOM      4  C   UNL d   1      -0.247   0.712  -0.062  0.00  0.00     0.050 A 
ATOM      5  C   UNL d   1      -0.235  -0.673  -0.058  0.00  0.00     0.048 A 
ATOM      6  C   UNL d   1      -1.423   1.438  -0.026  0.00  0.00     0.054 A 
ATOM      7  C   UNL d   1      -2.618   0.699   0.006  0.00  0.00     0.103 A 
ATOM      8  C   UNL d   1      -1.397  -1.419  -0.013  0.00  0.00     0.020 A 
ATOM      9  O   UNL d   1       1.485   2.325  -0.060  0.00  0.00    -0.267 OA
ATOM     10  O   UNL d   1       1.505  -2.266   0.008  0.00  0.00    -0.267 OA
ATOM     11  C   UNL d   1      -2.608  -0.719   0.015  0.00  0.00     0.037 A 
ENDROOT
BRANCH   1  12
ATOM     12  C   UNL d   1       3.348   0.032  -0.156  0.00  0.00     0.230 C 
BRANCH  12  13
ATOM     13  N   UNL d   1       3.806   0.102  -1.537  0.00  0.00    -0.276 NA
ATOM     14  H   UNL d   1       3.358   0.878  -2.018  0.00  0.00     0.129 HD
BRANCH  13  15
ATOM     15  C   UNL d   1       5.196   0.120  -1.744  0.00  0.00     0.009 A 
ATOM     16  C   UNL d   1       6.098  -0.600  -0.948  0.00  0.00     0.025 A 
ATOM     17  C   UNL d   1       7.472  -0.584  -1.213  0.00  0.00     0.025 A 
ATOM     18  C   UNL d   1       7.958   0.124  -2.306  0.00  0.00     0.034 A 
ATOM     19  C   UNL d   1       7.078   0.794  -3.148  0.00  0.00     0.025 A 
ATOM     20 CL   UNL d   1       9.647   0.155  -2.624  0.00  0.00    -0.084 Cl
ATOM     21  C   UNL d   1       5.705   0.774  -2.876  0.00  0.00     0.025 A 
ENDBRANCH  13  15
ENDBRANCH  12  13
ENDBRANCH   1  12
BRANCH   7  22
ATOM     22  N   UNL d   1      -3.905   1.409   0.021  0.00  0.00    -0.116 N 
ATOM     23  O   UNL d   1      -3.877   2.647   0.002  0.00  0.00    -0.532 OA
ATOM     24  O   UNL d   1      -4.938   0.725   0.048  0.00  0.00    -0.532 OA
ENDBRANCH   7  22
TORSDOF 4
