REMARK  5 active torsions:
REMARK  status: ('A' for Active; 'I' for Inactive)
REMARK    1  A    between atoms: C_3  and  C_1 
REMARK    2  A    between atoms: N_4  and  C_2 
REMARK    3  A    between atoms: O_12  and  C_3 
REMARK    4  A    between atoms: C_5  and  N_4 
REMARK    5  A    between atoms: O_11  and  C_5 
ROOT
ATOM      1  C   UNL d   1       0.061   1.426  -0.017  0.00  0.00     0.106 A 
ATOM      2  C   UNL d   1       1.358   0.935  -0.164  0.00  0.00     0.058 A 
ATOM      3  S   UNL d   1      -1.092   0.143   0.080  0.00  0.00    -0.094 SA
ATOM      4  C   UNL d   1       1.362  -0.495  -0.148  0.00  0.00     0.038 A 
ATOM      5  C   UNL d   1       0.108  -1.049  -0.040  0.00  0.00     0.053 A 
ENDROOT
BRANCH   2   6
ATOM      6  N   UNL d   1       2.492   1.746  -0.247  0.00  0.00    -0.326 N 
ATOM      7  H   UNL d   1       2.391   2.702   0.083  0.00  0.00     0.169 HD
BRANCH   6   8
ATOM      8  C   UNL d   1       3.741   1.433  -0.735  0.00  0.00     0.214 C 
ATOM      9  S   UNL d   1       4.174   0.200  -1.776  0.00  0.00    -0.033 SA
BRANCH   8  10
ATOM     10  O   UNL d   1       4.639   2.374  -0.323  0.00  0.00    -0.332 OA
ATOM     11  C   UNL d   1       6.063   2.188  -0.481  0.00  0.00     0.212 C 
ENDBRANCH   8  10
ENDBRANCH   6   8
ENDBRANCH   2   6
BRANCH   1  12
ATOM     12  C   UNL d   1      -0.478   2.776   0.007  0.00  0.00     0.302 C 
ATOM     13  O   UNL d   1      -1.669   3.077   0.035  0.00  0.00    -0.259 OA
BRANCH  12  14
ATOM     14  O   UNL d   1       0.528   3.706  -0.024  0.00  0.00    -0.322 OA
ATOM     15  C   UNL d   1       0.062   5.062  -0.107  0.00  0.00     0.213 C 
ENDBRANCH  12  14
ENDBRANCH   1  12
TORSDOF 5
