REMARK  4 active torsions:
REMARK  status: ('A' for Active; 'I' for Inactive)
REMARK    1  A    between atoms: C_14  and  N_3 
REMARK    2  A    between atoms: N_11  and  N_9 
REMARK    3  A    between atoms: C_17  and  C_16 
REMARK    4  A    between atoms: O_23  and  C_18 
ROOT
ATOM      1  C   UNL d   1       0.267  -0.781   0.043  0.00  0.00     0.122 A 
ATOM      2  C   UNL d   1       0.316   0.549   0.036  0.00  0.00     0.138 A 
ATOM      3  N   UNL d   1       1.629   1.062  -0.014  0.00  0.00    -0.281 N 
ATOM      4  C   UNL d   1       2.607   0.027   0.010  0.00  0.00     0.152 A 
ATOM      5  S   UNL d   1       1.785  -1.554  -0.033  0.00  0.00    -0.051 SA
ATOM      6  C   UNL d   1      -1.020  -1.493   0.090  0.00  0.00     0.288 A 
ATOM      7  N   UNL d   1      -0.801   1.342   0.037  0.00  0.00    -0.335 N 
ATOM      8  HN  UNL d   1      -0.737   2.359   0.004  1.00  0.00     0.168 HD
ATOM      9  N   UNL d   1      -2.126  -0.637   0.121  0.00  0.00    -0.215 N 
ATOM     10  C   UNL d   1      -1.945   0.730   0.082  0.00  0.00     0.212 A 
ATOM     11  S   UNL d   1       4.270   0.067   0.190  0.00  0.00    -0.052 SA
ATOM     12  O   UNL d   1      -1.070  -2.723   0.097  0.00  0.00    -0.265 OA
ENDROOT
BRANCH   9  13
ATOM     13  N   UNL d   1      -3.349  -1.276   0.151  0.00  0.00    -0.301 N 
ATOM     14  C   UNL d   1      -4.482  -0.662   0.189  0.00  0.00     0.119 C 
ATOM     15  HN  UNL d   1      -3.356  -2.296   0.143  1.00  0.00     0.186 HD
BRANCH  14  16
ATOM     16  C   UNL d   1      -5.745  -1.437   0.185  0.00  0.00    -0.019 A 
ATOM     17  C   UNL d   1      -5.724  -2.836   0.185  0.00  0.00     0.015 A 
ATOM     18  C   UNL d   1      -6.922  -3.557   0.146  0.00  0.00     0.037 A 
ATOM     19  C   UNL d   1      -8.142  -2.881   0.106  0.00  0.00     0.068 A 
ATOM     20  C   UNL d   1      -8.157  -1.483   0.134  0.00  0.00     0.037 A 
ATOM     21  C   UNL d   1      -6.963  -0.756   0.167  0.00  0.00     0.015 A 
BRANCH  19  22
ATOM     22  O   UNL d   1      -9.372  -3.478   0.091  0.00  0.00    -0.356 OA
ATOM     23  C   UNL d   1      -9.437  -4.749  -0.548  0.00  0.00     0.210 C 
ENDBRANCH  19  22
ENDBRANCH  14  16
ENDBRANCH   9  13
BRANCH   3  24
ATOM     24  C   UNL d   1       1.951   2.469  -0.028  0.00  0.00     0.042 A 
ATOM     25  C   UNL d   1       1.155   3.410   0.646  0.00  0.00     0.030 A 
ATOM     26  C   UNL d   1       1.480   4.773   0.657  0.00  0.00     0.002 A 
ATOM     27  C   UNL d   1       2.615   5.227  -0.005  0.00  0.00     0.000 A 
ATOM     28  C   UNL d   1       3.407   4.322  -0.698  0.00  0.00     0.002 A 
ATOM     29  C   UNL d   1       3.067   2.964  -0.724  0.00  0.00     0.030 A 
ENDBRANCH   3  24
TORSDOF 4
