REMARK  3 active torsions:
REMARK  status: ('A' for Active; 'I' for Inactive)
REMARK    1  A    between atoms: C_6  and  C_2 
REMARK    2  A    between atoms: C_8  and  C_2 
REMARK    3  A    between atoms: C_11  and  C_6 
ROOT
ATOM      1  C   UNL d   1      -1.828   0.489   0.097  0.00  0.00     0.242 A 
ATOM      2  C   UNL d   1      -0.811   1.691   0.097  0.00  0.00     0.101 A 
ATOM      3  N   UNL d   1      -1.090  -0.699   0.016  0.00  0.00    -0.321 N 
ATOM      4  C   UNL d   1       0.518   0.924   0.011  0.00  0.00    -0.008 A 
ATOM      5  C   UNL d   1       0.282  -0.452  -0.008  0.00  0.00     0.044 A 
ATOM      6  O   UNL d   1      -3.041   0.546   0.194  0.00  0.00    -0.271 OA
ATOM      7  C   UNL d   1      -1.674  -2.015   0.032  0.00  0.00     0.159 C 
ATOM      8  C   UNL d   1       1.820   1.409  -0.007  0.00  0.00     0.011 A 
ATOM      9  C   UNL d   1       1.314  -1.375  -0.030  0.00  0.00     0.030 A 
ATOM     10  C   UNL d   1       2.874   0.489  -0.034  0.00  0.00     0.001 A 
ATOM     11  C   UNL d   1       2.623  -0.892  -0.040  0.00  0.00     0.002 A 
ENDROOT
BRANCH   2  12
ATOM     12  C   UNL d   1      -1.016   2.518  -1.213  0.00  0.00     0.068 C 
BRANCH  12  13
ATOM     13  C   UNL d   1      -2.359   3.199  -1.421  0.00  0.00    -0.056 A 
ATOM     14  C   UNL d   1      -2.621   4.489  -0.936  0.00  0.00     0.007 A 
ATOM     15  C   UNL d   1      -3.873   5.086  -1.105  0.00  0.00     0.001 A 
ATOM     16  C   UNL d   1      -4.874   4.415  -1.796  0.00  0.00     0.000 A 
ATOM     17  C   UNL d   1      -4.623   3.148  -2.316  0.00  0.00     0.001 A 
ATOM     18  C   UNL d   1      -3.377   2.544  -2.127  0.00  0.00     0.007 A 
ENDBRANCH  12  13
ENDBRANCH   2  12
BRANCH   2  19
ATOM     19  C   UNL d   1      -0.853   2.486   1.416  0.00  0.00    -0.035 A 
ATOM     20  C   UNL d   1      -1.220   1.862   2.624  0.00  0.00     0.009 A 
ATOM     21  C   UNL d   1      -1.205   2.559   3.833  0.00  0.00     0.001 A 
ATOM     22  C   UNL d   1      -0.829   3.898   3.866  0.00  0.00     0.000 A 
ATOM     23  C   UNL d   1      -0.455   4.536   2.690  0.00  0.00     0.001 A 
ATOM     24  C   UNL d   1      -0.439   3.828   1.487  0.00  0.00     0.009 A 
ENDBRANCH   2  19
TORSDOF 3
