REMARK  3 active torsions:
REMARK  status: ('A' for Active; 'I' for Inactive)
REMARK    1  A    between atoms: C_3  and  C_1 
REMARK       I    between atoms: N_10  and  C_3 
REMARK    2  A    between atoms: C_17  and  N_10 
REMARK    3  A    between atoms: N_16  and  C_15 
ROOT
ATOM      1  C   UNL d   1      -0.536  -4.762  -0.915  0.00  0.00     0.258 C 
ATOM      2  N   UNL d   1      -0.185  -3.725  -0.070  0.00  0.00    -0.323 N 
ATOM      3  O   UNL d   1       0.250  -5.484  -1.526  0.00  0.00    -0.267 OA
ATOM      4  H   UNL d   1      -0.934  -3.276   0.451  0.00  0.00     0.169 HD
ENDROOT
BRANCH   1   5
ATOM      5  C   UNL d   1      -1.977  -5.046  -1.103  0.00  0.00     0.061 A 
ATOM      6  C   UNL d   1      -3.035  -4.283  -0.550  0.00  0.00     0.082 A 
ATOM      7  N   UNL d   1      -2.946  -3.213   0.264  0.00  0.00    -0.310 N 
ATOM      8  C   UNL d   1      -4.476  -4.648  -0.863  0.00  0.00     0.068 A 
ATOM      9  S   UNL d   1      -4.501  -2.715   0.578  0.00  0.00     0.068 SA
ATOM     10  HN  UNL d   1      -2.089  -2.790   0.620  1.00  0.00     0.176 HD
ATOM     11  N   UNL d   1      -5.366  -3.834  -0.280  0.00  0.00    -0.310 N 
ATOM     12  HN  UNL d   1      -6.382  -3.893  -0.352  1.00  0.00     0.176 HD
ATOM     13  C   UNL d   1      -4.793  -5.747  -1.698  0.00  0.00     0.032 A 
ATOM     14  C   UNL d   1      -3.709  -6.469  -2.212  0.00  0.00     0.003 A 
ATOM     15  C   UNL d   1      -2.368  -6.133  -1.929  0.00  0.00     0.019 A 
ENDBRANCH   1   5
BRANCH   2  16
ATOM     16  C   UNL d   1       1.117  -3.209   0.126  0.00  0.00     0.035 A 
ATOM     17  C   UNL d   1       2.219  -3.583  -0.639  0.00  0.00     0.032 A 
ATOM     18  C   UNL d   1       3.478  -2.996  -0.435  0.00  0.00     0.031 A 
ATOM     19  C   UNL d   1       3.685  -2.014   0.538  0.00  0.00     0.029 A 
ATOM     20  C   UNL d   1       2.571  -1.674   1.325  0.00  0.00     0.031 A 
ATOM     21  C   UNL d   1       1.305  -2.248   1.119  0.00  0.00     0.032 A 
BRANCH  19  22
ATOM     22  N   UNL d   1       4.928  -1.422   0.770  0.00  0.00    -0.390 N 
ATOM     23  C   UNL d   1       6.129  -2.010   0.180  0.00  0.00     0.149 C 
ATOM     24  C   UNL d   1       4.958   0.040   0.869  0.00  0.00     0.149 C 
ENDBRANCH  19  22
ENDBRANCH   2  16
TORSDOF 3
