REMARK  8 active torsions:
REMARK  status: ('A' for Active; 'I' for Inactive)
REMARK    1  A    between atoms: N_16  and  C_3 
REMARK    2  A    between atoms: C_6  and  C_4 
REMARK    3  A    between atoms: S_14  and  C_5 
REMARK    4  A    between atoms: O_20  and  C_6 
REMARK    5  A    between atoms: C_11  and  C_10 
REMARK    6  A    between atoms: C_13  and  C_11 
REMARK    7  A    between atoms: C_12  and  S_14 
REMARK    8  A    between atoms: C_24  and  O_20 
ROOT
ATOM      1  N   UNL d   1       0.293  -1.118   0.028  0.00  0.00    -0.327 N 
ATOM      2  HN  UNL d   1       0.838  -1.980  -0.003  1.00  0.00     0.169 HD
ATOM      3  C   UNL d   1       0.897   0.084   0.035  0.00  0.00     0.097 A 
ATOM      4  C   UNL d   1       0.179   1.264   0.082  0.00  0.00     0.092 A 
ATOM      5  C   UNL d   1      -1.053  -1.149   0.064  0.00  0.00     0.149 A 
ATOM      6  N   UNL d   1      -1.834  -0.056   0.081  0.00  0.00    -0.345 N 
ATOM      7  HN  UNL d   1      -2.852  -0.120   0.088  1.00  0.00     0.167 HD
ATOM      8  C   UNL d   1      -1.192   1.134   0.088  0.00  0.00     0.111 A 
ENDROOT
BRANCH   5   9
ATOM      9  S   UNL d   1      -1.774  -2.776   0.160  0.00  0.00    -0.066 SA
BRANCH   9  10
ATOM     10  C   UNL d   1      -3.485  -2.489   0.178  0.00  0.00     0.057 C 
ATOM     11  C   UNL d   1      -4.331  -3.512   0.365  0.00  0.00     0.063 C 
BRANCH  11  12
ATOM     12  C   UNL d   1      -5.803  -3.294   0.336  0.00  0.00     0.182 C 
ATOM     13  O   UNL d   1      -6.298  -2.301  -0.184  0.00  0.00    -0.288 OA
BRANCH  12  14
ATOM     14  C   UNL d   1      -6.671  -4.354   0.923  0.00  0.00     0.014 A 
ATOM     15  C   UNL d   1      -6.264  -5.121   2.021  0.00  0.00     0.016 A 
ATOM     16  C   UNL d   1      -7.126  -6.077   2.568  0.00  0.00     0.007 A 
ATOM     17  C   UNL d   1      -8.404  -6.277   2.031  0.00  0.00    -0.062 A 
ATOM     18  C   UNL d   1      -8.809  -5.507   0.935  0.00  0.00     0.007 A 
ATOM     19  C   UNL d   1      -9.319  -7.298   2.643  0.00  0.00     0.048 C 
ATOM     20  C   UNL d   1      -7.951  -4.546   0.388  0.00  0.00     0.016 A 
ENDBRANCH  12  14
ENDBRANCH  11  12
ENDBRANCH   9  10
ENDBRANCH   5   9
BRANCH   3  21
ATOM     21  N   UNL d   1       2.286   0.040   0.133  0.00  0.00    -0.288 NA
ATOM     22  H   UNL d   1       2.618  -0.906  -0.023  0.00  0.00     0.125 HD
ATOM     23  H   UNL d   1       2.754   0.745  -0.435  0.00  0.00     0.125 HD
ENDBRANCH   3  21
BRANCH   4  24
ATOM     24  C   UNL d   1       0.847   2.570   0.165  0.00  0.00     0.298 C 
ATOM     25  O   UNL d   1       1.960   2.804  -0.283  0.00  0.00    -0.259 OA
BRANCH  24  26
ATOM     26  O   UNL d   1       0.086   3.400   0.917  0.00  0.00    -0.318 OA
BRANCH  26  27
ATOM     27  C   UNL d   1       0.778   4.518   1.496  0.00  0.00     0.174 C 
ATOM     28  C   UNL d   1       1.352   4.074   2.830  0.00  0.00     0.034 C 
ENDBRANCH  26  27
ENDBRANCH  24  26
ENDBRANCH   4  24
TORSDOF 8
