REMARK  3 active torsions:
REMARK  status: ('A' for Active; 'I' for Inactive)
REMARK    1  A    between atoms: C_7  and  C_1 
REMARK    2  A    between atoms: N_3  and  C_10 
REMARK    3  A    between atoms: C_9  and  C_7 
ROOT
ATOM      1  C   UNL d   1      -2.397   0.068  -0.052  0.00  0.00     0.128 A 
ATOM      2  O   UNL d   1      -1.754   1.167   0.450  0.00  0.00    -0.304 OA
ATOM      3  C   UNL d   1      -0.414   0.970   0.296  0.00  0.00     0.104 A 
ATOM      4  C   UNL d   1      -0.184  -0.264  -0.304  0.00  0.00     0.003 A 
ATOM      5  C   UNL d   1      -1.463  -0.846  -0.501  0.00  0.00     0.055 A 
ATOM      6  C   UNL d   1       0.606   1.848   0.665  0.00  0.00     0.047 A 
ATOM      7  C   UNL d   1       1.921   1.453   0.403  0.00  0.00     0.041 A 
ATOM      8  C   UNL d   1       1.142  -0.651  -0.567  0.00  0.00     0.033 A 
ATOM      9  C   UNL d   1       2.177   0.223  -0.206  0.00  0.00     0.013 A 
ATOM     10 BR   UNL d   1       0.242   3.507   1.483  0.00  0.00    -0.048 Br
ATOM     11 BR   UNL d   1       3.967  -0.283  -0.556  0.00  0.00    -0.051 Br
ENDROOT
BRANCH   1  12
ATOM     12  C   UNL d   1      -3.842   0.004  -0.024  0.00  0.00     0.215 C 
ATOM     13  O   UNL d   1      -4.468  -1.054  -0.046  0.00  0.00    -0.284 OA
BRANCH  12  14
ATOM     14  C   UNL d   1      -4.622   1.274   0.004  0.00  0.00     0.019 A 
ATOM     15  C   UNL d   1      -4.172   2.412  -0.679  0.00  0.00     0.051 A 
ATOM     16  C   UNL d   1      -4.926   3.590  -0.627  0.00  0.00     0.103 A 
ATOM     17  C   UNL d   1      -6.135   3.635   0.082  0.00  0.00     0.036 A 
ATOM     18  C   UNL d   1      -6.595   2.488   0.732  0.00  0.00     0.003 A 
ATOM     19  C   UNL d   1      -5.845   1.309   0.688  0.00  0.00     0.016 A 
BRANCH  16  20
ATOM     20  N   UNL d   1      -4.441   4.786  -1.327  0.00  0.00    -0.116 N 
ATOM     21  O   UNL d   1      -3.372   4.697  -1.947  0.00  0.00    -0.532 OA
ATOM     22  O   UNL d   1      -5.131   5.812  -1.260  0.00  0.00    -0.532 OA
ENDBRANCH  16  20
ENDBRANCH  12  14
ENDBRANCH   1  12
TORSDOF 3
