REMARK  4 active torsions:
REMARK  status: ('A' for Active; 'I' for Inactive)
REMARK    1  A    between atoms: C_2  and  C_1 
REMARK       I    between atoms: N_5  and  C_1 
REMARK    2  A    between atoms: C_4  and  C_3 
REMARK    3  A    between atoms: O_9  and  C_4 
REMARK    4  A    between atoms: C_8  and  N_5 
ROOT
ATOM      1  C   UNL d   1       1.012  -0.149  -0.154  0.00  0.00     0.257 C 
ATOM      2  N   UNL d   1       0.202   0.523  -1.045  0.00  0.00    -0.323 N 
ATOM      3  O   UNL d   1       2.242  -0.192  -0.184  0.00  0.00    -0.267 OA
ATOM      4  H   UNL d   1      -0.800   0.534  -0.881  0.00  0.00     0.169 HD
ENDROOT
BRANCH   1   5
ATOM      5  C   UNL d   1       0.336  -0.878   0.955  0.00  0.00     0.049 A 
ATOM      6  C   UNL d   1      -0.814  -0.451   1.640  0.00  0.00     0.053 A 
ATOM      7  C   UNL d   1      -1.389  -1.299   2.608  0.00  0.00     0.019 A 
ATOM      8  C   UNL d   1      -0.812  -2.529   2.924  0.00  0.00     0.001 A 
ATOM      9  C   UNL d   1       0.359  -2.924   2.290  0.00  0.00     0.001 A 
ATOM     10  C   UNL d   1       0.930  -2.103   1.317  0.00  0.00     0.018 A 
BRANCH   6  11
ATOM     11  C   UNL d   1      -1.529   0.833   1.424  0.00  0.00     0.177 C 
ATOM     12  O   UNL d   1      -2.748   0.902   1.479  0.00  0.00    -0.646 OA
BRANCH  11  13
ATOM     13  O   UNL d   1      -0.756   1.902   1.180  0.00  0.00    -0.773 OA
ATOM     14  H   UNL d   1       0.216   1.792   1.210  0.00  0.00     0.167 HD
ENDBRANCH  11  13
ENDBRANCH   6  11
ENDBRANCH   1   5
BRANCH   2  15
ATOM     15  C   UNL d   1       0.614   1.292  -2.157  0.00  0.00     0.035 A 
ATOM     16  C   UNL d   1       1.926   1.333  -2.636  0.00  0.00     0.031 A 
ATOM     17  C   UNL d   1       2.261   2.157  -3.717  0.00  0.00     0.021 A 
ATOM     18  C   UNL d   1       1.284   2.941  -4.322  0.00  0.00     0.011 A 
ATOM     19  C   UNL d   1      -0.033   2.888  -3.875  0.00  0.00     0.021 A 
ATOM     20 BR   UNL d   1       1.750   4.094  -5.745  0.00  0.00    -0.051 Br
ATOM     21  C   UNL d   1      -0.366   2.061  -2.799  0.00  0.00     0.031 A 
ENDBRANCH   2  15
TORSDOF 4
