REMARK  4 active torsions:
REMARK  status: ('A' for Active; 'I' for Inactive)
REMARK    1  A    between atoms: N_2  and  S_1 
REMARK    2  A    between atoms: C_6  and  S_1 
REMARK    3  A    between atoms: C_3  and  N_2 
REMARK    4  A    between atoms: N_4  and  C_5 
ROOT
ATOM      1  C   UNL d   1       0.969   1.679  -1.912  0.00  0.00     0.049 A 
ATOM      2  C   UNL d   1       2.300   2.151  -1.780  0.00  0.00     0.052 A 
ATOM      3  C   UNL d   1      -0.037   2.497  -2.450  0.00  0.00     0.027 A 
ATOM      4  C   UNL d   1       2.549   3.467  -2.227  0.00  0.00     0.031 A 
ATOM      5  C   UNL d   1       0.256   3.786  -2.890  0.00  0.00     0.002 A 
ATOM      6  C   UNL d   1       1.552   4.272  -2.779  0.00  0.00     0.002 A 
ENDROOT
BRANCH   1   7
ATOM      7  N   UNL d   1       0.587   0.363  -1.474  0.00  0.00    -0.179 NA
ATOM      8  H   UNL d   1      -0.092  -0.084  -2.084  0.00  0.00     0.146 HD
BRANCH   7   9
ATOM      9  S   UNL d   1       0.188   0.163   0.158  0.00  0.00     0.245 S 
ATOM     10  O   UNL d   1       0.770   1.198   0.979  0.00  0.00    -0.206 OA
ATOM     11  O   UNL d   1       0.388  -1.241   0.462  0.00  0.00    -0.206 OA
BRANCH   9  12
ATOM     12  C   UNL d   1      -1.588   0.407   0.158  0.00  0.00     0.074 A 
ATOM     13  C   UNL d   1      -2.431  -0.681  -0.104  0.00  0.00     0.026 A 
ATOM     14  C   UNL d   1      -3.816  -0.531   0.019  0.00  0.00     0.025 A 
ATOM     15  C   UNL d   1      -4.347   0.697   0.414  0.00  0.00     0.034 A 
ATOM     16  C   UNL d   1      -3.508   1.782   0.672  0.00  0.00     0.025 A 
ATOM     17 CL   UNL d   1      -6.048   0.867   0.608  0.00  0.00    -0.084 Cl
ATOM     18  C   UNL d   1      -2.120   1.639   0.551  0.00  0.00     0.026 A 
ENDBRANCH   9  12
ENDBRANCH   7   9
ENDBRANCH   1   7
BRANCH   2  19
ATOM     19  N   UNL d   1       3.398   1.405  -1.353  0.00  0.00    -0.379 N 
ATOM     20  C   UNL d   1       3.450  -0.048  -1.504  0.00  0.00     0.123 C 
ATOM     21  C   UNL d   1       4.901  -0.457  -1.776  0.00  0.00     0.020 C 
ATOM     22  C   UNL d   1       5.846   0.069  -0.698  0.00  0.00     0.003 C 
ATOM     23  C   UNL d   1       5.680   1.577  -0.515  0.00  0.00     0.020 C 
ATOM     24  C   UNL d   1       4.217   1.945  -0.258  0.00  0.00     0.123 C 
ENDBRANCH   2  19
TORSDOF 4
