REMARK  4 active torsions:
REMARK  status: ('A' for Active; 'I' for Inactive)
REMARK    1  A    between atoms: C_4  and  C_1 
REMARK    2  A    between atoms: C_3  and  C_2 
REMARK       I    between atoms: N_8  and  C_4 
REMARK    3  A    between atoms: C_19  and  N_8 
REMARK    4  A    between atoms: C_15  and  C_19 
ROOT
ATOM      1  C   UNL d   1       3.717  -0.159  -0.139  0.00  0.00     0.254 C 
ATOM      2  N   UNL d   1       4.455  -1.282   0.153  0.00  0.00    -0.353 N 
ATOM      3  O   UNL d   1       2.566  -0.166  -0.549  0.00  0.00    -0.268 OA
ATOM      4  H   UNL d   1       5.375  -1.205   0.572  0.00  0.00     0.163 HD
ENDROOT
BRANCH   1   5
ATOM      5  C   UNL d   1       4.393   1.140   0.037  0.00  0.00     0.062 A 
ATOM      6  C   UNL d   1       3.787   2.233   0.668  0.00  0.00     0.068 A 
ATOM      7  C   UNL d   1       4.467   3.466   0.649  0.00  0.00     0.059 A 
ATOM      8  C   UNL d   1       5.707   3.537   0.041  0.00  0.00     0.104 A 
ATOM      9  N   UNL d   1       6.320   2.491  -0.545  0.00  0.00    -0.356 N 
ATOM     10 CL   UNL d   1       6.578   5.010  -0.021  0.00  0.00    -0.065 Cl
ATOM     11  C   UNL d   1       5.642   1.321  -0.548  0.00  0.00     0.107 A 
ATOM     12  HN  UNL d   1       7.246   2.577  -0.964  1.00  0.00     0.166 HD
BRANCH   6  13
ATOM     13  C   UNL d   1       2.446   2.163   1.347  0.00  0.00     0.418 C 
ATOM     14  F   UNL d   1       2.069   0.927   1.763  0.00  0.00    -0.166 F 
ATOM     15  F   UNL d   1       2.436   2.926   2.482  0.00  0.00    -0.166 F 
ATOM     16  F   UNL d   1       1.442   2.656   0.575  0.00  0.00    -0.166 F 
ENDBRANCH   6  13
ENDBRANCH   1   5
BRANCH   2  17
ATOM     17  C   UNL d   1       3.922  -2.613  -0.041  0.00  0.00     0.161 C 
BRANCH  17  18
ATOM     18  C   UNL d   1       3.731  -3.334   1.268  0.00  0.00    -0.037 A 
ATOM     19  C   UNL d   1       2.814  -2.854   2.217  0.00  0.00     0.032 A 
ATOM     20  C   UNL d   1       2.609  -3.546   3.413  0.00  0.00     0.036 A 
ATOM     21 CL   UNL d   1       1.479  -2.943   4.563  0.00  0.00    -0.084 Cl
ATOM     22  C   UNL d   1       3.303  -4.722   3.682  0.00  0.00     0.047 A 
ATOM     23  C   UNL d   1       4.212  -5.202   2.744  0.00  0.00     0.036 A 
ATOM     24  C   UNL d   1       4.430  -4.519   1.545  0.00  0.00     0.032 A 
ATOM     25 CL   UNL d   1       5.069  -6.662   3.058  0.00  0.00    -0.084 Cl
ENDBRANCH  17  18
ENDBRANCH   2  17
TORSDOF 4
