REMARK  6 active torsions:
REMARK  status: ('A' for Active; 'I' for Inactive)
REMARK    1  A    between atoms: C_2  and  N_1 
REMARK       I    between atoms: C_3  and  N_1 
REMARK    2  A    between atoms: N_5  and  C_2 
REMARK    3  A    between atoms: C_9  and  C_3 
REMARK    4  A    between atoms: C_4  and  N_5 
REMARK    5  A    between atoms: O_10  and  C_9 
REMARK    6  A    between atoms: C_15  and  O_10 
ROOT
ATOM      1  N   UNL d   1       0.808   0.297  -0.187  0.00  0.00    -0.301 N 
ATOM      2  C   UNL d   1       0.392   1.565   0.230  0.00  0.00     0.253 C 
ATOM      3  O   UNL d   1      -0.441   2.240  -0.362  0.00  0.00    -0.270 OA
ATOM      4  H   UNL d   1       1.617  -0.091   0.276  0.00  0.00     0.171 HD
ENDROOT
BRANCH   1   5
ATOM      5  C   UNL d   1       0.112  -0.634  -0.985  0.00  0.00     0.178 C 
ATOM      6  S   UNL d   1      -1.466  -0.479  -1.525  0.00  0.00    -0.040 SA
BRANCH   5   7
ATOM      7  N   UNL d   1       0.969  -1.698  -1.303  0.00  0.00    -0.332 N 
ATOM      8  H   UNL d   1       1.832  -1.353  -1.708  0.00  0.00     0.168 HD
BRANCH   7   9
ATOM      9  C   UNL d   1       0.575  -2.978  -1.798  0.00  0.00     0.046 A 
ATOM     10  C   UNL d   1       1.133  -3.446  -3.011  0.00  0.00    -0.034 A 
ATOM     11  C   UNL d   1       0.923  -4.782  -3.405  0.00  0.00     0.015 A 
ATOM     12  C   UNL d   1       1.953  -2.597  -3.948  0.00  0.00     0.050 C 
ATOM     13  C   UNL d   1       0.169  -5.659  -2.626  0.00  0.00    -0.061 A 
ATOM     14  C   UNL d   1      -0.432  -5.170  -1.467  0.00  0.00     0.015 A 
ATOM     15  C   UNL d   1       0.022  -7.096  -3.027  0.00  0.00     0.048 C 
ATOM     16  C   UNL d   1      -0.241  -3.841  -1.033  0.00  0.00    -0.034 A 
ATOM     17  C   UNL d   1      -0.863  -3.506   0.297  0.00  0.00     0.050 C 
ENDBRANCH   7   9
ENDBRANCH   5   7
ENDBRANCH   1   5
BRANCH   2  18
ATOM     18  C   UNL d   1       1.177   2.138   1.435  0.00  0.00     0.217 C 
ATOM     19  C   UNL d   1       0.259   3.038   2.258  0.00  0.00     0.050 C 
BRANCH  18  20
ATOM     20  O   UNL d   1       2.223   2.980   0.948  0.00  0.00    -0.337 OA
BRANCH  20  21
ATOM     21  C   UNL d   1       3.483   2.496   0.792  0.00  0.00     0.070 A 
ATOM     22  C   UNL d   1       4.261   3.204  -0.130  0.00  0.00     0.038 A 
ATOM     23  C   UNL d   1       5.585   2.840  -0.382  0.00  0.00     0.021 A 
ATOM     24  C   UNL d   1       6.140   1.764   0.303  0.00  0.00     0.006 A 
ATOM     25  C   UNL d   1       5.384   1.068   1.247  0.00  0.00     0.021 A 
ATOM     26  I   UNL d   1       8.104   1.201  -0.070  0.00  0.00    -0.045 I 
ATOM     27  C   UNL d   1       4.057   1.440   1.498  0.00  0.00     0.038 A 
ENDBRANCH  20  21
ENDBRANCH  18  20
ENDBRANCH   2  18
TORSDOF 6
