REMARK  4 active torsions:
REMARK  status: ('A' for Active; 'I' for Inactive)
REMARK    1  A    between atoms: C_3  and  C_1 
REMARK    2  A    between atoms: C_11  and  N_2 
REMARK    3  A    between atoms: S_17  and  C_6 
REMARK    4  A    between atoms: N_9  and  C_10 
ROOT
ATOM      1  C   UNL d   1      -0.116  -1.320   0.105  0.00  0.00     0.142 A 
ATOM      2  N   UNL d   1       1.131  -0.676   0.042  0.00  0.00    -0.275 N 
ATOM      3  N   UNL d   1      -1.056  -0.406   0.271  0.00  0.00    -0.282 N 
ATOM      4  HN  UNL d   1      -2.055  -0.592   0.355  1.00  0.00     0.188 HD
ATOM      5  C   UNL d   1       0.817   0.668   0.159  0.00  0.00     0.165 A 
ATOM      6  N   UNL d   1      -0.473   0.827   0.313  0.00  0.00    -0.278 N 
ATOM      7  HN  UNL d   1      -0.958   1.716   0.442  1.00  0.00     0.189 HD
ENDROOT
BRANCH   1   8
ATOM      8  C   UNL d   1      -0.405  -2.764   0.088  0.00  0.00     0.043 A 
ATOM      9  C   UNL d   1      -1.496  -3.312  -0.608  0.00  0.00     0.117 A 
ATOM     10  C   UNL d   1      -1.727  -4.695  -0.667  0.00  0.00     0.037 A 
ATOM     11  C   UNL d   1      -0.837  -5.563  -0.039  0.00  0.00     0.009 A 
ATOM     12  C   UNL d   1       0.246  -5.055   0.683  0.00  0.00    -0.061 A 
ATOM     13  C   UNL d   1       0.410  -3.664   0.796  0.00  0.00     0.024 A 
ATOM     14  C   UNL d   1       1.250  -5.990   1.294  0.00  0.00     0.048 C 
BRANCH   9  15
ATOM     15  N   UNL d   1      -2.402  -2.471  -1.369  0.00  0.00    -0.115 N 
ATOM     16  O   UNL d   1      -1.925  -1.900  -2.362  0.00  0.00    -0.532 OA
ATOM     17  O   UNL d   1      -3.594  -2.476  -1.035  0.00  0.00    -0.532 OA
ENDBRANCH   9  15
ENDBRANCH   1   8
BRANCH   2  18
ATOM     18  C   UNL d   1       2.423  -1.280  -0.057  0.00  0.00     0.045 A 
ATOM     19  C   UNL d   1       2.627  -2.395  -0.882  0.00  0.00     0.054 A 
ATOM     20  C   UNL d   1       3.849  -3.070  -0.849  0.00  0.00     0.036 A 
ATOM     21 CL   UNL d   1       4.053  -4.506  -1.775  0.00  0.00    -0.084 Cl
ATOM     22  C   UNL d   1       4.890  -2.616  -0.044  0.00  0.00     0.024 A 
ATOM     23  C   UNL d   1       4.707  -1.481   0.744  0.00  0.00     0.004 A 
ATOM     24  C   UNL d   1       3.475  -0.821   0.749  0.00  0.00     0.030 A 
ENDBRANCH   2  18
BRANCH   5  25
ATOM     25  S   UNL d   1       1.908   2.009  -0.040  0.00  0.00    -0.105 SA
ATOM     26  H   UNL d   1       2.938   1.381  -0.622  0.00  0.00     0.110 HD
ENDBRANCH   5  25
TORSDOF 4
