REMARK  6 active torsions:
REMARK  status: ('A' for Active; 'I' for Inactive)
REMARK    1  A    between atoms: N_7  and  C_4 
REMARK       I    between atoms: C_8  and  N_7 
REMARK    2  A    between atoms: C_17  and  C_8 
REMARK    3  A    between atoms: C_11  and  C_18 
REMARK    4  A    between atoms: O_16  and  C_11 
REMARK    5  A    between atoms: S_15  and  C_17 
REMARK    6  A    between atoms: C_18  and  S_15 
ROOT
ATOM      1  C   UNL d   1       0.006  -0.773   0.077  0.00  0.00     0.021 A 
ATOM      2  N   UNL d   1       1.192   1.306   0.087  0.00  0.00    -0.300 N 
ATOM      3  HN  UNL d   1       1.179   2.325   0.122  1.00  0.00     0.187 HD
ATOM      4  C   UNL d   1      -1.243  -1.443   0.003  0.00  0.00     0.047 A 
ATOM      5  N   UNL d   1       2.395   0.648   0.078  0.00  0.00    -0.305 N 
ATOM      6  HN  UNL d   1       3.267   1.176   0.092  1.00  0.00     0.186 HD
ATOM      7  C   UNL d   1       0.033   0.633   0.051  0.00  0.00     0.060 A 
ATOM      8  C   UNL d   1       1.249  -1.433   0.084  0.00  0.00     0.042 A 
ATOM      9  C   UNL d   1       2.422  -0.695   0.052  0.00  0.00     0.023 A 
ATOM     10  C   UNL d   1      -2.427  -0.713  -0.144  0.00  0.00     0.030 A 
ATOM     11  C   UNL d   1      -2.387   0.679  -0.156  0.00  0.00     0.005 A 
ATOM     12  C   UNL d   1      -1.161   1.335  -0.046  0.00  0.00     0.032 A 
ATOM     13  C   UNL d   1       3.752  -1.366  -0.081  0.00  0.00     0.070 C 
ENDROOT
BRANCH   4  14
ATOM     14  N   UNL d   1      -1.301  -2.848   0.145  0.00  0.00    -0.326 N 
ATOM     15  C   UNL d   1      -2.089  -3.675  -0.631  0.00  0.00     0.231 C 
ATOM     16  O   UNL d   1      -2.743  -3.318  -1.614  0.00  0.00    -0.272 OA
ATOM     17  H   UNL d   1      -0.580  -3.279   0.710  0.00  0.00     0.169 HD
BRANCH  15  18
ATOM     18  C   UNL d   1      -2.102  -5.125  -0.183  0.00  0.00     0.177 C 
BRANCH  18  19
ATOM     19  S   UNL d   1      -3.657  -5.494   0.693  0.00  0.00    -0.149 SA
BRANCH  19  20
ATOM     20  C   UNL d   1      -4.899  -5.062  -0.577  0.00  0.00     0.184 C 
BRANCH  20  21
ATOM     21  C   UNL d   1      -4.747  -5.890  -1.835  0.00  0.00     0.149 C 
ATOM     22  O   UNL d   1      -5.211  -7.010  -1.976  0.00  0.00    -0.649 OA
BRANCH  21  23
ATOM     23  O   UNL d   1      -4.007  -5.296  -2.804  0.00  0.00    -0.776 OA
ATOM     24  H   UNL d   1      -3.655  -4.405  -2.568  0.00  0.00     0.167 HD
ENDBRANCH  21  23
ENDBRANCH  20  21
ENDBRANCH  19  20
ENDBRANCH  18  19
ENDBRANCH  15  18
ENDBRANCH   4  14
TORSDOF 6
