REMARK  4 active torsions:
REMARK  status: ('A' for Active; 'I' for Inactive)
REMARK    1  A    between atoms: N_4  and  C_1 
REMARK    2  A    between atoms: N_10  and  C_1 
REMARK    3  A    between atoms: C_7  and  N_4 
REMARK    4  A    between atoms: N_13  and  N_10 
ROOT
ATOM      1  C   UNL d   1       2.753  -0.237   4.110  0.00  0.00     0.104 A 
ATOM      2  C   UNL d   1       2.151   0.034   2.883  0.00  0.00     0.069 A 
ATOM      3  C   UNL d   1       2.282  -1.286   4.907  0.00  0.00     0.102 A 
ATOM      4  C   UNL d   1       1.104  -0.769   2.424  0.00  0.00     0.037 A 
ATOM      5  O   UNL d   1       3.809   0.560   4.466  0.00  0.00    -0.346 OA
ATOM      6  O   UNL d   1       2.845  -1.630   6.106  0.00  0.00    -0.346 OA
ATOM      7  C   UNL d   1       1.203  -2.053   4.476  0.00  0.00     0.042 A 
ATOM      8  C   UNL d   1       0.600  -1.782   3.246  0.00  0.00     0.032 A 
ATOM      9  C   UNL d   1       4.612  -0.072   5.468  0.00  0.00     0.202 C 
ATOM     10  C   UNL d   1       3.744  -0.624   6.588  0.00  0.00     0.202 C 
ENDROOT
BRANCH   4  11
ATOM     11  N   UNL d   1       0.511  -0.594   1.159  0.00  0.00    -0.332 N 
ATOM     12  H   UNL d   1      -0.470  -0.840   1.091  0.00  0.00     0.168 HD
BRANCH  11  13
ATOM     13  C   UNL d   1       1.005   0.035   0.055  0.00  0.00     0.186 C 
ATOM     14  S   UNL d   1      -0.044   0.736  -1.038  0.00  0.00    -0.040 SA
BRANCH  13  15
ATOM     15  N   UNL d   1       2.349   0.004  -0.224  0.00  0.00    -0.300 N 
ATOM     16  H   UNL d   1       2.584   0.435  -1.119  0.00  0.00     0.183 HD
BRANCH  15  17
ATOM     17  N   UNL d   1       3.157  -1.108   0.143  0.00  0.00    -0.248 NA
ATOM     18  H   UNL d   1       2.548  -1.832   0.536  0.00  0.00     0.143 HD
ATOM     19  H   UNL d   1       3.755  -0.819   0.921  0.00  0.00     0.143 HD
ENDBRANCH  15  17
ENDBRANCH  13  15
ENDBRANCH  11  13
ENDBRANCH   4  11
TORSDOF 4
