REMARK  4 active torsions:
REMARK  status: ('A' for Active; 'I' for Inactive)
REMARK    1  A    between atoms: C_6  and  N_1 
REMARK    2  A    between atoms: C_8  and  C_14 
REMARK    3  A    between atoms: O_20  and  C_8 
REMARK    4  A    between atoms: C_22  and  O_20 
ROOT
ATOM      1  N   UNL d   1      -2.314  -0.041  -0.274  0.00  0.00    -0.252 N 
ATOM      2  C   UNL d   1      -1.573  -1.163   0.035  0.00  0.00     0.236 C 
ATOM      3  C   UNL d   1      -1.521   1.083  -0.256  0.00  0.00     0.236 C 
ATOM      4  C   UNL d   1      -0.278  -0.738   0.691  0.00  0.00     0.096 C 
ATOM      5  C   UNL d   1      -0.304   0.778   0.586  0.00  0.00     0.095 C 
ATOM      6  C   UNL d   1       0.955   1.508   0.139  0.00  0.00     0.042 C 
ATOM      7  C   UNL d   1       0.939  -1.501   0.164  0.00  0.00     0.048 C 
ATOM      8  O   UNL d   1      -1.865  -2.336  -0.159  0.00  0.00    -0.272 OA
ATOM      9  O   UNL d   1      -1.747   2.198  -0.716  0.00  0.00    -0.272 OA
ATOM     10  C   UNL d   1       2.016   0.661  -0.476  0.00  0.00    -0.023 C 
ATOM     11  C   UNL d   1       2.030  -0.679  -0.458  0.00  0.00    -0.087 C 
ATOM     12  C   UNL d   1       3.211  -1.430  -1.011  0.00  0.00     0.043 C 
ENDROOT
BRANCH   1  13
ATOM     13  C   UNL d   1      -3.716  -0.047  -0.533  0.00  0.00     0.045 A 
ATOM     14  C   UNL d   1      -4.520  -1.104  -0.070  0.00  0.00     0.031 A 
ATOM     15  C   UNL d   1      -5.918  -1.058  -0.157  0.00  0.00     0.020 A 
ATOM     16  C   UNL d   1      -6.551   0.044  -0.733  0.00  0.00     0.039 A 
ATOM     17  C   UNL d   1      -5.768   1.091  -1.227  0.00  0.00     0.020 A 
ATOM     18  C   UNL d   1      -4.370   1.044  -1.124  0.00  0.00     0.031 A 
BRANCH  16  19
ATOM     19  C   UNL d   1      -8.032   0.024  -0.862  0.00  0.00     0.293 C 
ATOM     20  O   UNL d   1      -8.733  -0.906  -0.498  0.00  0.00    -0.259 OA
BRANCH  19  21
ATOM     21  O   UNL d   1      -8.443   1.123  -1.540  0.00  0.00    -0.318 OA
BRANCH  21  22
ATOM     22  C   UNL d   1      -9.726   1.018  -2.167  0.00  0.00     0.174 C 
ATOM     23  C   UNL d   1      -9.520   0.396  -3.538  0.00  0.00     0.034 C 
ENDBRANCH  21  22
ENDBRANCH  19  21
ENDBRANCH  16  19
ENDBRANCH   1  13
TORSDOF 4
