REMARK  6 active torsions:
REMARK  status: ('A' for Active; 'I' for Inactive)
REMARK    1  A    between atoms: C_9  and  C_2 
REMARK    2  A    between atoms: S_15  and  C_7 
REMARK    3  A    between atoms: N_8  and  C_11 
REMARK    4  A    between atoms: C_23  and  S_15 
REMARK    5  A    between atoms: C_16  and  C_18 
REMARK    6  A    between atoms: C_18  and  C_23 
ROOT
ATOM      1  C   UNL d   1       0.467  -0.532   0.022  0.00  0.00     0.140 A 
ATOM      2  C   UNL d   1      -0.420  -1.504  -0.269  0.00  0.00     0.077 A 
ATOM      3  N   UNL d   1      -1.468   0.833   0.437  0.00  0.00    -0.302 N 
ATOM      4  C   UNL d   1      -0.107   0.766   0.424  0.00  0.00     0.270 A 
ATOM      5  N   UNL d   1      -1.796  -1.390  -0.199  0.00  0.00    -0.334 N 
ATOM      6  HN  UNL d   1      -2.415  -2.173  -0.413  1.00  0.00     0.168 HD
ATOM      7  C   UNL d   1      -2.252  -0.237   0.151  0.00  0.00     0.148 A 
ATOM      8  C   UNL d   1       1.876  -0.687   0.007  0.00  0.00     0.107 C 
ATOM      9  N   UNL d   1       3.030  -0.842   0.003  0.00  0.00    -0.191 NA
ATOM     10  O   UNL d   1       0.581   1.727   0.750  0.00  0.00    -0.266 OA
ATOM     11  H   UNL d   1      -1.900   1.700   0.722  0.00  0.00     0.171 HD
ENDROOT
BRANCH   2  12
ATOM     12  C   UNL d   1       0.040  -2.812  -0.612  0.00  0.00     0.033 A 
ATOM     13  S   UNL d   1       0.402  -3.222  -2.244  0.00  0.00    -0.100 SA
ATOM     14  C   UNL d   1       0.927  -4.790  -1.809  0.00  0.00     0.050 A 
ATOM     15  C   UNL d   1       0.805  -5.019  -0.458  0.00  0.00     0.008 A 
ATOM     16  C   UNL d   1       0.283  -3.886   0.228  0.00  0.00     0.021 A 
ENDBRANCH   2  12
BRANCH   7  17
ATOM     17  S   UNL d   1      -3.926   0.149   0.339  0.00  0.00    -0.086 SA
BRANCH  17  18
ATOM     18  C   UNL d   1      -4.740  -1.436  -0.020  0.00  0.00     0.166 C 
BRANCH  18  19
ATOM     19  C   UNL d   1      -6.254  -1.325   0.166  0.00  0.00     0.169 C 
ATOM     20  O   UNL d   1      -6.817  -0.320   0.600  0.00  0.00    -0.291 OA
BRANCH  19  21
ATOM     21  C   UNL d   1      -7.117  -2.487  -0.222  0.00  0.00     0.013 A 
ATOM     22  C   UNL d   1      -6.589  -3.682  -0.722  0.00  0.00     0.051 A 
ATOM     23  C   UNL d   1      -7.461  -4.671  -1.208  0.00  0.00     0.103 A 
ATOM     24  C   UNL d   1      -8.851  -4.510  -1.140  0.00  0.00     0.036 A 
ATOM     25  C   UNL d   1      -9.376  -3.345  -0.585  0.00  0.00     0.003 A 
ATOM     26  C   UNL d   1      -8.514  -2.338  -0.138  0.00  0.00     0.015 A 
BRANCH  23  27
ATOM     27  N   UNL d   1      -6.902  -5.865  -1.856  0.00  0.00    -0.116 N 
ATOM     28  O   UNL d   1      -5.669  -5.935  -1.956  0.00  0.00    -0.532 OA
ATOM     29  O   UNL d   1      -7.694  -6.718  -2.278  0.00  0.00    -0.532 OA
ENDBRANCH  23  27
ENDBRANCH  19  21
ENDBRANCH  18  19
ENDBRANCH  17  18
ENDBRANCH   7  17
TORSDOF 6
