REMARK  6 active torsions:
REMARK  status: ('A' for Active; 'I' for Inactive)
REMARK    1  A    between atoms: N_6  and  C_1 
REMARK    2  A    between atoms: C_9  and  C_2 
REMARK       I    between atoms: C_7  and  N_6 
REMARK       I    between atoms: N_12  and  C_7 
REMARK    3  A    between atoms: C_8  and  C_10 
REMARK    4  A    between atoms: O_21  and  C_9 
REMARK    5  A    between atoms: C_16  and  N_12 
REMARK    6  A    between atoms: C_27  and  O_21 
ROOT
ATOM      1  N   UNL d   1       3.585  -0.906   0.438  0.00  0.00    -0.302 N 
ATOM      2  C   UNL d   1       4.063  -2.184   0.556  0.00  0.00     0.325 C 
ATOM      3  N   UNL d   1       3.547  -2.945   1.569  0.00  0.00    -0.309 N 
ATOM      4  O   UNL d   1       4.992  -2.533  -0.172  0.00  0.00    -0.247 OA
ATOM      5  H   UNL d   1       4.203  -0.316  -0.113  0.00  0.00     0.171 HD
ATOM      6  H   UNL d   1       3.179  -2.415   2.347  0.00  0.00     0.170 HD
ENDROOT
BRANCH   1   7
ATOM      7  C   UNL d   1       2.286  -0.424   0.564  0.00  0.00     0.095 A 
ATOM      8  C   UNL d   1       1.831   0.860   0.263  0.00  0.00     0.080 A 
ATOM      9  C   UNL d   1       0.386   0.931   0.387  0.00  0.00    -0.026 A 
ATOM     10  C   UNL d   1      -0.484   2.131   0.118  0.00  0.00     0.041 C 
ATOM     11  C   UNL d   1      -0.160  -0.302   0.673  0.00  0.00    -0.008 A 
ATOM     12  C   UNL d   1      -1.955   1.884   0.497  0.00  0.00     0.009 C 
ATOM     13  C   UNL d   1      -2.471   0.491   0.080  0.00  0.00    -0.014 C 
ATOM     14  C   UNL d   1      -1.620  -0.627   0.723  0.00  0.00     0.051 C 
ATOM     15  C   UNL d   1      -2.554   0.353  -1.445  0.00  0.00     0.010 C 
ATOM     16  S   UNL d   1       1.018  -1.474   0.991  0.00  0.00    -0.075 SA
BRANCH   8  17
ATOM     17  C   UNL d   1       2.666   1.970  -0.208  0.00  0.00     0.296 C 
ATOM     18  O   UNL d   1       2.226   3.079  -0.484  0.00  0.00    -0.259 OA
BRANCH  17  19
ATOM     19  O   UNL d   1       3.978   1.613  -0.387  0.00  0.00    -0.318 OA
BRANCH  19  20
ATOM     20  C   UNL d   1       4.777   2.531  -1.147  0.00  0.00     0.174 C 
ATOM     21  C   UNL d   1       4.660   2.165  -2.615  0.00  0.00     0.034 C 
ENDBRANCH  19  20
ENDBRANCH  17  19
ENDBRANCH   8  17
ENDBRANCH   1   7
BRANCH   3  22
ATOM     22  C   UNL d   1       3.742  -4.326   1.746  0.00  0.00     0.037 A 
ATOM     23  C   UNL d   1       3.936  -5.194   0.667  0.00  0.00     0.045 A 
ATOM     24  C   UNL d   1       4.015  -6.582   0.869  0.00  0.00     0.050 A 
ATOM     25  C   UNL d   1       3.976  -7.083   2.179  0.00  0.00     0.016 A 
ATOM     26  C   UNL d   1       3.802  -6.219   3.259  0.00  0.00     0.003 A 
ATOM     27  C   UNL d   1       3.653  -4.848   3.039  0.00  0.00     0.029 A 
BRANCH  24  28
ATOM     28  C   UNL d   1       4.089  -7.538  -0.295  0.00  0.00     0.417 C 
ATOM     29  F   UNL d   1       3.994  -6.937  -1.514  0.00  0.00    -0.166 F 
ATOM     30  F   UNL d   1       5.245  -8.256  -0.317  0.00  0.00    -0.166 F 
ATOM     31  F   UNL d   1       3.083  -8.459  -0.263  0.00  0.00    -0.166 F 
ENDBRANCH  24  28
ENDBRANCH   3  22
TORSDOF 6
