REMARK  1 active torsions:
REMARK  status: ('A' for Active; 'I' for Inactive)
REMARK    1  A    between atoms: C_9  and  C_4 
ROOT
ATOM      1  N   UNL d   1       8.988  -2.193  -0.452  0.00  0.00    -0.191 NA
ATOM      2  C   UNL d   1       3.790  -0.720  -0.108  0.00  0.00    -0.008 A 
ATOM      3  C   UNL d   1       7.871  -1.890  -0.369  0.00  0.00     0.099 C 
ATOM      4  C   UNL d   1       4.141  -2.073  -0.225  0.00  0.00     0.015 A 
ATOM      5  C   UNL d   1       4.816   0.236  -0.063  0.00  0.00     0.015 A 
ATOM      6  C   UNL d   1       6.495  -1.501  -0.271  0.00  0.00     0.044 A 
ATOM      7  C   UNL d   1       6.159  -0.150  -0.145  0.00  0.00     0.023 A 
ATOM      8  C   UNL d   1       5.483  -2.463  -0.307  0.00  0.00     0.023 A 
ENDROOT
BRANCH   2   9
ATOM      9  C   UNL d   1       2.384  -0.342  -0.046  0.00  0.00     0.060 A 
ATOM     10  N   UNL d   1       1.349  -1.270  -0.058  0.00  0.00    -0.335 N 
ATOM     11  C   UNL d   1       0.272  -0.540  -0.001  0.00  0.00     0.147 A 
ATOM     12  HN  UNL d   1       1.417  -2.287  -0.103  1.00  0.00     0.168 HD
ATOM     13  N   UNL d   1       0.545   0.785   0.045  0.00  0.00    -0.335 N 
ATOM     14  S   UNL d   1      -1.410  -0.878  -0.007  0.00  0.00    -0.092 SA
ATOM     15  C   UNL d   1       1.886   0.954   0.021  0.00  0.00     0.123 A 
ATOM     16  C   UNL d   1      -0.569   1.696   0.147  0.00  0.00     0.141 C 
ATOM     17  C   UNL d   1      -1.818   0.901  -0.246  0.00  0.00     0.102 C 
ENDBRANCH   2   9
TORSDOF 1
