REMARK  7 active torsions:
REMARK  status: ('A' for Active; 'I' for Inactive)
REMARK    1  A    between atoms: C_2  and  S_1 
REMARK    2  A    between atoms: C_3  and  S_1 
REMARK    3  A    between atoms: C_6  and  C_2 
REMARK    4  A    between atoms: C_13  and  C_6 
REMARK    5  A    between atoms: O_22  and  C_6 
REMARK    6  A    between atoms: O_9  and  C_13 
REMARK    7  A    between atoms: C_10  and  O_9 
ROOT
ATOM      1  C   UNL d   1       1.001   1.569   2.117  0.00  0.00     0.156 C 
ENDROOT
BRANCH   1   2
ATOM      2  C   UNL d   1       0.481   1.425   0.694  0.00  0.00     0.179 C 
BRANCH   2   3
ATOM      3  S   UNL d   1       0.989  -0.076  -0.101  0.00  0.00     0.178 S 
ATOM      4  O   UNL d   1       0.453  -1.193   0.651  0.00  0.00    -0.223 OA
ATOM      5  O   UNL d   1       2.404   0.010  -0.411  0.00  0.00    -0.223 OA
BRANCH   3   6
ATOM      6  C   UNL d   1       0.140  -0.004  -1.663  0.00  0.00     0.059 A 
ATOM      7  C   UNL d   1       0.532   0.964  -2.594  0.00  0.00     0.025 A 
ATOM      8  C   UNL d   1      -0.163   1.080  -3.797  0.00  0.00     0.025 A 
ATOM      9  C   UNL d   1      -1.228   0.220  -4.066  0.00  0.00     0.034 A 
ATOM     10  C   UNL d   1      -1.590  -0.772  -3.151  0.00  0.00     0.025 A 
ATOM     11 CL   UNL d   1      -2.109   0.391  -5.533  0.00  0.00    -0.084 Cl
ATOM     12  C   UNL d   1      -0.902  -0.892  -1.942  0.00  0.00     0.025 A 
ENDBRANCH   3   6
ENDBRANCH   2   3
ENDBRANCH   1   2
BRANCH   1  13
ATOM     13  C   UNL d   1       2.539   1.566   2.200  0.00  0.00     0.208 C 
BRANCH  13  14
ATOM     14  O   UNL d   1       2.975   1.784   3.546  0.00  0.00    -0.349 OA
BRANCH  14  15
ATOM     15  C   UNL d   1       4.338   1.809   3.713  0.00  0.00     0.069 A 
ATOM     16  C   UNL d   1       4.790   2.473   4.856  0.00  0.00     0.038 A 
ATOM     17  C   UNL d   1       6.160   2.590   5.112  0.00  0.00     0.026 A 
ATOM     18  C   UNL d   1       7.080   2.024   4.234  0.00  0.00     0.034 A 
ATOM     19  C   UNL d   1       6.639   1.333   3.107  0.00  0.00     0.026 A 
ATOM     20 CL   UNL d   1       8.766   2.188   4.526  0.00  0.00    -0.084 Cl
ATOM     21  C   UNL d   1       5.270   1.220   2.851  0.00  0.00     0.038 A 
ENDBRANCH  14  15
ENDBRANCH  13  14
ENDBRANCH   1  13
BRANCH   1  22
ATOM     22  O   UNL d   1       0.456   2.800   2.624  0.00  0.00    -0.392 OA
ATOM     23  H   UNL d   1       1.057   3.530   2.394  0.00  0.00     0.210 HD
ENDBRANCH   1  22
TORSDOF 7
