REMARK  6 active torsions:
REMARK  status: ('A' for Active; 'I' for Inactive)
REMARK    1  A    between atoms: C_2  and  C_1 
REMARK       I    between atoms: N_6  and  C_2 
REMARK    2  A    between atoms: C_8  and  C_3 
REMARK    3  A    between atoms: O_12  and  C_4 
REMARK    4  A    between atoms: C_7  and  N_6 
REMARK    5  A    between atoms: O_20  and  C_8 
REMARK    6  A    between atoms: C_11  and  O_12 
ROOT
ATOM      1  C   UNL d   1      -0.008   1.180  -0.458  0.00  0.00     0.146 A 
ATOM      2  C   UNL d   1      -0.004  -1.001  -0.158  0.00  0.00     0.191 A 
ATOM      3  O   UNL d   1      -0.809   0.106  -0.151  0.00  0.00    -0.282 OA
ATOM      4  C   UNL d   1       1.303   0.759  -0.581  0.00  0.00     0.048 A 
ATOM      5  C   UNL d   1       1.310  -0.632  -0.354  0.00  0.00     0.067 A 
ENDROOT
BRANCH   1   6
ATOM      6  C   UNL d   1      -0.564   2.503  -0.666  0.00  0.00     0.280 C 
ATOM      7  N   UNL d   1      -1.819   2.707  -0.115  0.00  0.00    -0.320 N 
ATOM      8  H   UNL d   1      -2.074   2.068   0.635  0.00  0.00     0.169 HD
ATOM      9  O   UNL d   1       0.078   3.384  -1.234  0.00  0.00    -0.265 OA
BRANCH   7  10
ATOM     10  C   UNL d   1      -2.533   3.928  -0.193  0.00  0.00     0.051 A 
ATOM     11  C   UNL d   1      -3.295   4.420   0.885  0.00  0.00     0.066 A 
ATOM     12  C   UNL d   1      -4.019   5.619   0.726  0.00  0.00     0.020 A 
ATOM     13  C   UNL d   1      -4.001   6.320  -0.480  0.00  0.00     0.001 A 
ATOM     14  C   UNL d   1      -3.248   5.838  -1.542  0.00  0.00     0.002 A 
ATOM     15  C   UNL d   1      -2.517   4.655  -1.400  0.00  0.00     0.030 A 
BRANCH  11  16
ATOM     16  C   UNL d   1      -3.320   3.832   2.259  0.00  0.00     0.295 C 
ATOM     17  O   UNL d   1      -3.891   4.364   3.200  0.00  0.00    -0.259 OA
BRANCH  16  18
ATOM     18  O   UNL d   1      -2.612   2.676   2.330  0.00  0.00    -0.322 OA
ATOM     19  C   UNL d   1      -2.499   2.119   3.643  0.00  0.00     0.213 C 
ENDBRANCH  16  18
ENDBRANCH  11  16
ENDBRANCH   7  10
ENDBRANCH   1   6
BRANCH   2  20
ATOM     20  O   UNL d   1      -0.648  -2.159  -0.000  0.00  0.00    -0.288 OA
BRANCH  20  21
ATOM     21  C   UNL d   1      -0.071  -3.333  -0.443  0.00  0.00     0.081 A 
ATOM     22  C   UNL d   1      -0.180  -4.461   0.369  0.00  0.00     0.061 A 
ATOM     23  C   UNL d   1       0.394  -5.664  -0.042  0.00  0.00     0.038 A 
ATOM     24 CL   UNL d   1       0.270  -7.059   0.961  0.00  0.00    -0.084 Cl
ATOM     25  C   UNL d   1       1.073  -5.755  -1.256  0.00  0.00     0.048 A 
ATOM     26  C   UNL d   1       1.150  -4.632  -2.076  0.00  0.00     0.038 A 
ATOM     27  C   UNL d   1       0.563  -3.428  -1.687  0.00  0.00     0.061 A 
ATOM     28 CL   UNL d   1       1.988  -4.722  -3.575  0.00  0.00    -0.084 Cl
ENDBRANCH  20  21
ENDBRANCH   2  20
TORSDOF 6
