REMARK  4 active torsions:
REMARK  status: ('A' for Active; 'I' for Inactive)
REMARK    1  A    between atoms: S_2  and  C_1 
REMARK    2  A    between atoms: C_3  and  C_1 
REMARK    3  A    between atoms: C_7  and  S_2 
REMARK    4  A    between atoms: O_11  and  C_8 
ROOT
ATOM      1  C   UNL d   1       0.880  -0.076   0.160  0.00  0.00     0.224 C 
ATOM      2  O   UNL d   1       0.726   0.983   0.757  0.00  0.00    -0.279 OA
ENDROOT
BRANCH   1   3
ATOM      3  S   UNL d   1       1.922  -1.335   0.814  0.00  0.00    -0.048 SA
BRANCH   3   4
ATOM      4  C   UNL d   1       0.762  -2.208   1.849  0.00  0.00     0.008 A 
ATOM      5  C   UNL d   1       0.385  -3.517   1.526  0.00  0.00     0.019 A 
ATOM      6  C   UNL d   1      -0.447  -4.242   2.381  0.00  0.00     0.001 A 
ATOM      7  C   UNL d   1      -0.905  -3.666   3.565  0.00  0.00     0.000 A 
ATOM      8  C   UNL d   1      -0.545  -2.357   3.885  0.00  0.00     0.001 A 
ATOM      9  C   UNL d   1       0.285  -1.629   3.028  0.00  0.00     0.019 A 
ENDBRANCH   3   4
ENDBRANCH   1   3
BRANCH   1  10
ATOM     10  C   UNL d   1       0.189  -0.341  -1.134  0.00  0.00     0.021 A 
ATOM     11  C   UNL d   1       0.617  -1.319  -2.043  0.00  0.00     0.019 A 
ATOM     12  C   UNL d   1      -0.087  -1.544  -3.230  0.00  0.00     0.037 A 
ATOM     13  C   UNL d   1      -1.221  -0.791  -3.533  0.00  0.00     0.068 A 
ATOM     14  C   UNL d   1      -1.636   0.204  -2.642  0.00  0.00     0.037 A 
ATOM     15  C   UNL d   1      -0.936   0.431  -1.452  0.00  0.00     0.019 A 
BRANCH  13  16
ATOM     16  O   UNL d   1      -1.993  -0.923  -4.653  0.00  0.00    -0.356 OA
ATOM     17  C   UNL d   1      -1.628  -1.956  -5.562  0.00  0.00     0.210 C 
ENDBRANCH  13  16
ENDBRANCH   1  10
TORSDOF 4
