REMARK  7 active torsions:
REMARK  status: ('A' for Active; 'I' for Inactive)
REMARK    1  A    between atoms: C_12  and  C_1 
REMARK    2  A    between atoms: C_13  and  C_4 
REMARK    3  A    between atoms: S_11  and  C_7 
REMARK    4  A    between atoms: C_10  and  C_15 
REMARK    5  A    between atoms: O_16  and  C_10 
REMARK    6  A    between atoms: C_15  and  S_11 
REMARK    7  A    between atoms: C_21  and  O_16 
ROOT
ATOM      1  C   UNL d   1      -0.252  -1.315   0.176  0.00  0.00     0.086 A 
ATOM      2  N   UNL d   1      -1.221  -0.400   0.405  0.00  0.00    -0.296 N 
ATOM      3  HN  UNL d   1      -2.175  -0.704   0.601  1.00  0.00     0.187 HD
ATOM      4  C   UNL d   1       1.039  -0.865  -0.123  0.00  0.00     0.073 A 
ATOM      5  N   UNL d   1       1.341   0.467  -0.142  0.00  0.00    -0.333 N 
ATOM      6  HN  UNL d   1       2.286   0.797  -0.334  1.00  0.00     0.168 HD
ATOM      7  C   UNL d   1       0.335   1.321   0.105  0.00  0.00     0.160 A 
ATOM      8  N   UNL d   1      -0.923   0.932   0.372  0.00  0.00    -0.279 N 
ATOM      9  HN  UNL d   1      -1.650   1.626   0.548  1.00  0.00     0.189 HD
ENDROOT
BRANCH   7  10
ATOM     10  S   UNL d   1       0.673   3.063   0.170  0.00  0.00    -0.083 SA
BRANCH  10  11
ATOM     11  C   UNL d   1       2.205   3.128  -0.809  0.00  0.00     0.193 C 
BRANCH  11  12
ATOM     12  C   UNL d   1       2.014   2.560  -2.198  0.00  0.00     0.268 C 
ATOM     13  O   UNL d   1       0.999   2.662  -2.876  0.00  0.00    -0.264 OA
BRANCH  12  14
ATOM     14  O   UNL d   1       3.159   1.936  -2.598  0.00  0.00    -0.321 OA
BRANCH  14  15
ATOM     15  C   UNL d   1       3.071   1.195  -3.823  0.00  0.00     0.174 C 
ATOM     16  C   UNL d   1       3.595   2.027  -4.976  0.00  0.00     0.034 C 
ENDBRANCH  14  15
ENDBRANCH  12  14
ENDBRANCH  11  12
ENDBRANCH  10  11
ENDBRANCH   7  10
BRANCH   4  17
ATOM     17  C   UNL d   1       2.203  -1.731  -0.430  0.00  0.00    -0.007 A 
ATOM     18  C   UNL d   1       2.115  -2.859  -1.266  0.00  0.00     0.014 A 
ATOM     19  C   UNL d   1       3.215  -3.700  -1.473  0.00  0.00     0.001 A 
ATOM     20  C   UNL d   1       4.440  -3.407  -0.882  0.00  0.00     0.000 A 
ATOM     21  C   UNL d   1       4.570  -2.267  -0.095  0.00  0.00     0.001 A 
ATOM     22  C   UNL d   1       3.465  -1.441   0.126  0.00  0.00     0.014 A 
ENDBRANCH   4  17
BRANCH   1  23
ATOM     23  C   UNL d   1      -0.704  -2.712   0.316  0.00  0.00    -0.006 A 
ATOM     24  C   UNL d   1      -1.915  -3.126  -0.277  0.00  0.00     0.014 A 
ATOM     25  C   UNL d   1      -2.369  -4.443  -0.162  0.00  0.00     0.001 A 
ATOM     26  C   UNL d   1      -1.622  -5.378   0.546  0.00  0.00     0.000 A 
ATOM     27  C   UNL d   1      -0.431  -4.992   1.156  0.00  0.00     0.001 A 
ATOM     28  C   UNL d   1       0.014  -3.669   1.056  0.00  0.00     0.014 A 
ENDBRANCH   1  23
TORSDOF 7
