REMARK  5 active torsions:
REMARK  status: ('A' for Active; 'I' for Inactive)
REMARK    1  A    between atoms: C_12  and  C_1 
REMARK    2  A    between atoms: S_8  and  C_2 
REMARK    3  A    between atoms: C_13  and  C_3 
REMARK    4  A    between atoms: N_7  and  C_9 
REMARK    5  A    between atoms: C_16  and  S_8 
ROOT
ATOM      1  C   UNL d   1      -0.449  -1.103   0.140  0.00  0.00     0.072 A 
ATOM      2  C   UNL d   1      -0.409   1.032   0.059  0.00  0.00     0.150 A 
ATOM      3  C   UNL d   1       0.900  -0.765   0.028  0.00  0.00     0.072 A 
ATOM      4  N   UNL d   1      -1.244   0.028   0.131  0.00  0.00    -0.334 N 
ATOM      5  HN  UNL d   1      -2.263   0.070   0.171  1.00  0.00     0.168 HD
ATOM      6  N   UNL d   1       0.884   0.614  -0.007  0.00  0.00    -0.334 N 
ATOM      7  H   UNL d   1       1.685   1.219  -0.103  0.00  0.00     0.168 HD
ENDROOT
BRANCH   2   8
ATOM      8  S   UNL d   1      -0.776   2.716  -0.043  0.00  0.00    -0.054 SA
BRANCH   8   9
ATOM      9  C   UNL d   1      -1.699   2.924   1.470  0.00  0.00     0.008 A 
ATOM     10  C   UNL d   1      -1.246   3.853   2.417  0.00  0.00     0.021 A 
ATOM     11  C   UNL d   1      -1.953   4.063   3.606  0.00  0.00     0.037 A 
ATOM     12  C   UNL d   1      -3.130   3.344   3.844  0.00  0.00     0.102 A 
ATOM     13  C   UNL d   1      -3.606   2.429   2.899  0.00  0.00     0.037 A 
ATOM     14  C   UNL d   1      -2.892   2.230   1.712  0.00  0.00     0.021 A 
BRANCH  12  15
ATOM     15  N   UNL d   1      -3.873   3.557   5.096  0.00  0.00    -0.116 N 
ATOM     16  O   UNL d   1      -3.419   4.381   5.900  0.00  0.00    -0.532 OA
ATOM     17  O   UNL d   1      -4.907   2.900   5.269  0.00  0.00    -0.532 OA
ENDBRANCH  12  15
ENDBRANCH   8   9
ENDBRANCH   2   8
BRANCH   1  18
ATOM     18  C   UNL d   1      -1.023  -2.442   0.217  0.00  0.00    -0.007 A 
ATOM     19  C   UNL d   1      -0.379  -3.490   0.889  0.00  0.00     0.014 A 
ATOM     20  C   UNL d   1      -0.908  -4.783   0.873  0.00  0.00     0.001 A 
ATOM     21  C   UNL d   1      -2.115  -5.033   0.225  0.00  0.00     0.000 A 
ATOM     22  C   UNL d   1      -2.796  -3.990  -0.400  0.00  0.00     0.001 A 
ATOM     23  C   UNL d   1      -2.252  -2.702  -0.404  0.00  0.00     0.014 A 
ENDBRANCH   1  18
BRANCH   3  24
ATOM     24  C   UNL d   1       2.136  -1.543  -0.070  0.00  0.00    -0.007 A 
ATOM     25  C   UNL d   1       2.194  -2.697  -0.862  0.00  0.00     0.014 A 
ATOM     26  C   UNL d   1       3.331  -3.509  -0.864  0.00  0.00     0.001 A 
ATOM     27  C   UNL d   1       4.441  -3.151  -0.105  0.00  0.00     0.000 A 
ATOM     28  C   UNL d   1       4.419  -1.978   0.646  0.00  0.00     0.001 A 
ATOM     29  C   UNL d   1       3.272  -1.179   0.667  0.00  0.00     0.014 A 
ENDBRANCH   3  24
TORSDOF 5
