REMARK  4 active torsions:
REMARK  status: ('A' for Active; 'I' for Inactive)
REMARK    1  A    between atoms: C_5  and  N_1 
REMARK    2  A    between atoms: C_2  and  C_4 
REMARK       I    between atoms: N_3  and  C_2 
REMARK    3  A    between atoms: C_8  and  C_13 
REMARK    4  A    between atoms: O_17  and  C_14 
ROOT
ATOM      1  C   UNL d   1       0.552  -3.113   3.575  0.00  0.00     0.253 C 
ATOM      2  N   UNL d   1       0.362  -4.397   4.120  0.00  0.00    -0.348 N 
ATOM      3  O   UNL d   1       0.434  -2.098   4.261  0.00  0.00    -0.267 OA
ATOM      4  C   UNL d   1      -0.277  -4.402   5.438  0.00  0.00     0.127 C 
ATOM      5  C   UNL d   1       0.351  -5.633   3.342  0.00  0.00     0.127 C 
ATOM      6  C   UNL d   1      -0.365  -6.994   5.373  0.00  0.00     0.024 C 
ATOM      7  C   UNL d   1      -0.251  -5.717   6.212  0.00  0.00     0.029 C 
ATOM      8  C   UNL d   1       0.577  -6.891   4.169  0.00  0.00     0.029 C 
ENDROOT
BRANCH   1   9
ATOM      9  C   UNL d   1       0.908  -2.876   2.144  0.00  0.00     0.034 A 
ATOM     10  C   UNL d   1       1.786  -1.811   1.876  0.00  0.00     0.053 A 
ATOM     11  C   UNL d   1       2.053  -1.438   0.553  0.00  0.00     0.103 A 
ATOM     12  C   UNL d   1       1.474  -2.135  -0.515  0.00  0.00     0.036 A 
ATOM     13  C   UNL d   1       0.594  -3.184  -0.249  0.00  0.00     0.003 A 
ATOM     14  C   UNL d   1       0.291  -3.532   1.072  0.00  0.00     0.017 A 
BRANCH  11  15
ATOM     15  N   UNL d   1       2.912  -0.279   0.279  0.00  0.00    -0.116 N 
ATOM     16  O   UNL d   1       3.453   0.280   1.243  0.00  0.00    -0.532 OA
ATOM     17  O   UNL d   1       3.045   0.072  -0.902  0.00  0.00    -0.532 OA
ENDBRANCH  11  15
ENDBRANCH   1   9
BRANCH   6  18
ATOM     18  C   UNL d   1      -1.775  -7.440   5.000  0.00  0.00    -0.021 A 
ATOM     19  C   UNL d   1      -2.182  -8.782   5.149  0.00  0.00     0.074 A 
ATOM     20  C   UNL d   1      -3.487  -9.186   4.838  0.00  0.00     0.037 A 
ATOM     21  C   UNL d   1      -4.410  -8.267   4.348  0.00  0.00     0.003 A 
ATOM     22  C   UNL d   1      -4.033  -6.941   4.182  0.00  0.00     0.001 A 
ATOM     23  C   UNL d   1      -2.732  -6.537   4.500  0.00  0.00     0.010 A 
BRANCH  19  24
ATOM     24  O   UNL d   1      -1.388  -9.740   5.725  0.00  0.00    -0.355 OA
ATOM     25  C   UNL d   1      -0.366 -10.214   4.849  0.00  0.00     0.210 C 
ENDBRANCH  19  24
ENDBRANCH   6  18
TORSDOF 4
