REMARK  2 active torsions:
REMARK  status: ('A' for Active; 'I' for Inactive)
REMARK    1  A    between atoms: N_2  and  S_1 
REMARK    2  A    between atoms: C_9  and  S_1 
ROOT
ATOM      1  N   UNL d   1       0.111  -1.468  -0.897  0.00  0.00    -0.265 N 
ATOM      2  C   UNL d   1      -0.918  -2.101  -0.129  0.00  0.00     0.072 A 
ATOM      3  C   UNL d   1       0.672  -2.170  -2.061  0.00  0.00     0.107 C 
ATOM      4  N   UNL d   1       0.189  -4.343   0.097  0.00  0.00    -0.325 N 
ATOM      5  C   UNL d   1       1.141  -4.421  -0.860  0.00  0.00     0.224 C 
ATOM      6  C   UNL d   1       1.642  -3.258  -1.662  0.00  0.00     0.129 C 
ATOM      7  C   UNL d   1      -0.824  -3.407   0.368  0.00  0.00     0.062 A 
ATOM      8  O   UNL d   1       1.668  -5.530  -1.022  0.00  0.00    -0.273 OA
ATOM      9  C   UNL d   1      -2.105  -1.374   0.070  0.00  0.00     0.033 A 
ATOM     10  C   UNL d   1      -0.444  -2.632  -3.002  0.00  0.00     0.034 C 
ATOM     11  C   UNL d   1      -1.894  -3.917   1.127  0.00  0.00     0.032 A 
ATOM     12  C   UNL d   1      -3.186  -1.925   0.753  0.00  0.00     0.002 A 
ATOM     13  C   UNL d   1      -3.075  -3.194   1.297  0.00  0.00     0.002 A 
ATOM     14  H   UNL d   1       0.084  -5.249   0.542  0.00  0.00     0.169 HD
ENDROOT
BRANCH   1  15
ATOM     15  S   UNL d   1       0.985  -0.188  -0.182  0.00  0.00     0.265 S 
ATOM     16  O   UNL d   1       2.356  -0.623   0.001  0.00  0.00    -0.200 OA
ATOM     17  O   UNL d   1       0.232   0.420   0.888  0.00  0.00    -0.200 OA
BRANCH  15  18
ATOM     18  C   UNL d   1       0.981   0.997  -1.527  0.00  0.00     0.080 A 
ATOM     19  C   UNL d   1      -0.246   1.412  -2.055  0.00  0.00     0.027 A 
ATOM     20  C   UNL d   1      -0.273   2.215  -3.197  0.00  0.00     0.025 A 
ATOM     21  C   UNL d   1       0.925   2.612  -3.787  0.00  0.00     0.034 A 
ATOM     22  C   UNL d   1       2.151   2.235  -3.232  0.00  0.00     0.025 A 
ATOM     23 CL   UNL d   1       0.891   3.556  -5.225  0.00  0.00    -0.084 Cl
ATOM     24  C   UNL d   1       2.184   1.424  -2.095  0.00  0.00     0.027 A 
ENDBRANCH  15  18
ENDBRANCH   1  15
TORSDOF 2
