REMARK  9 active torsions:
REMARK  status: ('A' for Active; 'I' for Inactive)
REMARK    1  A    between atoms: C_6  and  C_1 
REMARK    2  A    between atoms: C_10  and  C_2 
REMARK    3  A    between atoms: C_14  and  N_3 
REMARK    4  A    between atoms: N_7  and  C_16 
REMARK    5  A    between atoms: C_9  and  C_17 
REMARK    6  A    between atoms: O_15  and  C_10 
REMARK    7  A    between atoms: N_11  and  O_15 
REMARK    8  A    between atoms: C_20  and  C_13 
REMARK    9  A    between atoms: N_36  and  C_13 
ROOT
ATOM      1  C   UNL d   1      -0.932  -2.607   0.287  0.00  0.00     0.158 A 
ATOM      2  C   UNL d   1      -0.335  -1.358   0.116  0.00  0.00     0.091 A 
ATOM      3  N   UNL d   1      -2.297  -2.429   0.110  0.00  0.00    -0.251 N 
ATOM      4  N   UNL d   1      -2.574  -1.155  -0.275  0.00  0.00    -0.303 N 
ATOM      5  HN  UNL d   1      -3.477  -0.775  -0.558  1.00  0.00     0.186 HD
ATOM      6  C   UNL d   1      -1.412  -0.511  -0.205  0.00  0.00     0.127 A 
ENDROOT
BRANCH   2   7
ATOM      7  C   UNL d   1       1.070  -0.990   0.244  0.00  0.00     0.318 C 
ATOM      8  O   UNL d   1       1.923  -1.743   0.707  0.00  0.00    -0.257 OA
BRANCH   7   9
ATOM      9  O   UNL d   1       1.317   0.289  -0.201  0.00  0.00    -0.193 OA
BRANCH   9  10
ATOM     10  N   UNL d   1       2.142   0.964   0.730  0.00  0.00    -0.246 N 
ATOM     11  C   UNL d   1       2.581   2.092   0.248  0.00  0.00     0.109 C 
ATOM     12  HN  UNL d   1       2.365   0.612   1.661  1.00  0.00     0.196 HD
BRANCH  11  13
ATOM     13  C   UNL d   1       3.292   3.033   1.180  0.00  0.00     0.004 A 
ATOM     14  C   UNL d   1       3.919   2.561   2.337  0.00  0.00     0.015 A 
ATOM     15  C   UNL d   1       4.552   3.456   3.211  0.00  0.00     0.017 A 
ATOM     16  C   UNL d   1       4.554   4.836   2.946  0.00  0.00     0.048 A 
ATOM     17  C   UNL d   1       3.911   5.302   1.789  0.00  0.00     0.017 A 
ATOM     18  C   UNL d   1       3.284   4.410   0.915  0.00  0.00     0.015 A 
BRANCH  16  19
ATOM     19  C   UNL d   1       5.229   5.820   3.873  0.00  0.00     0.417 C 
ATOM     20  F   UNL d   1       5.785   5.245   4.975  0.00  0.00    -0.166 F 
ATOM     21  F   UNL d   1       6.236   6.501   3.259  0.00  0.00    -0.166 F 
ATOM     22  F   UNL d   1       4.370   6.769   4.340  0.00  0.00    -0.166 F 
ENDBRANCH  16  19
ENDBRANCH  11  13
BRANCH  11  23
ATOM     23  N   UNL d   1       2.425   2.472  -1.066  0.00  0.00    -0.286 NA
ATOM     24  H   UNL d   1       2.258   1.678  -1.678  0.00  0.00     0.125 HD
ATOM     25  H   UNL d   1       3.162   3.066  -1.435  0.00  0.00     0.125 HD
ENDBRANCH  11  23
ENDBRANCH   9  10
ENDBRANCH   7   9
ENDBRANCH   2   7
BRANCH   1  26
ATOM     26  C   UNL d   1      -0.331  -3.936   0.504  0.00  0.00     0.435 C 
ATOM     27  F   UNL d   1       0.975  -4.005   0.165  0.00  0.00    -0.165 F 
ATOM     28  F   UNL d   1      -0.424  -4.321   1.801  0.00  0.00    -0.165 F 
ATOM     29  F   UNL d   1      -0.940  -4.896  -0.241  0.00  0.00    -0.165 F 
ENDBRANCH   1  26
BRANCH   3  30
ATOM     30  C   UNL d   1      -3.373  -3.372   0.177  0.00  0.00     0.057 A 
ATOM     31  C   UNL d   1      -3.337  -4.480   1.032  0.00  0.00     0.034 A 
ATOM     32  C   UNL d   1      -4.297  -5.493   0.924  0.00  0.00     0.038 A 
ATOM     33  C   UNL d   1      -5.324  -5.377  -0.018  0.00  0.00     0.103 A 
ATOM     34  C   UNL d   1      -5.437  -4.221  -0.800  0.00  0.00     0.038 A 
ATOM     35  C   UNL d   1      -4.471  -3.212  -0.688  0.00  0.00     0.034 A 
BRANCH  33  36
ATOM     36  N   UNL d   1      -6.266  -6.490  -0.198  0.00  0.00    -0.116 N 
ATOM     37  O   UNL d   1      -7.186  -6.337  -1.019  0.00  0.00    -0.532 OA
ATOM     38  O   UNL d   1      -6.079  -7.517   0.465  0.00  0.00    -0.532 OA
ENDBRANCH  33  36
ENDBRANCH   3  30
TORSDOF 9
