REMARK  6 active torsions:
REMARK  status: ('A' for Active; 'I' for Inactive)
REMARK    1  A    between atoms: S_9  and  C_2 
REMARK    2  A    between atoms: S_10  and  C_5 
REMARK    3  A    between atoms: C_11  and  S_9 
REMARK    4  A    between atoms: C_12  and  S_10 
REMARK    5  A    between atoms: C_16  and  C_11 
REMARK    6  A    between atoms: C_15  and  C_12 
ROOT
ATOM      1  C   UNL d   1      -0.364  -1.270  -0.018  0.00  0.00     0.103 A 
ATOM      2  C   UNL d   1       0.939  -0.787   0.052  0.00  0.00     0.082 A 
ATOM      3  N   UNL d   1      -0.795   1.034   0.009  0.00  0.00    -0.319 N 
ATOM      4  HN  UNL d   1      -1.332   1.902  -0.001  1.00  0.00     0.175 HD
ATOM      5  C   UNL d   1      -1.314  -0.191  -0.035  0.00  0.00     0.099 A 
ATOM      6  S   UNL d   1       0.847   0.932   0.082  0.00  0.00    -0.005 SA
ATOM      7  C   UNL d   1      -0.691  -2.651  -0.064  0.00  0.00     0.104 C 
ATOM      8  N   UNL d   1      -0.956  -3.784  -0.096  0.00  0.00    -0.191 NA
ENDROOT
BRANCH   2   9
ATOM      9  S   UNL d   1       2.514  -1.563   0.193  0.00  0.00    -0.115 SA
BRANCH   9  10
ATOM     10  C   UNL d   1       2.456  -3.051  -0.844  0.00  0.00     0.118 C 
BRANCH  10  11
ATOM     11  C   UNL d   1       3.821  -3.700  -0.963  0.00  0.00    -0.049 A 
ATOM     12  C   UNL d   1       4.277  -4.586   0.029  0.00  0.00     0.009 A 
ATOM     13  C   UNL d   1       5.532  -5.194  -0.076  0.00  0.00     0.024 A 
ATOM     14  C   UNL d   1       6.345  -4.919  -1.172  0.00  0.00     0.034 A 
ATOM     15  C   UNL d   1       5.915  -4.037  -2.160  0.00  0.00     0.024 A 
ATOM     16 CL   UNL d   1       7.886  -5.673  -1.305  0.00  0.00    -0.084 Cl
ATOM     17  C   UNL d   1       4.660  -3.426  -2.055  0.00  0.00     0.009 A 
ENDBRANCH  10  11
ENDBRANCH   9  10
ENDBRANCH   2   9
BRANCH   5  18
ATOM     18  S   UNL d   1      -3.065  -0.257  -0.256  0.00  0.00    -0.106 SA
BRANCH  18  19
ATOM     19  C   UNL d   1      -3.671  -1.578   0.825  0.00  0.00     0.119 C 
BRANCH  19  20
ATOM     20  C   UNL d   1      -5.188  -1.628   0.846  0.00  0.00    -0.048 A 
ATOM     21  C   UNL d   1      -5.889  -2.255  -0.200  0.00  0.00     0.009 A 
ATOM     22  C   UNL d   1      -7.287  -2.311  -0.193  0.00  0.00     0.024 A 
ATOM     23  C   UNL d   1      -7.996  -1.739   0.860  0.00  0.00     0.034 A 
ATOM     24  C   UNL d   1      -7.320  -1.108   1.902  0.00  0.00     0.024 A 
ATOM     25 CL   UNL d   1      -9.716  -1.815   0.873  0.00  0.00    -0.084 Cl
ATOM     26  C   UNL d   1      -5.921  -1.049   1.894  0.00  0.00     0.009 A 
ENDBRANCH  19  20
ENDBRANCH  18  19
ENDBRANCH   5  18
TORSDOF 6
