REMARK  7 active torsions:
REMARK  status: ('A' for Active; 'I' for Inactive)
REMARK    1  A    between atoms: C_3  and  C_1 
REMARK    2  A    between atoms: O_14  and  C_2 
REMARK    3  A    between atoms: O_15  and  C_3 
REMARK    4  A    between atoms: O_16  and  C_4 
REMARK    5  A    between atoms: O_17  and  C_5 
REMARK    6  A    between atoms: N_6  and  C_8 
REMARK    7  A    between atoms: C_10  and  C_9 
ROOT
ATOM      1  N   UNL d   1       2.564  -2.010   0.187  0.00  0.00    -0.364 N 
ATOM      2  HN  UNL d   1       3.372  -2.113   0.801  1.00  0.00     0.165 HD
ATOM      3  C   UNL d   1       2.131  -3.016  -0.508  0.00  0.00     0.100 C 
ENDROOT
BRANCH   3   4
ATOM      4  C   UNL d   1       2.774  -4.344  -0.444  0.00  0.00    -0.015 A 
ATOM      5  C   UNL d   1       3.934  -4.552   0.299  0.00  0.00     0.052 A 
ATOM      6  C   UNL d   1       4.540  -5.819   0.341  0.00  0.00     0.105 A 
ATOM      7  C   UNL d   1       3.983  -6.894  -0.389  0.00  0.00     0.135 A 
ATOM      8  C   UNL d   1       2.816  -6.653  -1.150  0.00  0.00     0.105 A 
ATOM      9  C   UNL d   1       2.210  -5.393  -1.158  0.00  0.00     0.052 A 
BRANCH   6  10
ATOM     10  O   UNL d   1       5.715  -5.996   1.030  0.00  0.00    -0.353 OA
ATOM     11  C   UNL d   1       5.801  -5.310   2.281  0.00  0.00     0.210 C 
ENDBRANCH   6  10
BRANCH   7  12
ATOM     12  O   UNL d   1       4.427  -8.190  -0.410  0.00  0.00    -0.351 OA
ATOM     13  C   UNL d   1       5.529  -8.588   0.391  0.00  0.00     0.210 C 
ENDBRANCH   7  12
BRANCH   8  14
ATOM     14  O   UNL d   1       2.106  -7.579  -1.875  0.00  0.00    -0.353 OA
ATOM     15  C   UNL d   1       2.861  -8.512  -2.640  0.00  0.00     0.210 C 
ENDBRANCH   8  14
ENDBRANCH   3   4
BRANCH   1  16
ATOM     16  C   UNL d   1       1.893  -0.766   0.079  0.00  0.00     0.049 A 
ATOM     17  C   UNL d   1       2.624   0.440   0.047  0.00  0.00     0.064 A 
ATOM     18  C   UNL d   1       1.947   1.669  -0.044  0.00  0.00     0.020 A 
ATOM     19  C   UNL d   1       0.553   1.713  -0.085  0.00  0.00     0.001 A 
ATOM     20  C   UNL d   1      -0.175   0.532  -0.021  0.00  0.00     0.002 A 
ATOM     21  C   UNL d   1       0.486  -0.694   0.072  0.00  0.00     0.030 A 
BRANCH  17  22
ATOM     22  C   UNL d   1       4.118   0.508   0.113  0.00  0.00     0.178 C 
ATOM     23  O   UNL d   1       4.729   1.564   0.046  0.00  0.00    -0.646 OA
BRANCH  22  24
ATOM     24  O   UNL d   1       4.745  -0.675   0.265  0.00  0.00    -0.773 OA
ATOM     25  H   UNL d   1       4.095  -1.416   0.310  0.00  0.00     0.167 HD
ENDBRANCH  22  24
ENDBRANCH  17  22
ENDBRANCH   1  16
TORSDOF 7
