REMARK  3 active torsions:
REMARK  status: ('A' for Active; 'I' for Inactive)
REMARK    1  A    between atoms: C_3  and  C_1 
REMARK    2  A    between atoms: C_6  and  C_2 
REMARK    3  A    between atoms: C_14  and  C_11 
ROOT
ATOM      1  C   UNL d   1      -2.642   1.605   0.022  0.00  0.00     0.178 A 
ATOM      2  N   UNL d   1      -2.896   2.536  -0.877  0.00  0.00    -0.342 N 
ATOM      3  HN  UNL d   1      -2.318   2.811  -1.671  1.00  0.00     0.167 HD
ATOM      4  O   UNL d   1      -3.635   1.473   0.962  0.00  0.00    -0.289 OA
ATOM      5  C   UNL d   1      -4.574   2.412   0.619  0.00  0.00     0.103 A 
ATOM      6  C   UNL d   1      -4.111   3.050  -0.507  0.00  0.00     0.128 A 
ENDROOT
BRANCH   1   7
ATOM      7  C   UNL d   1      -1.402   0.775   0.012  0.00  0.00     0.125 A 
ATOM      8  C   UNL d   1      -0.336   0.908  -0.850  0.00  0.00     0.192 A 
ATOM      9  O   UNL d   1       0.569  -0.081  -0.525  0.00  0.00    -0.291 OA
ATOM     10  C   UNL d   1      -0.004  -0.741   0.523  0.00  0.00     0.121 A 
ATOM     11  N   UNL d   1      -1.173  -0.266   0.893  0.00  0.00    -0.335 N 
ATOM     12  C   UNL d   1       0.759  -1.881   1.071  0.00  0.00     0.098 C 
ATOM     13  HN  UNL d   1      -1.771  -0.589   1.653  1.00  0.00     0.168 HD
BRANCH   8  14
ATOM     14  C   UNL d   1       0.035   1.797  -1.965  0.00  0.00     0.442 C 
ATOM     15  F   UNL d   1      -0.742   2.894  -2.116  0.00  0.00    -0.164 F 
ATOM     16  F   UNL d   1       1.306   2.266  -1.815  0.00  0.00    -0.164 F 
ATOM     17  F   UNL d   1       0.013   1.138  -3.155  0.00  0.00    -0.164 F 
ENDBRANCH   8  14
ENDBRANCH   1   7
BRANCH   5  18
ATOM     18  C   UNL d   1      -5.763   2.517   1.452  0.00  0.00    -0.001 A 
ATOM     19  C   UNL d   1      -5.940   1.702   2.580  0.00  0.00     0.014 A 
ATOM     20  C   UNL d   1      -7.091   1.809   3.366  0.00  0.00     0.001 A 
ATOM     21  C   UNL d   1      -8.080   2.733   3.037  0.00  0.00     0.000 A 
ATOM     22  C   UNL d   1      -7.918   3.553   1.924  0.00  0.00     0.001 A 
ATOM     23  C   UNL d   1      -6.768   3.446   1.138  0.00  0.00     0.014 A 
ENDBRANCH   5  18
TORSDOF 3
