REMARK  4 active torsions:
REMARK  status: ('A' for Active; 'I' for Inactive)
REMARK    1  A    between atoms: C_4  and  C_1 
REMARK    2  A    between atoms: C_2  and  C_5 
REMARK       I    between atoms: C_3  and  N_8 
REMARK       I    between atoms: N_9  and  C_3 
REMARK    3  A    between atoms: N_8  and  C_7 
REMARK    4  A    between atoms: C_13  and  N_9 
ROOT
ATOM      1  C   UNL d   1       0.139  -2.325   1.428  0.00  0.00     0.050 A 
ATOM      2  C   UNL d   1      -0.003   0.053   0.951  0.00  0.00     0.050 A 
ATOM      3  C   UNL d   1       0.085  -1.268   0.507  0.00  0.00     0.032 A 
ATOM      4  C   UNL d   1       0.015  -0.742   3.285  0.00  0.00     0.037 A 
ATOM      5  C   UNL d   1       0.108  -2.050   2.816  0.00  0.00     0.045 A 
ATOM      6  C   UNL d   1      -0.032   0.297   2.335  0.00  0.00     0.045 A 
ENDROOT
BRANCH   4   7
ATOM      7  N   UNL d   1      -0.098  -0.318   4.620  0.00  0.00    -0.309 N 
ATOM      8  C   UNL d   1      -0.125  -0.843   5.867  0.00  0.00     0.321 C 
ATOM      9  N   UNL d   1       0.209  -2.135   6.077  0.00  0.00    -0.335 N 
ATOM     10  O   UNL d   1      -0.415  -0.062   6.773  0.00  0.00    -0.247 OA
ATOM     11  H   UNL d   1       0.202  -2.721   5.269  0.00  0.00     0.165 HD
ATOM     12  H   UNL d   1      -0.259   0.678   4.734  0.00  0.00     0.170 HD
BRANCH   9  13
ATOM     13  C   UNL d   1       0.034  -2.869   7.349  0.00  0.00     0.023 C 
ATOM     14  C   UNL d   1      -1.423  -3.347   7.457  0.00  0.00     0.037 C 
ATOM     15  C   UNL d   1       0.965  -4.094   7.314  0.00  0.00     0.037 C 
ATOM     16  C   UNL d   1       0.393  -2.051   8.604  0.00  0.00     0.037 C 
ENDBRANCH   9  13
ENDBRANCH   4   7
BRANCH   1  17
ATOM     17  C   UNL d   1       0.212  -3.759   0.949  0.00  0.00     0.417 C 
ATOM     18  F   UNL d   1       0.160  -3.884  -0.406  0.00  0.00    -0.166 F 
ATOM     19  F   UNL d   1      -0.809  -4.518   1.434  0.00  0.00    -0.166 F 
ATOM     20  F   UNL d   1       1.358  -4.378   1.341  0.00  0.00    -0.166 F 
ENDBRANCH   1  17
BRANCH   2  21
ATOM     21  C   UNL d   1      -0.083   1.211  -0.014  0.00  0.00     0.417 C 
ATOM     22  F   UNL d   1      -0.124   0.827  -1.319  0.00  0.00    -0.166 F 
ATOM     23  F   UNL d   1      -1.190   1.976   0.186  0.00  0.00    -0.166 F 
ATOM     24  F   UNL d   1       0.981   2.052   0.098  0.00  0.00    -0.166 F 
ENDBRANCH   2  21
TORSDOF 4
