REMARK  4 active torsions:
REMARK  status: ('A' for Active; 'I' for Inactive)
REMARK    1  A    between atoms: C_11  and  N_1 
REMARK    2  A    between atoms: N_12  and  N_7 
REMARK    3  A    between atoms: N_9  and  C_13 
REMARK    4  A    between atoms: C_17  and  N_12 
ROOT
ATOM      1  N   UNL d   1      -3.108  -0.698   1.788  0.00  0.00    -0.218 N 
ATOM      2  C   UNL d   1      -3.590   0.388   1.066  0.00  0.00     0.296 A 
ATOM      3  C   UNL d   1      -2.305   1.106   0.703  0.00  0.00     0.137 A 
ATOM      4  N   UNL d   1      -1.709  -0.784   1.863  0.00  0.00    -0.293 N 
ATOM      5  HN  UNL d   1      -1.176  -1.509   2.344  1.00  0.00     0.187 HD
ATOM      6  C   UNL d   1      -1.212   0.223   1.212  0.00  0.00     0.056 A 
ATOM      7  N   UNL d   1      -2.261   2.260   0.111  0.00  0.00    -0.310 N 
ATOM      8  HN  UNL d   1      -3.120   2.746  -0.149  1.00  0.00     0.181 HD
ATOM      9  O   UNL d   1      -4.698   0.755   0.726  0.00  0.00    -0.264 OA
ATOM     10  C   UNL d   1       0.226   0.412   0.937  0.00  0.00     0.072 C 
ENDROOT
BRANCH   7  11
ATOM     11  N   UNL d   1      -1.040   2.808  -0.155  0.00  0.00    -0.205 NA
ATOM     12  H   UNL d   1      -0.624   2.477  -1.031  0.00  0.00     0.153 HD
BRANCH  11  13
ATOM     13  C   UNL d   1      -1.014   4.233  -0.169  0.00  0.00     0.027 A 
ATOM     14  C   UNL d   1      -1.817   4.984   0.700  0.00  0.00     0.027 A 
ATOM     15  C   UNL d   1      -1.760   6.385   0.718  0.00  0.00     0.031 A 
ATOM     16  C   UNL d   1      -0.871   7.085  -0.100  0.00  0.00     0.030 A 
ATOM     17  C   UNL d   1      -0.049   6.325  -0.948  0.00  0.00     0.031 A 
ATOM     18  C   UNL d   1      -0.101   4.925  -0.969  0.00  0.00     0.027 A 
BRANCH  16  19
ATOM     19  N   UNL d   1      -0.773   8.474  -0.125  0.00  0.00    -0.377 N 
ATOM     20  C   UNL d   1      -1.939   9.296   0.259  0.00  0.00     0.149 C 
ATOM     21  C   UNL d   1      -1.700  10.741  -0.219  0.00  0.00     0.187 C 
ATOM     22  O   UNL d   1      -0.478  11.284   0.316  0.00  0.00    -0.388 OA
ATOM     23  C   UNL d   1       0.643  10.469  -0.074  0.00  0.00     0.187 C 
ATOM     24  C   UNL d   1       0.484   9.025   0.430  0.00  0.00     0.149 C 
ENDBRANCH  16  19
ENDBRANCH  11  13
ENDBRANCH   7  11
BRANCH   1  25
ATOM     25  C   UNL d   1      -3.847  -1.797   2.294  0.00  0.00     0.060 A 
ATOM     26  C   UNL d   1      -5.215  -1.943   2.042  0.00  0.00     0.031 A 
ATOM     27  C   UNL d   1      -5.910  -3.066   2.502  0.00  0.00     0.002 A 
ATOM     28  C   UNL d   1      -5.253  -4.043   3.246  0.00  0.00     0.000 A 
ATOM     29  C   UNL d   1      -3.899  -3.903   3.527  0.00  0.00     0.002 A 
ATOM     30  C   UNL d   1      -3.200  -2.794   3.048  0.00  0.00     0.031 A 
ENDBRANCH   1  25
TORSDOF 4
