REMARK  6 active torsions:
REMARK  status: ('A' for Active; 'I' for Inactive)
REMARK    1  A    between atoms: C_8  and  N_1 
REMARK    2  A    between atoms: C_7  and  C_2 
REMARK    3  A    between atoms: N_12  and  C_9 
REMARK    4  A    between atoms: C_13  and  N_12 
REMARK    5  A    between atoms: O_22  and  C_14 
REMARK    6  A    between atoms: O_23  and  C_15 
ROOT
ATOM      1  N   UNL d   1       3.763   0.707   0.017  0.00  0.00    -0.225 N 
ATOM      2  C   UNL d   1       3.651  -0.687   0.006  0.00  0.00     0.139 C 
ATOM      3  N   UNL d   1       5.727  -0.124  -0.124  0.00  0.00    -0.007 NA
ATOM      4  N   UNL d   1       5.061   1.018  -0.199  0.00  0.00     0.001 NA
ATOM      5  N   UNL d   1       4.873  -1.185   0.018  0.00  0.00    -0.270 N 
ATOM      6  HN  UNL d   1       5.130  -2.168   0.115  1.00  0.00     0.185 HD
ENDROOT
BRANCH   2   7
ATOM      7  C   UNL d   1       2.397  -1.323  -0.155  0.00  0.00     0.068 C 
ATOM      8  C   UNL d   1       2.136  -2.584   0.208  0.00  0.00     0.092 C 
BRANCH   8   9
ATOM      9  N   UNL d   1       2.930  -3.529   0.801  0.00  0.00    -0.366 N 
ATOM     10  H   UNL d   1       3.907  -3.267   0.928  0.00  0.00     0.165 HD
BRANCH   9  11
ATOM     11  C   UNL d   1       2.595  -4.854   1.140  0.00  0.00     0.032 A 
ATOM     12  C   UNL d   1       1.358  -5.439   0.835  0.00  0.00     0.032 A 
ATOM     13  C   UNL d   1       1.036  -6.742   1.241  0.00  0.00     0.039 A 
ATOM     14  C   UNL d   1       1.946  -7.491   1.978  0.00  0.00     0.068 A 
ATOM     15  C   UNL d   1       3.179  -6.922   2.298  0.00  0.00     0.039 A 
ATOM     16  C   UNL d   1       3.499  -5.620   1.886  0.00  0.00     0.032 A 
BRANCH  14  17
ATOM     17  O   UNL d   1       1.748  -8.760   2.445  0.00  0.00    -0.356 OA
ATOM     18  C   UNL d   1       0.537  -9.402   2.063  0.00  0.00     0.210 C 
ENDBRANCH  14  17
ENDBRANCH   9  11
ENDBRANCH   8   9
ENDBRANCH   2   7
BRANCH   1  19
ATOM     19  C   UNL d   1       2.782   1.716   0.215  0.00  0.00     0.056 A 
ATOM     20  C   UNL d   1       1.631   1.464   0.973  0.00  0.00     0.034 A 
ATOM     21  C   UNL d   1       0.642   2.445   1.106  0.00  0.00     0.039 A 
ATOM     22  C   UNL d   1       0.793   3.678   0.475  0.00  0.00     0.068 A 
ATOM     23  C   UNL d   1       1.973   3.955  -0.218  0.00  0.00     0.039 A 
ATOM     24  C   UNL d   1       2.974   2.986  -0.342  0.00  0.00     0.034 A 
BRANCH  22  25
ATOM     25  O   UNL d   1      -0.130   4.687   0.492  0.00  0.00    -0.356 OA
ATOM     26  C   UNL d   1      -1.480   4.286   0.708  0.00  0.00     0.210 C 
ENDBRANCH  22  25
ENDBRANCH   1  19
TORSDOF 6
