REMARK  4 active torsions:
REMARK  status: ('A' for Active; 'I' for Inactive)
REMARK    1  A    between atoms: C_3  and  C_1 
REMARK    2  A    between atoms: C_2  and  C_4 
REMARK    3  A    between atoms: N_11  and  C_2 
REMARK    4  A    between atoms: O_12  and  N_6 
ROOT
ATOM      1  C   UNL d   1      -1.969  -2.839  -3.119  0.00  0.00     0.048 A 
ATOM      2  C   UNL d   1      -2.023  -0.616  -4.111  0.00  0.00     0.004 A 
ATOM      3  C   UNL d   1      -1.574  -1.491  -3.114  0.00  0.00     0.030 A 
ATOM      4  C   UNL d   1      -2.814  -3.296  -4.144  0.00  0.00     0.016 A 
ATOM      5  C   UNL d   1      -2.864  -1.088  -5.125  0.00  0.00     0.015 A 
ATOM      6  C   UNL d   1      -3.256  -2.426  -5.142  0.00  0.00     0.002 A 
ENDROOT
BRANCH   2   7
ATOM      7  C   UNL d   1      -1.592   0.814  -4.102  0.00  0.00     0.108 C 
ATOM      8  N   UNL d   1      -0.461   1.121  -3.535  0.00  0.00    -0.258 N 
ATOM      9  HN  UNL d   1       0.167   0.450  -3.094  1.00  0.00     0.195 HD
BRANCH   8  10
ATOM     10  O   UNL d   1      -0.223   2.505  -3.614  0.00  0.00    -0.289 OA
ATOM     11  H   UNL d   1       0.691   2.571  -3.278  0.00  0.00     0.244 HD
ENDBRANCH   8  10
BRANCH   7  12
ATOM     12  N   UNL d   1      -2.405   1.760  -4.683  0.00  0.00    -0.287 NA
ATOM     13  H   UNL d   1      -3.393   1.649  -4.493  0.00  0.00     0.125 HD
ATOM     14  H   UNL d   1      -2.071   2.688  -4.427  0.00  0.00     0.125 HD
ENDBRANCH   7  12
ENDBRANCH   2   7
BRANCH   1  15
ATOM     15  C   UNL d   1      -1.498  -3.796  -2.052  0.00  0.00     0.417 C 
ATOM     16  F   UNL d   1      -0.694  -3.223  -1.114  0.00  0.00    -0.166 F 
ATOM     17  F   UNL d   1      -0.789  -4.839  -2.565  0.00  0.00    -0.166 F 
ATOM     18  F   UNL d   1      -2.533  -4.353  -1.363  0.00  0.00    -0.166 F 
ENDBRANCH   1  15
TORSDOF 4
