REMARK  3 active torsions:
REMARK  status: ('A' for Active; 'I' for Inactive)
REMARK    1  A    between atoms: C_7  and  C_1 
REMARK    2  A    between atoms: O_13  and  N_8 
REMARK    3  A    between atoms: C_10  and  O_13 
ROOT
ATOM      1  C   UNL d   1      -1.144  -1.121  -0.006  0.00  0.00     0.084 A 
ATOM      2  C   UNL d   1      -0.417   0.094  -0.017  0.00  0.00     0.057 A 
ATOM      3  N   UNL d   1      -2.470  -0.868   0.012  0.00  0.00    -0.298 N 
ATOM      4  HN  UNL d   1      -3.234  -1.543   0.022  1.00  0.00     0.187 HD
ATOM      5  N   UNL d   1      -2.555   0.473   0.012  0.00  0.00    -0.310 N 
ATOM      6  C   UNL d   1      -1.347   1.099  -0.005  0.00  0.00     0.128 A 
ATOM      7 BR   UNL d   1       1.440   0.335  -0.042  0.00  0.00    -0.047 Br
ATOM      8  H   UNL d   1      -3.477   0.898   0.024  0.00  0.00     0.186 HD
ENDROOT
BRANCH   1   9
ATOM      9  C   UNL d   1      -0.691  -2.501  -0.011  0.00  0.00     0.146 C 
ATOM     10  N   UNL d   1       0.570  -2.776  -0.029  0.00  0.00    -0.267 N 
ATOM     11  HN  UNL d   1       1.320  -2.084  -0.040  1.00  0.00     0.194 HD
BRANCH  10  12
ATOM     12  O   UNL d   1       0.759  -4.169  -0.030  0.00  0.00    -0.201 OA
BRANCH  12  13
ATOM     13  C   UNL d   1       2.104  -4.453  -0.049  0.00  0.00     0.277 C 
ATOM     14  O   UNL d   1       3.031  -3.651  -0.063  0.00  0.00    -0.264 OA
ATOM     15  C   UNL d   1       2.313  -5.938  -0.052  0.00  0.00     0.128 C 
ENDBRANCH  12  13
ENDBRANCH  10  12
ENDBRANCH   1   9
TORSDOF 3
