REMARK  5 active torsions:
REMARK  status: ('A' for Active; 'I' for Inactive)
REMARK    1  A    between atoms: C_8  and  C_1 
REMARK    2  A    between atoms: N_24  and  C_2 
REMARK    3  A    between atoms: N_6  and  N_12 
REMARK    4  A    between atoms: C_17  and  N_7 
REMARK       I    between atoms: N_12  and  C_8 
REMARK    5  A    between atoms: O_28  and  C_25 
ROOT
ATOM      1  C   UNL d   1       4.878  -0.539   1.233  0.00  0.00     0.279 C 
ATOM      2  N   UNL d   1       4.710  -1.213   0.026  0.00  0.00    -0.260 N 
ATOM      3  O   UNL d   1       4.558  -1.049   2.312  0.00  0.00    -0.265 OA
ATOM      4  H   UNL d   1       4.783  -0.696  -0.849  0.00  0.00     0.190 HD
ENDROOT
BRANCH   2   5
ATOM      5  N   UNL d   1       4.179  -2.523  -0.076  0.00  0.00    -0.248 N 
ATOM      6  C   UNL d   1       3.120  -2.734  -0.947  0.00  0.00     0.257 C 
ATOM      7  C   UNL d   1       2.496  -4.117  -0.775  0.00  0.00     0.236 C 
ATOM      8  O   UNL d   1       2.665  -1.873  -1.693  0.00  0.00    -0.270 OA
ATOM      9  N   UNL d   1       3.530  -5.141  -0.535  0.00  0.00    -0.308 N 
ATOM     10  C   UNL d   1       4.439  -4.889   0.516  0.00  0.00     0.244 C 
ATOM     11  C   UNL d   1       4.431  -3.445   1.021  0.00  0.00     0.255 C 
ATOM     12  O   UNL d   1       5.163  -5.712   1.074  0.00  0.00    -0.271 OA
BRANCH   9  13
ATOM     13  C   UNL d   1       3.438  -6.414  -1.205  0.00  0.00     0.040 A 
ATOM     14  C   UNL d   1       3.942  -7.599  -0.637  0.00  0.00     0.066 A 
ATOM     15  C   UNL d   1       3.880  -8.828  -1.305  0.00  0.00     0.070 A 
ATOM     16  C   UNL d   1       3.298  -8.888  -2.569  0.00  0.00     0.037 A 
ATOM     17  C   UNL d   1       2.787  -7.736  -3.157  0.00  0.00     0.005 A 
ATOM     18  C   UNL d   1       2.863  -6.513  -2.484  0.00  0.00     0.030 A 
BRANCH  15  19
ATOM     19  O   UNL d   1       4.344 -10.027  -0.836  0.00  0.00    -0.356 OA
ATOM     20  C   UNL d   1       4.973 -10.020   0.439  0.00  0.00     0.210 C 
ENDBRANCH  15  19
ENDBRANCH   9  13
ENDBRANCH   2   5
BRANCH   1  21
ATOM     21  C   UNL d   1       5.520   0.771   1.151  0.00  0.00     0.103 A 
ATOM     22  C   UNL d   1       5.963   1.561   2.205  0.00  0.00     0.062 A 
ATOM     23  C   UNL d   1       6.665   2.756   1.782  0.00  0.00     0.032 A 
ATOM     24  C   UNL d   1       7.309   3.842   2.446  0.00  0.00    -0.045 A 
ATOM     25  C   UNL d   1       6.702   2.787   0.388  0.00  0.00     0.088 A 
ATOM     26  C   UNL d   1       7.964   4.792   1.636  0.00  0.00     0.032 A 
ATOM     27  C   UNL d   1       7.371   4.091   3.931  0.00  0.00     0.049 C 
ATOM     28  C   UNL d   1       7.951   4.674   0.254  0.00  0.00     0.006 A 
ATOM     29  N   UNL d   1       7.306   3.697  -0.401  0.00  0.00    -0.354 N 
ATOM     30  C   UNL d   1       8.685   5.683  -0.582  0.00  0.00     0.068 C 
ATOM     31  HN  UNL d   1       7.274   3.648  -1.419  1.00  0.00     0.166 HD
ATOM     32  S   UNL d   1       5.879   1.496  -0.351  0.00  0.00    -0.064 SA
BRANCH  22  33
ATOM     33  N   UNL d   1       5.772   1.182   3.490  0.00  0.00    -0.397 N 
ATOM     34  H   UNL d   1       5.368   0.263   3.697  0.00  0.00     0.156 HD
ATOM     35  H   UNL d   1       6.281   1.564   4.276  0.00  0.00     0.156 HD
ENDBRANCH  22  33
ENDBRANCH   1  21
TORSDOF 5
