REMARK  6 active torsions:
REMARK  status: ('A' for Active; 'I' for Inactive)
REMARK    1  A    between atoms: C_12  and  N_1 
REMARK    2  A    between atoms: C_7  and  C_3 
REMARK    3  A    between atoms: N_9  and  C_20 
REMARK    4  A    between atoms: N_11  and  C_10 
REMARK    5  A    between atoms: C_18  and  C_12 
REMARK    6  A    between atoms: C_20  and  C_18 
ROOT
ATOM      1  N   UNL d   1       2.077  -0.273   0.195  0.00  0.00    -0.322 N 
ATOM      2  C   UNL d   1       1.150   0.760   0.026  0.00  0.00     0.258 C 
ATOM      3  C   UNL d   1       1.677  -1.660  -0.046  0.00  0.00     0.221 C 
ATOM      4  N   UNL d   1       0.333  -1.895   0.448  0.00  0.00    -0.364 N 
ATOM      5  C   UNL d   1      -0.279   0.387  -0.069  0.00  0.00     0.058 A 
ATOM      6  C   UNL d   1      -0.629  -0.951   0.113  0.00  0.00     0.045 A 
ATOM      7  O   UNL d   1       1.441   1.946   0.002  0.00  0.00    -0.267 OA
ATOM      8  C   UNL d   1      -1.261   1.375  -0.229  0.00  0.00     0.019 A 
ATOM      9  C   UNL d   1      -1.988  -1.286   0.135  0.00  0.00     0.030 A 
ATOM     10  C   UNL d   1      -2.609   1.027  -0.201  0.00  0.00     0.001 A 
ATOM     11  C   UNL d   1      -2.973  -0.307  -0.028  0.00  0.00     0.002 A 
ATOM     12  H   UNL d   1       0.038  -2.861   0.364  0.00  0.00     0.162 HD
ENDROOT
BRANCH   1  13
ATOM     13  C   UNL d   1       3.483   0.117   0.396  0.00  0.00     0.130 C 
BRANCH  13  14
ATOM     14  C   UNL d   1       4.552  -0.551  -0.472  0.00  0.00     0.050 C 
BRANCH  14  15
ATOM     15  C   UNL d   1       4.409  -0.280  -1.969  0.00  0.00     0.274 C 
BRANCH  15  16
ATOM     16  N   UNL d   1       4.543   1.135  -2.326  0.00  0.00     0.092 N 
ATOM     17  C   UNL d   1       5.891   1.688  -2.073  0.00  0.00     0.298 C 
ATOM     18  C   UNL d   1       6.958   1.139  -3.031  0.00  0.00     0.198 C 
ATOM     19  O   UNL d   1       6.609   1.415  -4.394  0.00  0.00    -0.388 OA
ATOM     20  C   UNL d   1       5.320   0.875  -4.718  0.00  0.00     0.198 C 
ATOM     21  C   UNL d   1       4.224   1.362  -3.752  0.00  0.00     0.298 C 
ENDBRANCH  15  16
ENDBRANCH  14  15
ENDBRANCH  13  14
ENDBRANCH   1  13
BRANCH   3  22
ATOM     22  C   UNL d   1       2.541  -2.733   0.592  0.00  0.00    -0.016 A 
ATOM     23  C   UNL d   1       2.944  -2.640   1.927  0.00  0.00     0.013 A 
ATOM     24  C   UNL d   1       3.811  -3.589   2.481  0.00  0.00     0.030 A 
ATOM     25  C   UNL d   1       4.255  -4.711   1.763  0.00  0.00     0.029 A 
ATOM     26  C   UNL d   1       3.774  -4.829   0.449  0.00  0.00     0.030 A 
ATOM     27  C   UNL d   1       2.937  -3.864  -0.135  0.00  0.00     0.013 A 
BRANCH  25  28
ATOM     28  N   UNL d   1       5.090  -5.663   2.326  0.00  0.00    -0.390 N 
ATOM     29  C   UNL d   1       6.004  -6.466   1.521  0.00  0.00     0.149 C 
ATOM     30  C   UNL d   1       5.277  -5.772   3.770  0.00  0.00     0.149 C 
ENDBRANCH  25  28
ENDBRANCH   3  22
TORSDOF 6
