REMARK  7 active torsions:
REMARK  status: ('A' for Active; 'I' for Inactive)
REMARK    1  A    between atoms: C_4  and  C_1 
REMARK    2  A    between atoms: C_3  and  C_2 
REMARK       I    between atoms: N_8  and  C_4 
REMARK    3  A    between atoms: C_19  and  N_8 
REMARK    4  A    between atoms: O_22  and  C_9 
REMARK    5  A    between atoms: O_24  and  C_13 
REMARK    6  A    between atoms: O_23  and  C_14 
REMARK    7  A    between atoms: C_15  and  C_19 
ROOT
ATOM      1  C   UNL d   1       1.314   3.122   0.909  0.00  0.00     0.254 C 
ATOM      2  N   UNL d   1       0.554   3.894   0.067  0.00  0.00    -0.353 N 
ATOM      3  O   UNL d   1       0.843   2.506   1.861  0.00  0.00    -0.268 OA
ATOM      4  H   UNL d   1       0.946   4.315  -0.764  0.00  0.00     0.163 HD
ENDROOT
BRANCH   1   5
ATOM      5  C   UNL d   1       2.784   3.080   0.705  0.00  0.00     0.062 A 
ATOM      6  C   UNL d   1       3.483   2.996  -0.506  0.00  0.00     0.069 A 
ATOM      7  C   UNL d   1       4.893   2.929  -0.450  0.00  0.00     0.073 A 
ATOM      8  C   UNL d   1       5.539   2.931   0.773  0.00  0.00     0.142 A 
ATOM      9  N   UNL d   1       4.889   3.003   1.945  0.00  0.00    -0.346 N 
ATOM     10  C   UNL d   1       3.536   3.068   1.884  0.00  0.00     0.108 A 
ATOM     11  HN  UNL d   1       5.387   3.010   2.835  1.00  0.00     0.167 HD
BRANCH   6  12
ATOM     12  C   UNL d   1       2.877   2.941  -1.877  0.00  0.00     0.418 C 
ATOM     13  F   UNL d   1       1.528   2.822  -1.929  0.00  0.00    -0.166 F 
ATOM     14  F   UNL d   1       3.168   4.064  -2.592  0.00  0.00    -0.166 F 
ATOM     15  F   UNL d   1       3.360   1.901  -2.614  0.00  0.00    -0.166 F 
ENDBRANCH   6  12
BRANCH   8  16
ATOM     16  O   UNL d   1       6.914   2.839   0.742  0.00  0.00    -0.341 OA
ATOM     17  C   UNL d   1       7.503   2.840   2.040  0.00  0.00     0.211 C 
ENDBRANCH   8  16
ENDBRANCH   1   5
BRANCH   2  18
ATOM     18  C   UNL d   1      -0.893   3.908   0.163  0.00  0.00     0.161 C 
BRANCH  18  19
ATOM     19  C   UNL d   1      -1.465   5.294  -0.006  0.00  0.00    -0.035 A 
ATOM     20  C   UNL d   1      -2.705   5.470  -0.635  0.00  0.00     0.045 A 
ATOM     21  C   UNL d   1      -3.276   6.739  -0.761  0.00  0.00     0.071 A 
ATOM     22  C   UNL d   1      -2.611   7.851  -0.240  0.00  0.00     0.073 A 
ATOM     23  C   UNL d   1      -1.378   7.696   0.399  0.00  0.00     0.071 A 
ATOM     24  C   UNL d   1      -0.822   6.418   0.525  0.00  0.00     0.045 A 
BRANCH  21  25
ATOM     25  O   UNL d   1      -4.482   6.757  -1.410  0.00  0.00    -0.356 OA
ATOM     26  C   UNL d   1      -5.091   8.027  -1.608  0.00  0.00     0.210 C 
ENDBRANCH  21  25
BRANCH  23  27
ATOM     27  O   UNL d   1      -0.620   8.696   0.941  0.00  0.00    -0.356 OA
ATOM     28  C   UNL d   1      -1.102  10.021   0.791  0.00  0.00     0.210 C 
ENDBRANCH  23  27
ENDBRANCH  18  19
ENDBRANCH   2  18
TORSDOF 7
