REMARK  3 active torsions:
REMARK  status: ('A' for Active; 'I' for Inactive)
REMARK    1  A    between atoms: C_6  and  C_12 
REMARK    2  A    between atoms: C_12  and  O_14 
REMARK    3  A    between atoms: O_14  and  C_13 
ROOT
ATOM      1  C   UNL d   1      -0.049   0.565   0.053  0.00  0.00     0.092 A 
ATOM      2  C   UNL d   1      -0.025  -0.832   0.021  0.00  0.00     0.044 A 
ATOM      3  C   UNL d   1       1.161   1.281   0.139  0.00  0.00     0.006 A 
ATOM      4  C   UNL d   1      -1.299  -1.579   0.077  0.00  0.00     0.165 C 
ATOM      5  O   UNL d   1      -1.223   1.288   0.015  0.00  0.00    -0.339 OA
ATOM      6  C   UNL d   1      -2.394   0.568  -0.418  0.00  0.00     0.067 C 
ATOM      7  C   UNL d   1      -2.515  -0.745   0.353  0.00  0.00     0.121 C 
ATOM      8  C   UNL d   1       1.185  -1.524  -0.021  0.00  0.00     0.021 A 
ATOM      9  C   UNL d   1       2.392   0.576   0.165  0.00  0.00     0.077 A 
ATOM     10  O   UNL d   1      -1.333  -2.791  -0.009  0.00  0.00    -0.292 OA
ATOM     11  C   UNL d   1       2.391  -0.820   0.045  0.00  0.00     0.038 A 
ATOM     12  C   UNL d   1       1.147   2.787   0.185  0.00  0.00     0.054 C 
ATOM     13  C   UNL d   1      -2.360   0.379  -1.946  0.00  0.00     0.046 C 
ATOM     14  C   UNL d   1      -3.614   1.440  -0.080  0.00  0.00     0.046 C 
ENDROOT
BRANCH   9  15
ATOM     15  O   UNL d   1       3.545   1.330   0.255  0.00  0.00    -0.346 OA
BRANCH  15  16
ATOM     16  C   UNL d   1       4.671   0.737   0.932  0.00  0.00     0.215 C 
BRANCH  16  17
ATOM     17  C   UNL d   1       5.840   1.722   1.047  0.00  0.00    -0.022 A 
ATOM     18  C   UNL d   1       5.668   2.933   1.774  0.00  0.00    -0.053 A 
ATOM     19  C   UNL d   1       6.728   3.861   1.873  0.00  0.00     0.014 A 
ATOM     20  C   UNL d   1       4.392   3.313   2.481  0.00  0.00     0.049 C 
ATOM     21  C   UNL d   1       7.965   3.623   1.280  0.00  0.00    -0.061 A 
ATOM     22  C   UNL d   1       8.148   2.427   0.599  0.00  0.00     0.014 A 
ATOM     23  C   UNL d   1       9.084   4.614   1.373  0.00  0.00     0.048 C 
ATOM     24  C   UNL d   1       7.124   1.462   0.492  0.00  0.00    -0.053 A 
ATOM     25  C   UNL d   1       7.551   0.225  -0.258  0.00  0.00     0.049 C 
ENDBRANCH  16  17
ENDBRANCH  15  16
ENDBRANCH   9  15
TORSDOF 3
