REMARK  6 active torsions:
REMARK  status: ('A' for Active; 'I' for Inactive)
REMARK    1  A    between atoms: C_7  and  N_1 
REMARK    2  A    between atoms: C_11  and  C_6 
REMARK    3  A    between atoms: N_10  and  C_7 
REMARK    4  A    between atoms: C_17  and  N_10 
REMARK    5  A    between atoms: C_21  and  C_17 
REMARK    6  A    between atoms: O_23  and  C_18 
ROOT
ATOM      1  N   UNL d   1      -3.058   1.072  -0.303  0.00  0.00    -0.257 N 
ATOM      2  N   UNL d   1      -1.733   1.473  -0.457  0.00  0.00    -0.298 N 
ATOM      3  HN  UNL d   1      -1.403   2.361  -0.835  1.00  0.00     0.187 HD
ATOM      4  C   UNL d   1      -1.002   0.494  -0.024  0.00  0.00     0.043 C 
ATOM      5  C   UNL d   1      -1.744  -0.642   0.624  0.00  0.00     0.068 C 
ATOM      6  C   UNL d   1      -3.151  -0.356   0.083  0.00  0.00     0.153 C 
ATOM      7  C   UNL d   1       0.461   0.439  -0.035  0.00  0.00    -0.005 A 
ATOM      8  C   UNL d   1      -1.085  -2.017   0.497  0.00  0.00     0.018 C 
ATOM      9  C   UNL d   1       1.056  -0.826  -0.144  0.00  0.00    -0.046 A 
ATOM     10  C   UNL d   1       0.198  -2.048  -0.343  0.00  0.00     0.040 C 
ATOM     11  C   UNL d   1       1.228   1.597   0.088  0.00  0.00     0.014 A 
ATOM     12  C   UNL d   1       2.453  -0.910  -0.159  0.00  0.00     0.008 A 
ATOM     13  C   UNL d   1       2.619   1.493   0.107  0.00  0.00     0.001 A 
ATOM     14  C   UNL d   1       3.231   0.240  -0.025  0.00  0.00     0.001 A 
ENDROOT
BRANCH   1  15
ATOM     15  C   UNL d   1      -4.082   1.997  -0.290  0.00  0.00     0.189 C 
ATOM     16  S   UNL d   1      -5.501   1.852   0.601  0.00  0.00    -0.039 SA
BRANCH  15  17
ATOM     17  N   UNL d   1      -3.950   3.139  -1.024  0.00  0.00    -0.362 N 
ATOM     18  H   UNL d   1      -4.738   3.766  -0.924  0.00  0.00     0.162 HD
BRANCH  17  19
ATOM     19  C   UNL d   1      -3.236   3.254  -2.281  0.00  0.00     0.160 C 
BRANCH  19  20
ATOM     20  C   UNL d   1      -4.207   3.555  -3.400  0.00  0.00    -0.041 A 
ATOM     21  C   UNL d   1      -4.567   4.877  -3.700  0.00  0.00     0.009 A 
ATOM     22  C   UNL d   1      -5.493   5.148  -4.710  0.00  0.00     0.001 A 
ATOM     23  C   UNL d   1      -6.075   4.101  -5.423  0.00  0.00     0.000 A 
ATOM     24  C   UNL d   1      -5.737   2.783  -5.123  0.00  0.00     0.001 A 
ATOM     25  C   UNL d   1      -4.813   2.510  -4.113  0.00  0.00     0.009 A 
ENDBRANCH  19  20
ENDBRANCH  17  19
ENDBRANCH  15  17
ENDBRANCH   1  15
BRANCH   6  26
ATOM     26  C   UNL d   1      -3.656  -1.185  -1.089  0.00  0.00    -0.033 A 
ATOM     27  C   UNL d   1      -5.002  -1.578  -1.134  0.00  0.00     0.012 A 
ATOM     28  C   UNL d   1      -5.470  -2.420  -2.147  0.00  0.00     0.037 A 
ATOM     29  C   UNL d   1      -4.605  -2.895  -3.132  0.00  0.00     0.068 A 
ATOM     30  C   UNL d   1      -3.285  -2.456  -3.139  0.00  0.00     0.037 A 
ATOM     31  C   UNL d   1      -2.831  -1.576  -2.151  0.00  0.00     0.012 A 
BRANCH  29  32
ATOM     32  O   UNL d   1      -5.161  -3.789  -4.004  0.00  0.00    -0.356 OA
ATOM     33  C   UNL d   1      -4.408  -4.099  -5.169  0.00  0.00     0.210 C 
ENDBRANCH  29  32
ENDBRANCH   6  26
TORSDOF 6
