REMARK  3 active torsions:
REMARK  status: ('A' for Active; 'I' for Inactive)
REMARK    1  A    between atoms: C_3  and  C_1 
REMARK    2  A    between atoms: C_7  and  C_2 
REMARK    3  A    between atoms: O_10  and  C_3 
ROOT
ATOM      1  C   UNL d   1      -1.303  -0.356   0.370  0.00  0.00     0.089 A 
ATOM      2  C   UNL d   1      -0.930   0.917  -0.036  0.00  0.00     0.101 A 
ATOM      3  N   UNL d   1       0.752  -0.473  -0.623  0.00  0.00    -0.271 N 
ATOM      4  HN  UNL d   1       1.631  -0.828  -0.999  1.00  0.00     0.194 HD
ATOM      5  O   UNL d   1       0.316   0.832  -0.604  0.00  0.00    -0.241 OA
ATOM      6  C   UNL d   1      -0.221  -1.170  -0.045  0.00  0.00     0.134 A 
ENDROOT
BRANCH   1   7
ATOM      7  C   UNL d   1      -2.487  -0.814   1.060  0.00  0.00     0.296 C 
ATOM      8  O   UNL d   1      -3.241  -0.096   1.700  0.00  0.00    -0.259 OA
BRANCH   7   9
ATOM      9  O   UNL d   1      -2.654  -2.165   0.927  0.00  0.00    -0.322 OA
ATOM     10  C   UNL d   1      -3.820  -2.686   1.567  0.00  0.00     0.213 C 
ENDBRANCH   7   9
ENDBRANCH   1   7
BRANCH   2  11
ATOM     11  C   UNL d   1      -1.496   2.324  -0.010  0.00  0.00     0.001 C 
ATOM     12  C   UNL d   1      -1.004   3.042   1.258  0.00  0.00     0.021 C 
ATOM     13  C   UNL d   1      -1.002   3.115  -1.247  0.00  0.00     0.021 C 
ATOM     14  C   UNL d   1      -3.031   2.360  -0.053  0.00  0.00     0.021 C 
ENDBRANCH   2  11
TORSDOF 3
