REMARK  3 active torsions:
REMARK  status: ('A' for Active; 'I' for Inactive)
REMARK    1  A    between atoms: C_7  and  C_3 
REMARK    2  A    between atoms: C_13  and  N_4 
REMARK    3  A    between atoms: C_14  and  C_5 
ROOT
ATOM      1  C   UNL d   1      -0.918   2.465   0.053  0.00  0.00     0.049 C 
ATOM      2  C   UNL d   1      -1.208   3.172   1.165  0.00  0.00     0.125 C 
ATOM      3  N   UNL d   1      -1.016   2.164   3.536  0.00  0.00    -0.191 NA
ATOM      4  N   UNL d   1      -1.999   5.613   0.889  0.00  0.00    -0.191 NA
ATOM      5  C   UNL d   1      -1.646   4.515   1.033  0.00  0.00     0.111 C 
ATOM      6  C   UNL d   1      -1.091   2.616   2.470  0.00  0.00     0.111 C 
ENDROOT
BRANCH   1   7
ATOM      7  C   UNL d   1      -0.421   1.133   0.031  0.00  0.00     0.013 A 
ATOM      8  C   UNL d   1       0.918   0.660   0.047  0.00  0.00     0.070 A 
ATOM      9  N   UNL d   1       0.933  -0.682   0.094  0.00  0.00    -0.293 N 
ATOM     10  N   UNL d   1      -0.367  -1.070   0.029  0.00  0.00    -0.266 N 
ATOM     11  HN  UNL d   1       1.752  -1.286   0.164  1.00  0.00     0.187 HD
ATOM     12  C   UNL d   1      -1.212   0.016  -0.027  0.00  0.00     0.130 A 
BRANCH   8  13
ATOM     13  C   UNL d   1       2.162   1.435  -0.006  0.00  0.00    -0.007 A 
ATOM     14  C   UNL d   1       3.309   1.000   0.669  0.00  0.00     0.014 A 
ATOM     15  C   UNL d   1       4.509   1.711   0.559  0.00  0.00     0.001 A 
ATOM     16  C   UNL d   1       4.572   2.863  -0.223  0.00  0.00     0.000 A 
ATOM     17  C   UNL d   1       3.435   3.315  -0.887  0.00  0.00     0.001 A 
ATOM     18  C   UNL d   1       2.240   2.603  -0.781  0.00  0.00     0.014 A 
ENDBRANCH   8  13
BRANCH  10  19
ATOM     19  C   UNL d   1      -0.734  -2.446   0.029  0.00  0.00     0.056 A 
ATOM     20  C   UNL d   1       0.255  -3.433   0.154  0.00  0.00     0.031 A 
ATOM     21  C   UNL d   1      -0.104  -4.784   0.182  0.00  0.00     0.002 A 
ATOM     22  C   UNL d   1      -1.444  -5.157   0.079  0.00  0.00     0.000 A 
ATOM     23  C   UNL d   1      -2.429  -4.182  -0.059  0.00  0.00     0.002 A 
ATOM     24  C   UNL d   1      -2.078  -2.831  -0.085  0.00  0.00     0.031 A 
ENDBRANCH  10  19
ENDBRANCH   1   7
TORSDOF 3
