REMARK  5 active torsions:
REMARK  status: ('A' for Active; 'I' for Inactive)
REMARK    1  A    between atoms: O_6  and  S_1 
REMARK    2  A    between atoms: C_7  and  S_1 
REMARK    3  A    between atoms: C_2  and  C_8 
REMARK    4  A    between atoms: O_16  and  C_3 
REMARK    5  A    between atoms: C_8  and  O_6 
ROOT
ATOM      1  O   UNL d   1       0.917  -0.741   1.349  0.00  0.00    -0.271 OA
ENDROOT
BRANCH   1   2
ATOM      2  S   UNL d   1       1.642  -0.013   0.079  0.00  0.00     0.298 S 
ATOM      3  O   UNL d   1       0.916  -0.405  -1.115  0.00  0.00    -0.193 OA
ATOM      4  O   UNL d   1       3.071  -0.224   0.194  0.00  0.00    -0.193 OA
BRANCH   2   5
ATOM      5  C   UNL d   1       1.372   1.725   0.313  0.00  0.00     0.086 A 
ATOM      6  C   UNL d   1       1.207   2.244   1.598  0.00  0.00     0.026 A 
ATOM      7  C   UNL d   1       1.047   3.621   1.763  0.00  0.00     0.008 A 
ATOM      8  C   UNL d   1       1.047   4.479   0.653  0.00  0.00    -0.062 A 
ATOM      9  C   UNL d   1       1.187   3.939  -0.632  0.00  0.00     0.008 A 
ATOM     10  C   UNL d   1       0.926   5.962   0.856  0.00  0.00     0.048 C 
ATOM     11  C   UNL d   1       1.346   2.563  -0.805  0.00  0.00     0.026 A 
ENDBRANCH   2   5
ENDBRANCH   1   2
BRANCH   1  12
ATOM     12  C   UNL d   1       1.080  -2.151   1.441  0.00  0.00     0.198 C 
BRANCH  12  13
ATOM     13  C   UNL d   1       0.421  -2.677   2.713  0.00  0.00     0.044 C 
ATOM     14  C   UNL d   1       0.536  -4.213   2.833  0.00  0.00     0.128 C 
ATOM     15  C   UNL d   1      -0.916  -4.649   3.118  0.00  0.00     0.015 C 
ATOM     16  C   UNL d   1      -1.463  -3.469   3.929  0.00  0.00     0.012 C 
ATOM     17  C   UNL d   1      -1.718  -4.524   1.810  0.00  0.00     0.007 C 
ATOM     18  C   UNL d   1      -1.106  -2.441   2.849  0.00  0.00    -0.006 C 
ATOM     19  C   UNL d   1      -1.894  -3.006   1.655  0.00  0.00     0.005 C 
BRANCH  14  20
ATOM     20  O   UNL d   1       1.397  -4.570   3.905  0.00  0.00    -0.395 OA
ATOM     21  H   UNL d   1       1.001  -4.275   4.742  0.00  0.00     0.210 HD
ENDBRANCH  14  20
ENDBRANCH  12  13
ENDBRANCH   1  12
TORSDOF 5
