REMARK  7 active torsions:
REMARK  status: ('A' for Active; 'I' for Inactive)
REMARK       I    between atoms: C_4  and  N_9 
REMARK    1  A    between atoms: C_10  and  C_4 
REMARK    2  A    between atoms: C_5  and  C_10 
REMARK    3  A    between atoms: C_12  and  C_5 
REMARK    4  A    between atoms: C_7  and  C_12 
REMARK    5  A    between atoms: O_16  and  C_7 
REMARK    6  A    between atoms: C_15  and  C_8 
REMARK    7  A    between atoms: N_9  and  C_15 
ROOT
ATOM      1  C   UNL d   1       3.671  -0.445  -3.151  0.00  0.00     0.218 C 
ATOM      2  N   UNL d   1       4.807  -1.184  -3.428  0.00  0.00    -0.359 N 
ATOM      3  O   UNL d   1       3.338  -0.157  -2.007  0.00  0.00    -0.274 OA
ATOM      4  H   UNL d   1       5.054  -1.337  -4.397  0.00  0.00     0.162 HD
ENDROOT
BRANCH   1   5
ATOM      5  C   UNL d   1       2.919   0.008  -4.418  0.00  0.00     0.112 C 
BRANCH   5   6
ATOM      6  C   UNL d   1       1.552   0.758  -4.257  0.00  0.00    -0.023 C 
ATOM      7  C   UNL d   1       0.482  -0.186  -3.625  0.00  0.00     0.010 C 
ATOM      8  C   UNL d   1      -0.102  -1.233  -4.571  0.00  0.00     0.001 C 
ATOM      9  C   UNL d   1      -0.663  -0.584  -5.827  0.00  0.00     0.000 C 
ATOM     10  C   UNL d   1       0.431   0.179  -6.553  0.00  0.00     0.001 C 
ATOM     11  C   UNL d   1       1.051   1.250  -5.657  0.00  0.00     0.010 C 
BRANCH   6  12
ATOM     12  C   UNL d   1       1.638   2.006  -3.324  0.00  0.00     0.119 C 
BRANCH  12  13
ATOM     13  C   UNL d   1       2.524   3.149  -3.769  0.00  0.00     0.140 C 
ATOM     14  O   UNL d   1       3.381   3.094  -4.639  0.00  0.00    -0.650 OA
BRANCH  13  15
ATOM     15  O   UNL d   1       2.273   4.284  -3.077  0.00  0.00    -0.776 OA
ATOM     16  H   UNL d   1       1.581   4.186  -2.396  0.00  0.00     0.167 HD
ENDBRANCH  13  15
ENDBRANCH  12  13
ENDBRANCH   6  12
ENDBRANCH   5   6
ENDBRANCH   1   5
BRANCH   2  17
ATOM     17  C   UNL d   1       5.830  -1.509  -2.430  0.00  0.00     0.157 C 
BRANCH  17  18
ATOM     18  C   UNL d   1       5.520  -2.710  -1.507  0.00  0.00     0.171 C 
ATOM     19  O   UNL d   1       5.309  -3.914  -2.270  0.00  0.00    -0.339 OA
ATOM     20  C   UNL d   1       6.462  -4.597  -2.555  0.00  0.00     0.102 A 
ATOM     21  C   UNL d   1       7.706  -4.281  -2.003  0.00  0.00     0.102 A 
ATOM     22  C   UNL d   1       6.352  -5.648  -3.465  0.00  0.00     0.039 A 
ATOM     23  C   UNL d   1       8.847  -4.976  -2.406  0.00  0.00     0.039 A 
ATOM     24  O   UNL d   1       7.877  -3.280  -1.083  0.00  0.00    -0.346 OA
ATOM     25  C   UNL d   1       8.740  -6.011  -3.339  0.00  0.00     0.003 A 
ATOM     26  C   UNL d   1       7.491  -6.352  -3.860  0.00  0.00     0.003 A 
ATOM     27  C   UNL d   1       6.629  -2.931  -0.468  0.00  0.00     0.209 C 
ENDBRANCH  17  18
ENDBRANCH   2  17
TORSDOF 7
