REMARK  4 active torsions:
REMARK  status: ('A' for Active; 'I' for Inactive)
REMARK    1  A    between atoms: C_6  and  N_1 
REMARK    2  A    between atoms: N_9  and  C_6 
REMARK    3  A    between atoms: C_12  and  C_7 
REMARK    4  A    between atoms: C_15  and  N_9 
ROOT
ATOM      1  N   UNL d   1      -3.073   1.005  -0.194  0.00  0.00    -0.257 N 
ATOM      2  N   UNL d   1      -1.752   1.436  -0.238  0.00  0.00    -0.298 N 
ATOM      3  HN  UNL d   1      -1.422   2.361  -0.515  1.00  0.00     0.187 HD
ATOM      4  C   UNL d   1      -1.020   0.434   0.140  0.00  0.00     0.043 C 
ATOM      5  C   UNL d   1      -1.762  -0.751   0.686  0.00  0.00     0.068 C 
ATOM      6  C   UNL d   1      -3.163  -0.438   0.139  0.00  0.00     0.153 C 
ATOM      7  C   UNL d   1       0.442   0.395   0.114  0.00  0.00    -0.005 A 
ATOM      8  C   UNL d   1      -1.091  -2.102   0.434  0.00  0.00     0.018 C 
ATOM      9  C   UNL d   1       1.035  -0.853  -0.123  0.00  0.00    -0.046 A 
ATOM     10  C   UNL d   1       0.166  -2.042  -0.442  0.00  0.00     0.040 C 
ATOM     11  C   UNL d   1       1.207   1.544   0.303  0.00  0.00     0.014 A 
ATOM     12  C   UNL d   1       2.430  -0.934  -0.168  0.00  0.00     0.008 A 
ATOM     13  C   UNL d   1       2.598   1.444   0.278  0.00  0.00     0.001 A 
ATOM     14  C   UNL d   1       3.207   0.208   0.043  0.00  0.00     0.001 A 
ENDROOT
BRANCH   1  15
ATOM     15  C   UNL d   1      -4.122   1.905  -0.300  0.00  0.00     0.194 C 
ATOM     16  S   UNL d   1      -5.636   1.675   0.397  0.00  0.00    -0.039 SA
BRANCH  15  17
ATOM     17  N   UNL d   1      -3.905   3.117  -0.912  0.00  0.00    -0.332 N 
ATOM     18  H   UNL d   1      -4.515   3.860  -0.596  0.00  0.00     0.168 HD
BRANCH  17  19
ATOM     19  C   UNL d   1      -3.021   3.429  -1.962  0.00  0.00     0.034 A 
ATOM     20  C   UNL d   1      -2.577   2.470  -2.877  0.00  0.00     0.031 A 
ATOM     21  C   UNL d   1      -1.613   2.792  -3.833  0.00  0.00     0.026 A 
ATOM     22  C   UNL d   1      -1.116   4.090  -3.890  0.00  0.00     0.034 A 
ATOM     23  C   UNL d   1      -1.623   5.077  -3.046  0.00  0.00     0.026 A 
ATOM     24 CL   UNL d   1       0.142   4.473  -4.999  0.00  0.00    -0.084 Cl
ATOM     25  C   UNL d   1      -2.595   4.751  -2.096  0.00  0.00     0.031 A 
ENDBRANCH  17  19
ENDBRANCH  15  17
ENDBRANCH   1  15
BRANCH   6  26
ATOM     26  C   UNL d   1      -3.600  -1.245  -1.074  0.00  0.00    -0.033 A 
ATOM     27  C   UNL d   1      -4.793  -1.988  -1.023  0.00  0.00     0.012 A 
ATOM     28  C   UNL d   1      -5.187  -2.772  -2.107  0.00  0.00     0.043 A 
ATOM     29  C   UNL d   1      -4.396  -2.818  -3.247  0.00  0.00     0.116 A 
ATOM     30  C   UNL d   1      -3.228  -2.072  -3.335  0.00  0.00     0.043 A 
ATOM     31  F   UNL d   1      -4.763  -3.591  -4.277  0.00  0.00    -0.206 F 
ATOM     32  C   UNL d   1      -2.838  -1.282  -2.257  0.00  0.00     0.012 A 
ENDBRANCH   6  26
TORSDOF 4
