REMARK  5 active torsions:
REMARK  status: ('A' for Active; 'I' for Inactive)
REMARK    1  A    between atoms: C_17  and  C_4 
REMARK       I    between atoms: C_7  and  N_10 
REMARK       I    between atoms: N_11  and  C_7 
REMARK    2  A    between atoms: C_12  and  N_11 
REMARK    3  A    between atoms: C_28  and  C_21 
REMARK    4  A    between atoms: C_29  and  C_28 
REMARK    5  A    between atoms: C_30  and  C_29 
ROOT
ATOM      1  N   UNL d   1       0.534  -0.276   0.639  0.00  0.00    -0.321 N 
ATOM      2  HN  UNL d   1       1.060  -0.357   1.509  1.00  0.00     0.169 HD
ATOM      3  C   UNL d   1       0.245  -1.286  -0.152  0.00  0.00     0.164 A 
ATOM      4  C   UNL d   1       0.027   0.919   0.135  0.00  0.00     0.123 A 
ATOM      5  N   UNL d   1      -0.675   0.874  -1.002  0.00  0.00    -0.309 N 
ATOM      6  HN  UNL d   1      -1.117   1.662  -1.476  1.00  0.00     0.176 HD
ATOM      7  C   UNL d   1       1.354  -6.310   1.012  0.00  0.00     0.323 C 
ATOM      8  S   UNL d   1      -0.691  -0.720  -1.496  0.00  0.00     0.024 SA
ATOM      9  N   UNL d   1       0.612  -2.574   0.118  0.00  0.00    -0.359 N 
ATOM     10  N   UNL d   1       0.291  -5.408   0.915  0.00  0.00    -0.332 N 
ATOM     11  N   UNL d   1       1.497  -6.880   2.258  0.00  0.00    -0.308 N 
ATOM     12  O   UNL d   1       2.044  -6.598   0.038  0.00  0.00    -0.247 OA
ATOM     13  C   UNL d   1       0.646  -3.637  -0.896  0.00  0.00     0.145 C 
ATOM     14  C   UNL d   1      -0.075  -4.919  -0.424  0.00  0.00     0.147 C 
ATOM     15  C   UNL d   1       0.597  -3.415   2.428  0.00  0.00     0.040 C 
ATOM     16  C   UNL d   1       1.433  -2.816   1.303  0.00  0.00     0.126 C 
ATOM     17  C   UNL d   1      -0.249  -4.628   2.033  0.00  0.00     0.129 C 
ATOM     18  H   UNL d   1       0.636  -6.955   2.772  0.00  0.00     0.170 HD
ENDROOT
BRANCH  11  19
ATOM     19  C   UNL d   1       2.538  -7.754   2.650  0.00  0.00     0.042 A 
ATOM     20  C   UNL d   1       2.278  -8.809   3.547  0.00  0.00    -0.035 A 
ATOM     21  C   UNL d   1       3.354  -9.541   4.087  0.00  0.00     0.016 A 
ATOM     22  C   UNL d   1       0.893  -9.273   3.915  0.00  0.00     0.050 C 
ATOM     23  C   UNL d   1       4.682  -9.259   3.739  0.00  0.00    -0.058 A 
ATOM     24  C   UNL d   1       4.916  -8.261   2.788  0.00  0.00     0.009 A 
ATOM     25  C   UNL d   1       3.860  -7.522   2.244  0.00  0.00     0.031 A 
BRANCH  23  26
ATOM     26  C   UNL d   1       5.830  -9.960   4.427  0.00  0.00     0.038 C 
BRANCH  26  27
ATOM     27  C   UNL d   1       5.874 -11.484   4.275  0.00  0.00     0.004 C 
BRANCH  27  28
ATOM     28  C   UNL d   1       6.152 -11.933   2.840  0.00  0.00    -0.004 C 
ATOM     29  C   UNL d   1       6.244 -13.448   2.744  0.00  0.00     0.005 C 
ENDBRANCH  27  28
ENDBRANCH  26  27
ENDBRANCH  23  26
ENDBRANCH  11  19
BRANCH   4  30
ATOM     30  C   UNL d   1       0.276   2.158   0.880  0.00  0.00     0.009 A 
ATOM     31  C   UNL d   1       1.202   2.156   1.937  0.00  0.00     0.015 A 
ATOM     32  C   UNL d   1       1.439   3.311   2.685  0.00  0.00     0.001 A 
ATOM     33  C   UNL d   1       0.755   4.484   2.382  0.00  0.00     0.000 A 
ATOM     34  C   UNL d   1      -0.161   4.506   1.330  0.00  0.00     0.001 A 
ATOM     35  C   UNL d   1      -0.398   3.350   0.580  0.00  0.00     0.015 A 
ENDBRANCH   4  30
TORSDOF 5
