REMARK  7 active torsions:
REMARK  status: ('A' for Active; 'I' for Inactive)
REMARK    1  A    between atoms: C_10  and  C_1 
REMARK    2  A    between atoms: C_16  and  N_2 
REMARK    3  A    between atoms: N_3  and  C_10 
REMARK    4  A    between atoms: S_15  and  C_5 
REMARK    5  A    between atoms: C_19  and  S_15 
REMARK    6  A    between atoms: C_17  and  C_19 
REMARK    7  A    between atoms: C_18  and  C_17 
ROOT
ATOM      1  C   UNL d   1      -0.025  -1.221   0.118  0.00  0.00     0.124 A 
ATOM      2  N   UNL d   1       1.290  -0.774  -0.022  0.00  0.00    -0.278 N 
ATOM      3  C   UNL d   1       1.142   0.598  -0.214  0.00  0.00     0.168 A 
ATOM      4  N   UNL d   1      -0.848  -0.209   0.054  0.00  0.00    -0.285 N 
ATOM      5  HN  UNL d   1      -1.863  -0.266   0.140  1.00  0.00     0.188 HD
ATOM      6  N   UNL d   1      -0.133   0.936  -0.146  0.00  0.00    -0.278 N 
ATOM      7  HN  UNL d   1      -0.513   1.880  -0.227  1.00  0.00     0.189 HD
ENDROOT
BRANCH   1   8
ATOM      8  C   UNL d   1      -0.498  -2.624   0.273  0.00  0.00     0.225 C 
BRANCH   8   9
ATOM      9  N   UNL d   1      -0.214  -3.277   1.560  0.00  0.00    -0.267 N 
ATOM     10  N   UNL d   1      -0.818  -2.753   2.656  0.00  0.00    -0.019 NA
ATOM     11  N   UNL d   1      -1.621  -3.694   3.145  0.00  0.00    -0.282 N 
ATOM     12  C   UNL d   1      -1.359  -4.859   2.477  0.00  0.00     0.074 C 
ATOM     13  HN  UNL d   1      -2.309  -3.570   3.887  1.00  0.00     0.184 HD
ATOM     14  C   UNL d   1      -0.260  -4.670   1.649  0.00  0.00     0.077 C 
ATOM     15  C   UNL d   1      -2.005  -6.101   2.482  0.00  0.00     0.033 C 
ATOM     16  C   UNL d   1       0.353  -5.706   0.940  0.00  0.00     0.033 C 
ATOM     17  C   UNL d   1      -0.385  -6.890   0.843  0.00  0.00     0.002 C 
ATOM     18  C   UNL d   1      -1.556  -7.080   1.583  0.00  0.00     0.002 C 
ENDBRANCH   8   9
ENDBRANCH   1   8
BRANCH   2  19
ATOM     19  C   UNL d   1       2.495  -1.536   0.028  0.00  0.00     0.043 A 
ATOM     20  C   UNL d   1       2.551  -2.835  -0.498  0.00  0.00     0.030 A 
ATOM     21  C   UNL d   1       3.722  -3.593  -0.399  0.00  0.00     0.002 A 
ATOM     22  C   UNL d   1       4.863  -3.045   0.170  0.00  0.00     0.000 A 
ATOM     23  C   UNL d   1       4.829  -1.744   0.662  0.00  0.00     0.002 A 
ATOM     24  C   UNL d   1       3.652  -1.000   0.603  0.00  0.00     0.030 A 
ENDBRANCH   2  19
BRANCH   3  25
ATOM     25  S   UNL d   1       2.385   1.706  -0.719  0.00  0.00    -0.084 SA
BRANCH  25  26
ATOM     26  C   UNL d   1       1.458   3.272  -0.762  0.00  0.00     0.166 C 
BRANCH  26  27
ATOM     27  C   UNL d   1       2.335   4.457  -1.148  0.00  0.00     0.169 C 
ATOM     28  O   UNL d   1       3.564   4.411  -1.214  0.00  0.00    -0.291 OA
BRANCH  27  29
ATOM     29  C   UNL d   1       1.655   5.756  -1.464  0.00  0.00     0.011 A 
ATOM     30  C   UNL d   1       0.287   5.958  -1.238  0.00  0.00     0.017 A 
ATOM     31  C   UNL d   1      -0.321   7.162  -1.614  0.00  0.00     0.025 A 
ATOM     32  C   UNL d   1       0.435   8.171  -2.208  0.00  0.00     0.034 A 
ATOM     33  C   UNL d   1       1.802   7.999  -2.404  0.00  0.00     0.025 A 
ATOM     34 CL   UNL d   1      -0.331   9.625  -2.715  0.00  0.00    -0.084 Cl
ATOM     35  C   UNL d   1       2.413   6.797  -2.030  0.00  0.00     0.017 A 
ENDBRANCH  27  29
ENDBRANCH  26  27
ENDBRANCH  25  26
ENDBRANCH   3  25
TORSDOF 7
