REMARK  6 active torsions:
REMARK  status: ('A' for Active; 'I' for Inactive)
REMARK    1  A    between atoms: N_2  and  C_11 
REMARK    2  A    between atoms: S_18  and  C_5 
REMARK       I    between atoms: C_8  and  N_13 
REMARK    3  A    between atoms: C_16  and  C_8 
REMARK    4  A    between atoms: C_12  and  C_25 
REMARK       I    between atoms: N_19  and  C_12 
REMARK    5  A    between atoms: N_13  and  N_19 
REMARK    6  A    between atoms: C_25  and  S_18 
ROOT
ATOM      1  C   UNL d   1       0.503  -5.424  -0.018  0.00  0.00     0.245 C 
ATOM      2  N   UNL d   1       1.773  -5.952   0.080  0.00  0.00    -0.267 N 
ATOM      3  O   UNL d   1      -0.489  -6.159  -0.011  0.00  0.00    -0.271 OA
ATOM      4  H   UNL d   1       2.623  -5.396  -0.004  0.00  0.00     0.190 HD
ENDROOT
BRANCH   1   5
ATOM      5  C   UNL d   1       0.366  -3.909   0.015  0.00  0.00     0.185 C 
BRANCH   5   6
ATOM      6  S   UNL d   1       1.704  -3.021  -0.845  0.00  0.00    -0.102 SA
BRANCH   6   7
ATOM      7  C   UNL d   1       1.087  -1.349  -0.761  0.00  0.00     0.090 A 
ATOM      8  C   UNL d   1       1.799  -0.266  -1.292  0.00  0.00     0.065 A 
ATOM      9  S   UNL d   1       3.324  -0.190  -2.086  0.00  0.00    -0.096 SA
ATOM     10  C   UNL d   1       1.237   1.010  -1.200  0.00  0.00     0.059 A 
ATOM     11  C   UNL d   1       3.226   1.500  -2.294  0.00  0.00     0.059 A 
ATOM     12  C   UNL d   1       2.059   2.035  -1.784  0.00  0.00    -0.027 A 
ATOM     13  C   UNL d   1       1.713   3.487  -1.837  0.00  0.00     0.051 C 
ATOM     14  N   UNL d   1       0.034   1.233  -0.615  0.00  0.00    -0.351 N 
ATOM     15  C   UNL d   1      -0.563   0.141  -0.137  0.00  0.00     0.181 A 
ATOM     16  HN  UNL d   1      -0.381   2.162  -0.547  1.00  0.00     0.166 HD
ATOM     17  N   UNL d   1      -0.107  -1.119  -0.174  0.00  0.00    -0.346 N 
ATOM     18  HN  UNL d   1      -0.647  -1.883   0.231  1.00  0.00     0.167 HD
ENDBRANCH   6   7
ENDBRANCH   5   6
ENDBRANCH   1   5
BRANCH   2  19
ATOM     19  N   UNL d   1       1.906  -7.351   0.154  0.00  0.00    -0.263 N 
ATOM     20  C   UNL d   1       3.041  -7.950  -0.358  0.00  0.00     0.270 C 
ATOM     21  O   UNL d   1       3.965  -7.327  -0.875  0.00  0.00    -0.266 OA
ATOM     22  H   UNL d   1       1.036  -7.864   0.290  0.00  0.00     0.190 HD
BRANCH  20  23
ATOM     23  C   UNL d   1       3.112  -9.432  -0.233  0.00  0.00     0.036 A 
ATOM     24  C   UNL d   1       2.585 -10.089   0.888  0.00  0.00     0.053 A 
ATOM     25  C   UNL d   1       2.765 -11.476   1.023  0.00  0.00     0.103 A 
ATOM     26  C   UNL d   1       3.445 -12.211   0.045  0.00  0.00     0.036 A 
ATOM     27  C   UNL d   1       3.964 -11.553  -1.072  0.00  0.00     0.003 A 
ATOM     28  C   UNL d   1       3.808 -10.170  -1.206  0.00  0.00     0.017 A 
BRANCH  25  29
ATOM     29  N   UNL d   1       2.263 -12.156   2.225  0.00  0.00    -0.116 N 
ATOM     30  O   UNL d   1       1.689 -11.465   3.078  0.00  0.00    -0.532 OA
ATOM     31  O   UNL d   1       2.447 -13.378   2.316  0.00  0.00    -0.532 OA
ENDBRANCH  25  29
ENDBRANCH  20  23
ENDBRANCH   2  19
TORSDOF 6
