REMARK  7 active torsions:
REMARK  status: ('A' for Active; 'I' for Inactive)
REMARK    1  A    between atoms: O_14  and  C_1 
REMARK    2  A    between atoms: O_16  and  C_2 
REMARK    3  A    between atoms: O_15  and  C_3 
REMARK    4  A    between atoms: C_11  and  N_4 
REMARK    5  A    between atoms: C_9  and  C_8 
REMARK    6  A    between atoms: O_10  and  C_12 
REMARK    7  A    between atoms: C_13  and  O_10 
ROOT
ATOM      1  N   UNL d   1      -3.663  -0.588  -0.323  0.00  0.00    -0.365 N 
ATOM      2  HN  UNL d   1      -3.339  -1.554  -0.360  1.00  0.00     0.165 HD
ATOM      3  C   UNL d   1      -2.833   0.366  -0.064  0.00  0.00     0.100 C 
ENDROOT
BRANCH   1   4
ATOM      4  C   UNL d   1      -5.018  -0.286  -0.554  0.00  0.00     0.032 A 
ATOM      5  C   UNL d   1      -5.435   0.817  -1.309  0.00  0.00     0.032 A 
ATOM      6  C   UNL d   1      -6.793   1.033  -1.564  0.00  0.00     0.039 A 
ATOM      7  C   UNL d   1      -7.752   0.164  -1.045  0.00  0.00     0.076 A 
ATOM      8  C   UNL d   1      -7.343  -0.965  -0.333  0.00  0.00     0.039 A 
ATOM      9  C   UNL d   1      -5.983  -1.180  -0.089  0.00  0.00     0.032 A 
BRANCH   7  10
ATOM     10  O   UNL d   1      -9.106   0.302  -1.251  0.00  0.00    -0.311 OA
BRANCH  10  11
ATOM     11  C   UNL d   1      -9.645   1.568  -1.282  0.00  0.00     0.076 A 
ATOM     12  C   UNL d   1     -10.696   1.780  -2.173  0.00  0.00     0.039 A 
ATOM     13  C   UNL d   1     -11.286   3.043  -2.275  0.00  0.00     0.026 A 
ATOM     14  C   UNL d   1     -10.819   4.090  -1.479  0.00  0.00     0.034 A 
ATOM     15  C   UNL d   1      -9.797   3.874  -0.558  0.00  0.00     0.026 A 
ATOM     16 CL   UNL d   1     -11.513   5.655  -1.630  0.00  0.00    -0.084 Cl
ATOM     17  C   UNL d   1      -9.225   2.606  -0.440  0.00  0.00     0.039 A 
ENDBRANCH  10  11
ENDBRANCH   7  10
ENDBRANCH   1   4
BRANCH   3  18
ATOM     18  C   UNL d   1      -1.393   0.109   0.133  0.00  0.00    -0.015 A 
ATOM     19  C   UNL d   1      -0.889  -1.191   0.143  0.00  0.00     0.052 A 
ATOM     20  C   UNL d   1       0.479  -1.427   0.338  0.00  0.00     0.105 A 
ATOM     21  C   UNL d   1       1.348  -0.335   0.508  0.00  0.00     0.135 A 
ATOM     22  C   UNL d   1       0.839   0.986   0.409  0.00  0.00     0.105 A 
ATOM     23  C   UNL d   1      -0.537   1.194   0.276  0.00  0.00     0.052 A 
BRANCH  20  24
ATOM     24  O   UNL d   1       0.760  -2.768   0.327  0.00  0.00    -0.353 OA
ATOM     25  C   UNL d   1       2.092  -3.206   0.526  0.00  0.00     0.210 C 
ENDBRANCH  20  24
BRANCH  21  26
ATOM     26  O   UNL d   1       2.696  -0.560   0.639  0.00  0.00    -0.351 OA
ATOM     27  C   UNL d   1       3.293   0.039   1.788  0.00  0.00     0.210 C 
ENDBRANCH  21  26
BRANCH  22  28
ATOM     28  O   UNL d   1       1.750   2.016   0.436  0.00  0.00    -0.353 OA
ATOM     29  C   UNL d   1       1.312   3.276  -0.061  0.00  0.00     0.210 C 
ENDBRANCH  22  28
ENDBRANCH   3  18
TORSDOF 7
