REMARK  6 active torsions:
REMARK  status: ('A' for Active; 'I' for Inactive)
REMARK    1  A    between atoms: N_3  and  S_1 
REMARK    2  A    between atoms: C_10  and  S_1 
REMARK    3  A    between atoms: N_2  and  C_11 
REMARK    4  A    between atoms: N_4  and  N_3 
REMARK       I    between atoms: C_7  and  N_4 
REMARK    5  A    between atoms: C_14  and  C_7 
REMARK    6  A    between atoms: O_25  and  C_22 
ROOT
ATOM      1  N   UNL d   1       0.112  -3.506   0.526  0.00  0.00    -0.256 N 
ATOM      2  C   UNL d   1       0.678  -3.487   1.782  0.00  0.00     0.270 C 
ATOM      3  O   UNL d   1       1.887  -3.574   1.978  0.00  0.00    -0.266 OA
ATOM      4  H   UNL d   1      -0.889  -3.469   0.349  0.00  0.00     0.191 HD
ENDROOT
BRANCH   1   5
ATOM      5  N   UNL d   1       0.990  -3.502  -0.614  0.00  0.00    -0.220 N 
ATOM      6  H   UNL d   1       2.004  -3.570  -0.470  0.00  0.00     0.200 HD
BRANCH   5   7
ATOM      7  S   UNL d   1       0.435  -2.918  -2.091  0.00  0.00     0.276 S 
ATOM      8  O   UNL d   1      -0.893  -3.478  -2.292  0.00  0.00    -0.199 OA
ATOM      9  O   UNL d   1       1.490  -3.051  -3.060  0.00  0.00    -0.199 OA
BRANCH   7  10
ATOM     10  C   UNL d   1       0.237  -1.183  -1.733  0.00  0.00     0.081 A 
ATOM     11  C   UNL d   1       1.345  -0.425  -1.338  0.00  0.00     0.028 A 
ATOM     12  C   UNL d   1       1.189   0.938  -1.053  0.00  0.00     0.038 A 
ATOM     13  C   UNL d   1      -0.067   1.537  -1.170  0.00  0.00     0.068 A 
ATOM     14  C   UNL d   1      -1.161   0.773  -1.584  0.00  0.00     0.038 A 
ATOM     15  C   UNL d   1      -1.020  -0.588  -1.857  0.00  0.00     0.028 A 
BRANCH  13  16
ATOM     16  O   UNL d   1      -0.339   2.861  -0.963  0.00  0.00    -0.356 OA
ATOM     17  C   UNL d   1       0.483   3.528  -0.012  0.00  0.00     0.210 C 
ENDBRANCH  13  16
ENDBRANCH   7  10
ENDBRANCH   5   7
ENDBRANCH   1   5
BRANCH   2  18
ATOM     18  C   UNL d   1      -0.263  -3.316   2.916  0.00  0.00     0.033 A 
ATOM     19  C   UNL d   1       0.066  -3.895   4.141  0.00  0.00     0.019 A 
ATOM     20  C   UNL d   1      -0.786  -3.745   5.239  0.00  0.00     0.031 A 
ATOM     21  C   UNL d   1      -1.924  -2.932   5.161  0.00  0.00     0.039 A 
ATOM     22  C   UNL d   1      -2.221  -2.320   3.935  0.00  0.00     0.031 A 
ATOM     23  C   UNL d   1      -1.423  -2.543   2.806  0.00  0.00     0.019 A 
BRANCH  21  24
ATOM     24  N   UNL d   1      -2.756  -2.722   6.312  0.00  0.00    -0.320 N 
ATOM     25  C   UNL d   1      -4.146  -2.525   6.316  0.00  0.00     0.013 A 
ATOM     26  C   UNL d   1      -4.562  -2.351   7.623  0.00  0.00     0.027 A 
ATOM     27  C   UNL d   1      -5.069  -2.580   5.142  0.00  0.00     0.068 C 
ATOM     28  C   UNL d   1      -3.441  -2.461   8.452  0.00  0.00     0.027 A 
ATOM     29  C   UNL d   1      -2.333  -2.669   7.652  0.00  0.00     0.013 A 
ATOM     30  C   UNL d   1      -0.931  -2.730   8.168  0.00  0.00     0.068 C 
ENDBRANCH  21  24
ENDBRANCH   2  18
TORSDOF 6
