REMARK  9 active torsions:
REMARK  status: ('A' for Active; 'I' for Inactive)
REMARK    1  A    between atoms: N_9  and  S_1 
REMARK    2  A    between atoms: C_10  and  S_1 
REMARK    3  A    between atoms: C_2  and  C_11 
REMARK    4  A    between atoms: C_13  and  C_3 
REMARK    5  A    between atoms: N_6  and  C_12 
REMARK    6  A    between atoms: N_14  and  N_9 
REMARK    7  A    between atoms: O_35  and  C_19 
REMARK    8  A    between atoms: O_36  and  C_21 
REMARK    9  A    between atoms: C_33  and  C_32 
ROOT
ATOM      1  C   UNL d   1       2.955  -2.930  -1.913  0.00  0.00     0.076 A 
ATOM      2  C   UNL d   1       4.383  -4.636  -3.628  0.00  0.00    -0.006 A 
ATOM      3  C   UNL d   1       3.649  -4.025  -1.386  0.00  0.00     0.026 A 
ATOM      4  C   UNL d   1       2.909  -2.722  -3.292  0.00  0.00     0.026 A 
ATOM      5  C   UNL d   1       3.606  -3.586  -4.143  0.00  0.00     0.015 A 
ATOM      6  C   UNL d   1       4.364  -4.870  -2.245  0.00  0.00     0.015 A 
ENDROOT
BRANCH   1   7
ATOM      7  S   UNL d   1       2.083  -1.816  -0.822  0.00  0.00     0.258 S 
ATOM      8  O   UNL d   1       1.050  -1.168  -1.599  0.00  0.00    -0.204 OA
ATOM      9  O   UNL d   1       1.799  -2.544   0.398  0.00  0.00    -0.204 OA
BRANCH   7  10
ATOM     10  N   UNL d   1       3.349  -0.710  -0.460  0.00  0.00    -0.126 NA
ATOM     11  H   UNL d   1       3.882  -1.093   0.328  0.00  0.00     0.165 HD
BRANCH  10  12
ATOM     12  N   UNL d   1       2.996   0.695  -0.262  0.00  0.00    -0.318 N 
ATOM     13  C   UNL d   1       3.958   1.524   0.030  0.00  0.00     0.114 C 
ATOM     14  HN  UNL d   1       2.031   1.014  -0.350  1.00  0.00     0.180 HD
BRANCH  13  15
ATOM     15  C   UNL d   1       5.413   1.264   0.038  0.00  0.00    -0.017 A 
ATOM     16  C   UNL d   1       5.984   0.422  -0.915  0.00  0.00     0.052 A 
ATOM     17  C   UNL d   1       7.344   0.101  -0.869  0.00  0.00     0.102 A 
ATOM     18  C   UNL d   1       8.169   0.735   0.069  0.00  0.00     0.101 A 
ATOM     19  C   UNL d   1       7.595   1.623   0.991  0.00  0.00     0.040 A 
ATOM     20  C   UNL d   1       6.222   1.892   0.982  0.00  0.00     0.016 A 
BRANCH  17  21
ATOM     21  O   UNL d   1       7.872  -0.808  -1.748  0.00  0.00    -0.353 OA
ATOM     22  C   UNL d   1       7.070  -1.975  -1.912  0.00  0.00     0.210 C 
ENDBRANCH  17  21
BRANCH  18  23
ATOM     23  O   UNL d   1       9.515   0.557   0.250  0.00  0.00    -0.353 OA
ATOM     24  C   UNL d   1      10.272   0.132  -0.877  0.00  0.00     0.210 C 
ENDBRANCH  18  23
ENDBRANCH  13  15
ENDBRANCH  10  12
ENDBRANCH   7  10
ENDBRANCH   1   7
BRANCH   2  25
ATOM     25  C   UNL d   1       5.223  -5.456  -4.491  0.00  0.00     0.079 A 
ATOM     26  C   UNL d   1       5.977  -5.035  -5.579  0.00  0.00     0.115 A 
ATOM     27  O   UNL d   1       6.610  -6.142  -6.084  0.00  0.00    -0.295 OA
ATOM     28  C   UNL d   1       6.241  -7.159  -5.250  0.00  0.00     0.121 A 
ATOM     29  N   UNL d   1       5.429  -6.803  -4.276  0.00  0.00    -0.338 N 
ATOM     30  C   UNL d   1       6.817  -8.486  -5.550  0.00  0.00     0.098 C 
ATOM     31  HN  UNL d   1       5.042  -7.387  -3.535  1.00  0.00     0.168 HD
BRANCH  26  32
ATOM     32  C   UNL d   1       6.295  -3.771  -6.236  0.00  0.00     0.000 A 
ATOM     33  C   UNL d   1       6.378  -2.593  -5.484  0.00  0.00     0.017 A 
ATOM     34  C   UNL d   1       6.631  -1.354  -6.073  0.00  0.00     0.037 A 
ATOM     35  C   UNL d   1       6.830  -1.292  -7.452  0.00  0.00     0.102 A 
ATOM     36  C   UNL d   1       6.787  -2.459  -8.227  0.00  0.00     0.037 A 
ATOM     37  C   UNL d   1       6.521  -3.693  -7.616  0.00  0.00     0.017 A 
BRANCH  35  38
ATOM     38  N   UNL d   1       7.081   0.007  -8.082  0.00  0.00    -0.116 N 
ATOM     39  O   UNL d   1       7.290   0.021  -9.304  0.00  0.00    -0.532 OA
ATOM     40  O   UNL d   1       7.066   1.015  -7.361  0.00  0.00    -0.532 OA
ENDBRANCH  35  38
ENDBRANCH  26  32
ENDBRANCH   2  25
TORSDOF 9
