REMARK  5 active torsions:
REMARK  status: ('A' for Active; 'I' for Inactive)
REMARK       I    between atoms: N_2  and  C_1 
REMARK    1  A    between atoms: C_3  and  C_1 
REMARK       I    between atoms: C_4  and  N_2 
REMARK       I    between atoms: N_8  and  C_4 
REMARK       I    between atoms: C_7  and  N_10 
REMARK    2  A    between atoms: C_19  and  C_7 
REMARK    3  A    between atoms: N_10  and  N_8 
REMARK    4  A    between atoms: C_9  and  O_14 
REMARK    5  A    between atoms: O_14  and  C_19 
ROOT
ATOM      1  C   UNL d   1       4.859  -0.926   1.256  0.00  0.00     0.260 C 
ATOM      2  N   UNL d   1       5.083  -0.362   2.510  0.00  0.00    -0.264 N 
ATOM      3  O   UNL d   1       4.208  -1.947   1.043  0.00  0.00    -0.269 OA
ATOM      4  H   UNL d   1       5.880   0.256   2.634  0.00  0.00     0.190 HD
ENDROOT
BRANCH   2   5
ATOM      5  N   UNL d   1       4.542  -0.976   3.652  0.00  0.00    -0.249 N 
ATOM      6  C   UNL d   1       3.181  -1.129   3.764  0.00  0.00     0.341 C 
ATOM      7  N   UNL d   1       2.743  -1.780   4.886  0.00  0.00    -0.274 N 
ATOM      8  O   UNL d   1       2.348  -0.730   2.952  0.00  0.00    -0.245 OA
ATOM      9  C   UNL d   1       3.341  -1.903   6.125  0.00  0.00     0.261 C 
ATOM     10  H   UNL d   1       1.753  -1.991   4.811  0.00  0.00     0.173 HD
ATOM     11  O   UNL d   1       4.481  -1.531   6.374  0.00  0.00    -0.267 OA
ATOM     12  H   UNL d   1       5.117  -1.067   4.489  0.00  0.00     0.192 HD
BRANCH   9  13
ATOM     13  C   UNL d   1       2.454  -2.444   7.197  0.00  0.00     0.054 A 
ATOM     14  C   UNL d   1       1.528  -3.481   6.992  0.00  0.00     0.049 A 
ATOM     15 CL   UNL d   1       1.428  -4.388   5.524  0.00  0.00    -0.083 Cl
ATOM     16  C   UNL d   1       0.637  -3.839   8.010  0.00  0.00     0.025 A 
ATOM     17  C   UNL d   1       0.677  -3.189   9.242  0.00  0.00     0.002 A 
ATOM     18  C   UNL d   1       1.624  -2.193   9.471  0.00  0.00     0.001 A 
ATOM     19  C   UNL d   1       2.512  -1.823   8.455  0.00  0.00     0.019 A 
ENDBRANCH   9  13
ENDBRANCH   2   5
BRANCH   1  20
ATOM     20  C   UNL d   1       5.477  -0.116   0.127  0.00  0.00     0.280 C 
BRANCH  20  21
ATOM     21  O   UNL d   1       6.893  -0.162   0.259  0.00  0.00    -0.341 OA
BRANCH  21  22
ATOM     22  C   UNL d   1       7.615   0.404  -0.753  0.00  0.00     0.076 A 
ATOM     23  C   UNL d   1       8.992   0.218  -0.705  0.00  0.00    -0.018 A 
ATOM     24  C   UNL d   1       9.837   0.774  -1.670  0.00  0.00    -0.043 A 
ATOM     25  C   UNL d   1       9.758  -0.568   0.310  0.00  0.00     0.042 A 
ATOM     26  C   UNL d   1      11.270   0.437  -1.407  0.00  0.00     0.040 A 
ATOM     27  C   UNL d   1       9.329   1.538  -2.718  0.00  0.00    -0.055 A 
ATOM     28  C   UNL d   1      11.220  -0.412  -0.131  0.00  0.00     0.009 A 
ATOM     29  C   UNL d   1       7.942   1.718  -2.777  0.00  0.00     0.010 A 
ATOM     30  C   UNL d   1      10.227   2.149  -3.750  0.00  0.00     0.049 C 
ATOM     31  C   UNL d   1       7.095   1.159  -1.806  0.00  0.00     0.038 A 
ENDBRANCH  21  22
ENDBRANCH  20  21
ENDBRANCH   1  20
TORSDOF 5
