REMARK  4 active torsions:
REMARK  status: ('A' for Active; 'I' for Inactive)
REMARK    1  A    between atoms: O_2  and  C_1 
REMARK    2  A    between atoms: C_7  and  C_1 
REMARK    3  A    between atoms: C_4  and  O_2 
REMARK    4  A    between atoms: C_5  and  C_3 
ROOT
ATOM      1  C   UNL d   1       1.997  -2.749   0.911  0.00  0.00     0.043 A 
ATOM      2  C   UNL d   1       1.190  -2.449  -0.195  0.00  0.00     0.093 A 
ATOM      3  C   UNL d   1       2.469  -4.058   1.088  0.00  0.00     0.018 A 
ATOM      4  C   UNL d   1       0.791  -3.468  -1.065  0.00  0.00     0.038 A 
ATOM      5  C   UNL d   1       2.093  -5.067   0.202  0.00  0.00     0.001 A 
ATOM      6  C   UNL d   1       1.236  -4.775  -0.858  0.00  0.00     0.003 A 
ENDROOT
BRANCH   2   7
ATOM      7  O   UNL d   1       0.971  -1.078  -0.489  0.00  0.00    -0.274 OA
BRANCH   7   8
ATOM      8  C   UNL d   1       0.137  -0.587  -1.489  0.00  0.00     0.298 C 
ATOM      9  O   UNL d   1      -0.776  -1.184  -2.040  0.00  0.00    -0.259 OA
BRANCH   8  10
ATOM     10  C   UNL d   1       0.559   0.792  -1.849  0.00  0.00     0.039 A 
ATOM     11  C   UNL d   1      -0.001   1.376  -2.995  0.00  0.00     0.017 A 
ATOM     12  C   UNL d   1       0.380   2.661  -3.391  0.00  0.00     0.001 A 
ATOM     13  C   UNL d   1       1.321   3.369  -2.645  0.00  0.00     0.000 A 
ATOM     14  C   UNL d   1       1.887   2.795  -1.508  0.00  0.00     0.001 A 
ATOM     15  C   UNL d   1       1.513   1.509  -1.113  0.00  0.00     0.017 A 
ENDBRANCH   8  10
ENDBRANCH   7   8
ENDBRANCH   2   7
BRANCH   1  16
ATOM     16  C   UNL d   1       2.423  -1.737   1.911  0.00  0.00     0.158 C 
ATOM     17  O   UNL d   1       3.566  -1.778   2.362  0.00  0.00    -0.293 OA
ATOM     18  C   UNL d   1       1.425  -0.723   2.403  0.00  0.00     0.097 C 
ENDBRANCH   1  16
TORSDOF 4
