REMARK  3 active torsions:
REMARK  status: ('A' for Active; 'I' for Inactive)
REMARK    1  A    between atoms: C_9  and  C_3 
REMARK    2  A    between atoms: C_10  and  C_4 
REMARK    3  A    between atoms: C_8  and  C_6 
ROOT
ATOM      1  N   UNL d   1      -1.084  -1.084   0.080  0.00  0.00    -0.354 N 
ATOM      2  HN  UNL d   1      -1.639  -1.938   0.129  1.00  0.00     0.166 HD
ATOM      3  C   UNL d   1       0.277  -1.152   0.061  0.00  0.00     0.049 A 
ATOM      4  C   UNL d   1       0.453   1.277  -0.017  0.00  0.00    -0.016 A 
ATOM      5  C   UNL d   1       1.083   0.005  -0.068  0.00  0.00    -0.023 A 
ATOM      6  C   UNL d   1      -1.693   0.121   0.034  0.00  0.00     0.043 A 
ATOM      7  C   UNL d   1      -0.950   1.296   0.043  0.00  0.00     0.043 A 
ATOM      8  C   UNL d   1       2.573  -0.108  -0.281  0.00  0.00     0.051 C 
ENDROOT
BRANCH   6   9
ATOM      9  C   UNL d   1      -3.173   0.120  -0.007  0.00  0.00    -0.009 A 
ATOM     10  C   UNL d   1      -3.916  -0.922   0.580  0.00  0.00     0.015 A 
ATOM     11  C   UNL d   1      -5.317  -0.911   0.585  0.00  0.00     0.024 A 
ATOM     12  C   UNL d   1      -6.003   0.137  -0.012  0.00  0.00     0.034 A 
ATOM     13  C   UNL d   1      -5.307   1.169  -0.630  0.00  0.00     0.024 A 
ATOM     14 CL   UNL d   1      -7.728   0.168   0.016  0.00  0.00    -0.084 Cl
ATOM     15  C   UNL d   1      -3.905   1.152  -0.633  0.00  0.00     0.015 A 
ENDBRANCH   6   9
BRANCH   3  16
ATOM     16  C   UNL d   1       0.793  -2.546   0.179  0.00  0.00    -0.009 A 
ATOM     17  C   UNL d   1       0.125  -3.615  -0.449  0.00  0.00     0.014 A 
ATOM     18  C   UNL d   1       0.598  -4.931  -0.363  0.00  0.00     0.001 A 
ATOM     19  C   UNL d   1       1.760  -5.211   0.346  0.00  0.00     0.000 A 
ATOM     20  C   UNL d   1       2.428  -4.182   1.003  0.00  0.00     0.001 A 
ATOM     21  C   UNL d   1       1.931  -2.875   0.940  0.00  0.00     0.014 A 
ENDBRANCH   3  16
BRANCH   4  22
ATOM     22  C   UNL d   1       1.172   2.586  -0.043  0.00  0.00    -0.025 A 
ATOM     23  C   UNL d   1       2.344   2.817   0.699  0.00  0.00     0.012 A 
ATOM     24  C   UNL d   1       3.023   4.040   0.639  0.00  0.00     0.001 A 
ATOM     25  C   UNL d   1       2.510   5.089  -0.115  0.00  0.00     0.000 A 
ATOM     26  C   UNL d   1       1.324   4.911  -0.817  0.00  0.00     0.001 A 
ATOM     27  C   UNL d   1       0.675   3.671  -0.794  0.00  0.00     0.012 A 
ENDBRANCH   4  22
TORSDOF 3
