REMARK  2 active torsions:
REMARK  status: ('A' for Active; 'I' for Inactive)
REMARK    1  A    between atoms: C_15  and  C_5 
REMARK    2  A    between atoms: C_6  and  C_12 
ROOT
ATOM      1  N   UNL d   1       1.437  -1.457   0.048  0.00  0.00    -0.341 N 
ATOM      2  HN  UNL d   1       0.924  -2.339   0.053  1.00  0.00     0.167 HD
ATOM      3  C   UNL d   1       0.778  -0.269   0.017  0.00  0.00     0.053 A 
ATOM      4  C   UNL d   1      -0.697  -0.360  -0.008  0.00  0.00     0.010 A 
ATOM      5  C   UNL d   1       2.782  -1.444   0.070  0.00  0.00     0.116 A 
ATOM      6  C   UNL d   1       1.459   0.933   0.008  0.00  0.00    -0.005 A 
ATOM      7  N   UNL d   1       3.517  -0.321   0.059  0.00  0.00    -0.351 N 
ATOM      8  HN  UNL d   1       4.537  -0.345   0.078  1.00  0.00     0.166 HD
ATOM      9  S   UNL d   1      -0.913   2.439   0.294  0.00  0.00    -0.124 SA
ATOM     10  C   UNL d   1      -1.520   0.778   0.067  0.00  0.00     0.013 A 
ATOM     11  C   UNL d   1       0.836   2.279  -0.101  0.00  0.00     0.121 C 
ATOM     12  C   UNL d   1       2.839   0.835   0.020  0.00  0.00     0.100 A 
ATOM     13  C   UNL d   1      -1.335  -1.619  -0.082  0.00  0.00     0.039 A 
ATOM     14  C   UNL d   1      -2.923   0.646   0.041  0.00  0.00     0.021 A 
ATOM     15  C   UNL d   1      -2.726  -1.739  -0.089  0.00  0.00     0.035 A 
ATOM     16  C   UNL d   1      -3.524  -0.608  -0.038  0.00  0.00     0.025 A 
ATOM     17 CL   UNL d   1      -3.453  -3.297  -0.149  0.00  0.00    -0.084 Cl
ENDROOT
BRANCH   5  18
ATOM     18  C   UNL d   1       3.501  -2.733   0.148  0.00  0.00     0.008 A 
ATOM     19  C   UNL d   1       2.830  -3.966   0.054  0.00  0.00     0.016 A 
ATOM     20  C   UNL d   1       3.514  -5.184   0.171  0.00  0.00     0.017 A 
ATOM     21  C   UNL d   1       4.898  -5.208   0.384  0.00  0.00     0.048 A 
ATOM     22  C   UNL d   1       5.585  -3.990   0.454  0.00  0.00     0.017 A 
ATOM     23  C   UNL d   1       4.896  -2.777   0.334  0.00  0.00     0.016 A 
BRANCH  21  24
ATOM     24  C   UNL d   1       5.651  -6.504   0.552  0.00  0.00     0.417 C 
ATOM     25  F   UNL d   1       4.858  -7.610   0.476  0.00  0.00    -0.166 F 
ATOM     26  F   UNL d   1       6.617  -6.673  -0.395  0.00  0.00    -0.166 F 
ATOM     27  F   UNL d   1       6.288  -6.583   1.752  0.00  0.00    -0.166 F 
ENDBRANCH  21  24
ENDBRANCH   5  18
TORSDOF 2
