REMARK  2 active torsions:
REMARK  status: ('A' for Active; 'I' for Inactive)
REMARK    1  A    between atoms: S_7  and  C_1 
REMARK    2  A    between atoms: C_11  and  S_7 
ROOT
ATOM      1  C   UNL d   1      -6.348   1.206   0.164  0.00  0.00     0.118 A 
ATOM      2  N   UNL d   1      -6.927   1.579  -0.954  0.00  0.00    -0.344 N 
ATOM      3  HN  UNL d   1      -6.595   1.352  -1.891  1.00  0.00     0.167 HD
ATOM      4  S   UNL d   1      -7.090   1.738   1.612  0.00  0.00    -0.063 SA
ATOM      5  C   UNL d   1      -8.319   2.519   0.691  0.00  0.00     0.035 A 
ATOM      6  C   UNL d   1      -8.056   2.327  -0.668  0.00  0.00     0.050 A 
ATOM      7  C   UNL d   1      -9.434   3.251   1.137  0.00  0.00     0.045 A 
ATOM      8  C   UNL d   1      -8.934   2.891  -1.616  0.00  0.00     0.032 A 
ATOM      9  C   UNL d   1     -10.294   3.784   0.173  0.00  0.00     0.035 A 
ATOM     10  C   UNL d   1     -10.053   3.614  -1.186  0.00  0.00     0.026 A 
ATOM     11 CL   UNL d   1     -11.685   4.664   0.681  0.00  0.00    -0.084 Cl
ENDROOT
BRANCH   1  12
ATOM     12  S   UNL d   1      -4.855   0.287   0.148  0.00  0.00    -0.065 SA
BRANCH  12  13
ATOM     13  C   UNL d   1      -5.531  -1.366   0.146  0.00  0.00     0.007 A 
ATOM     14  C   UNL d   1      -6.354  -1.825  -0.888  0.00  0.00     0.019 A 
ATOM     15  C   UNL d   1      -6.823  -3.144  -0.889  0.00  0.00     0.008 A 
ATOM     16  C   UNL d   1      -6.467  -4.027   0.136  0.00  0.00    -0.062 A 
ATOM     17  C   UNL d   1      -5.635  -3.571   1.165  0.00  0.00     0.008 A 
ATOM     18  C   UNL d   1      -6.967  -5.442   0.117  0.00  0.00     0.048 C 
ATOM     19  C   UNL d   1      -5.168  -2.253   1.167  0.00  0.00     0.019 A 
ENDBRANCH  12  13
ENDBRANCH   1  12
TORSDOF 2
