REMARK  8 active torsions:
REMARK  status: ('A' for Active; 'I' for Inactive)
REMARK    1  A    between atoms: O_5  and  C_1 
REMARK    2  A    between atoms: C_14  and  N_2 
REMARK    3  A    between atoms: C_10  and  O_5 
REMARK    4  A    between atoms: S_18  and  C_6 
REMARK    5  A    between atoms: S_7  and  C_12 
REMARK    6  A    between atoms: C_11  and  S_7 
REMARK       I    between atoms: N_13  and  C_10 
REMARK    7  A    between atoms: C_12  and  C_21 
REMARK    8  A    between atoms: C_21  and  S_18 
ROOT
ATOM      1  C   UNL d   1       0.033  -1.028  -0.102  0.00  0.00     0.256 A 
ATOM      2  N   UNL d   1       1.261  -0.393  -0.225  0.00  0.00    -0.255 N 
ATOM      3  N   UNL d   1      -0.916  -0.144   0.100  0.00  0.00    -0.262 N 
ATOM      4  HN  UNL d   1      -1.909  -0.343   0.223  1.00  0.00     0.190 HD
ATOM      5  C   UNL d   1       0.964   0.952  -0.094  0.00  0.00     0.169 A 
ATOM      6  N   UNL d   1      -0.327   1.107   0.116  0.00  0.00    -0.276 N 
ATOM      7  HN  UNL d   1      -0.807   1.994   0.264  1.00  0.00     0.189 HD
ENDROOT
BRANCH   5   8
ATOM      8  S   UNL d   1       2.154   2.223  -0.065  0.00  0.00    -0.091 SA
BRANCH   8   9
ATOM      9  C   UNL d   1       1.223   3.643   0.578  0.00  0.00     0.098 C 
BRANCH   9  10
ATOM     10  C   UNL d   1       1.986   4.954   0.439  0.00  0.00     0.156 C 
BRANCH  10  11
ATOM     11  S   UNL d   1       3.245   5.248   1.655  0.00  0.00     0.176 S 
ATOM     12  O   UNL d   1       3.633   6.647   1.554  0.00  0.00    -0.223 OA
ATOM     13  O   UNL d   1       2.796   4.706   2.922  0.00  0.00    -0.223 OA
BRANCH  11  14
ATOM     14  C   UNL d   1       4.675   4.322   1.143  0.00  0.00     0.059 A 
ATOM     15  C   UNL d   1       5.290   4.630  -0.077  0.00  0.00     0.026 A 
ATOM     16  C   UNL d   1       6.410   3.903  -0.482  0.00  0.00     0.044 A 
ATOM     17  C   UNL d   1       6.913   2.899   0.340  0.00  0.00     0.116 A 
ATOM     18  C   UNL d   1       6.327   2.615   1.570  0.00  0.00     0.044 A 
ATOM     19  F   UNL d   1       7.985   2.200  -0.057  0.00  0.00    -0.206 F 
ATOM     20  C   UNL d   1       5.203   3.332   1.981  0.00  0.00     0.026 A 
ENDBRANCH  11  14
ENDBRANCH  10  11
ENDBRANCH   9  10
ENDBRANCH   8   9
ENDBRANCH   5   8
BRANCH   2  21
ATOM     21  C   UNL d   1       2.497  -1.056  -0.461  0.00  0.00     0.045 A 
ATOM     22  C   UNL d   1       3.438  -0.535  -1.353  0.00  0.00     0.030 A 
ATOM     23  C   UNL d   1       4.607  -1.251  -1.621  0.00  0.00     0.002 A 
ATOM     24  C   UNL d   1       4.838  -2.482  -1.007  0.00  0.00     0.000 A 
ATOM     25  C   UNL d   1       3.908  -3.001  -0.113  0.00  0.00     0.002 A 
ATOM     26  C   UNL d   1       2.742  -2.289   0.164  0.00  0.00     0.030 A 
ENDBRANCH   2  21
BRANCH   1  27
ATOM     27  O   UNL d   1      -0.080  -2.321  -0.319  0.00  0.00    -0.226 OA
BRANCH  27  28
ATOM     28  C   UNL d   1      -1.132  -3.098  -0.029  0.00  0.00     0.369 C 
ATOM     29  N   UNL d   1      -0.859  -4.438  -0.316  0.00  0.00    -0.336 N 
ATOM     30  C   UNL d   1      -1.816  -5.452   0.083  0.00  0.00     0.154 C 
ATOM     31  C   UNL d   1       0.407  -4.893  -0.872  0.00  0.00     0.154 C 
ATOM     32  O   UNL d   1      -2.185  -2.724   0.470  0.00  0.00    -0.238 OA
ENDBRANCH  27  28
ENDBRANCH   1  27
TORSDOF 8
