REMARK  2 active torsions:
REMARK  status: ('A' for Active; 'I' for Inactive)
REMARK    1  A    between atoms: N_15  and  C_4 
REMARK    2  A    between atoms: C_13  and  C_7 
ROOT
ATOM      1  C   UNL d   1       1.432   0.891   0.027  0.00  0.00     0.073 A 
ATOM      2  C   UNL d   1       0.628   2.153  -0.013  0.00  0.00     0.301 A 
ATOM      3  C   UNL d   1       0.772  -0.351   0.074  0.00  0.00    -0.004 A 
ATOM      4  C   UNL d   1       2.849   0.971  -0.046  0.00  0.00     0.045 A 
ATOM      5  C   UNL d   1       3.605  -0.231  -0.060  0.00  0.00     0.077 A 
ATOM      6  O   UNL d   1      -0.748   2.040   0.074  0.00  0.00    -0.274 OA
ATOM      7  C   UNL d   1       2.982  -1.497   0.028  0.00  0.00    -0.003 A 
ATOM      8  C   UNL d   1       1.572  -1.514   0.109  0.00  0.00     0.027 A 
ATOM      9  C   UNL d   1      -0.700  -0.397   0.074  0.00  0.00     0.009 A 
ATOM     10  C   UNL d   1      -1.411   0.803   0.074  0.00  0.00     0.090 A 
ATOM     11  C   UNL d   1       5.029  -0.122  -0.230  0.00  0.00     0.102 C 
ATOM     12  N   UNL d   1       6.175  -0.002  -0.377  0.00  0.00    -0.191 NA
ATOM     13  O   UNL d   1       1.150   3.258  -0.145  0.00  0.00    -0.259 OA
ATOM     14  C   UNL d   1      -1.470  -1.574   0.045  0.00  0.00     0.015 A 
ATOM     15  C   UNL d   1      -2.806   0.867   0.050  0.00  0.00     0.038 A 
ATOM     16  C   UNL d   1      -2.872  -1.530   0.020  0.00  0.00     0.001 A 
ATOM     17  C   UNL d   1      -3.541  -0.311   0.023  0.00  0.00     0.003 A 
ENDROOT
BRANCH   4  18
ATOM     18  N   UNL d   1       3.513   2.209   0.128  0.00  0.00    -0.301 NA
ATOM     19  H   UNL d   1       2.921   3.027  -0.067  0.00  0.00     0.124 HD
ATOM     20  H   UNL d   1       4.439   2.309  -0.280  0.00  0.00     0.124 HD
ENDBRANCH   4  18
BRANCH   7  21
ATOM     21  C   UNL d   1       3.728  -2.792   0.013  0.00  0.00    -0.024 A 
ATOM     22  C   UNL d   1       4.914  -2.988   0.745  0.00  0.00     0.014 A 
ATOM     23  C   UNL d   1       5.643  -4.181   0.659  0.00  0.00     0.024 A 
ATOM     24  C   UNL d   1       5.170  -5.227  -0.123  0.00  0.00     0.034 A 
ATOM     25  C   UNL d   1       3.973  -5.090  -0.814  0.00  0.00     0.024 A 
ATOM     26 CL   UNL d   1       6.066  -6.690  -0.236  0.00  0.00    -0.084 Cl
ATOM     27  C   UNL d   1       3.267  -3.881  -0.755  0.00  0.00     0.014 A 
ENDBRANCH   7  21
TORSDOF 2
