REMARK  4 active torsions:
REMARK  status: ('A' for Active; 'I' for Inactive)
REMARK    1  A    between atoms: C_2  and  S_1 
REMARK    2  A    between atoms: N_4  and  S_1 
REMARK    3  A    between atoms: C_12  and  N_5 
REMARK    4  A    between atoms: C_13  and  C_9 
ROOT
ATOM      1  S   UNL d   1       1.732   0.340  -0.454  0.00  0.00     0.264 S 
ATOM      2  O   UNL d   1       1.801   0.268   0.982  0.00  0.00    -0.200 OA
ATOM      3  O   UNL d   1       2.940   0.448  -1.253  0.00  0.00    -0.200 OA
ENDROOT
BRANCH   1   4
ATOM      4  C   UNL d   1       0.964   1.826  -0.831  0.00  0.00     0.120 C 
ATOM      5  C   UNL d   1       1.275   3.122  -0.424  0.00  0.00     0.055 C 
ATOM      6  N   UNL d   1       0.618   3.933  -1.359  0.00  0.00    -0.260 N 
ATOM      7  C   UNL d   1       2.181   3.554   0.667  0.00  0.00     0.072 C 
ATOM      8  N   UNL d   1      -0.407   3.229  -1.937  0.00  0.00    -0.303 N 
ATOM      9  C   UNL d   1      -0.066   1.958  -1.759  0.00  0.00     0.135 C 
ATOM     10  HN  UNL d   1      -1.239   3.597  -2.397  1.00  0.00     0.186 HD
BRANCH   6  11
ATOM     11  C   UNL d   1       0.976   5.196  -1.945  0.00  0.00     0.056 A 
ATOM     12  C   UNL d   1       2.079   5.951  -1.538  0.00  0.00     0.031 A 
ATOM     13  C   UNL d   1       2.556   6.996  -2.342  0.00  0.00     0.002 A 
ATOM     14  C   UNL d   1       1.922   7.317  -3.540  0.00  0.00     0.000 A 
ATOM     15  C   UNL d   1       0.767   6.638  -3.908  0.00  0.00     0.002 A 
ATOM     16  C   UNL d   1       0.288   5.598  -3.109  0.00  0.00     0.031 A 
ENDBRANCH   6  11
ENDBRANCH   1   4
BRANCH   1  17
ATOM     17  N   UNL d   1       0.825  -0.953  -1.076  0.00  0.00    -0.297 N 
ATOM     18  C   UNL d   1      -0.297  -1.600  -0.330  0.00  0.00     0.129 C 
ATOM     19  C   UNL d   1       0.198  -3.045  -0.148  0.00  0.00     0.032 C 
ATOM     20  C   UNL d   1       0.908  -3.323  -1.456  0.00  0.00     0.023 C 
ATOM     21  C   UNL d   1       1.649  -2.024  -1.718  0.00  0.00     0.136 C 
BRANCH  18  22
ATOM     22  C   UNL d   1      -0.860  -0.931   0.908  0.00  0.00    -0.035 A 
ATOM     23  C   UNL d   1      -1.648   0.227   0.772  0.00  0.00     0.012 A 
ATOM     24  C   UNL d   1      -2.101   0.928   1.893  0.00  0.00     0.043 A 
ATOM     25  C   UNL d   1      -1.809   0.451   3.162  0.00  0.00     0.116 A 
ATOM     26  C   UNL d   1      -1.092  -0.723   3.330  0.00  0.00     0.043 A 
ATOM     27  F   UNL d   1      -2.230   1.129   4.238  0.00  0.00    -0.206 F 
ATOM     28  C   UNL d   1      -0.621  -1.412   2.209  0.00  0.00     0.012 A 
ENDBRANCH  18  22
ENDBRANCH   1  17
TORSDOF 4
