REMARK  5 active torsions:
REMARK  status: ('A' for Active; 'I' for Inactive)
REMARK    1  A    between atoms: S_14  and  C_2 
REMARK    2  A    between atoms: C_20  and  N_3 
REMARK    3  A    between atoms: C_22  and  C_9 
REMARK    4  A    between atoms: C_15  and  S_14 
REMARK    5  A    between atoms: C_24  and  C_20 
ROOT
ATOM      1  N   UNL d   1       4.715   4.251   1.814  0.00  0.00    -0.254 N 
ATOM      2  C   UNL d   1       2.856   3.624   0.901  0.00  0.00     0.125 A 
ATOM      3  C   UNL d   1       4.226   3.625   0.700  0.00  0.00     0.153 A 
ATOM      4  N   UNL d   1       3.722   4.556   2.680  0.00  0.00    -0.018 NA
ATOM      5  N   UNL d   1       2.573   4.192   2.115  0.00  0.00    -0.278 N 
ATOM      6  HN  UNL d   1       1.643   4.314   2.517  1.00  0.00     0.184 HD
ATOM      7  C   UNL d   1       2.093   3.034  -0.107  0.00  0.00     0.110 A 
ATOM      8  N   UNL d   1       4.905   3.111  -0.343  0.00  0.00    -0.336 N 
ATOM      9  HN  UNL d   1       5.920   3.140  -0.444  1.00  0.00     0.168 HD
ATOM     10  N   UNL d   1       2.718   2.467  -1.174  0.00  0.00    -0.345 N 
ATOM     11  HN  UNL d   1       2.187   1.991  -1.903  1.00  0.00     0.167 HD
ATOM     12  C   UNL d   1       4.063   2.554  -1.237  0.00  0.00     0.183 A 
ENDROOT
BRANCH   7  13
ATOM     13  S   UNL d   1       0.350   2.847   0.079  0.00  0.00    -0.032 SA
BRANCH  13  14
ATOM     14  C   UNL d   1      -0.196   4.353  -0.578  0.00  0.00     0.169 A 
ATOM     15  N   UNL d   1      -1.522   4.684  -0.712  0.00  0.00    -0.315 N 
ATOM     16  C   UNL d   1      -1.548   5.939  -1.299  0.00  0.00     0.134 A 
ATOM     17  C   UNL d   1      -2.663   3.921  -0.273  0.00  0.00     0.160 C 
ATOM     18  N   UNL d   1      -0.294   6.336  -1.450  0.00  0.00    -0.283 N 
ATOM     19  N   UNL d   1       0.547   5.341  -1.012  0.00  0.00    -0.278 N 
ATOM     20  HN  UNL d   1       0.000   7.235  -1.830  1.00  0.00     0.188 HD
ATOM     21  HN  UNL d   1       1.567   5.368  -1.024  1.00  0.00     0.189 HD
BRANCH  16  22
ATOM     22  C   UNL d   1      -2.731   6.745  -1.641  0.00  0.00     0.009 A 
ATOM     23  C   UNL d   1      -2.662   8.143  -1.528  0.00  0.00     0.015 A 
ATOM     24  C   UNL d   1      -3.772   8.947  -1.809  0.00  0.00     0.001 A 
ATOM     25  C   UNL d   1      -4.971   8.364  -2.210  0.00  0.00     0.000 A 
ATOM     26  C   UNL d   1      -5.050   6.984  -2.364  0.00  0.00     0.001 A 
ATOM     27  C   UNL d   1      -3.932   6.185  -2.100  0.00  0.00     0.015 A 
ENDBRANCH  16  22
ENDBRANCH  13  14
ENDBRANCH   7  13
BRANCH   1  28
ATOM     28  C   UNL d   1       6.099   4.523   2.148  0.00  0.00     0.187 C 
BRANCH  28  29
ATOM     29  C   UNL d   1       6.513   5.893   1.671  0.00  0.00    -0.039 A 
ATOM     30  C   UNL d   1       6.283   7.024   2.468  0.00  0.00     0.009 A 
ATOM     31  C   UNL d   1       6.603   8.298   1.998  0.00  0.00     0.001 A 
ATOM     32  C   UNL d   1       7.156   8.455   0.729  0.00  0.00     0.000 A 
ATOM     33  C   UNL d   1       7.401   7.338  -0.068  0.00  0.00     0.001 A 
ATOM     34  C   UNL d   1       7.081   6.062   0.399  0.00  0.00     0.009 A 
ENDBRANCH  28  29
ENDBRANCH   1  28
TORSDOF 5
