REMARK  5 active torsions:
REMARK  status: ('A' for Active; 'I' for Inactive)
REMARK    1  A    between atoms: C_5  and  C_1 
REMARK    2  A    between atoms: C_8  and  C_2 
REMARK    3  A    between atoms: N_3  and  C_5 
REMARK    4  A    between atoms: O_13  and  C_8 
REMARK    5  A    between atoms: C_14  and  O_13 
ROOT
ATOM      1  C   UNL d   1       0.239   1.250   0.007  0.00  0.00     0.009 A 
ATOM      2  C   UNL d   1       1.500   0.664   0.012  0.00  0.00    -0.019 A 
ATOM      3  S   UNL d   1      -1.012   0.072   0.070  0.00  0.00    -0.104 SA
ATOM      4  C   UNL d   1       0.102  -1.215   0.101  0.00  0.00     0.051 A 
ATOM      5  C   UNL d   1       1.401  -0.769   0.079  0.00  0.00     0.017 A 
ENDROOT
BRANCH   2   6
ATOM      6  C   UNL d   1       2.821   1.384  -0.037  0.00  0.00     0.215 C 
BRANCH   6   7
ATOM      7  O   UNL d   1       3.226   1.777   1.277  0.00  0.00    -0.347 OA
BRANCH   7   8
ATOM      8  C   UNL d   1       4.427   2.427   1.370  0.00  0.00     0.069 A 
ATOM      9  C   UNL d   1       4.572   3.247   2.493  0.00  0.00     0.038 A 
ATOM     10  C   UNL d   1       5.753   3.966   2.700  0.00  0.00     0.026 A 
ATOM     11  C   UNL d   1       6.800   3.849   1.790  0.00  0.00     0.034 A 
ATOM     12  C   UNL d   1       6.677   3.013   0.684  0.00  0.00     0.026 A 
ATOM     13 CL   UNL d   1       8.254   4.734   2.035  0.00  0.00    -0.084 Cl
ATOM     14  C   UNL d   1       5.491   2.300   0.474  0.00  0.00     0.038 A 
ENDBRANCH   7   8
ENDBRANCH   6   7
ENDBRANCH   2   6
BRANCH   1  15
ATOM     15  C   UNL d   1      -0.135   2.706   0.000  0.00  0.00     0.174 C 
BRANCH  15  16
ATOM     16  N   UNL d   1      -0.295   3.223  -1.357  0.00  0.00    -0.362 N 
ATOM     17  C   UNL d   1      -1.407   3.060  -2.147  0.00  0.00     0.090 A 
ATOM     18  C   UNL d   1      -1.213   3.768  -3.311  0.00  0.00     0.019 A 
ATOM     19  C   UNL d   1       0.050   4.398  -3.217  0.00  0.00     0.019 A 
ATOM     20  C   UNL d   1       0.592   4.052  -1.999  0.00  0.00     0.090 A 
ENDBRANCH  15  16
ENDBRANCH   1  15
TORSDOF 5
