REMARK  4 active torsions:
REMARK  status: ('A' for Active; 'I' for Inactive)
REMARK    1  A    between atoms: C_6  and  C_1 
REMARK    2  A    between atoms: C_20  and  C_5 
REMARK       I    between atoms: C_7  and  N_11 
REMARK    3  A    between atoms: C_9  and  C_7 
REMARK    4  A    between atoms: N_11  and  C_20 
ROOT
ATOM      1  C   UNL d   1       4.952   1.471  -0.051  0.00  0.00     0.251 C 
ATOM      2  N   UNL d   1       3.673   0.982   0.107  0.00  0.00    -0.351 N 
ATOM      3  O   UNL d   1       5.931   0.754  -0.214  0.00  0.00    -0.268 OA
ATOM      4  H   UNL d   1       2.914   1.569   0.431  0.00  0.00     0.163 HD
ENDROOT
BRANCH   2   5
ATOM      5  C   UNL d   1       3.417  -0.435   0.047  0.00  0.00     0.180 C 
BRANCH   5   6
ATOM      6  C   UNL d   1       1.954  -0.727   0.212  0.00  0.00     0.034 A 
ATOM      7  N   UNL d   1       1.022   0.298   0.420  0.00  0.00    -0.351 N 
ATOM      8  C   UNL d   1      -0.199  -0.203   0.529  0.00  0.00     0.091 A 
ATOM      9  HN  UNL d   1       1.252   1.290   0.479  1.00  0.00     0.166 HD
ATOM     10  S   UNL d   1      -0.283  -1.922   0.404  0.00  0.00    -0.081 SA
ATOM     11  C   UNL d   1       1.405  -1.995   0.178  0.00  0.00     0.078 A 
BRANCH   8  12
ATOM     12  C   UNL d   1      -1.366   0.633   0.730  0.00  0.00     0.038 A 
ATOM     13  S   UNL d   1      -2.959   0.007   0.927  0.00  0.00    -0.099 SA
ATOM     14  C   UNL d   1      -3.647   1.560   1.080  0.00  0.00     0.050 A 
ATOM     15  C   UNL d   1      -2.696   2.551   0.987  0.00  0.00     0.008 A 
ATOM     16  C   UNL d   1      -1.387   2.018   0.788  0.00  0.00     0.022 A 
ENDBRANCH   8  12
ENDBRANCH   5   6
ENDBRANCH   2   5
BRANCH   1  17
ATOM     17  C   UNL d   1       5.099   2.952   0.008  0.00  0.00     0.032 A 
ATOM     18  C   UNL d   1       6.278   3.506   0.524  0.00  0.00     0.024 A 
ATOM     19  C   UNL d   1       6.436   4.901   0.621  0.00  0.00    -0.055 A 
ATOM     20  C   UNL d   1       7.681   5.466   1.251  0.00  0.00     0.049 C 
ATOM     21  C   UNL d   1       5.417   5.746   0.135  0.00  0.00    -0.056 A 
ATOM     22  C   UNL d   1       4.255   5.178  -0.411  0.00  0.00     0.008 A 
ATOM     23  C   UNL d   1       5.545   7.245   0.189  0.00  0.00     0.049 C 
ATOM     24  C   UNL d   1       4.092   3.793  -0.469  0.00  0.00     0.017 A 
ENDBRANCH   1  17
TORSDOF 4
