REMARK  5 active torsions:
REMARK  status: ('A' for Active; 'I' for Inactive)
REMARK    1  A    between atoms: C_11  and  C_1 
REMARK    2  A    between atoms: C_12  and  N_3 
REMARK    3  A    between atoms: O_10  and  C_4 
REMARK    4  A    between atoms: C_16  and  C_11 
REMARK    5  A    between atoms: C_18  and  C_16 
ROOT
ATOM      1  C   UNL d   1       2.369   0.793  -0.083  0.00  0.00     0.044 A 
ATOM      2  C   UNL d   1       2.401  -0.710  -0.041  0.00  0.00     0.257 A 
ATOM      3  N   UNL d   1       1.194  -1.402   0.005  0.00  0.00    -0.313 N 
ATOM      4  C   UNL d   1       1.182   1.426  -0.060  0.00  0.00     0.089 A 
ATOM      5  C   UNL d   1      -0.065  -0.728  -0.011  0.00  0.00     0.051 A 
ATOM      6  C   UNL d   1      -0.083   0.674  -0.042  0.00  0.00     0.025 A 
ATOM      7  C   UNL d   1      -1.319   1.347  -0.050  0.00  0.00     0.017 A 
ATOM      8  O   UNL d   1       3.489  -1.285  -0.031  0.00  0.00    -0.267 OA
ATOM      9  C   UNL d   1      -1.290  -1.421   0.011  0.00  0.00     0.037 A 
ATOM     10  C   UNL d   1      -2.523   0.647  -0.023  0.00  0.00     0.008 A 
ATOM     11  C   UNL d   1      -2.519  -0.746   0.014  0.00  0.00    -0.060 A 
ATOM     12  C   UNL d   1      -3.816  -1.499   0.026  0.00  0.00     0.048 C 
ENDROOT
BRANCH   1  13
ATOM     13  C   UNL d   1       3.728   1.470  -0.078  0.00  0.00     0.047 C 
BRANCH  13  14
ATOM     14  C   UNL d   1       4.624   1.227  -1.302  0.00  0.00     0.004 C 
BRANCH  14  15
ATOM     15  C   UNL d   1       3.995   1.616  -2.639  0.00  0.00    -0.004 C 
ATOM     16  C   UNL d   1       4.964   1.351  -3.784  0.00  0.00     0.005 C 
ENDBRANCH  14  15
ENDBRANCH  13  14
ENDBRANCH   1  13
BRANCH   4  17
ATOM     17  O   UNL d   1       1.026   2.798  -0.036  0.00  0.00    -0.359 OA
ATOM     18  H   UNL d   1       1.885   3.236   0.049  0.00  0.00     0.217 HD
ENDBRANCH   4  17
BRANCH   3  19
ATOM     19  C   UNL d   1       1.259  -2.865   0.052  0.00  0.00     0.128 C 
ATOM     20  C   UNL d   1       1.144  -3.500  -1.327  0.00  0.00     0.027 C 
ENDBRANCH   3  19
TORSDOF 5
