REMARK  8 active torsions:
REMARK  status: ('A' for Active; 'I' for Inactive)
REMARK    1  A    between atoms: S_9  and  C_3 
REMARK    2  A    between atoms: S_12  and  C_4 
REMARK    3  A    between atoms: C_15  and  S_9 
REMARK    4  A    between atoms: C_10  and  C_15 
REMARK    5  A    between atoms: C_13  and  C_10 
REMARK    6  A    between atoms: C_11  and  C_16 
REMARK    7  A    between atoms: C_14  and  C_11 
REMARK    8  A    between atoms: C_16  and  S_12 
ROOT
ATOM      1  N   UNL d   1      -2.139   0.514   0.044  0.00  0.00    -0.331 N 
ATOM      2  HN  UNL d   1      -3.034   1.003   0.066  1.00  0.00     0.168 HD
ATOM      3  C   UNL d   1      -0.971   1.180   0.099  0.00  0.00     0.084 A 
ATOM      4  C   UNL d   1      -2.074  -0.816  -0.042  0.00  0.00     0.146 A 
ATOM      5  N   UNL d   1      -0.939  -1.524  -0.058  0.00  0.00    -0.336 N 
ATOM      6  HN  UNL d   1      -0.955  -2.543  -0.104  1.00  0.00     0.168 HD
ATOM      7  C   UNL d   1       0.283   0.544   0.047  0.00  0.00     0.024 A 
ATOM      8  C   UNL d   1       0.216  -0.853  -0.013  0.00  0.00     0.047 A 
ATOM      9  C   UNL d   1       1.562   1.173   0.059  0.00  0.00     0.016 A 
ATOM     10  C   UNL d   1       1.403  -1.581  -0.029  0.00  0.00     0.030 A 
ATOM     11  C   UNL d   1       2.736   0.421   0.031  0.00  0.00     0.001 A 
ATOM     12  C   UNL d   1       2.656  -0.964  -0.005  0.00  0.00     0.002 A 
ENDROOT
BRANCH   3  13
ATOM     13  S   UNL d   1      -1.134   2.962   0.206  0.00  0.00    -0.104 SA
BRANCH  13  14
ATOM     14  C   UNL d   1      -2.824   3.135   0.912  0.00  0.00     0.160 C 
BRANCH  14  15
ATOM     15  C   UNL d   1      -3.265   4.599   0.940  0.00  0.00     0.144 C 
ATOM     16  O   UNL d   1      -2.594   5.493   0.420  0.00  0.00    -0.296 OA
BRANCH  15  17
ATOM     17  C   UNL d   1      -4.574   4.963   1.690  0.00  0.00     0.010 C 
ATOM     18  C   UNL d   1      -4.225   5.229   3.160  0.00  0.00     0.022 C 
ATOM     19  C   UNL d   1      -5.143   6.251   1.060  0.00  0.00     0.022 C 
ATOM     20  C   UNL d   1      -5.654   3.881   1.607  0.00  0.00     0.022 C 
ENDBRANCH  15  17
ENDBRANCH  14  15
ENDBRANCH  13  14
ENDBRANCH   3  13
BRANCH   4  21
ATOM     21  S   UNL d   1      -3.597  -1.724  -0.098  0.00  0.00    -0.086 SA
BRANCH  21  22
ATOM     22  C   UNL d   1      -4.660  -0.498  -0.910  0.00  0.00     0.161 C 
BRANCH  22  23
ATOM     23  C   UNL d   1      -6.122  -0.887  -0.786  0.00  0.00     0.144 C 
ATOM     24  O   UNL d   1      -6.758  -0.507   0.206  0.00  0.00    -0.296 OA
BRANCH  23  25
ATOM     25  C   UNL d   1      -6.793  -1.795  -1.844  0.00  0.00     0.010 C 
ATOM     26  C   UNL d   1      -6.614  -3.262  -1.437  0.00  0.00     0.022 C 
ATOM     27  C   UNL d   1      -8.300  -1.463  -1.867  0.00  0.00     0.022 C 
ATOM     28  C   UNL d   1      -6.251  -1.586  -3.263  0.00  0.00     0.022 C 
ENDBRANCH  23  25
ENDBRANCH  22  23
ENDBRANCH  21  22
ENDBRANCH   4  21
TORSDOF 8
