REMARK  7 active torsions:
REMARK  status: ('A' for Active; 'I' for Inactive)
REMARK       I    between atoms: N_2  and  C_1 
REMARK       I    between atoms: N_5  and  C_1 
REMARK    1  A    between atoms: C_3  and  N_2 
REMARK    2  A    between atoms: C_4  and  C_3 
REMARK    3  A    between atoms: C_7  and  C_3 
REMARK    4  A    between atoms: O_9  and  C_4 
REMARK    5  A    between atoms: C_10  and  N_5 
REMARK    6  A    between atoms: C_11  and  C_7 
REMARK    7  A    between atoms: C_12  and  O_9 
ROOT
ATOM      1  C   UNL d   1       1.116  -1.972  -1.252  0.00  0.00     0.190 C 
ENDROOT
BRANCH   1   2
ATOM      2  N   UNL d   1       0.365  -0.895  -0.594  0.00  0.00    -0.329 N 
ATOM      3  C   UNL d   1       0.984   0.296  -0.300  0.00  0.00     0.321 C 
ATOM      4  N   UNL d   1       0.106   1.173   0.289  0.00  0.00    -0.309 N 
ATOM      5  O   UNL d   1       2.171   0.484  -0.549  0.00  0.00    -0.247 OA
ATOM      6  H   UNL d   1      -0.762   0.771   0.606  0.00  0.00     0.170 HD
ATOM      7  H   UNL d   1      -0.629  -0.853  -0.761  0.00  0.00     0.165 HD
BRANCH   4   8
ATOM      8  C   UNL d   1       0.348   2.511   0.656  0.00  0.00     0.036 A 
ATOM      9  C   UNL d   1       1.543   3.183   0.394  0.00  0.00     0.029 A 
ATOM     10  C   UNL d   1       1.724   4.501   0.824  0.00  0.00     0.002 A 
ATOM     11  C   UNL d   1       0.704   5.161   1.504  0.00  0.00     0.000 A 
ATOM     12  C   UNL d   1      -0.503   4.511   1.741  0.00  0.00     0.002 A 
ATOM     13  C   UNL d   1      -0.682   3.191   1.318  0.00  0.00     0.029 A 
ENDBRANCH   4   8
ENDBRANCH   1   2
BRANCH   1  14
ATOM     14  C   UNL d   1       1.874  -2.864  -0.245  0.00  0.00     0.282 C 
ATOM     15  O   UNL d   1       2.524  -3.854  -0.564  0.00  0.00    -0.263 OA
BRANCH  14  16
ATOM     16  O   UNL d   1       1.585  -2.505   1.042  0.00  0.00    -0.320 OA
BRANCH  16  17
ATOM     17  C   UNL d   1       1.670  -3.551   2.014  0.00  0.00     0.174 C 
ATOM     18  C   UNL d   1       0.346  -4.295   1.989  0.00  0.00     0.034 C 
ENDBRANCH  16  17
ENDBRANCH  14  16
ENDBRANCH   1  14
BRANCH   1  19
ATOM     19  C   UNL d   1       0.167  -2.895  -2.034  0.00  0.00     0.074 C 
BRANCH  19  20
ATOM     20  C   UNL d   1      -0.659  -2.186  -3.085  0.00  0.00    -0.056 A 
ATOM     21  C   UNL d   1      -0.043  -1.510  -4.147  0.00  0.00     0.007 A 
ATOM     22  C   UNL d   1      -0.812  -0.911  -5.146  0.00  0.00     0.001 A 
ATOM     23  C   UNL d   1      -2.202  -0.976  -5.092  0.00  0.00     0.000 A 
ATOM     24  C   UNL d   1      -2.826  -1.626  -4.030  0.00  0.00     0.001 A 
ATOM     25  C   UNL d   1      -2.060  -2.228  -3.031  0.00  0.00     0.007 A 
ENDBRANCH  19  20
ENDBRANCH   1  19
TORSDOF 7
