REMARK  8 active torsions:
REMARK  status: ('A' for Active; 'I' for Inactive)
REMARK    1  A    between atoms: C_15  and  N_1 
REMARK    2  A    between atoms: S_16  and  C_2 
REMARK    3  A    between atoms: O_25  and  C_3 
REMARK    4  A    between atoms: C_8  and  C_14 
REMARK    5  A    between atoms: C_22  and  C_13 
REMARK    6  A    between atoms: C_14  and  C_19 
REMARK    7  A    between atoms: C_17  and  C_15 
REMARK    8  A    between atoms: C_19  and  S_16 
ROOT
ATOM      1  S   UNL d   1       2.934  -1.116  -0.018  0.00  0.00    -0.084 SA
ENDROOT
BRANCH   1   2
ATOM      2  C   UNL d   1       3.929  -0.094  -0.998  0.00  0.00     0.165 A 
ATOM      3  N   UNL d   1       5.153   0.387  -0.621  0.00  0.00    -0.285 N 
ATOM      4  C   UNL d   1       5.529   1.228  -1.635  0.00  0.00     0.240 A 
ATOM      5  N   UNL d   1       4.640   1.188  -2.598  0.00  0.00    -0.263 N 
ATOM      6  N   UNL d   1       3.618   0.354  -2.191  0.00  0.00    -0.277 N 
ATOM      7  HN  UNL d   1       4.694   1.684  -3.488  1.00  0.00     0.190 HD
ATOM      8  HN  UNL d   1       2.776   0.129  -2.721  1.00  0.00     0.189 HD
BRANCH   3   9
ATOM      9  C   UNL d   1       5.961   0.003   0.513  0.00  0.00     0.200 C 
BRANCH   9  10
ATOM     10  C   UNL d   1       5.915   1.055   1.557  0.00  0.00     0.070 A 
ATOM     11  O   UNL d   1       6.768   2.108   1.397  0.00  0.00    -0.325 OA
ATOM     12  C   UNL d   1       6.569   2.940   2.453  0.00  0.00     0.142 A 
ATOM     13  C   UNL d   1       5.597   2.438   3.285  0.00  0.00     0.027 A 
ATOM     14  C   UNL d   1       5.171   1.218   2.707  0.00  0.00     0.036 A 
ENDBRANCH   9  10
ENDBRANCH   3   9
BRANCH   4  15
ATOM     15  O   UNL d   1       6.622   1.978  -1.661  0.00  0.00    -0.331 OA
ATOM     16  H   UNL d   1       6.932   2.108  -0.748  0.00  0.00     0.221 HD
ENDBRANCH   4  15
ENDBRANCH   1   2
BRANCH   1  17
ATOM     17  C   UNL d   1       2.868  -2.611  -1.061  0.00  0.00     0.168 C 
BRANCH  17  18
ATOM     18  C   UNL d   1       4.174  -3.389  -0.964  0.00  0.00     0.194 C 
ATOM     19  O   UNL d   1       5.262  -2.805  -0.988  0.00  0.00    -0.289 OA
BRANCH  18  20
ATOM     20  C   UNL d   1       4.089  -4.825  -0.811  0.00  0.00     0.147 A 
ATOM     21  C   UNL d   1       3.078  -5.764  -0.827  0.00  0.00     0.075 A 
ATOM     22  C   UNL d   1       3.705  -6.992  -0.466  0.00  0.00     0.068 A 
ATOM     23  N   UNL d   1       5.024  -6.802  -0.318  0.00  0.00    -0.260 N 
ATOM     24  O   UNL d   1       5.259  -5.468  -0.542  0.00  0.00    -0.234 OA
ATOM     25  HN  UNL d   1       5.719  -7.511  -0.083  1.00  0.00     0.195 HD
BRANCH  22  26
ATOM     26  C   UNL d   1       3.104  -8.302  -0.216  0.00  0.00    -0.007 A 
ATOM     27  C   UNL d   1       1.930  -8.711  -0.862  0.00  0.00     0.014 A 
ATOM     28  C   UNL d   1       1.375  -9.967  -0.588  0.00  0.00     0.001 A 
ATOM     29  C   UNL d   1       1.981 -10.820   0.334  0.00  0.00     0.000 A 
ATOM     30  C   UNL d   1       3.147 -10.425   0.982  0.00  0.00     0.001 A 
ATOM     31  C   UNL d   1       3.705  -9.175   0.706  0.00  0.00     0.014 A 
ENDBRANCH  22  26
ENDBRANCH  18  20
ENDBRANCH  17  18
ENDBRANCH   1  17
TORSDOF 8
