REMARK  2 active torsions:
REMARK  status: ('A' for Active; 'I' for Inactive)
REMARK    1  A    between atoms: C_2  and  S_1 
REMARK    2  A    between atoms: N_3  and  S_1 
ROOT
ATOM      1  N   UNL d   1       0.631   0.540  -1.871  0.00  0.00    -0.265 N 
ATOM      2  C   UNL d   1       0.055   1.839  -2.040  0.00  0.00     0.072 A 
ATOM      3  C   UNL d   1       0.298  -0.486  -2.873  0.00  0.00     0.107 C 
ATOM      4  N   UNL d   1      -2.332   1.085  -2.166  0.00  0.00    -0.325 N 
ATOM      5  C   UNL d   1      -2.271  -0.109  -2.815  0.00  0.00     0.224 C 
ATOM      6  C   UNL d   1      -1.099  -1.044  -2.704  0.00  0.00     0.129 C 
ATOM      7  C   UNL d   1      -1.323   2.070  -2.124  0.00  0.00     0.062 A 
ATOM      8  O   UNL d   1      -3.287  -0.471  -3.421  0.00  0.00    -0.273 OA
ATOM      9  C   UNL d   1       0.947   2.904  -2.218  0.00  0.00     0.033 A 
ATOM     10  C   UNL d   1       0.576   0.044  -4.282  0.00  0.00     0.034 C 
ATOM     11  C   UNL d   1      -1.778   3.386  -2.325  0.00  0.00     0.032 A 
ATOM     12  C   UNL d   1       0.485   4.187  -2.503  0.00  0.00     0.002 A 
ATOM     13  C   UNL d   1      -0.881   4.431  -2.546  0.00  0.00     0.002 A 
ATOM     14  H   UNL d   1      -3.273   1.454  -2.251  0.00  0.00     0.169 HD
ENDROOT
BRANCH   1  15
ATOM     15  S   UNL d   1       1.108   0.086  -0.306  0.00  0.00     0.268 S 
ATOM     16  O   UNL d   1       1.419   1.241   0.501  0.00  0.00    -0.200 OA
ATOM     17  O   UNL d   1       0.171  -0.916   0.171  0.00  0.00    -0.200 OA
BRANCH  15  18
ATOM     18  C   UNL d   1       2.631  -0.751  -0.594  0.00  0.00     0.111 A 
ATOM     19  C   UNL d   1       3.745  -0.122  -1.174  0.00  0.00     0.108 A 
ATOM     20  C   UNL d   1       4.986  -0.852  -1.424  0.00  0.00     0.086 A 
ATOM     21  N   UNL d   1       3.927   1.133  -1.603  0.00  0.00    -0.238 N 
ATOM     22  N   UNL d   1       5.865  -0.016  -1.987  0.00  0.00    -0.239 N 
ATOM     23  C   UNL d   1       5.146  -2.212  -1.102  0.00  0.00     0.034 A 
ATOM     24  O   UNL d   1       5.219   1.201  -2.085  0.00  0.00    -0.156 OA
ATOM     25  HN  UNL d   1       6.817  -0.233  -2.284  1.00  0.00     0.197 HD
ATOM     26  C   UNL d   1       4.018  -2.816  -0.517  0.00  0.00     0.004 A 
ATOM     27  C   UNL d   1       2.807  -2.116  -0.270  0.00  0.00     0.028 A 
ATOM     28  HN  UNL d   1       3.245   1.891  -1.579  1.00  0.00     0.197 HD
ENDBRANCH  15  18
ENDBRANCH   1  15
TORSDOF 2
