REMARK  5 active torsions:
REMARK  status: ('A' for Active; 'I' for Inactive)
REMARK    1  A    between atoms: C_4  and  S_1 
REMARK    2  A    between atoms: N_5  and  S_1 
REMARK    3  A    between atoms: C_3  and  C_2 
REMARK    4  A    between atoms: N_9  and  N_5 
REMARK    5  A    between atoms: C_8  and  N_9 
ROOT
ATOM      1  N   UNL d   1       0.811   1.700   1.555  0.00  0.00    -0.221 N 
ATOM      2  H   UNL d   1      -0.007   2.296   1.383  0.00  0.00     0.200 HD
ENDROOT
BRANCH   1   3
ATOM      3  S   UNL d   1       1.105   0.459   0.447  0.00  0.00     0.277 S 
ATOM      4  O   UNL d   1       0.058   0.425  -0.549  0.00  0.00    -0.199 OA
ATOM      5  O   UNL d   1       2.502   0.560   0.077  0.00  0.00    -0.199 OA
BRANCH   3   6
ATOM      6  C   UNL d   1       0.928  -1.001   1.457  0.00  0.00     0.096 A 
ATOM      7  C   UNL d   1      -0.226  -1.267   2.212  0.00  0.00     0.071 A 
ATOM      8  C   UNL d   1      -0.209  -2.405   3.053  0.00  0.00     0.018 A 
ATOM      9  C   UNL d   1       0.897  -3.255   3.115  0.00  0.00     0.001 A 
ATOM     10  C   UNL d   1       2.010  -3.002   2.326  0.00  0.00     0.002 A 
ATOM     11  C   UNL d   1       2.029  -1.878   1.500  0.00  0.00     0.026 A 
BRANCH   7  12
ATOM     12  C   UNL d   1      -1.508  -0.468   2.190  0.00  0.00     0.419 C 
ATOM     13  F   UNL d   1      -1.522   0.661   1.440  0.00  0.00    -0.166 F 
ATOM     14  F   UNL d   1      -2.554  -1.219   1.742  0.00  0.00    -0.166 F 
ATOM     15  F   UNL d   1      -1.866  -0.066   3.444  0.00  0.00    -0.166 F 
ENDBRANCH   7  12
ENDBRANCH   3   6
ENDBRANCH   1   3
BRANCH   1  16
ATOM     16  N   UNL d   1       1.834   2.110   2.510  0.00  0.00    -0.275 N 
ATOM     17  H   UNL d   1       2.668   1.530   2.577  0.00  0.00     0.189 HD
BRANCH  16  18
ATOM     18  C   UNL d   1       1.788   3.291   3.263  0.00  0.00     0.136 A 
ATOM     19  N   UNL d   1       0.628   3.974   3.399  0.00  0.00    -0.338 N 
ATOM     20  C   UNL d   1       0.681   5.174   4.031  0.00  0.00     0.060 A 
ATOM     21  HN  UNL d   1      -0.251   3.602   3.040  1.00  0.00     0.167 HD
ATOM     22  C   UNL d   1      -0.473   5.935   4.190  0.00  0.00     0.032 A 
ATOM     23  C   UNL d   1       1.906   5.698   4.517  0.00  0.00     0.059 A 
ATOM     24  C   UNL d   1      -0.437   7.209   4.771  0.00  0.00     0.002 A 
ATOM     25  C   UNL d   1       0.770   7.726   5.218  0.00  0.00     0.002 A 
ATOM     26  C   UNL d   1       1.928   6.960   5.102  0.00  0.00     0.032 A 
ATOM     27  N   UNL d   1       3.054   5.016   4.406  0.00  0.00    -0.360 N 
ATOM     28  C   UNL d   1       2.972   3.823   3.770  0.00  0.00     0.138 A 
ATOM     29  HN  UNL d   1       3.934   5.372   4.777  1.00  0.00     0.165 HD
ENDBRANCH  16  18
ENDBRANCH   1  16
TORSDOF 5
