REMARK  2 active torsions:
REMARK  status: ('A' for Active; 'I' for Inactive)
REMARK       I    between atoms: N_3  and  C_1 
REMARK    1  A    between atoms: O_10  and  C_1 
REMARK    2  A    between atoms: C_2  and  N_3 
ROOT
ATOM      1  C   UNL d   1       0.950  -0.855  -2.413  0.00  0.00     0.040 A 
ATOM      2  C   UNL d   1       1.912  -1.866  -2.462  0.00  0.00     0.053 A 
ATOM      3  C   UNL d   1       0.580  -0.226  -3.610  0.00  0.00     0.053 A 
ATOM      4  C   UNL d   1       1.192  -0.577  -4.816  0.00  0.00     0.037 A 
ATOM      5  C   UNL d   1       2.518  -2.208  -3.674  0.00  0.00     0.037 A 
ATOM      6  C   UNL d   1       2.171  -1.562  -4.855  0.00  0.00     0.048 A 
ATOM      7 CL   UNL d   1       3.722  -3.440  -3.704  0.00  0.00    -0.084 Cl
ATOM      8 CL   UNL d   1       0.741   0.231  -6.267  0.00  0.00    -0.084 Cl
ENDROOT
BRANCH   1   9
ATOM      9  N   UNL d   1       0.323  -0.392  -1.239  0.00  0.00    -0.303 N 
ATOM     10  C   UNL d   1       0.524  -0.686   0.086  0.00  0.00     0.364 C 
ATOM     11  O   UNL d   1      -0.120  -0.095   0.947  0.00  0.00    -0.238 OA
ATOM     12  H   UNL d   1      -0.370   0.337  -1.340  0.00  0.00     0.171 HD
BRANCH  10  13
ATOM     13  O   UNL d   1       1.465  -1.623   0.334  0.00  0.00    -0.309 OA
ATOM     14  C   UNL d   1       1.741  -1.934   1.702  0.00  0.00     0.215 C 
ENDBRANCH  10  13
ENDBRANCH   1   9
TORSDOF 2
