REMARK  3 active torsions:
REMARK  status: ('A' for Active; 'I' for Inactive)
REMARK    1  A    between atoms: C_7  and  C_3 
REMARK    2  A    between atoms: C_11  and  C_5 
REMARK    3  A    between atoms: O_12  and  C_10 
ROOT
ATOM      1  N   UNL d   1      -0.447   1.733  -0.382  0.00  0.00    -0.358 N 
ATOM      2  HN  UNL d   1      -0.205   2.328  -1.175  1.00  0.00     0.166 HD
ATOM      3  C   UNL d   1      -2.490  -0.377   0.953  0.00  0.00     0.093 C 
ATOM      4  S   UNL d   1      -1.117  -1.497   0.401  0.00  0.00    -0.118 SA
ATOM      5  C   UNL d   1      -1.632   1.862   0.118  0.00  0.00     0.021 C 
ATOM      6  C   UNL d   1      -2.125   1.063   1.299  0.00  0.00     0.078 C 
ATOM      7  C   UNL d   1       0.538   0.838   0.079  0.00  0.00     0.049 A 
ATOM      8  C   UNL d   1       0.376  -0.528   0.359  0.00  0.00     0.028 A 
ATOM      9  C   UNL d   1       1.847   1.362   0.080  0.00  0.00     0.031 A 
ATOM     10  C   UNL d   1       1.528  -1.331   0.543  0.00  0.00     0.021 A 
ATOM     11  C   UNL d   1       2.813  -0.796   0.504  0.00  0.00     0.002 A 
ATOM     12  C   UNL d   1       2.974   0.559   0.292  0.00  0.00     0.002 A 
ENDROOT
BRANCH   3  13
ATOM     13  C   UNL d   1      -3.709  -0.592   0.054  0.00  0.00    -0.010 A 
ATOM     14  C   UNL d   1      -5.031  -0.824   0.479  0.00  0.00     0.075 A 
ATOM     15  C   UNL d   1      -6.005  -1.192  -0.474  0.00  0.00     0.037 A 
ATOM     16  C   UNL d   1      -5.718  -1.293  -1.832  0.00  0.00     0.003 A 
ATOM     17  C   UNL d   1      -4.455  -0.957  -2.277  0.00  0.00     0.001 A 
ATOM     18  C   UNL d   1      -3.477  -0.596  -1.352  0.00  0.00     0.011 A 
BRANCH  14  19
ATOM     19  O   UNL d   1      -5.624  -0.691   1.700  0.00  0.00    -0.355 OA
ATOM     20  C   UNL d   1      -4.906  -0.716   2.914  0.00  0.00     0.210 C 
ENDBRANCH  14  19
ENDBRANCH   3  13
BRANCH   5  21
ATOM     21  C   UNL d   1      -2.553   2.875  -0.508  0.00  0.00    -0.014 A 
ATOM     22  C   UNL d   1      -3.947   2.759  -0.444  0.00  0.00     0.013 A 
ATOM     23  C   UNL d   1      -4.769   3.630  -1.154  0.00  0.00     0.001 A 
ATOM     24  C   UNL d   1      -4.213   4.671  -1.895  0.00  0.00     0.000 A 
ATOM     25  C   UNL d   1      -2.828   4.839  -1.916  0.00  0.00     0.001 A 
ATOM     26  C   UNL d   1      -2.003   3.946  -1.230  0.00  0.00     0.013 A 
ENDBRANCH   5  21
TORSDOF 3
