REMARK  3 active torsions:
REMARK  status: ('A' for Active; 'I' for Inactive)
REMARK    1  A    between atoms: C_7  and  C_3 
REMARK    2  A    between atoms: N_8  and  C_12 
REMARK    3  A    between atoms: C_12  and  C_10 
ROOT
ATOM      1  N   UNL d   1      -1.587   1.288  -0.046  0.00  0.00    -0.334 N 
ATOM      2  HN  UNL d   1      -1.861   2.269  -0.096  1.00  0.00     0.168 HD
ATOM      3  C   UNL d   1      -2.368   0.224   0.004  0.00  0.00     0.159 A 
ATOM      4  O   UNL d   1      -1.698  -0.976   0.048  0.00  0.00    -0.291 OA
ATOM      5  C   UNL d   1      -0.324   0.760  -0.017  0.00  0.00     0.069 A 
ATOM      6  C   UNL d   1      -0.386  -0.618   0.039  0.00  0.00     0.104 A 
ATOM      7  C   UNL d   1       0.932   1.379  -0.032  0.00  0.00     0.041 A 
ATOM      8  C   UNL d   1       2.087   0.570   0.032  0.00  0.00    -0.028 A 
ATOM      9  C   UNL d   1       0.714  -1.465   0.085  0.00  0.00     0.040 A 
ATOM     10  C   UNL d   1       1.964  -0.831   0.090  0.00  0.00     0.012 A 
ENDROOT
BRANCH   3  11
ATOM     11  C   UNL d   1      -3.828   0.151   0.020  0.00  0.00     0.015 A 
ATOM     12  C   UNL d   1      -4.585   1.331  -0.067  0.00  0.00     0.017 A 
ATOM     13  C   UNL d   1      -5.983   1.288  -0.044  0.00  0.00     0.025 A 
ATOM     14  C   UNL d   1      -6.636   0.064   0.070  0.00  0.00     0.034 A 
ATOM     15  C   UNL d   1      -5.902  -1.118   0.160  0.00  0.00     0.025 A 
ATOM     16 CL   UNL d   1      -8.354   0.006   0.102  0.00  0.00    -0.084 Cl
ATOM     17  C   UNL d   1      -4.506  -1.072   0.136  0.00  0.00     0.017 A 
ENDBRANCH   3  11
BRANCH   8  18
ATOM     18  C   UNL d   1       3.458   1.215   0.039  0.00  0.00     0.311 C 
BRANCH  18  19
ATOM     19  N   UNL d   1       4.012   1.474   1.387  0.00  0.00     0.092 N 
ATOM     20  C   UNL d   1       3.204   2.477   2.106  0.00  0.00     0.272 C 
ATOM     21  C   UNL d   1       3.836   2.967   3.409  0.00  0.00     0.030 C 
ATOM     22  C   UNL d   1       5.245   3.481   3.170  0.00  0.00     0.003 C 
ATOM     23  C   UNL d   1       6.070   2.377   2.528  0.00  0.00     0.030 C 
ATOM     24  C   UNL d   1       5.418   1.894   1.234  0.00  0.00     0.272 C 
ENDBRANCH  18  19
ENDBRANCH   8  18
TORSDOF 3
