REMARK  5 active torsions:
REMARK  status: ('A' for Active; 'I' for Inactive)
REMARK    1  A    between atoms: C_2  and  C_1 
REMARK    2  A    between atoms: C_3  and  C_2 
REMARK    3  A    between atoms: C_5  and  C_2 
REMARK       I    between atoms: C_4  and  N_8 
REMARK       I    between atoms: N_7  and  C_4 
REMARK    4  A    between atoms: N_8  and  C_5 
REMARK    5  A    between atoms: C_13  and  N_7 
ROOT
ATOM      1  C   UNL d   1       0.374  -0.138  -2.018  0.00  0.00     0.161 C 
ENDROOT
BRANCH   1   2
ATOM      2  C   UNL d   1      -1.159  -0.108  -2.141  0.00  0.00     0.398 C 
ATOM      3  F   UNL d   1      -1.724   0.888  -1.414  0.00  0.00    -0.170 F 
ATOM      4  F   UNL d   1      -1.741  -1.254  -1.717  0.00  0.00    -0.170 F 
ATOM      5  F   UNL d   1      -1.535   0.094  -3.426  0.00  0.00    -0.170 F 
ENDBRANCH   1   2
BRANCH   1   6
ATOM      6  C   UNL d   1       0.965   0.818  -0.988  0.00  0.00     0.023 A 
ATOM      7  N   UNL d   1       0.322   1.171   0.182  0.00  0.00    -0.369 N 
ATOM      8  C   UNL d   1       1.110   2.026   0.903  0.00  0.00     0.088 A 
ATOM      9  H   UNL d   1      -0.617   0.892   0.451  0.00  0.00     0.165 HD
ATOM     10  C   UNL d   1       2.275   2.228   0.203  0.00  0.00     0.019 A 
ATOM     11  C   UNL d   1       2.184   1.473  -0.989  0.00  0.00     0.027 A 
ENDBRANCH   1   6
BRANCH   1  12
ATOM     12  C   UNL d   1       0.913  -1.560  -1.748  0.00  0.00     0.144 C 
BRANCH  12  13
ATOM     13  N   UNL d   1       0.459  -2.601  -2.646  0.00  0.00    -0.342 N 
ATOM     14  C   UNL d   1       0.812  -2.937  -3.914  0.00  0.00     0.316 C 
ATOM     15  N   UNL d   1       1.718  -2.134  -4.521  0.00  0.00    -0.335 N 
ATOM     16  O   UNL d   1       0.277  -3.903  -4.437  0.00  0.00    -0.247 OA
ATOM     17  H   UNL d   1       2.108  -1.372  -3.991  0.00  0.00     0.165 HD
ATOM     18  H   UNL d   1      -0.232  -3.256  -2.289  0.00  0.00     0.164 HD
BRANCH  15  19
ATOM     19  C   UNL d   1       2.091  -2.234  -5.944  0.00  0.00     0.023 C 
ATOM     20  C   UNL d   1       0.841  -2.113  -6.838  0.00  0.00     0.037 C 
ATOM     21  C   UNL d   1       3.064  -1.084  -6.270  0.00  0.00     0.037 C 
ATOM     22  C   UNL d   1       2.806  -3.566  -6.244  0.00  0.00     0.037 C 
ENDBRANCH  15  19
ENDBRANCH  12  13
ENDBRANCH   1  12
TORSDOF 5
