REMARK  6 active torsions:
REMARK  status: ('A' for Active; 'I' for Inactive)
REMARK    1  A    between atoms: C_12  and  C_3 
REMARK    2  A    between atoms: C_14  and  N_6 
REMARK    3  A    between atoms: N_13  and  C_10 
REMARK    4  A    between atoms: O_18  and  C_12 
REMARK    5  A    between atoms: C_17  and  N_13 
REMARK    6  A    between atoms: C_26  and  O_18 
ROOT
ATOM      1  N   UNL d   1       0.205   0.749  -0.049  0.00  0.00    -0.086 N 
ATOM      2  C   UNL d   1       0.163  -0.613  -0.119  0.00  0.00     0.716 A 
ATOM      3  C   UNL d   1       1.542   1.067   0.001  0.00  0.00     0.223 A 
ATOM      4  N   UNL d   1       2.350   0.042  -0.037  0.00  0.00    -0.258 N 
ATOM      5  HN  UNL d   1       3.370   0.035  -0.017  1.00  0.00     0.190 HD
ATOM      6  N   UNL d   1       1.482  -1.034  -0.113  0.00  0.00    -0.084 N 
ATOM      7  N   UNL d   1      -0.942  -1.280  -0.159  0.00  0.00    -0.179 N 
ATOM      8  HN  UNL d   1      -0.930  -2.298  -0.218  1.00  0.00     0.185 HD
ATOM      9  C   UNL d   1      -0.931   1.518   0.040  0.00  0.00     0.271 A 
ATOM     10  C   UNL d   1      -2.132  -0.598  -0.121  0.00  0.00     0.106 A 
ATOM     11  C   UNL d   1      -2.179   0.746  -0.070  0.00  0.00     0.118 A 
ATOM     12  O   UNL d   1      -0.990   2.721   0.259  0.00  0.00    -0.267 OA
ENDROOT
BRANCH  10  13
ATOM     13  N   UNL d   1      -3.320  -1.325  -0.140  0.00  0.00    -0.245 NA
ATOM     14  H   UNL d   1      -3.086  -2.315  -0.213  0.00  0.00     0.135 HD
BRANCH  13  15
ATOM     15  C   UNL d   1      -4.329  -1.159   0.847  0.00  0.00     0.013 A 
ATOM     16  C   UNL d   1      -5.653  -1.460   0.518  0.00  0.00     0.024 A 
ATOM     17  C   UNL d   1      -6.676  -1.274   1.453  0.00  0.00     0.008 A 
ATOM     18  C   UNL d   1      -6.386  -0.814   2.743  0.00  0.00    -0.062 A 
ATOM     19  C   UNL d   1      -5.053  -0.602   3.102  0.00  0.00     0.008 A 
ATOM     20  C   UNL d   1      -7.494  -0.555   3.720  0.00  0.00     0.048 C 
ATOM     21  C   UNL d   1      -4.033  -0.787   2.165  0.00  0.00     0.024 A 
ENDBRANCH  13  15
ENDBRANCH  10  13
BRANCH   6  22
ATOM     22  C   UNL d   1       1.990  -2.357  -0.072  0.00  0.00     0.074 A 
ATOM     23  C   UNL d   1       1.171  -3.486  -0.240  0.00  0.00     0.032 A 
ATOM     24  C   UNL d   1       1.695  -4.785  -0.224  0.00  0.00     0.002 A 
ATOM     25  C   UNL d   1       3.056  -4.986  -0.030  0.00  0.00     0.000 A 
ATOM     26  C   UNL d   1       3.891  -3.890   0.157  0.00  0.00     0.002 A 
ATOM     27  C   UNL d   1       3.363  -2.594   0.136  0.00  0.00     0.032 A 
ENDBRANCH   6  22
BRANCH   3  28
ATOM     28  C   UNL d   1       2.037   2.483   0.169  0.00  0.00     0.330 C 
ATOM     29  O   UNL d   1       2.895   2.746   0.994  0.00  0.00    -0.256 OA
BRANCH  28  30
ATOM     30  O   UNL d   1       1.404   3.338  -0.652  0.00  0.00    -0.316 OA
BRANCH  30  31
ATOM     31  C   UNL d   1       1.466   4.721  -0.257  0.00  0.00     0.175 C 
ATOM     32  C   UNL d   1       1.986   5.558  -1.405  0.00  0.00     0.034 C 
ENDBRANCH  30  31
ENDBRANCH  28  30
ENDBRANCH   3  28
TORSDOF 6
