REMARK  3 active torsions:
REMARK  status: ('A' for Active; 'I' for Inactive)
REMARK    1  A    between atoms: N_2  and  C_1 
REMARK    2  A    between atoms: N_4  and  C_1 
REMARK    3  A    between atoms: C_5  and  N_2 
ROOT
ATOM      1  C   UNL d   1       1.137  -0.609  -2.422  0.00  0.00     0.035 A 
ATOM      2  C   UNL d   1       2.252  -1.453  -2.420  0.00  0.00     0.048 A 
ATOM      3  C   UNL d   1       2.779  -1.910  -3.629  0.00  0.00     0.013 A 
ATOM      4 BR   UNL d   1       4.297  -3.037  -3.620  0.00  0.00    -0.051 Br
ATOM      5  C   UNL d   1       1.066  -0.728  -4.841  0.00  0.00     0.004 A 
ATOM      6  C   UNL d   1       0.521  -0.283  -3.634  0.00  0.00     0.029 A 
ATOM      7  C   UNL d   1       2.200  -1.536  -4.839  0.00  0.00     0.019 A 
ENDROOT
BRANCH   1   8
ATOM      8  N   UNL d   1       0.585  -0.075  -1.240  0.00  0.00    -0.333 N 
ATOM      9  H   UNL d   1      -0.420   0.073  -1.250  0.00  0.00     0.168 HD
BRANCH   8  10
ATOM     10  C   UNL d   1       1.155   0.056  -0.002  0.00  0.00     0.173 C 
ATOM     11  S   UNL d   1       0.115  -0.055   1.314  0.00  0.00    -0.041 SA
BRANCH  10  12
ATOM     12  N   UNL d   1       2.507   0.360   0.079  0.00  0.00    -0.367 N 
ATOM     13  C   UNL d   1       3.165   1.188  -0.936  0.00  0.00     0.151 C 
ATOM     14  C   UNL d   1       3.294   0.161   1.290  0.00  0.00     0.151 C 
ENDBRANCH  10  12
ENDBRANCH   8  10
ENDBRANCH   1   8
TORSDOF 3
