REMARK  2 active torsions:
REMARK  status: ('A' for Active; 'I' for Inactive)
REMARK    1  A    between atoms: C_5  and  C_1 
REMARK    2  A    between atoms: C_8  and  C_2 
ROOT
ATOM      1  C   UNL d   1       1.334   0.744  -0.013  0.00  0.00     0.144 A 
ATOM      2  C   UNL d   1       1.470  -0.680  -0.101  0.00  0.00     0.024 A 
ATOM      3  N   UNL d   1       0.027   1.095   0.029  0.00  0.00    -0.294 N 
ATOM      4  HN  UNL d   1      -0.364   2.035   0.086  1.00  0.00     0.187 HD
ATOM      5  N   UNL d   1      -0.638  -0.066  -0.023  0.00  0.00    -0.306 N 
ATOM      6  C   UNL d   1       0.174  -1.155  -0.094  0.00  0.00     0.124 A 
ATOM      7  C   UNL d   1      -2.080  -0.076  -0.016  0.00  0.00     0.177 C 
ENDROOT
BRANCH   2   8
ATOM      8  C   UNL d   1       2.624  -1.560  -0.203  0.00  0.00    -0.022 A 
ATOM      9  C   UNL d   1       2.669  -2.758   0.529  0.00  0.00     0.012 A 
ATOM     10  C   UNL d   1       3.762  -3.623   0.417  0.00  0.00     0.001 A 
ATOM     11  C   UNL d   1       4.823  -3.297  -0.423  0.00  0.00     0.000 A 
ATOM     12  C   UNL d   1       4.791  -2.110  -1.154  0.00  0.00     0.001 A 
ATOM     13  C   UNL d   1       3.693  -1.250  -1.050  0.00  0.00     0.012 A 
ENDBRANCH   2   8
BRANCH   1  14
ATOM     14  C   UNL d   1       2.413   1.795   0.030  0.00  0.00     0.434 C 
ATOM     15  F   UNL d   1       3.650   1.292   0.294  0.00  0.00    -0.165 F 
ATOM     16  F   UNL d   1       2.521   2.457  -1.156  0.00  0.00    -0.165 F 
ATOM     17  F   UNL d   1       2.186   2.741   0.984  0.00  0.00    -0.165 F 
ENDBRANCH   1  14
TORSDOF 2
