REMARK  8 active torsions:
REMARK  status: ('A' for Active; 'I' for Inactive)
REMARK    1  A    between atoms: C_2  and  S_1 
REMARK    2  A    between atoms: N_11  and  S_1 
REMARK       I    between atoms: C_5  and  N_8 
REMARK    3  A    between atoms: C_13  and  C_5 
REMARK    4  A    between atoms: C_15  and  C_6 
REMARK    5  A    between atoms: N_8  and  C_15 
REMARK    6  A    between atoms: C_16  and  N_11 
REMARK    7  A    between atoms: N_12  and  C_22 
REMARK    8  A    between atoms: C_22  and  C_16 
ROOT
ATOM      1  C   UNL d   1       0.386  -0.395   1.552  0.00  0.00     0.115 A 
ATOM      2  S   UNL d   1      -0.159   0.859   2.579  0.00  0.00    -0.080 SA
ATOM      3  C   UNL d   1       0.330  -1.621   2.182  0.00  0.00     0.033 A 
ATOM      4  C   UNL d   1      -0.447  -0.228   3.876  0.00  0.00     0.002 A 
ATOM      5  C   UNL d   1      -0.147  -1.528   3.519  0.00  0.00     0.018 A 
ENDROOT
BRANCH   1   6
ATOM      6  S   UNL d   1       0.908   0.043  -0.100  0.00  0.00     0.248 S 
ATOM      7  O   UNL d   1       1.619  -1.137  -0.547  0.00  0.00    -0.205 OA
ATOM      8  O   UNL d   1       1.539   1.338  -0.018  0.00  0.00    -0.205 OA
BRANCH   6   9
ATOM      9  N   UNL d   1      -0.490   0.139  -1.055  0.00  0.00    -0.213 NA
ATOM     10  H   UNL d   1      -1.093  -0.669  -0.901  0.00  0.00     0.140 HD
BRANCH   9  11
ATOM     11  C   UNL d   1      -1.173   1.446  -1.061  0.00  0.00     0.134 C 
BRANCH  11  12
ATOM     12  C   UNL d   1      -2.344   1.459  -2.067  0.00  0.00     0.287 C 
BRANCH  12  13
ATOM     13  N   UNL d   1      -3.059   2.748  -2.058  0.00  0.00     0.089 N 
ATOM     14  C   UNL d   1      -4.267   2.729  -2.895  0.00  0.00     0.272 C 
ATOM     15  C   UNL d   1      -3.823   3.216  -4.260  0.00  0.00     0.032 C 
ATOM     16  C   UNL d   1      -2.774   4.256  -3.935  0.00  0.00     0.032 C 
ATOM     17  C   UNL d   1      -2.234   3.861  -2.567  0.00  0.00     0.272 C 
ENDBRANCH  12  13
ENDBRANCH  11  12
ENDBRANCH   9  11
ENDBRANCH   6   9
ENDBRANCH   1   6
BRANCH   4  18
ATOM     18  C   UNL d   1      -0.951   0.267   5.195  0.00  0.00     0.169 C 
BRANCH  18  19
ATOM     19  N   UNL d   1      -2.395   0.251   5.176  0.00  0.00    -0.352 N 
ATOM     20  C   UNL d   1      -3.107   0.685   6.271  0.00  0.00     0.251 C 
ATOM     21  O   UNL d   1      -2.585   1.036   7.321  0.00  0.00    -0.268 OA
ATOM     22  H   UNL d   1      -2.866  -0.236   4.427  0.00  0.00     0.163 HD
BRANCH  20  23
ATOM     23  C   UNL d   1      -4.590   0.706   6.126  0.00  0.00     0.032 A 
ATOM     24  C   UNL d   1      -5.382   0.553   7.272  0.00  0.00     0.018 A 
ATOM     25  C   UNL d   1      -6.774   0.639   7.180  0.00  0.00     0.025 A 
ATOM     26  C   UNL d   1      -7.372   0.891   5.946  0.00  0.00     0.034 A 
ATOM     27  C   UNL d   1      -6.592   1.044   4.800  0.00  0.00     0.025 A 
ATOM     28 CL   UNL d   1      -9.083   1.037   5.837  0.00  0.00    -0.084 Cl
ATOM     29  C   UNL d   1      -5.199   0.954   4.888  0.00  0.00     0.018 A 
ENDBRANCH  20  23
ENDBRANCH  18  19
ENDBRANCH   4  18
TORSDOF 8
