REMARK  2 active torsions:
REMARK  status: ('A' for Active; 'I' for Inactive)
REMARK    1  A    between atoms: C_8  and  N_1 
REMARK    2  A    between atoms: O_13  and  C_11 
ROOT
ATOM      1  N   UNL d   1       0.851  -0.768   0.159  0.00  0.00    -0.213 N 
ATOM      2  C   UNL d   1      -0.457  -1.085  -0.170  0.00  0.00     0.215 A 
ATOM      3  N   UNL d   1       0.900   0.554   0.546  0.00  0.00    -0.219 N 
ATOM      4  HN  UNL d   1       1.734   1.046   0.866  1.00  0.00     0.210 HD
ATOM      5  N   UNL d   1      -0.261   1.064   0.440  0.00  0.00    -0.225 N 
ATOM      6  HN  UNL d   1      -0.505   2.031   0.655  1.00  0.00     0.210 HD
ATOM      7  N   UNL d   1      -1.123   0.112  -0.004  0.00  0.00    -0.259 N 
ATOM      8  S   UNL d   1      -1.205  -2.504  -0.573  0.00  0.00    -0.037 SA
ATOM      9  H   UNL d   1      -2.108   0.287  -0.113  0.00  0.00     0.191 HD
ENDROOT
BRANCH   1  10
ATOM     10  C   UNL d   1       2.057  -1.477   0.016  0.00  0.00     0.063 A 
ATOM     11  C   UNL d   1       2.228  -2.395  -1.028  0.00  0.00     0.068 A 
ATOM     12  C   UNL d   1       3.430  -3.083  -1.192  0.00  0.00     0.070 A 
ATOM     13  C   UNL d   1       4.463  -2.876  -0.277  0.00  0.00     0.037 A 
ATOM     14  C   UNL d   1       4.312  -1.963   0.765  0.00  0.00     0.005 A 
ATOM     15  C   UNL d   1       3.122  -1.244   0.896  0.00  0.00     0.032 A 
BRANCH  12  16
ATOM     16  O   UNL d   1       3.714  -3.958  -2.204  0.00  0.00    -0.356 OA
ATOM     17  C   UNL d   1       2.698  -4.154  -3.184  0.00  0.00     0.210 C 
ENDBRANCH  12  16
ENDBRANCH   1  10
TORSDOF 2
