REMARK  6 active torsions:
REMARK  status: ('A' for Active; 'I' for Inactive)
REMARK    1  A    between atoms: N_5  and  N_1 
REMARK       I    between atoms: C_3  and  N_5 
REMARK    2  A    between atoms: O_9  and  C_3 
REMARK    3  A    between atoms: C_6  and  C_4 
REMARK    4  A    between atoms: C_8  and  C_4 
REMARK    5  A    between atoms: C_10  and  C_6 
REMARK    6  A    between atoms: C_13  and  O_9 
ROOT
ATOM      1  N   UNL d   1       1.033   0.111  -0.215  0.00  0.00    -0.299 N 
ATOM      2  HN  UNL d   1       0.460  -0.215  -0.993  1.00  0.00     0.186 HD
ATOM      3  C   UNL d   1       0.485   0.422   0.927  0.00  0.00     0.040 C 
ENDROOT
BRANCH   3   4
ATOM      4  C   UNL d   1       1.263   0.761   2.197  0.00  0.00     0.098 C 
BRANCH   4   5
ATOM      5  C   UNL d   1       1.405   2.235   2.494  0.00  0.00    -0.052 A 
ATOM      6  C   UNL d   1       1.434   2.656   3.833  0.00  0.00     0.007 A 
ATOM      7  C   UNL d   1       1.522   4.011   4.153  0.00  0.00     0.001 A 
ATOM      8  C   UNL d   1       1.602   4.960   3.139  0.00  0.00     0.000 A 
ATOM      9  C   UNL d   1       1.610   4.555   1.806  0.00  0.00     0.001 A 
ATOM     10  C   UNL d   1       1.519   3.199   1.484  0.00  0.00     0.007 A 
ENDBRANCH   4   5
ENDBRANCH   3   4
BRANCH   3  11
ATOM     11  C   UNL d   1      -1.011   0.359   1.023  0.00  0.00    -0.012 A 
ATOM     12  C   UNL d   1      -1.702  -0.518   0.176  0.00  0.00     0.013 A 
ATOM     13  C   UNL d   1      -3.093  -0.611   0.244  0.00  0.00     0.001 A 
ATOM     14  C   UNL d   1      -3.802   0.177   1.151  0.00  0.00     0.000 A 
ATOM     15  C   UNL d   1      -3.120   1.060   1.985  0.00  0.00     0.001 A 
ATOM     16  C   UNL d   1      -1.730   1.153   1.924  0.00  0.00     0.013 A 
ENDBRANCH   3  11
BRANCH   1  17
ATOM     17  N   UNL d   1       2.379   0.226  -0.350  0.00  0.00    -0.245 N 
ATOM     18  C   UNL d   1       3.083  -0.584  -1.204  0.00  0.00     0.379 C 
ATOM     19  O   UNL d   1       2.635  -1.472  -1.914  0.00  0.00    -0.237 OA
ATOM     20  H   UNL d   1       2.920   0.829   0.255  0.00  0.00     0.192 HD
BRANCH  18  21
ATOM     21  O   UNL d   1       4.406  -0.307  -1.047  0.00  0.00    -0.303 OA
BRANCH  21  22
ATOM     22  C   UNL d   1       5.310  -1.312  -1.522  0.00  0.00     0.176 C 
ATOM     23  C   UNL d   1       5.568  -2.282  -0.382  0.00  0.00     0.034 C 
ENDBRANCH  21  22
ENDBRANCH  18  21
ENDBRANCH   1  17
TORSDOF 6
