REMARK  1 active torsions:
REMARK  status: ('A' for Active; 'I' for Inactive)
REMARK    1  A    between atoms: C_2  and  C_1 
REMARK       I    between atoms: N_3  and  C_2 
ROOT
ATOM      1  C   UNL d   1       1.662  -2.900  -0.234  0.00  0.00     0.261 C 
ATOM      2  N   UNL d   1       1.208  -4.235  -0.343  0.00  0.00    -0.307 N 
ATOM      3  C   UNL d   1       2.097  -5.286   0.168  0.00  0.00     0.098 C 
ATOM      4  N   UNL d   1      -0.599  -6.596   0.372  0.00  0.00    -0.325 N 
ATOM      5  C   UNL d   1       0.073  -4.657  -1.102  0.00  0.00     0.064 A 
ATOM      6  C   UNL d   1       0.347  -6.758   1.323  0.00  0.00     0.224 C 
ATOM      7  C   UNL d   1       1.557  -5.889   1.446  0.00  0.00     0.128 C 
ATOM      8  C   UNL d   1      -0.739  -5.752  -0.744  0.00  0.00     0.061 A 
ATOM      9  O   UNL d   1       2.813  -2.635   0.113  0.00  0.00    -0.267 OA
ATOM     10  O   UNL d   1       0.156  -7.652   2.156  0.00  0.00    -0.273 OA
ATOM     11  C   UNL d   1       2.543  -6.293  -0.899  0.00  0.00     0.033 C 
ATOM     12  C   UNL d   1      -0.195  -4.000  -2.322  0.00  0.00     0.032 A 
ATOM     13  C   UNL d   1      -1.832  -6.090  -1.569  0.00  0.00     0.032 A 
ATOM     14  C   UNL d   1      -1.261  -4.371  -3.141  0.00  0.00     0.002 A 
ATOM     15  C   UNL d   1      -2.091  -5.410  -2.757  0.00  0.00     0.002 A 
ATOM     16  H   UNL d   1      -1.316  -7.304   0.490  0.00  0.00     0.169 HD
ENDROOT
BRANCH   1  17
ATOM     17  C   UNL d   1       0.713  -1.799  -0.439  0.00  0.00     0.063 A 
ATOM     18  C   UNL d   1       1.037  -0.633  -1.105  0.00  0.00     0.091 A 
ATOM     19  S   UNL d   1      -0.225   0.501  -1.170  0.00  0.00    -0.065 SA
ATOM     20 CL   UNL d   1       2.513  -0.233  -1.902  0.00  0.00    -0.075 Cl
ATOM     21  C   UNL d   1      -1.234  -0.524  -0.286  0.00  0.00     0.077 A 
ATOM     22  C   UNL d   1      -0.642  -1.716   0.055  0.00  0.00     0.050 A 
ATOM     23 CL   UNL d   1      -2.829  -0.025   0.101  0.00  0.00    -0.076 Cl
ENDBRANCH   1  17
TORSDOF 1
