REMARK  2 active torsions:
REMARK  status: ('A' for Active; 'I' for Inactive)
REMARK       I    between atoms: N_3  and  C_1 
REMARK       I    between atoms: N_4  and  C_1 
REMARK    1  A    between atoms: C_2  and  N_3 
REMARK    2  A    between atoms: C_8  and  C_13 
REMARK       I    between atoms: N_17  and  C_8 
ROOT
ATOM      1  C   UNL d   1       1.113  -0.117   0.087  0.00  0.00     0.322 C 
ATOM      2  N   UNL d   1       0.625   0.283  -1.135  0.00  0.00    -0.307 N 
ATOM      3  N   UNL d   1       0.270  -0.970   0.787  0.00  0.00    -0.334 N 
ATOM      4  O   UNL d   1       2.175   0.288   0.565  0.00  0.00    -0.247 OA
ATOM      5  C   UNL d   1      -0.850  -1.731   0.223  0.00  0.00     0.128 C 
ATOM      6  C   UNL d   1       0.651  -1.360   2.139  0.00  0.00     0.128 C 
ATOM      7  C   UNL d   1      -1.758  -2.001   2.586  0.00  0.00     0.081 C 
ATOM      8  C   UNL d   1      -2.077  -1.627   1.129  0.00  0.00     0.034 C 
ATOM      9  C   UNL d   1      -0.537  -1.216   3.086  0.00  0.00     0.034 C 
ATOM     10  H   UNL d   1      -0.376   0.381  -1.162  0.00  0.00     0.170 HD
ENDROOT
BRANCH   2  11
ATOM     11  C   UNL d   1       1.316   1.172  -1.954  0.00  0.00     0.054 A 
ATOM     12  C   UNL d   1       0.671   2.273  -2.623  0.00  0.00     0.008 A 
ATOM     13  C   UNL d   1       1.581   3.009  -3.381  0.00  0.00     0.017 A 
ATOM     14  C   UNL d   1      -0.672   2.724  -2.564  0.00  0.00     0.015 A 
ATOM     15  C   UNL d   1       1.186   4.155  -4.095  0.00  0.00     0.020 A 
ATOM     16  S   UNL d   1       3.165   2.339  -3.296  0.00  0.00    -0.099 SA
ATOM     17  C   UNL d   1      -0.147   4.577  -4.014  0.00  0.00     0.001 A 
ATOM     18  C   UNL d   1      -1.068   3.876  -3.247  0.00  0.00     0.001 A 
ATOM     19  C   UNL d   1       2.667   1.116  -2.218  0.00  0.00     0.081 A 
ENDBRANCH   2  11
BRANCH   7  20
ATOM     20  C   UNL d   1      -1.572  -3.507   2.742  0.00  0.00     0.219 C 
ATOM     21  O   UNL d   1      -1.683  -4.313   1.825  0.00  0.00    -0.273 OA
ATOM     22  N   UNL d   1      -1.301  -3.942   4.005  0.00  0.00    -0.370 N 
ATOM     23  H   UNL d   1      -1.219  -3.333   4.806  0.00  0.00     0.159 HD
ATOM     24  H   UNL d   1      -1.182  -4.937   4.141  0.00  0.00     0.159 HD
ENDBRANCH   7  20
TORSDOF 2
