REMARK  4 active torsions:
REMARK  status: ('A' for Active; 'I' for Inactive)
REMARK       I    between atoms: N_3  and  C_1 
REMARK    1  A    between atoms: C_4  and  C_1 
REMARK    2  A    between atoms: N_6  and  N_3 
REMARK    3  A    between atoms: O_5  and  C_4 
REMARK    4  A    between atoms: C_7  and  O_5 
ROOT
ATOM      1  C   UNL d   1       2.443  -0.700   0.297  0.00  0.00     0.279 C 
ENDROOT
BRANCH   1   2
ATOM      2  C   UNL d   1       0.937  -0.524   0.103  0.00  0.00     0.255 C 
ATOM      3  O   UNL d   1       0.160  -0.361   1.044  0.00  0.00    -0.270 OA
ATOM      4  N   UNL d   1       0.526  -0.576  -1.222  0.00  0.00    -0.292 N 
ATOM      5  H   UNL d   1       1.242  -0.576  -1.950  0.00  0.00     0.183 HD
BRANCH   4   6
ATOM      6  N   UNL d   1      -0.825  -0.357  -1.556  0.00  0.00    -0.247 NA
ATOM      7  H   UNL d   1      -1.310  -0.090  -0.687  0.00  0.00     0.143 HD
ATOM      8  H   UNL d   1      -1.237  -1.260  -1.805  0.00  0.00     0.143 HD
ENDBRANCH   4   6
ENDBRANCH   1   2
BRANCH   1   9
ATOM      9  O   UNL d   1       3.083  -0.932  -0.955  0.00  0.00    -0.342 OA
BRANCH   9  10
ATOM     10  C   UNL d   1       4.415  -1.236  -0.927  0.00  0.00     0.069 A 
ATOM     11  C   UNL d   1       5.238  -1.227   0.197  0.00  0.00     0.037 A 
ATOM     12  C   UNL d   1       6.590  -1.563   0.077  0.00  0.00     0.003 A 
ATOM     13  C   UNL d   1       7.122  -1.908  -1.165  0.00  0.00     0.000 A 
ATOM     14  C   UNL d   1       6.305  -1.916  -2.290  0.00  0.00     0.003 A 
ATOM     15  C   UNL d   1       4.955  -1.580  -2.170  0.00  0.00     0.037 A 
ENDBRANCH   9  10
ENDBRANCH   1   9
TORSDOF 4
