REMARK  3 active torsions:
REMARK  status: ('A' for Active; 'I' for Inactive)
REMARK    1  A    between atoms: O_4  and  C_1 
REMARK       I    between atoms: C_2  and  N_3 
REMARK    2  A    between atoms: N_3  and  C_9 
REMARK    3  A    between atoms: C_10  and  O_4 
ROOT
ATOM      1  C   UNL d   1       1.845  -4.702   1.853  0.00  0.00     0.034 A 
ATOM      2  C   UNL d   1       0.963  -2.045   1.488  0.00  0.00     0.078 A 
ATOM      3  C   UNL d   1       0.518  -4.351   2.115  0.00  0.00     0.032 A 
ATOM      4  C   UNL d   1       2.709  -3.723   1.362  0.00  0.00     0.032 A 
ATOM      5  C   UNL d   1       0.081  -3.036   1.930  0.00  0.00     0.039 A 
ATOM      6  C   UNL d   1       2.269  -2.405   1.165  0.00  0.00     0.039 A 
ENDROOT
BRANCH   1   7
ATOM      7  N   UNL d   1       2.222  -6.040   2.107  0.00  0.00    -0.328 N 
ATOM      8  C   UNL d   1       3.482  -6.589   1.975  0.00  0.00     0.218 C 
ATOM      9  O   UNL d   1       4.504  -6.019   1.608  0.00  0.00    -0.274 OA
ATOM     10  C   UNL d   1       3.529  -8.058   2.333  0.00  0.00     0.117 C 
ATOM     11  H   UNL d   1       1.488  -6.645   2.451  0.00  0.00     0.169 HD
ENDBRANCH   1   7
BRANCH   2  12
ATOM     12  O   UNL d   1       0.421  -0.800   1.407  0.00  0.00    -0.255 OA
BRANCH  12  13
ATOM     13  C   UNL d   1       1.279   0.330   1.461  0.00  0.00     0.530 C 
ATOM     14  F   UNL d   1       2.444   0.094   2.100  0.00  0.00    -0.144 F 
ATOM     15  F   UNL d   1       0.638   1.314   2.134  0.00  0.00    -0.144 F 
ATOM     16  F   UNL d   1       1.536   0.772   0.212  0.00  0.00    -0.144 F 
ENDBRANCH  12  13
ENDBRANCH   2  12
TORSDOF 3
