REMARK  6 active torsions:
REMARK  status: ('A' for Active; 'I' for Inactive)
REMARK    1  A    between atoms: C_4  and  S_1 
REMARK    2  A    between atoms: N_5  and  S_1 
REMARK    3  A    between atoms: C_3  and  C_2 
REMARK    4  A    between atoms: N_7  and  N_5 
REMARK    5  A    between atoms: C_6  and  N_7 
REMARK    6  A    between atoms: C_12  and  C_6 
ROOT
ATOM      1  N   UNL d   1       0.353  -1.028  -1.222  0.00  0.00    -0.221 N 
ATOM      2  H   UNL d   1      -0.587  -1.381  -1.030  0.00  0.00     0.200 HD
ENDROOT
BRANCH   1   3
ATOM      3  S   UNL d   1       0.936  -0.013  -0.009  0.00  0.00     0.277 S 
ATOM      4  O   UNL d   1       0.009  -0.036   1.099  0.00  0.00    -0.199 OA
ATOM      5  O   UNL d   1       2.343  -0.310   0.161  0.00  0.00    -0.199 OA
BRANCH   3   6
ATOM      6  C   UNL d   1       0.801   1.602  -0.761  0.00  0.00     0.096 A 
ATOM      7  C   UNL d   1      -0.425   2.131  -1.207  0.00  0.00     0.071 A 
ATOM      8  C   UNL d   1      -0.422   3.452  -1.712  0.00  0.00     0.018 A 
ATOM      9  C   UNL d   1       0.750   4.208  -1.781  0.00  0.00     0.001 A 
ATOM     10  C   UNL d   1       1.953   3.659  -1.357  0.00  0.00     0.002 A 
ATOM     11  C   UNL d   1       1.981   2.363  -0.848  0.00  0.00     0.026 A 
BRANCH   7  12
ATOM     12  C   UNL d   1      -1.759   1.421  -1.202  0.00  0.00     0.419 C 
ATOM     13  F   UNL d   1      -1.766   0.117  -0.825  0.00  0.00    -0.166 F 
ATOM     14  F   UNL d   1      -2.665   2.043  -0.398  0.00  0.00    -0.166 F 
ATOM     15  F   UNL d   1      -2.321   1.422  -2.447  0.00  0.00    -0.166 F 
ENDBRANCH   7  12
ENDBRANCH   3   6
ENDBRANCH   1   3
BRANCH   1  16
ATOM     16  N   UNL d   1       0.998  -1.091  -2.520  0.00  0.00    -0.274 N 
ATOM     17  H   UNL d   1       1.977  -0.801  -2.618  0.00  0.00     0.189 HD
BRANCH  16  18
ATOM     18  C   UNL d   1       0.304  -1.468  -3.645  0.00  0.00     0.141 C 
ATOM     19  N   UNL d   1      -0.970  -1.713  -3.668  0.00  0.00    -0.383 N 
ATOM     20  H   UNL d   1      -1.354  -1.579  -2.732  0.00  0.00     0.157 HD
ATOM     21  HN  UNL d   1      -1.503  -1.996  -4.491  1.00  0.00     0.157 HD
BRANCH  18  22
ATOM     22  C   UNL d   1       1.092  -1.559  -4.925  0.00  0.00     0.077 A 
ATOM     23  N   UNL d   1       2.423  -1.301  -4.809  0.00  0.00    -0.363 N 
ATOM     24  C   UNL d   1       3.150  -1.407  -5.944  0.00  0.00     0.088 A 
ATOM     25  HN  UNL d   1       2.847  -1.043  -3.918  1.00  0.00     0.165 HD
ATOM     26  C   UNL d   1       2.612  -1.744  -7.178  0.00  0.00     0.017 A 
ATOM     27  C   UNL d   1       1.244  -1.980  -7.267  0.00  0.00     0.004 A 
ATOM     28  C   UNL d   1       0.464  -1.886  -6.120  0.00  0.00     0.033 A 
ENDBRANCH  18  22
ENDBRANCH  16  18
ENDBRANCH   1  16
TORSDOF 6
