REMARK  2 active torsions:
REMARK  status: ('A' for Active; 'I' for Inactive)
REMARK    1  A    between atoms: O_11  and  C_9 
REMARK    2  A    between atoms: C_14  and  O_11 
ROOT
ATOM      1  C   UNL d   1      -0.403   1.009   0.034  0.00  0.00     0.147 A 
ATOM      2  C   UNL d   1      -0.867  -0.273   0.016  0.00  0.00     0.151 A 
ATOM      3  N   UNL d   1      -1.410   1.919   0.008  0.00  0.00    -0.305 N 
ATOM      4  HN  UNL d   1      -1.334   2.936   0.029  1.00  0.00     0.171 HD
ATOM      5  N   UNL d   1       0.939   1.296   0.055  0.00  0.00    -0.287 N 
ATOM      6  N   UNL d   1       1.354  -1.058   0.039  0.00  0.00    -0.269 N 
ATOM      7  C   UNL d   1       1.866   0.252   0.044  0.00  0.00     0.332 A 
ATOM      8  C   UNL d   1      -0.004  -1.404   0.032  0.00  0.00     0.282 A 
ATOM      9  C   UNL d   1      -2.508   1.194  -0.051  0.00  0.00     0.233 A 
ATOM     10  N   UNL d   1      -2.229  -0.153  -0.039  0.00  0.00    -0.309 N 
ATOM     11  O   UNL d   1       3.079   0.478   0.033  0.00  0.00    -0.246 OA
ATOM     12  O   UNL d   1      -0.410  -2.561   0.035  0.00  0.00    -0.265 OA
ATOM     13  C   UNL d   1       1.427   2.662   0.048  0.00  0.00     0.163 C 
ATOM     14  C   UNL d   1       2.293  -2.163   0.030  0.00  0.00     0.164 C 
ATOM     15  C   UNL d   1      -3.207  -1.205  -0.151  0.00  0.00     0.160 C 
ENDROOT
BRANCH   9  16
ATOM     16  O   UNL d   1      -3.753   1.662  -0.128  0.00  0.00    -0.278 OA
BRANCH  16  17
ATOM     17  C   UNL d   1      -3.998   2.908  -0.662  0.00  0.00     0.096 A 
ATOM     18  C   UNL d   1      -5.004   3.703  -0.103  0.00  0.00     0.044 A 
ATOM     19 BR   UNL d   1      -5.967   3.150   1.435  0.00  0.00    -0.048 Br
ATOM     20  C   UNL d   1      -5.319   4.940  -0.675  0.00  0.00     0.022 A 
ATOM     21  C   UNL d   1      -4.636   5.381  -1.810  0.00  0.00     0.002 A 
ATOM     22  C   UNL d   1      -3.640   4.589  -2.375  0.00  0.00     0.003 A 
ATOM     23  C   UNL d   1      -3.328   3.353  -1.810  0.00  0.00     0.039 A 
ENDBRANCH  16  17
ENDBRANCH   9  16
TORSDOF 2
