REMARK  6 active torsions:
REMARK  status: ('A' for Active; 'I' for Inactive)
REMARK    1  A    between atoms: N_2  and  C_1 
REMARK       I    between atoms: C_5  and  N_2 
REMARK    2  A    between atoms: C_8  and  C_5 
REMARK    3  A    between atoms: C_9  and  C_6 
REMARK    4  A    between atoms: C_12  and  C_9 
REMARK    5  A    between atoms: O_18  and  C_12 
REMARK    6  A    between atoms: C_19  and  O_18 
ROOT
ATOM      1  C   UNL d   1       0.366  -1.131  -0.088  0.00  0.00     0.151 A 
ATOM      2  N   UNL d   1       1.511  -0.504  -0.158  0.00  0.00    -0.339 N 
ATOM      3  HN  UNL d   1       2.420  -0.956  -0.256  1.00  0.00     0.168 HD
ATOM      4  C   UNL d   1       1.309   0.866  -0.080  0.00  0.00     0.027 A 
ATOM      5  S   UNL d   1      -1.023  -0.153   0.060  0.00  0.00    -0.064 SA
ATOM      6  C   UNL d   1      -0.023   1.240  -0.011  0.00  0.00     0.078 A 
ENDROOT
BRANCH   1   7
ATOM      7  N   UNL d   1       0.109  -2.471  -0.121  0.00  0.00    -0.302 N 
ATOM      8  C   UNL d   1       1.082  -3.408  -0.388  0.00  0.00     0.264 C 
ATOM      9  O   UNL d   1       2.255  -3.149  -0.642  0.00  0.00    -0.267 OA
ATOM     10  H   UNL d   1      -0.847  -2.764   0.008  0.00  0.00     0.171 HD
BRANCH   8  11
ATOM     11  C   UNL d   1       0.608  -4.794  -0.395  0.00  0.00     0.072 A 
ATOM     12  S   UNL d   1      -0.986  -5.238   0.058  0.00  0.00    -0.097 SA
ATOM     13  C   UNL d   1      -0.685  -6.896  -0.239  0.00  0.00     0.050 A 
ATOM     14  C   UNL d   1       0.603  -7.117  -0.669  0.00  0.00     0.009 A 
ATOM     15  C   UNL d   1       1.350  -5.908  -0.751  0.00  0.00     0.025 A 
ENDBRANCH   8  11
ENDBRANCH   1   7
BRANCH   4  16
ATOM     16  C   UNL d   1       2.505   1.760  -0.127  0.00  0.00     0.168 C 
BRANCH  16  17
ATOM     17  C   UNL d   1       2.601   2.694   1.059  0.00  0.00     0.264 C 
ATOM     18  O   UNL d   1       1.731   2.893   1.897  0.00  0.00    -0.265 OA
BRANCH  17  19
ATOM     19  O   UNL d   1       3.808   3.336   1.030  0.00  0.00    -0.322 OA
BRANCH  19  20
ATOM     20  C   UNL d   1       4.046   4.270   2.094  0.00  0.00     0.174 C 
ATOM     21  C   UNL d   1       4.585   3.549   3.315  0.00  0.00     0.034 C 
ENDBRANCH  19  20
ENDBRANCH  17  19
ENDBRANCH  16  17
ENDBRANCH   4  16
TORSDOF 6
