REMARK  11 active torsions:
REMARK  status: ('A' for Active; 'I' for Inactive)
REMARK    1  A    between atoms: C1*_3  and  N_1 
REMARK    2  A    between atoms: N_17  and  C_2 
REMARK    3  A    between atoms: C2*_8  and  O2*_24 
REMARK    4  A    between atoms: C3*_10  and  O3*_26 
REMARK    5  A    between atoms: C4*_11  and  C5*_27 
REMARK    6  A    between atoms: N_25  and  C_14 
REMARK    7  A    between atoms: N_18  and  N_17 
REMARK    8  A    between atoms: C_21  and  C_23 
REMARK    9  A    between atoms: O_28  and  C_22 
REMARK   10  A    between atoms: O5*_29  and  C5*_27 
REMARK   11  A    between atoms: C_32  and  O_28 
ROOT
ATOM      1  N   UNL d   1       1.550   1.196  -0.106  0.00  0.00    -0.134 N 
ATOM      2  C   UNL d   1       2.356   0.063  -0.122  0.00  0.00     0.703 C 
ATOM      3  C   UNL d   1       0.263   0.762   0.130  0.00  0.00     0.158 A 
ATOM      4  N   UNL d   1       1.649  -1.018   0.134  0.00  0.00    -0.182 N 
ATOM      5  HN  UNL d   1       2.003  -1.965   0.270  1.00  0.00     0.184 HD
ATOM      6  C   UNL d   1       0.347  -0.614   0.180  0.00  0.00     0.137 A 
ATOM      7  N   UNL d   1      -0.862   1.491   0.165  0.00  0.00    -0.336 N 
ATOM      8  HN  UNL d   1      -0.892   2.511   0.142  1.00  0.00     0.168 HD
ATOM      9  C   UNL d   1      -0.851  -1.339   0.190  0.00  0.00     0.131 A 
ATOM     10  N   UNL d   1      -2.012  -0.656   0.241  0.00  0.00    -0.337 N 
ATOM     11  HN  UNL d   1      -2.907  -1.143   0.282  1.00  0.00     0.168 HD
ATOM     12  C   UNL d   1      -1.953   0.694   0.235  0.00  0.00     0.183 A 
ENDROOT
BRANCH   2  13
ATOM     13  N   UNL d   1       3.672   0.099  -0.451  0.00  0.00    -0.132 N 
ATOM     14  H   UNL d   1       4.211   0.930  -0.231  0.00  0.00     0.205 HD
BRANCH  13  15
ATOM     15  N   UNL d   1       4.470  -0.961  -0.785  0.00  0.00    -0.297 N 
ATOM     16  C   UNL d   1       3.934  -2.062  -1.219  0.00  0.00     0.121 C 
ATOM     17  HN  UNL d   1       5.483  -0.886  -0.694  1.00  0.00     0.186 HD
BRANCH  16  18
ATOM     18  C   UNL d   1       4.784  -3.203  -1.609  0.00  0.00     0.014 A 
ATOM     19  C   UNL d   1       4.343  -4.537  -1.515  0.00  0.00     0.080 A 
ATOM     20  C   UNL d   1       5.214  -5.549  -1.931  0.00  0.00     0.037 A 
ATOM     21  C   UNL d   1       6.501  -5.251  -2.383  0.00  0.00     0.003 A 
ATOM     22  C   UNL d   1       6.932  -3.931  -2.459  0.00  0.00     0.001 A 
ATOM     23  C   UNL d   1       6.075  -2.906  -2.079  0.00  0.00     0.015 A 
BRANCH  19  24
ATOM     24  O   UNL d   1       3.085  -4.784  -1.007  0.00  0.00    -0.351 OA
BRANCH  24  25
ATOM     25  C   UNL d   1       2.865  -6.129  -0.562  0.00  0.00     0.171 C 
ATOM     26  C   UNL d   1       1.596  -6.218   0.268  0.00  0.00     0.034 C 
ENDBRANCH  24  25
ENDBRANCH  19  24
ENDBRANCH  16  18
ENDBRANCH  13  15
ENDBRANCH   2  13
BRANCH   1  27
ATOM     27  C1* UNL d   1       1.913   2.485  -0.645  0.00  0.00     0.279 C 
ATOM     28  C2* UNL d   1       1.365   3.759   0.016  0.00  0.00     0.199 C 
ATOM     29  C3* UNL d   1       0.294   4.255  -0.947  0.00  0.00     0.182 C 
ATOM     30  C4* UNL d   1       0.728   3.680  -2.290  0.00  0.00     0.179 C 
ATOM     31  O4* UNL d   1       1.520   2.506  -2.032  0.00  0.00    -0.353 OA
BRANCH  28  32
ATOM     32  O2* UNL d   1       2.396   4.774   0.117  0.00  0.00    -0.388 OA
ATOM     33  H2* UNL d   1       2.929   4.768  -0.701  0.00  0.00     0.210 HD
ENDBRANCH  28  32
BRANCH  29  34
ATOM     34  O3* UNL d   1       0.236   5.682  -1.007  0.00  0.00    -0.390 OA
ATOM     35  H3* UNL d   1       1.008   6.017  -0.508  0.00  0.00     0.210 HD
ENDBRANCH  29  34
BRANCH  30  36
ATOM     36  C5* UNL d   1      -0.442   3.309  -3.207  0.00  0.00     0.198 C 
BRANCH  36  37
ATOM     37  O5* UNL d   1      -1.344   2.396  -2.590  0.00  0.00    -0.398 OA
ATOM     38  H5* UNL d   1      -0.806   1.713  -2.145  0.00  0.00     0.209 HD
ENDBRANCH  36  37
ENDBRANCH  30  36
ENDBRANCH   1  27
BRANCH   9  39
ATOM     39  N   UNL d   1      -0.882  -2.717   0.069  0.00  0.00    -0.383 N 
ATOM     40  H   UNL d   1      -0.004  -3.198   0.229  0.00  0.00     0.157 HD
ATOM     41  H   UNL d   1      -1.760  -3.161   0.279  0.00  0.00     0.157 HD
ENDBRANCH   9  39
TORSDOF 11
