REMARK  7 active torsions:
REMARK  status: ('A' for Active; 'I' for Inactive)
REMARK    1  A    between atoms: C_8  and  C_3 
REMARK    2  A    between atoms: C_15  and  N_4 
REMARK    3  A    between atoms: C_18  and  C_8 
REMARK    4  A    between atoms: O_20  and  C_12 
REMARK    5  A    between atoms: O_21  and  C_14 
REMARK    6  A    between atoms: C_27  and  O_20 
REMARK    7  A    between atoms: C_26  and  O_21 
ROOT
ATOM      1  C   UNL d   1      -0.514   2.518   0.262  0.00  0.00     0.138 C 
ATOM      2  N   UNL d   1      -1.842   2.239   0.833  0.00  0.00    -0.232 NA
ATOM      3  C   UNL d   1      -2.613   3.253   0.246  0.00  0.00     0.151 C 
ATOM      4  N   UNL d   1      -0.840   3.261  -0.985  0.00  0.00    -0.262 N 
ATOM      5  N   UNL d   1      -2.116   3.794  -0.843  0.00  0.00    -0.282 N 
ATOM      6  HN  UNL d   1      -2.573   4.467  -1.458  1.00  0.00     0.188 HD
ATOM      7  C   UNL d   1       0.439   1.351   0.131  0.00  0.00    -0.004 C 
ATOM      8  C   UNL d   1       0.074   0.051   0.503  0.00  0.00    -0.044 C 
ATOM      9  C   UNL d   1       1.761   1.601  -0.276  0.00  0.00     0.051 C 
ATOM     10  C   UNL d   1      -2.342   0.871   0.652  0.00  0.00     0.105 C 
ATOM     11  C   UNL d   1       2.746   0.623  -0.205  0.00  0.00     0.102 C 
ATOM     12  C   UNL d   1       1.049  -0.969   0.473  0.00  0.00     0.047 C 
ATOM     13  C   UNL d   1       2.381  -0.686   0.131  0.00  0.00     0.102 C 
ATOM     14  C   UNL d   1      -1.313  -0.205   1.034  0.00  0.00     0.054 C 
ATOM     15  C   UNL d   1       0.135   3.535   1.260  0.00  0.00     0.064 C 
ENDROOT
BRANCH   3  16
ATOM     16  C   UNL d   1      -3.833   3.882   0.897  0.00  0.00     0.221 C 
ATOM     17  O   UNL d   1      -4.664   3.186   1.461  0.00  0.00    -0.284 OA
BRANCH  16  18
ATOM     18  C   UNL d   1      -3.823   5.368   0.981  0.00  0.00     0.017 A 
ATOM     19  C   UNL d   1      -3.731   6.147  -0.179  0.00  0.00     0.015 A 
ATOM     20  C   UNL d   1      -3.537   7.526  -0.083  0.00  0.00     0.001 A 
ATOM     21  C   UNL d   1      -3.453   8.130   1.171  0.00  0.00     0.000 A 
ATOM     22  C   UNL d   1      -3.579   7.360   2.329  0.00  0.00     0.001 A 
ATOM     23  C   UNL d   1      -3.770   5.977   2.239  0.00  0.00     0.015 A 
ENDBRANCH  16  18
ENDBRANCH   3  16
BRANCH   4  24
ATOM     24  C   UNL d   1      -0.589   2.811  -2.284  0.00  0.00     0.053 A 
ATOM     25  C   UNL d   1      -0.880   1.519  -2.744  0.00  0.00     0.031 A 
ATOM     26  C   UNL d   1      -0.637   1.148  -4.068  0.00  0.00     0.002 A 
ATOM     27  C   UNL d   1      -0.103   2.066  -4.965  0.00  0.00     0.000 A 
ATOM     28  C   UNL d   1       0.181   3.361  -4.536  0.00  0.00     0.002 A 
ATOM     29  C   UNL d   1      -0.072   3.727  -3.211  0.00  0.00     0.031 A 
ENDBRANCH   4  24
BRANCH  11  30
ATOM     30  O   UNL d   1       4.075   0.891  -0.442  0.00  0.00    -0.349 OA
BRANCH  30  31
ATOM     31  C   UNL d   1       4.480   2.236  -0.169  0.00  0.00     0.171 C 
ATOM     32  C   UNL d   1       5.987   2.281   0.001  0.00  0.00     0.034 C 
ENDBRANCH  30  31
ENDBRANCH  11  30
BRANCH  13  33
ATOM     33  O   UNL d   1       3.409  -1.591   0.182  0.00  0.00    -0.349 OA
BRANCH  33  34
ATOM     34  C   UNL d   1       3.085  -2.968   0.037  0.00  0.00     0.171 C 
ATOM     35  C   UNL d   1       4.395  -3.721  -0.130  0.00  0.00     0.034 C 
ENDBRANCH  33  34
ENDBRANCH  13  33
TORSDOF 7
