REMARK  5 active torsions:
REMARK  status: ('A' for Active; 'I' for Inactive)
REMARK    1  A    between atoms: C_7  and  C_1 
REMARK    2  A    between atoms: C_9  and  N_2 
REMARK    3  A    between atoms: O_8  and  C_7 
REMARK    4  A    between atoms: C_11  and  O_8 
REMARK    5  A    between atoms: O_19  and  C_13 
ROOT
ATOM      1  C   UNL d   1      -0.103  -1.217   0.216  0.00  0.00     0.087 C 
ATOM      2  N   UNL d   1       1.143   0.636   0.181  0.00  0.00    -0.260 N 
ATOM      3  N   UNL d   1      -0.116   1.055   0.452  0.00  0.00    -0.297 N 
ATOM      4  HN  UNL d   1      -0.418   2.006   0.665  1.00  0.00     0.187 HD
ATOM      5  C   UNL d   1       1.210  -0.749   0.140  0.00  0.00     0.049 C 
ATOM      6  C   UNL d   1      -0.880  -0.044   0.380  0.00  0.00     0.041 C 
ATOM      7  C   UNL d   1       2.474  -1.539   0.090  0.00  0.00     0.071 C 
ATOM      8  C   UNL d   1      -2.353   0.116   0.493  0.00  0.00     0.071 C 
ENDROOT
BRANCH   1   9
ATOM      9  C   UNL d   1      -0.483  -2.628   0.142  0.00  0.00     0.302 C 
ATOM     10  O   UNL d   1       0.344  -3.533   0.162  0.00  0.00    -0.259 OA
BRANCH   9  11
ATOM     11  O   UNL d   1      -1.859  -2.828   0.004  0.00  0.00    -0.275 OA
BRANCH  11  12
ATOM     12  C   UNL d   1      -2.385  -4.063  -0.448  0.00  0.00     0.079 A 
ATOM     13  C   UNL d   1      -1.681  -4.940  -1.274  0.00  0.00     0.040 A 
ATOM     14  C   UNL d   1      -2.328  -6.045  -1.835  0.00  0.00     0.039 A 
ATOM     15  C   UNL d   1      -3.686  -6.255  -1.604  0.00  0.00     0.068 A 
ATOM     16  C   UNL d   1      -4.370  -5.408  -0.727  0.00  0.00     0.039 A 
ATOM     17  C   UNL d   1      -3.725  -4.309  -0.149  0.00  0.00     0.040 A 
BRANCH  15  18
ATOM     18  O   UNL d   1      -4.443  -7.236  -2.185  0.00  0.00    -0.356 OA
ATOM     19  C   UNL d   1      -3.892  -7.843  -3.352  0.00  0.00     0.210 C 
ENDBRANCH  15  18
ENDBRANCH  11  12
ENDBRANCH   9  11
ENDBRANCH   1   9
BRANCH   2  20
ATOM     20  C   UNL d   1       2.178   1.597  -0.007  0.00  0.00     0.056 A 
ATOM     21  C   UNL d   1       3.263   1.343  -0.857  0.00  0.00     0.031 A 
ATOM     22  C   UNL d   1       4.288   2.282  -0.984  0.00  0.00     0.002 A 
ATOM     23  C   UNL d   1       4.233   3.479  -0.271  0.00  0.00     0.000 A 
ATOM     24  C   UNL d   1       3.135   3.755   0.543  0.00  0.00     0.002 A 
ATOM     25  C   UNL d   1       2.099   2.825   0.662  0.00  0.00     0.031 A 
ENDBRANCH   2  20
TORSDOF 5
