REMARK  4 active torsions:
REMARK  status: ('A' for Active; 'I' for Inactive)
REMARK    1  A    between atoms: C_10  and  C_7 
REMARK       I    between atoms: N_13  and  C_10 
REMARK    2  A    between atoms: N_11  and  C_14 
REMARK    3  A    between atoms: C_22  and  N_13 
REMARK    4  A    between atoms: C_24  and  C_22 
ROOT
ATOM      1  C   UNL d   1       2.007   1.706  -1.438  0.00  0.00     0.258 C 
ATOM      2  N   UNL d   1       2.842   2.773  -1.195  0.00  0.00    -0.352 N 
ATOM      3  O   UNL d   1       1.661   0.935  -0.543  0.00  0.00    -0.267 OA
ATOM      4  H   UNL d   1       3.096   3.365  -1.974  0.00  0.00     0.163 HD
ENDROOT
BRANCH   2   5
ATOM      5  C   UNL d   1       3.384   3.082   0.104  0.00  0.00     0.161 C 
BRANCH   5   6
ATOM      6  C   UNL d   1       4.214   4.338   0.039  0.00  0.00    -0.040 A 
ATOM      7  C   UNL d   1       3.623   5.588   0.234  0.00  0.00     0.011 A 
ATOM      8  C   UNL d   1       4.382   6.758   0.124  0.00  0.00     0.030 A 
ATOM      9  C   UNL d   1       5.748   6.736  -0.199  0.00  0.00     0.030 A 
ATOM     10  C   UNL d   1       6.323   5.475  -0.401  0.00  0.00     0.030 A 
ATOM     11  C   UNL d   1       5.573   4.293  -0.288  0.00  0.00     0.011 A 
BRANCH   9  12
ATOM     12  N   UNL d   1       6.439   7.919  -0.377  0.00  0.00    -0.378 N 
ATOM     13  C   UNL d   1       7.657   8.006  -1.196  0.00  0.00     0.153 C 
ATOM     14  C   UNL d   1       7.715   9.396  -1.883  0.00  0.00     0.291 C 
ATOM     15  N   UNL d   1       7.616  10.524  -0.926  0.00  0.00     0.087 N 
ATOM     16  C   UNL d   1       6.382  10.370  -0.119  0.00  0.00     0.291 C 
ATOM     17  C   UNL d   1       7.607  11.801  -1.635  0.00  0.00     0.310 C 
ATOM     18  C   UNL d   1       6.324   9.008   0.611  0.00  0.00     0.153 C 
ENDBRANCH   9  12
ENDBRANCH   5   6
ENDBRANCH   2   5
BRANCH   1  19
ATOM     19  C   UNL d   1       1.579   1.567  -2.827  0.00  0.00     0.075 A 
ATOM     20  S   UNL d   1       2.122   2.723  -4.030  0.00  0.00    -0.065 SA
ATOM     21  C   UNL d   1       1.283   1.911  -5.198  0.00  0.00     0.104 A 
ATOM     22  C   UNL d   1       0.620   0.839  -4.760  0.00  0.00     0.024 A 
ATOM     23  N   UNL d   1       1.051   1.994  -6.526  0.00  0.00    -0.289 N 
ATOM     24  C   UNL d   1       0.750   0.588  -3.392  0.00  0.00     0.041 A 
ATOM     25  C   UNL d   1      -0.029   0.265  -5.851  0.00  0.00     0.035 A 
ATOM     26  C   UNL d   1      -0.895  -0.929  -5.951  0.00  0.00     0.070 C 
ATOM     27  N   UNL d   1       0.242   0.992  -6.963  0.00  0.00    -0.302 N 
ATOM     28  HN  UNL d   1      -0.087   0.825  -7.914  1.00  0.00     0.187 HD
ATOM     29  C   UNL d   1       1.558   2.976  -7.447  0.00  0.00     0.178 C 
ENDBRANCH   1  19
TORSDOF 4
