REMARK  4 active torsions:
REMARK  status: ('A' for Active; 'I' for Inactive)
REMARK    1  A    between atoms: C_12  and  C_2 
REMARK    2  A    between atoms: C_5  and  C_6 
REMARK       I    between atoms: C_6  and  N_11 
REMARK    3  A    between atoms: N_11  and  C_16 
REMARK    4  A    between atoms: C_16  and  C_17 
ROOT
ATOM      1  C   UNL d   1       2.442  -1.667   0.024  0.00  0.00    -0.008 A 
ATOM      2  C   UNL d   1       2.590  -2.587  -1.023  0.00  0.00     0.014 A 
ATOM      3  C   UNL d   1       3.441  -1.605   1.004  0.00  0.00     0.014 A 
ATOM      4  C   UNL d   1       4.722  -3.338  -0.125  0.00  0.00    -0.040 A 
ATOM      5  C   UNL d   1       3.717  -3.415  -1.098  0.00  0.00     0.010 A 
ATOM      6  C   UNL d   1       4.566  -2.434   0.933  0.00  0.00     0.010 A 
ENDROOT
BRANCH   4   7
ATOM      7  C   UNL d   1       5.936  -4.228  -0.194  0.00  0.00     0.161 C 
BRANCH   7   8
ATOM      8  N   UNL d   1       5.736  -5.460   0.531  0.00  0.00    -0.356 N 
ATOM      9  C   UNL d   1       6.750  -6.377   0.639  0.00  0.00     0.222 C 
ATOM     10  O   UNL d   1       7.863  -6.231   0.147  0.00  0.00    -0.273 OA
ATOM     11  H   UNL d   1       4.817  -5.673   0.894  0.00  0.00     0.162 HD
BRANCH   9  12
ATOM     12  C   UNL d   1       6.392  -7.606   1.400  0.00  0.00     0.078 A 
ATOM     13  C   UNL d   1       7.466  -8.575   1.843  0.00  0.00     0.015 A 
ATOM     14  C   UNL d   1       6.519  -8.962   0.745  0.00  0.00     0.015 A 
ENDBRANCH   9  12
ENDBRANCH   7   8
ENDBRANCH   4   7
BRANCH   1  15
ATOM     15  C   UNL d   1       1.258  -0.817   0.084  0.00  0.00     0.063 A 
ATOM     16  N   UNL d   1       0.049  -1.224  -0.473  0.00  0.00    -0.292 N 
ATOM     17  N   UNL d   1      -0.905  -0.323  -0.302  0.00  0.00    -0.061 NA
ATOM     18  HN  UNL d   1      -0.086  -2.112  -0.956  1.00  0.00     0.183 HD
ATOM     19  S   UNL d   1      -0.375   1.038   0.510  0.00  0.00    -0.010 SA
ATOM     20  C   UNL d   1       1.225   0.438   0.669  0.00  0.00     0.096 A 
ENDBRANCH   1  15
TORSDOF 4
