REMARK  3 active torsions:
REMARK  status: ('A' for Active; 'I' for Inactive)
REMARK    1  A    between atoms: C_8  and  N_1 
REMARK    2  A    between atoms: C_4  and  C_2 
REMARK    3  A    between atoms: C_17  and  C_8 
ROOT
ATOM      1  N   UNL d   1      -2.418   0.705   0.324  0.00  0.00     0.131 N 
ATOM      2  C   UNL d   1      -1.192   1.442  -0.069  0.00  0.00     0.490 C 
ATOM      3  N   UNL d   1       0.047   0.697   0.274  0.00  0.00     0.131 N 
ATOM      4  C   UNL d   1      -2.440  -0.597  -0.353  0.00  0.00     0.278 C 
ATOM      5  C   UNL d   1       0.051  -0.655  -0.337  0.00  0.00     0.228 C 
ATOM      6  C   UNL d   1      -1.220  -1.438  -0.009  0.00  0.00     0.066 C 
ATOM      7  C   UNL d   1       1.259   1.416  -0.192  0.00  0.00     0.276 C 
ATOM      8  C   UNL d   1       1.279  -1.450   0.140  0.00  0.00     0.036 C 
ATOM      9  C   UNL d   1       2.537   0.704   0.257  0.00  0.00     0.030 C 
ATOM     10  C   UNL d   1       2.571  -0.735  -0.233  0.00  0.00     0.004 C 
ENDROOT
BRANCH   2  11
ATOM     11  C   UNL d   1      -1.207   2.891   0.454  0.00  0.00     0.007 A 
ATOM     12  C   UNL d   1      -1.699   3.925  -0.360  0.00  0.00     0.036 A 
ATOM     13  C   UNL d   1      -1.666   5.258   0.073  0.00  0.00     0.056 A 
ATOM     14 CL   UNL d   1      -2.241   6.470  -1.016  0.00  0.00    -0.083 Cl
ATOM     15  C   UNL d   1      -1.161   5.570   1.340  0.00  0.00     0.055 A 
ATOM     16  C   UNL d   1      -0.695   4.550   2.171  0.00  0.00     0.026 A 
ATOM     17 CL   UNL d   1      -1.069   7.191   1.931  0.00  0.00    -0.083 Cl
ATOM     18  C   UNL d   1      -0.717   3.226   1.730  0.00  0.00     0.013 A 
ENDBRANCH   2  11
BRANCH   1  19
ATOM     19  C   UNL d   1      -2.590   0.596   1.785  0.00  0.00     0.314 C 
BRANCH  19  20
ATOM     20  C   UNL d   1      -3.836  -0.134   2.255  0.00  0.00    -0.030 A 
ATOM     21  C   UNL d   1      -3.726  -1.309   3.015  0.00  0.00     0.009 A 
ATOM     22  C   UNL d   1      -4.864  -1.934   3.531  0.00  0.00     0.001 A 
ATOM     23  C   UNL d   1      -6.125  -1.389   3.295  0.00  0.00     0.000 A 
ATOM     24  C   UNL d   1      -6.249  -0.230   2.531  0.00  0.00     0.001 A 
ATOM     25  C   UNL d   1      -5.113   0.392   2.010  0.00  0.00     0.009 A 
ENDBRANCH  19  20
ENDBRANCH   1  19
TORSDOF 3
