REMARK  2 active torsions:
REMARK  status: ('A' for Active; 'I' for Inactive)
REMARK    1  A    between atoms: C_2  and  N_1 
REMARK    2  A    between atoms: C_4  and  C_3 
ROOT
ATOM      1  C   UNL d   1      -1.853   0.011   0.258  0.00  0.00    -0.012 A 
ATOM      2  C   UNL d   1      -1.683  -0.815   1.380  0.00  0.00     0.044 A 
ATOM      3 CL   UNL d   1      -0.546  -0.434   2.624  0.00  0.00    -0.083 Cl
ATOM      4  C   UNL d   1      -2.809  -0.340  -0.708  0.00  0.00     0.013 A 
ATOM      5  C   UNL d   1      -2.440  -1.982   1.517  0.00  0.00     0.024 A 
ATOM      6  C   UNL d   1      -3.566  -1.505  -0.564  0.00  0.00     0.001 A 
ATOM      7  C   UNL d   1      -3.376  -2.329   0.543  0.00  0.00     0.002 A 
ENDROOT
BRANCH   1   8
ATOM      8  C   UNL d   1      -1.045   1.218   0.027  0.00  0.00     0.044 C 
ATOM      9  C   UNL d   1      -1.401   2.449   0.435  0.00  0.00     0.077 C 
ATOM     10  C   UNL d   1      -2.618   2.849   1.205  0.00  0.00     0.075 C 
BRANCH   9  11
ATOM     11  N   UNL d   1      -0.497   3.538   0.078  0.00  0.00    -0.120 N 
ATOM     12  O   UNL d   1       0.703   3.277  -0.076  0.00  0.00    -0.532 OA
ATOM     13  O   UNL d   1      -0.996   4.663  -0.060  0.00  0.00    -0.532 OA
ENDBRANCH   9  11
ENDBRANCH   1   8
TORSDOF 2
