REMARK  7 active torsions:
REMARK  status: ('A' for Active; 'I' for Inactive)
REMARK    1  A    between atoms: C_5  and  S_1 
REMARK    2  A    between atoms: N_11  and  S_1 
REMARK    3  A    between atoms: C_3  and  C_9 
REMARK    4  A    between atoms: C_4  and  C_10 
REMARK    5  A    between atoms: C_6  and  C_19 
REMARK    6  A    between atoms: C_28  and  N_11 
REMARK    7  A    between atoms: C_29  and  C_28 
ROOT
ATOM      1  S   UNL d   1       1.024   0.009   0.049  0.00  0.00     0.259 S 
ATOM      2  O   UNL d   1       0.138   0.973   0.667  0.00  0.00    -0.201 OA
ATOM      3  O   UNL d   1       2.455   0.053   0.238  0.00  0.00    -0.201 OA
ENDROOT
BRANCH   1   4
ATOM      4  C   UNL d   1       0.704   0.050  -1.706  0.00  0.00     0.081 A 
ATOM      5  C   UNL d   1      -0.539   0.498  -2.167  0.00  0.00     0.041 A 
ATOM      6  C   UNL d   1      -0.789   0.593  -3.545  0.00  0.00     0.050 A 
ATOM      7  C   UNL d   1       0.234   0.242  -4.446  0.00  0.00     0.032 A 
ATOM      8  C   UNL d   1       1.499  -0.175  -3.990  0.00  0.00     0.050 A 
ATOM      9  C   UNL d   1       1.724  -0.274  -2.608  0.00  0.00     0.041 A 
BRANCH   6  10
ATOM     10  C   UNL d   1      -2.123   1.079  -4.069  0.00  0.00     0.417 C 
ATOM     11  F   UNL d   1      -2.978   1.479  -3.089  0.00  0.00    -0.166 F 
ATOM     12  F   UNL d   1      -1.994   2.138  -4.913  0.00  0.00    -0.166 F 
ATOM     13  F   UNL d   1      -2.779   0.115  -4.770  0.00  0.00    -0.166 F 
ENDBRANCH   6  10
BRANCH   8  14
ATOM     14  C   UNL d   1       2.597  -0.477  -4.987  0.00  0.00     0.417 C 
ATOM     15  F   UNL d   1       3.778  -0.818  -4.404  0.00  0.00    -0.166 F 
ATOM     16  F   UNL d   1       2.275  -1.507  -5.815  0.00  0.00    -0.166 F 
ATOM     17  F   UNL d   1       2.867   0.586  -5.793  0.00  0.00    -0.166 F 
ENDBRANCH   8  14
ENDBRANCH   1   4
BRANCH   1  18
ATOM     18  N   UNL d   1       0.478  -1.501   0.490  0.00  0.00    -0.311 N 
ATOM     19  H   UNL d   1      -0.482  -1.579   0.816  0.00  0.00     0.172 HD
BRANCH  18  20
ATOM     20  C   UNL d   1       1.223  -2.683   0.094  0.00  0.00     0.170 C 
BRANCH  20  21
ATOM     21  C   UNL d   1       0.577  -3.956   0.583  0.00  0.00    -0.040 A 
ATOM     22  C   UNL d   1      -0.417  -4.579  -0.182  0.00  0.00     0.010 A 
ATOM     23  C   UNL d   1      -0.985  -5.785   0.238  0.00  0.00     0.014 A 
ATOM     24  C   UNL d   1      -0.576  -6.396   1.432  0.00  0.00    -0.008 A 
ATOM     25  C   UNL d   1       0.388  -5.750   2.218  0.00  0.00     0.014 A 
ATOM     26  C   UNL d   1       0.954  -4.538   1.801  0.00  0.00     0.010 A 
BRANCH  24  27
ATOM     27  C   UNL d   1      -1.162  -7.676   1.813  0.00  0.00     0.063 A 
ATOM     28  N   UNL d   1      -2.436  -8.037   1.385  0.00  0.00    -0.292 N 
ATOM     29  N   UNL d   1      -2.780  -9.242   1.805  0.00  0.00    -0.061 NA
ATOM     30  HN  UNL d   1      -3.035  -7.441   0.813  1.00  0.00     0.183 HD
ATOM     31  S   UNL d   1      -1.583  -9.981   2.708  0.00  0.00    -0.010 SA
ATOM     32  C   UNL d   1      -0.516  -8.643   2.567  0.00  0.00     0.096 A 
ENDBRANCH  24  27
ENDBRANCH  20  21
ENDBRANCH  18  20
ENDBRANCH   1  18
TORSDOF 7
