REMARK  4 active torsions:
REMARK  status: ('A' for Active; 'I' for Inactive)
REMARK    1  A    between atoms: C_2  and  N_1 
REMARK    2  A    between atoms: C_3  and  C_2 
REMARK    3  A    between atoms: C_5  and  C_3 
REMARK    4  A    between atoms: O_6  and  C_3 
ROOT
ATOM      1  C   UNL d   1      -2.164   1.414  -2.203  0.00  0.00     0.179 C 
ENDROOT
BRANCH   1   2
ATOM      2  C   UNL d   1      -1.496   0.137  -1.613  0.00  0.00     0.309 C 
BRANCH   2   3
ATOM      3  N   UNL d   1      -1.485  -0.027  -0.145  0.00  0.00     0.095 N 
ATOM      4  C   UNL d   1      -2.837  -0.144   0.445  0.00  0.00     0.298 C 
ATOM      5  C   UNL d   1      -3.529  -1.488   0.162  0.00  0.00     0.198 C 
ATOM      6  O   UNL d   1      -2.727  -2.589   0.606  0.00  0.00    -0.388 OA
ATOM      7  C   UNL d   1      -1.437  -2.562  -0.016  0.00  0.00     0.198 C 
ATOM      8  C   UNL d   1      -0.712  -1.230   0.249  0.00  0.00     0.298 C 
ENDBRANCH   2   3
ENDBRANCH   1   2
BRANCH   1   9
ATOM      9  C   UNL d   1      -1.538   2.767  -1.911  0.00  0.00    -0.028 A 
ATOM     10  C   UNL d   1      -0.431   2.945  -1.072  0.00  0.00     0.010 A 
ATOM     11  C   UNL d   1       0.157   4.205  -0.920  0.00  0.00     0.001 A 
ATOM     12  C   UNL d   1      -0.358   5.307  -1.599  0.00  0.00     0.000 A 
ATOM     13  C   UNL d   1      -1.482   5.160  -2.404  0.00  0.00     0.001 A 
ATOM     14  C   UNL d   1      -2.073   3.904  -2.549  0.00  0.00     0.010 A 
ENDBRANCH   1   9
BRANCH   1  15
ATOM     15  O   UNL d   1      -2.158   1.236  -3.635  0.00  0.00    -0.389 OA
ATOM     16  H   UNL d   1      -1.389   1.724  -3.976  0.00  0.00     0.210 HD
ENDBRANCH   1  15
TORSDOF 4
