REMARK  2 active torsions:
REMARK  status: ('A' for Active; 'I' for Inactive)
REMARK    1  A    between atoms: N_3  and  C_1 
REMARK    2  A    between atoms: C_2  and  N_3 
ROOT
ATOM      1  C   UNL d   1       2.779   1.399   0.402  0.00  0.00     0.078 A 
ATOM      2  C   UNL d   1       3.856   1.392  -0.505  0.00  0.00     0.062 A 
ATOM      3  C   UNL d   1       2.645   2.527   1.234  0.00  0.00     0.062 A 
ATOM      4 CL   UNL d   1       1.280   2.741   2.284  0.00  0.00    -0.082 Cl
ATOM      5 CL   UNL d   1       4.066   0.101  -1.643  0.00  0.00    -0.082 Cl
ATOM      6  C   UNL d   1       4.666   3.516   0.329  0.00  0.00     0.003 A 
ATOM      7  C   UNL d   1       3.593   3.560   1.219  0.00  0.00     0.026 A 
ATOM      8  C   UNL d   1       4.787   2.440  -0.543  0.00  0.00     0.026 A 
ENDROOT
BRANCH   1   9
ATOM      9  N   UNL d   1       1.824   0.357   0.364  0.00  0.00    -0.334 N 
ATOM     10  HN  UNL d   1       1.235   0.255  -0.462  1.00  0.00     0.168 HD
BRANCH   9  11
ATOM     11  C   UNL d   1       1.676  -0.471   1.347  0.00  0.00     0.140 C 
ATOM     12  N   UNL d   1       0.752  -1.472   1.330  0.00  0.00    -0.370 N 
ATOM     13  C   UNL d   1       0.806  -2.409   2.430  0.00  0.00     0.132 C 
ATOM     14  H   UNL d   1       0.453  -1.777   0.412  0.00  0.00     0.161 HD
ATOM     15  C   UNL d   1       1.328  -1.607   3.618  0.00  0.00     0.102 C 
ATOM     16  S   UNL d   1       2.585  -0.522   2.861  0.00  0.00    -0.093 SA
ENDBRANCH   9  11
ENDBRANCH   1   9
TORSDOF 2
