REMARK  3 active torsions:
REMARK  status: ('A' for Active; 'I' for Inactive)
REMARK    1  A    between atoms: C_4  and  C_8 
REMARK    2  A    between atoms: S_5  and  C_4 
REMARK    3  A    between atoms: C_18  and  C_10 
ROOT
ATOM      1  C   UNL d   1      -0.834   1.951  -2.016  0.00  0.00     0.139 C 
ATOM      2  C   UNL d   1      -1.628   2.765  -2.853  0.00  0.00     0.111 C 
ATOM      3  N   UNL d   1      -2.337   3.382  -3.539  0.00  0.00    -0.191 NA
ENDROOT
BRANCH   1   4
ATOM      4  C   UNL d   1      -1.414   1.089  -1.160  0.00  0.00     0.047 C 
ATOM      5  C   UNL d   1      -0.773   0.188  -0.229  0.00  0.00    -0.022 C 
ATOM      6  C   UNL d   1      -0.393  -1.096  -0.463  0.00  0.00    -0.009 C 
ATOM      7  C   UNL d   1      -0.576   0.470   1.199  0.00  0.00     0.020 C 
ATOM      8  C   UNL d   1       0.329  -1.513   0.734  0.00  0.00    -0.018 C 
ATOM      9  C   UNL d   1      -0.864  -2.009  -1.488  0.00  0.00    -0.050 C 
ATOM     10  C   UNL d   1       1.282  -2.457   0.795  0.00  0.00     0.020 C 
ATOM     11  C   UNL d   1      -0.038  -0.604   1.802  0.00  0.00    -0.050 C 
ATOM     12  C   UNL d   1       1.815  -3.271  -0.300  0.00  0.00    -0.054 C 
ATOM     13  C   UNL d   1       1.168  -3.493  -1.465  0.00  0.00     0.008 C 
ATOM     14  C   UNL d   1      -0.155  -3.082  -1.880  0.00  0.00     0.008 C 
ATOM     15  C   UNL d   1      -0.029  -0.913   3.253  0.00  0.00     0.049 C 
ATOM     16  C   UNL d   1      -2.326  -1.915  -1.853  0.00  0.00     0.049 C 
BRANCH  12  17
ATOM     17  C   UNL d   1       3.158  -4.009  -0.089  0.00  0.00     0.010 C 
ATOM     18  C   UNL d   1       4.264  -3.505  -1.028  0.00  0.00     0.015 C 
ATOM     19  C   UNL d   1       3.715  -4.056   1.342  0.00  0.00     0.015 C 
ENDBRANCH  12  17
ENDBRANCH   1   4
BRANCH   1  20
ATOM     20  S   UNL d   1       0.890   2.134  -2.177  0.00  0.00     0.181 S 
ATOM     21  O   UNL d   1       1.174   3.394  -2.847  0.00  0.00    -0.222 OA
ATOM     22  O   UNL d   1       1.575   1.840  -0.934  0.00  0.00    -0.222 OA
ATOM     23  C   UNL d   1       1.300   0.854  -3.338  0.00  0.00     0.168 C 
ENDBRANCH   1  20
TORSDOF 3
