REMARK  4 active torsions:
REMARK  status: ('A' for Active; 'I' for Inactive)
REMARK    1  A    between atoms: C_9  and  N_1 
REMARK    2  A    between atoms: C_2  and  C_8 
REMARK    3  A    between atoms: C_8  and  O_12 
REMARK    4  A    between atoms: O_12  and  C_15 
ROOT
ATOM      1  C   UNL d   1      -2.044   3.506   4.917  0.00  0.00    -0.021 C 
ATOM      2  C   UNL d   1      -2.699   3.599   3.658  0.00  0.00    -0.047 C 
ATOM      3  C   UNL d   1      -1.823   4.698   5.662  0.00  0.00    -0.047 C 
ATOM      4  C   UNL d   1      -2.929   4.872   3.070  0.00  0.00    -0.049 C 
ATOM      5  C   UNL d   1      -2.724   6.061   3.821  0.00  0.00    -0.049 C 
ATOM      6  C   UNL d   1      -2.206   5.971   5.134  0.00  0.00    -0.049 C 
ATOM      7  C   UNL d   1      -1.214   4.656   7.051  0.00  0.00     0.049 C 
ATOM      8  C   UNL d   1      -3.106   7.378   3.175  0.00  0.00     0.049 C 
ATOM      9  C   UNL d   1      -3.173   2.365   2.921  0.00  0.00     0.049 C 
ATOM     10  C   UNL d   1      -2.044   7.186   6.024  0.00  0.00     0.049 C 
ATOM     11  C   UNL d   1      -3.424   4.986   1.639  0.00  0.00     0.049 C 
ENDROOT
BRANCH   1  12
ATOM     12  C   UNL d   1      -1.651   2.145   5.494  0.00  0.00     0.215 C 
BRANCH  12  13
ATOM     13  O   UNL d   1      -0.242   2.054   5.757  0.00  0.00    -0.347 OA
BRANCH  13  14
ATOM     14  C   UNL d   1       0.188   0.915   6.393  0.00  0.00     0.069 A 
ATOM     15  C   UNL d   1       1.544   0.905   6.741  0.00  0.00     0.039 A 
ATOM     16  C   UNL d   1       2.107  -0.184   7.414  0.00  0.00     0.039 A 
ATOM     17  C   UNL d   1       1.302  -1.283   7.739  0.00  0.00     0.103 A 
ATOM     18  C   UNL d   1      -0.052  -1.293   7.383  0.00  0.00     0.039 A 
ATOM     19  C   UNL d   1      -0.602  -0.196   6.710  0.00  0.00     0.039 A 
BRANCH  17  20
ATOM     20  N   UNL d   1       1.874  -2.428   8.460  0.00  0.00    -0.116 N 
ATOM     21  O   UNL d   1       1.121  -3.375   8.726  0.00  0.00    -0.532 OA
ATOM     22  O   UNL d   1       3.075  -2.377   8.765  0.00  0.00    -0.532 OA
ENDBRANCH  17  20
ENDBRANCH  13  14
ENDBRANCH  12  13
ENDBRANCH   1  12
TORSDOF 4
