REMARK  2 active torsions:
REMARK  status: ('A' for Active; 'I' for Inactive)
REMARK    1  A    between atoms: C_4  and  C_3 
REMARK    2  A    between atoms: C_10  and  C_5 
ROOT
ATOM      1  N   UNL d   1       1.381  -0.591   0.106  0.00  0.00    -0.349 N 
ATOM      2  HN  UNL d   1       2.244  -1.111   0.262  1.00  0.00     0.166 HD
ATOM      3  C   UNL d   1       0.188  -1.133  -0.030  0.00  0.00     0.085 A 
ATOM      4  C   UNL d   1       1.295   0.791   0.009  0.00  0.00     0.050 A 
ATOM      5  S   UNL d   1      -1.108  -0.013  -0.194  0.00  0.00    -0.081 SA
ATOM      6  C   UNL d   1       0.010   1.281  -0.115  0.00  0.00     0.082 A 
ENDROOT
BRANCH   4   7
ATOM      7  C   UNL d   1       2.490   1.628   0.030  0.00  0.00    -0.009 A 
ATOM      8  C   UNL d   1       2.534   2.858  -0.647  0.00  0.00     0.017 A 
ATOM      9  C   UNL d   1       3.700   3.628  -0.646  0.00  0.00     0.043 A 
ATOM     10  C   UNL d   1       4.824   3.171   0.031  0.00  0.00     0.116 A 
ATOM     11  C   UNL d   1       4.805   1.959   0.708  0.00  0.00     0.043 A 
ATOM     12  F   UNL d   1       5.942   3.909   0.022  0.00  0.00    -0.206 F 
ATOM     13  C   UNL d   1       3.639   1.186   0.705  0.00  0.00     0.017 A 
ENDBRANCH   4   7
BRANCH   3  14
ATOM     14  C   UNL d   1      -0.009  -2.625  -0.056  0.00  0.00     0.005 A 
ATOM     15  C   UNL d   1       1.037  -3.501   0.150  0.00  0.00     0.063 A 
ATOM     16  S   UNL d   1       0.543  -5.137   0.050  0.00  0.00    -0.113 SA
ATOM     17  C   UNL d   1      -1.074  -4.686  -0.279  0.00  0.00     0.050 A 
ATOM     18  C   UNL d   1      -1.235  -3.317  -0.300  0.00  0.00     0.022 A 
ENDBRANCH   3  14
TORSDOF 2
