REMARK  2 active torsions:
REMARK  status: ('A' for Active; 'I' for Inactive)
REMARK    1  A    between atoms: N_2  and  C_1 
REMARK    2  A    between atoms: C_6  and  C_9 
ROOT
ATOM      1  C   UNL d   1       0.624  -3.597   0.674  0.00  0.00     0.125 C 
ATOM      2  N   UNL d   1       2.791  -3.159   2.010  0.00  0.00    -0.191 NA
ATOM      3  N   UNL d   1      -0.263  -6.020   0.537  0.00  0.00    -0.191 NA
ATOM      4  C   UNL d   1       1.815  -3.362   1.416  0.00  0.00     0.111 C 
ATOM      5  C   UNL d   1       0.143  -4.935   0.609  0.00  0.00     0.111 C 
ENDROOT
BRANCH   1   6
ATOM      6  C   UNL d   1      -0.077  -2.625   0.054  0.00  0.00     0.052 C 
ATOM      7  C   UNL d   1       0.282  -1.243   0.018  0.00  0.00     0.009 A 
ATOM      8  S   UNL d   1      -0.986  -0.065   0.028  0.00  0.00    -0.066 SA
ATOM      9  C   UNL d   1       1.515  -0.613  -0.063  0.00  0.00     0.022 A 
ATOM     10  C   UNL d   1       0.109   1.228  -0.020  0.00  0.00     0.144 A 
ATOM     11  C   UNL d   1       1.419   0.812  -0.070  0.00  0.00     0.045 A 
BRANCH  10  12
ATOM     12  N   UNL d   1      -0.357   2.591  -0.017  0.00  0.00    -0.108 N 
ATOM     13  O   UNL d   1       0.517   3.469  -0.040  0.00  0.00    -0.531 OA
ATOM     14  O   UNL d   1      -1.577   2.793   0.007  0.00  0.00    -0.531 OA
ENDBRANCH  10  12
ENDBRANCH   1   6
TORSDOF 2
