REMARK  1 active torsions:
REMARK  status: ('A' for Active; 'I' for Inactive)
REMARK    1  A    between atoms: C_10  and  C_4 
ROOT
ATOM      1  C   UNL d   1      -2.436   0.560  -0.398  0.00  0.00     0.018 C 
ATOM      2  C   UNL d   1      -1.267   1.450  -0.201  0.00  0.00     0.193 C 
ATOM      3  C   UNL d   1       0.014   0.731  -0.029  0.00  0.00     0.051 A 
ATOM      4  C   UNL d   1      -3.430   0.974  -1.202  0.00  0.00     0.024 C 
ATOM      5  O   UNL d   1      -1.111  -1.436  -0.091  0.00  0.00    -0.346 OA
ATOM      6  C   UNL d   1       0.021  -0.669  -0.024  0.00  0.00     0.083 A 
ATOM      7  C   UNL d   1      -2.297  -0.745   0.316  0.00  0.00     0.218 C 
ATOM      8  C   UNL d   1       1.212   1.444   0.037  0.00  0.00     0.060 A 
ATOM      9  O   UNL d   1      -1.341   2.670  -0.208  0.00  0.00    -0.287 OA
ATOM     10  C   UNL d   1       1.231  -1.361   0.001  0.00  0.00     0.041 A 
ATOM     11  C   UNL d   1       2.409   0.740   0.079  0.00  0.00     0.117 A 
ATOM     12  C   UNL d   1       2.431  -0.653   0.052  0.00  0.00     0.045 A 
ATOM     13  F   UNL d   1       3.567   1.411   0.123  0.00  0.00    -0.206 F 
ENDROOT
BRANCH   4  14
ATOM     14  C   UNL d   1      -4.541   0.093  -1.558  0.00  0.00    -0.035 A 
ATOM     15  C   UNL d   1      -5.710   0.081  -0.793  0.00  0.00     0.013 A 
ATOM     16  C   UNL d   1      -6.713  -0.851  -1.069  0.00  0.00     0.024 A 
ATOM     17  C   UNL d   1      -6.545  -1.766  -2.108  0.00  0.00     0.034 A 
ATOM     18  C   UNL d   1      -5.391  -1.747  -2.888  0.00  0.00     0.024 A 
ATOM     19 CL   UNL d   1      -7.762  -2.943  -2.415  0.00  0.00    -0.084 Cl
ATOM     20  C   UNL d   1      -4.388  -0.815  -2.614  0.00  0.00     0.013 A 
ENDBRANCH   4  14
TORSDOF 1
