REMARK  4 active torsions:
REMARK  status: ('A' for Active; 'I' for Inactive)
REMARK    1  A    between atoms: C_8  and  C_1 
REMARK    2  A    between atoms: C_9  and  C_7 
REMARK    3  A    between atoms: N_10  and  C_11 
REMARK       I    between atoms: C_14  and  N_10 
REMARK    4  A    between atoms: C_21  and  C_14 
ROOT
ATOM      1  C   UNL d   1      -0.730   2.440  -0.116  0.00  0.00     0.017 A 
ATOM      2  C   UNL d   1      -1.628   5.127   0.119  0.00  0.00     0.040 A 
ATOM      3  C   UNL d   1      -1.538   2.840   0.958  0.00  0.00     0.025 A 
ATOM      4  C   UNL d   1      -1.994   4.170   1.090  0.00  0.00    -0.034 A 
ATOM      5  C   UNL d   1      -0.404   3.393  -1.083  0.00  0.00     0.018 A 
ATOM      6  C   UNL d   1      -0.850   4.714  -0.966  0.00  0.00     0.031 A 
ATOM      7  C   UNL d   1      -2.853   4.509   2.280  0.00  0.00     0.050 C 
ENDROOT
BRANCH   1   8
ATOM      8  C   UNL d   1      -0.242   1.070  -0.201  0.00  0.00     0.174 A 
ATOM      9  O   UNL d   1       0.606   0.768  -1.236  0.00  0.00    -0.269 OA
ATOM     10  C   UNL d   1       0.890  -0.556  -1.002  0.00  0.00     0.249 A 
ATOM     11  N   UNL d   1       0.271  -1.017   0.069  0.00  0.00    -0.274 N 
ATOM     12  N   UNL d   1      -0.459   0.035   0.585  0.00  0.00    -0.277 N 
ATOM     13  HN  UNL d   1       0.321  -1.965   0.442  1.00  0.00     0.189 HD
ATOM     14  HN  UNL d   1      -1.052   0.016   1.415  1.00  0.00     0.189 HD
BRANCH  10  15
ATOM     15  C   UNL d   1       1.817  -1.240  -1.941  0.00  0.00     0.457 C 
ATOM     16  F   UNL d   1       2.257  -0.418  -2.934  0.00  0.00    -0.163 F 
ATOM     17  F   UNL d   1       2.931  -1.712  -1.317  0.00  0.00    -0.163 F 
ATOM     18  F   UNL d   1       1.236  -2.304  -2.558  0.00  0.00    -0.163 F 
ENDBRANCH  10  15
ENDBRANCH   1   8
BRANCH   2  19
ATOM     19  N   UNL d   1      -2.060   6.470   0.261  0.00  0.00    -0.327 N 
ATOM     20  C   UNL d   1      -1.648   7.561  -0.487  0.00  0.00     0.221 C 
ATOM     21  O   UNL d   1      -0.782   7.571  -1.357  0.00  0.00    -0.273 OA
ATOM     22  H   UNL d   1      -2.690   6.663   1.028  0.00  0.00     0.169 HD
BRANCH  20  23
ATOM     23  C   UNL d   1      -2.344   8.849  -0.097  0.00  0.00     0.098 C 
ATOM     24  C   UNL d   1      -1.627   9.526   1.054  0.00  0.00     0.014 C 
ENDBRANCH  20  23
ENDBRANCH   2  19
TORSDOF 4
