REMARK  9 active torsions:
REMARK  status: ('A' for Active; 'I' for Inactive)
REMARK    1  A    between atoms: C_15  and  C_1 
REMARK    2  A    between atoms: C_16  and  C_2 
REMARK    3  A    between atoms: S_12  and  C_5 
REMARK       I    between atoms: C_9  and  N_14 
REMARK    4  A    between atoms: C_24  and  C_9 
REMARK    5  A    between atoms: C_10  and  C_23 
REMARK       I    between atoms: N_13  and  C_10 
REMARK    6  A    between atoms: C_11  and  O_18 
REMARK    7  A    between atoms: C_23  and  S_12 
REMARK    8  A    between atoms: N_14  and  N_13 
REMARK    9  A    between atoms: O_18  and  C_24 
ROOT
ATOM      1  C   UNL d   1      -1.612   4.885   0.362  0.00  0.00     0.245 C 
ATOM      2  N   UNL d   1      -0.464   5.555  -0.060  0.00  0.00    -0.267 N 
ATOM      3  O   UNL d   1      -2.518   5.446   0.976  0.00  0.00    -0.271 OA
ATOM      4  H   UNL d   1       0.296   5.086  -0.540  0.00  0.00     0.190 HD
ENDROOT
BRANCH   1   5
ATOM      5  C   UNL d   1      -1.577   3.377   0.077  0.00  0.00     0.187 C 
BRANCH   5   6
ATOM      6  S   UNL d   1      -3.250   2.730  -0.169  0.00  0.00    -0.077 SA
BRANCH   6   7
ATOM      7  C   UNL d   1      -3.041   1.002  -0.072  0.00  0.00     0.188 A 
ATOM      8  N   UNL d   1      -1.890   0.361  -0.086  0.00  0.00    -0.328 N 
ATOM      9  C   UNL d   1      -2.252  -0.982  -0.059  0.00  0.00     0.080 A 
ATOM     10  HN  UNL d   1      -0.951   0.758  -0.112  1.00  0.00     0.168 HD
ATOM     11  C   UNL d   1      -3.632  -1.089   0.037  0.00  0.00     0.116 A 
ATOM     12  O   UNL d   1      -4.134   0.179   0.003  0.00  0.00    -0.285 OA
BRANCH   9  13
ATOM     13  C   UNL d   1      -1.308  -2.089  -0.117  0.00  0.00    -0.006 A 
ATOM     14  C   UNL d   1      -1.613  -3.280  -0.798  0.00  0.00     0.014 A 
ATOM     15  C   UNL d   1      -0.755  -4.380  -0.744  0.00  0.00     0.001 A 
ATOM     16  C   UNL d   1       0.444  -4.289  -0.047  0.00  0.00     0.000 A 
ATOM     17  C   UNL d   1       0.790  -3.094   0.584  0.00  0.00     0.001 A 
ATOM     18  C   UNL d   1      -0.081  -1.999   0.550  0.00  0.00     0.014 A 
ENDBRANCH   9  13
BRANCH  11  19
ATOM     19  C   UNL d   1      -4.605  -2.172   0.134  0.00  0.00     0.000 A 
ATOM     20  C   UNL d   1      -4.352  -3.308   0.912  0.00  0.00     0.014 A 
ATOM     21  C   UNL d   1      -5.211  -4.411   0.880  0.00  0.00     0.001 A 
ATOM     22  C   UNL d   1      -6.358  -4.371   0.090  0.00  0.00     0.000 A 
ATOM     23  C   UNL d   1      -6.653  -3.227  -0.645  0.00  0.00     0.001 A 
ATOM     24  C   UNL d   1      -5.785  -2.132  -0.620  0.00  0.00     0.014 A 
ENDBRANCH  11  19
ENDBRANCH   6   7
ENDBRANCH   5   6
ENDBRANCH   1   5
BRANCH   2  25
ATOM     25  N   UNL d   1      -0.367   6.947   0.093  0.00  0.00    -0.266 N 
ATOM     26  C   UNL d   1      -1.123   7.807  -0.694  0.00  0.00     0.260 C 
ATOM     27  O   UNL d   1      -1.896   7.437  -1.575  0.00  0.00    -0.269 OA
ATOM     28  H   UNL d   1       0.314   7.325   0.749  0.00  0.00     0.190 HD
BRANCH  26  29
ATOM     29  C   UNL d   1      -0.933   9.285  -0.337  0.00  0.00     0.280 C 
BRANCH  29  30
ATOM     30  O   UNL d   1       0.455   9.553  -0.148  0.00  0.00    -0.341 OA
BRANCH  30  31
ATOM     31  C   UNL d   1       0.822  10.853   0.051  0.00  0.00     0.076 A 
ATOM     32  C   UNL d   1       2.189  11.101   0.091  0.00  0.00    -0.018 A 
ATOM     33  C   UNL d   1       2.698  12.387   0.308  0.00  0.00    -0.043 A 
ATOM     34  C   UNL d   1       3.285  10.101  -0.098  0.00  0.00     0.042 A 
ATOM     35  C   UNL d   1       4.194  12.394   0.309  0.00  0.00     0.040 A 
ATOM     36  C   UNL d   1       1.850  13.475   0.490  0.00  0.00    -0.055 A 
ATOM     37  C   UNL d   1       4.568  10.926   0.065  0.00  0.00     0.009 A 
ATOM     38  C   UNL d   1       0.471  13.235   0.442  0.00  0.00     0.010 A 
ATOM     39  C   UNL d   1       2.389  14.852   0.736  0.00  0.00     0.049 C 
ATOM     40  C   UNL d   1      -0.039  11.939   0.226  0.00  0.00     0.038 A 
ENDBRANCH  30  31
ENDBRANCH  29  30
ENDBRANCH  26  29
ENDBRANCH   2  25
TORSDOF 9
