REMARK  2 active torsions:
REMARK  status: ('A' for Active; 'I' for Inactive)
REMARK    1  A    between atoms: S_2  and  C_1 
REMARK    2  A    between atoms: N_7  and  S_2 
ROOT
ATOM      1  S   UNL d   1       2.121  -2.962   0.094  0.00  0.00     0.251 S 
ATOM      2  O   UNL d   1       1.282  -4.137   0.015  0.00  0.00    -0.205 OA
ATOM      3  O   UNL d   1       1.552  -1.663   0.369  0.00  0.00    -0.205 OA
ENDROOT
BRANCH   1   4
ATOM      4  C   UNL d   1       3.256  -3.301   1.411  0.00  0.00     0.133 A 
ATOM      5  S   UNL d   1       4.165  -4.751   1.220  0.00  0.00    -0.068 SA
ATOM      6  C   UNL d   1       4.899  -4.561   2.732  0.00  0.00     0.054 A 
ATOM      7 BR   UNL d   1       6.110  -5.800   3.444  0.00  0.00    -0.043 Br
ATOM      8  C   UNL d   1       4.520  -3.414   3.381  0.00  0.00     0.048 A 
ATOM      9  C   UNL d   1       3.579  -2.686   2.601  0.00  0.00     0.042 A 
ATOM     10 BR   UNL d   1       2.886  -1.054   3.256  0.00  0.00    -0.049 Br
ENDBRANCH   1   4
BRANCH   1  11
ATOM     11  N   UNL d   1       3.006  -2.837  -1.362  0.00  0.00    -0.206 NA
ATOM     12  C   UNL d   1       3.848  -1.623  -1.509  0.00  0.00     0.107 C 
ATOM     13  C   UNL d   1       3.024  -0.692  -2.379  0.00  0.00     0.017 C 
ATOM     14  C   UNL d   1       2.336  -1.632  -3.350  0.00  0.00     0.017 C 
ATOM     15  C   UNL d   1       2.170  -2.944  -2.592  0.00  0.00     0.107 C 
ENDBRANCH   1  11
TORSDOF 2
