REMARK  4 active torsions:
REMARK  status: ('A' for Active; 'I' for Inactive)
REMARK    1  A    between atoms: C_11  and  N_2 
REMARK    2  A    between atoms: N_16  and  C_3 
REMARK    3  A    between atoms: C_8  and  C_6 
REMARK    4  A    between atoms: N_7  and  C_13 
ROOT
ATOM      1  C   UNL d   1      -0.242  -1.294   0.016  0.00  0.00     0.119 A 
ATOM      2  N   UNL d   1       0.953   0.567   0.018  0.00  0.00    -0.238 N 
ATOM      3  C   UNL d   1       1.056  -0.827  -0.019  0.00  0.00     0.144 A 
ATOM      4  N   UNL d   1      -0.336   0.973   0.189  0.00  0.00    -0.289 N 
ATOM      5  HN  UNL d   1      -0.672   1.923   0.350  1.00  0.00     0.188 HD
ATOM      6  C   UNL d   1      -1.069  -0.150   0.099  0.00  0.00     0.090 A 
ATOM      7  C   UNL d   1      -0.590  -2.672  -0.006  0.00  0.00     0.105 C 
ATOM      8  N   UNL d   1      -0.823  -3.811  -0.010  0.00  0.00    -0.191 NA
ENDROOT
BRANCH   3   9
ATOM      9  N   UNL d   1       2.227  -1.525  -0.034  0.00  0.00    -0.383 N 
ATOM     10  H   UNL d   1       3.094  -1.107   0.299  0.00  0.00     0.157 HD
ATOM     11  H   UNL d   1       2.224  -2.537   0.105  0.00  0.00     0.157 HD
ENDBRANCH   3   9
BRANCH   6  12
ATOM     12  C   UNL d   1      -2.582  -0.112   0.100  0.00  0.00     0.034 A 
ATOM     13  S   UNL d   1      -3.595  -1.494   0.084  0.00  0.00    -0.100 SA
ATOM     14  C   UNL d   1      -5.017  -0.555   0.059  0.00  0.00     0.050 A 
ATOM     15  C   UNL d   1      -4.739   0.792   0.055  0.00  0.00     0.008 A 
ATOM     16  C   UNL d   1      -3.332   1.049   0.086  0.00  0.00     0.022 A 
ENDBRANCH   6  12
BRANCH   2  17
ATOM     17  C   UNL d   1       2.013   1.516  -0.077  0.00  0.00     0.058 A 
ATOM     18  C   UNL d   1       3.163   1.219  -0.825  0.00  0.00     0.034 A 
ATOM     19  C   UNL d   1       4.245   2.101  -0.845  0.00  0.00     0.038 A 
ATOM     20  C   UNL d   1       4.173   3.294  -0.118  0.00  0.00     0.103 A 
ATOM     21  C   UNL d   1       3.011   3.625   0.595  0.00  0.00     0.038 A 
ATOM     22  C   UNL d   1       1.921   2.742   0.599  0.00  0.00     0.034 A 
BRANCH  20  23
ATOM     23  N   UNL d   1       5.331   4.197  -0.102  0.00  0.00    -0.116 N 
ATOM     24  O   UNL d   1       5.240   5.241   0.560  0.00  0.00    -0.532 OA
ATOM     25  O   UNL d   1       6.335   3.857  -0.745  0.00  0.00    -0.532 OA
ENDBRANCH  20  23
ENDBRANCH   2  17
TORSDOF 4
