REMARK  8 active torsions:
REMARK  status: ('A' for Active; 'I' for Inactive)
REMARK    1  A    between atoms: C_2  and  C_1 
REMARK    2  A    between atoms: N_4  and  C_2 
REMARK    3  A    between atoms: C_7  and  C_3 
REMARK    4  A    between atoms: N_9  and  C_3 
REMARK    5  A    between atoms: C_5  and  N_4 
REMARK    6  A    between atoms: C_21  and  N_9 
REMARK    7  A    between atoms: O_17  and  C_13 
REMARK    8  A    between atoms: C_24  and  C_21 
ROOT
ATOM      1  C   UNL d   1       1.058  -0.264  -0.231  0.00  0.00     0.071 C 
ATOM      2  C   UNL d   1       2.358  -0.224   0.133  0.00  0.00     0.041 C 
ENDROOT
BRANCH   1   3
ATOM      3  C   UNL d   1       0.395  -0.538  -1.567  0.00  0.00     0.103 C 
ATOM      4  S   UNL d   1      -1.212  -1.079  -1.595  0.00  0.00    -0.060 SA
BRANCH   3   5
ATOM      5  N   UNL d   1       1.089  -0.193  -2.715  0.00  0.00    -0.346 N 
ATOM      6  H   UNL d   1       1.810   0.513  -2.634  0.00  0.00     0.167 HD
BRANCH   5   7
ATOM      7  C   UNL d   1       1.184  -0.954  -3.929  0.00  0.00     0.044 A 
ATOM      8  C   UNL d   1       1.684  -0.357  -5.127  0.00  0.00     0.001 A 
ATOM      9  C   UNL d   1       1.917  -1.192  -6.259  0.00  0.00    -0.024 A 
ATOM     10  C   UNL d   1       1.936   1.028  -5.297  0.00  0.00     0.014 A 
ATOM     11  C   UNL d   1       2.409  -0.652  -7.458  0.00  0.00     0.012 A 
ATOM     12  C   UNL d   1       1.649  -2.562  -6.189  0.00  0.00     0.012 A 
ATOM     13  C   UNL d   1       2.651   0.712  -7.586  0.00  0.00     0.001 A 
ATOM     14  C   UNL d   1       2.404   1.553  -6.510  0.00  0.00     0.001 A 
ATOM     15  C   UNL d   1       1.145  -3.129  -5.027  0.00  0.00     0.003 A 
ATOM     16  C   UNL d   1       0.920  -2.331  -3.908  0.00  0.00     0.030 A 
ENDBRANCH   5   7
ENDBRANCH   3   5
ENDBRANCH   1   3
BRANCH   2  17
ATOM     17  C   UNL d   1       3.414  -0.315  -0.889  0.00  0.00    -0.009 A 
ATOM     18  C   UNL d   1       4.023   0.860  -1.347  0.00  0.00     0.016 A 
ATOM     19  C   UNL d   1       4.861   0.826  -2.461  0.00  0.00     0.037 A 
ATOM     20  C   UNL d   1       5.104  -0.383  -3.116  0.00  0.00     0.068 A 
ATOM     21  C   UNL d   1       4.573  -1.567  -2.597  0.00  0.00     0.037 A 
ATOM     22  C   UNL d   1       3.735  -1.539  -1.483  0.00  0.00     0.016 A 
BRANCH  20  23
ATOM     23  O   UNL d   1       5.829  -0.531  -4.265  0.00  0.00    -0.356 OA
ATOM     24  C   UNL d   1       6.080   0.656  -5.007  0.00  0.00     0.210 C 
ENDBRANCH  20  23
ENDBRANCH   2  17
BRANCH   2  25
ATOM     25  N   UNL d   1       2.836  -0.082   1.437  0.00  0.00    -0.389 N 
ATOM     26  H   UNL d   1       3.845  -0.237   1.477  0.00  0.00     0.159 HD
BRANCH  25  27
ATOM     27  C   UNL d   1       2.155  -0.595   2.626  0.00  0.00     0.119 C 
BRANCH  27  28
ATOM     28  C   UNL d   1       2.994  -0.366   3.886  0.00  0.00     0.015 C 
ATOM     29  C   UNL d   1       3.079   1.099   4.288  0.00  0.00     0.006 C 
ENDBRANCH  27  28
ENDBRANCH  25  27
ENDBRANCH   2  25
TORSDOF 8
