REMARK  6 active torsions:
REMARK  status: ('A' for Active; 'I' for Inactive)
REMARK    1  A    between atoms: C_3  and  C_1 
REMARK    2  A    between atoms: C_4  and  C_2 
REMARK       I    between atoms: N_6  and  C_3 
REMARK    3  A    between atoms: C_21  and  N_6 
REMARK    4  A    between atoms: S_14  and  C_9 
REMARK    5  A    between atoms: C_11  and  C_22 
REMARK    6  A    between atoms: C_22  and  S_14 
ROOT
ATOM      1  C   UNL d   1       0.823   1.209  -0.238  0.00  0.00     0.062 A 
ATOM      2  C   UNL d   1       1.586   0.056  -0.019  0.00  0.00     0.067 A 
ATOM      3  C   UNL d   1      -0.546   1.017  -0.465  0.00  0.00     0.106 A 
ATOM      4  N   UNL d   1      -1.193  -0.178  -0.427  0.00  0.00    -0.360 N 
ATOM      5  HN  UNL d   1      -2.194  -0.247  -0.609  1.00  0.00     0.166 HD
ATOM      6  C   UNL d   1      -0.457  -1.264  -0.139  0.00  0.00     0.070 A 
ATOM      7  C   UNL d   1       0.913  -1.187   0.060  0.00  0.00     0.054 A 
ENDROOT
BRANCH   1   8
ATOM      8  C   UNL d   1       1.250   2.646  -0.234  0.00  0.00     0.258 C 
ATOM      9  N   UNL d   1       2.281   3.022   0.604  0.00  0.00    -0.323 N 
ATOM     10  H   UNL d   1       2.898   2.310   0.969  0.00  0.00     0.169 HD
ATOM     11  O   UNL d   1       0.606   3.414  -0.947  0.00  0.00    -0.267 OA
BRANCH   9  12
ATOM     12  C   UNL d   1       2.646   4.344   0.955  0.00  0.00     0.035 A 
ATOM     13  C   UNL d   1       1.843   5.462   0.709  0.00  0.00     0.031 A 
ATOM     14  C   UNL d   1       2.230   6.730   1.161  0.00  0.00     0.026 A 
ATOM     15  C   UNL d   1       3.426   6.887   1.852  0.00  0.00     0.034 A 
ATOM     16  C   UNL d   1       4.249   5.789   2.086  0.00  0.00     0.026 A 
ATOM     17 CL   UNL d   1       3.884   8.440   2.433  0.00  0.00    -0.084 Cl
ATOM     18  C   UNL d   1       3.855   4.521   1.642  0.00  0.00     0.031 A 
ENDBRANCH   9  12
ENDBRANCH   1   8
BRANCH   2  19
ATOM     19  C   UNL d   1       3.076  -0.003   0.124  0.00  0.00     0.418 C 
ATOM     20  F   UNL d   1       3.727   1.154  -0.154  0.00  0.00    -0.166 F 
ATOM     21  F   UNL d   1       3.445  -0.326   1.394  0.00  0.00    -0.166 F 
ATOM     22  F   UNL d   1       3.642  -0.943  -0.681  0.00  0.00    -0.166 F 
ENDBRANCH   2  19
BRANCH   6  23
ATOM     23  S   UNL d   1      -1.292  -2.816   0.066  0.00  0.00    -0.106 SA
BRANCH  23  24
ATOM     24  C   UNL d   1      -2.152  -2.921  -1.535  0.00  0.00     0.145 C 
BRANCH  24  25
ATOM     25  C   UNL d   1      -1.195  -3.117  -2.654  0.00  0.00     0.062 A 
ATOM     26  O   UNL d   1      -0.803  -4.398  -2.916  0.00  0.00    -0.326 OA
ATOM     27  C   UNL d   1       0.070  -4.343  -3.953  0.00  0.00     0.142 A 
ATOM     28  C   UNL d   1       0.246  -3.043  -4.366  0.00  0.00     0.027 A 
ATOM     29  C   UNL d   1      -0.577  -2.251  -3.534  0.00  0.00     0.035 A 
ENDBRANCH  24  25
ENDBRANCH  23  24
ENDBRANCH   6  23
TORSDOF 6
