REMARK  3 active torsions:
REMARK  status: ('A' for Active; 'I' for Inactive)
REMARK    1  A    between atoms: N_12  and  C_3 
REMARK    2  A    between atoms: C_14  and  N_6 
REMARK    3  A    between atoms: C_15  and  N_12 
ROOT
ATOM      1  C   UNL d   1      -0.233  -0.732  -0.015  0.00  0.00     0.145 A 
ATOM      2  C   UNL d   1      -0.192   0.635  -0.030  0.00  0.00     0.071 A 
ATOM      3  C   UNL d   1       1.074   1.305   0.099  0.00  0.00     0.123 A 
ATOM      4  N   UNL d   1       2.167   0.612   0.149  0.00  0.00    -0.318 N 
ATOM      5  HN  UNL d   1       3.054   1.102   0.262  1.00  0.00     0.170 HD
ATOM      6  N   UNL d   1      -1.553  -1.124  -0.099  0.00  0.00    -0.239 N 
ATOM      7  N   UNL d   1       0.935  -1.455   0.001  0.00  0.00    -0.317 N 
ATOM      8  C   UNL d   1       2.175  -0.750   0.058  0.00  0.00     0.179 A 
ATOM      9  N   UNL d   1      -2.353  -0.042  -0.311  0.00  0.00    -0.302 N 
ATOM     10  HN  UNL d   1      -3.353  -0.036  -0.512  1.00  0.00     0.186 HD
ATOM     11  C   UNL d   1      -1.534   1.012  -0.197  0.00  0.00     0.127 A 
ATOM     12  S   UNL d   1       3.572  -1.673   0.015  0.00  0.00    -0.040 SA
ATOM     13  H   UNL d   1       0.956  -2.462  -0.102  0.00  0.00     0.170 HD
ENDROOT
BRANCH   3  14
ATOM     14  N   UNL d   1       0.996   2.675   0.170  0.00  0.00    -0.342 N 
ATOM     15  H   UNL d   1       0.199   3.168  -0.210  0.00  0.00     0.167 HD
BRANCH  14  16
ATOM     16  C   UNL d   1       2.034   3.511   0.636  0.00  0.00     0.033 A 
ATOM     17  C   UNL d   1       2.232   4.769   0.051  0.00  0.00     0.029 A 
ATOM     18  C   UNL d   1       3.310   5.572   0.439  0.00  0.00     0.002 A 
ATOM     19  C   UNL d   1       4.201   5.131   1.415  0.00  0.00     0.000 A 
ATOM     20  C   UNL d   1       4.016   3.887   2.006  0.00  0.00     0.002 A 
ATOM     21  C   UNL d   1       2.944   3.085   1.613  0.00  0.00     0.029 A 
ENDBRANCH  14  16
ENDBRANCH   3  14
BRANCH   6  22
ATOM     22  C   UNL d   1      -2.066  -2.442  -0.043  0.00  0.00     0.058 A 
ATOM     23  C   UNL d   1      -1.375  -3.453   0.643  0.00  0.00     0.031 A 
ATOM     24  C   UNL d   1      -1.847  -4.766   0.613  0.00  0.00     0.002 A 
ATOM     25  C   UNL d   1      -3.008  -5.072  -0.093  0.00  0.00     0.000 A 
ATOM     26  C   UNL d   1      -3.722  -4.061  -0.737  0.00  0.00     0.002 A 
ATOM     27  C   UNL d   1      -3.266  -2.742  -0.698  0.00  0.00     0.031 A 
ENDBRANCH   6  22
TORSDOF 3
