REMARK  5 active torsions:
REMARK  status: ('A' for Active; 'I' for Inactive)
REMARK    1  A    between atoms: C_2  and  C_1 
REMARK    2  A    between atoms: N_7  and  C_3 
REMARK       I    between atoms: C_6  and  N_10 
REMARK    3  A    between atoms: C_11  and  C_6 
REMARK    4  A    between atoms: N_10  and  N_7 
REMARK    5  A    between atoms: O_20  and  C_19 
ROOT
ATOM      1  N   UNL d   1      -0.813   2.852  -5.331  0.00  0.00    -0.186 NA
ATOM      2  H   UNL d   1      -0.119   3.421  -5.826  0.00  0.00     0.154 HD
ENDROOT
BRANCH   1   3
ATOM      3  C   UNL d   1      -0.440   2.639  -3.979  0.00  0.00     0.120 A 
ATOM      4  N   UNL d   1      -0.650   1.409  -3.430  0.00  0.00    -0.353 N 
ATOM      5  C   UNL d   1      -0.335   1.232  -2.124  0.00  0.00     0.105 A 
ATOM      6  HN  UNL d   1      -1.034   0.645  -3.986  1.00  0.00     0.166 HD
ATOM      7  C   UNL d   1       0.176   2.226  -1.303  0.00  0.00     0.065 A 
ATOM      8  C   UNL d   1       0.356   3.493  -1.863  0.00  0.00     0.044 A 
ATOM      9  C   UNL d   1       0.044   3.705  -3.208  0.00  0.00     0.074 A 
ATOM     10 CL   UNL d   1       0.290   5.280  -3.872  0.00  0.00    -0.081 Cl
BRANCH   7  11
ATOM     11  C   UNL d   1       0.520   1.911   0.119  0.00  0.00     0.418 C 
ATOM     12  F   UNL d   1       1.040   2.969   0.799  0.00  0.00    -0.166 F 
ATOM     13  F   UNL d   1       1.443   0.915   0.217  0.00  0.00    -0.166 F 
ATOM     14  F   UNL d   1      -0.557   1.494   0.837  0.00  0.00    -0.166 F 
ENDBRANCH   7  11
ENDBRANCH   1   3
BRANCH   1  15
ATOM     15  N   UNL d   1      -1.075   1.650  -6.014  0.00  0.00    -0.281 N 
ATOM     16  C   UNL d   1      -1.119   1.690  -7.393  0.00  0.00     0.266 C 
ATOM     17  O   UNL d   1      -0.811   2.672  -8.060  0.00  0.00    -0.266 OA
ATOM     18  H   UNL d   1      -1.481   0.909  -5.445  0.00  0.00     0.184 HD
BRANCH  16  19
ATOM     19  C   UNL d   1      -1.592   0.447  -8.058  0.00  0.00     0.035 A 
ATOM     20  C   UNL d   1      -2.358   0.567  -9.228  0.00  0.00     0.053 A 
ATOM     21  C   UNL d   1      -2.817  -0.575  -9.883  0.00  0.00     0.069 A 
ATOM     22  C   UNL d   1      -2.485  -1.835  -9.375  0.00  0.00     0.037 A 
ATOM     23  C   UNL d   1      -1.709  -1.960  -8.221  0.00  0.00     0.004 A 
ATOM     24  C   UNL d   1      -1.263  -0.818  -7.557  0.00  0.00     0.017 A 
BRANCH  21  25
ATOM     25  O   UNL d   1      -3.586  -0.601 -11.013  0.00  0.00    -0.356 OA
ATOM     26  C   UNL d   1      -3.978   0.655 -11.554  0.00  0.00     0.210 C 
ENDBRANCH  21  25
ENDBRANCH  16  19
ENDBRANCH   1  15
TORSDOF 5
