REMARK  3 active torsions:
REMARK  status: ('A' for Active; 'I' for Inactive)
REMARK    1  A    between atoms: N_8  and  C_1 
REMARK       I    between atoms: C_9  and  N_8 
REMARK       I    between atoms: N_14  and  C_9 
REMARK    2  A    between atoms: C_10  and  C_16 
REMARK    3  A    between atoms: C_16  and  N_14 
ROOT
ATOM      1  N   UNL d   1       0.560   4.429   0.237  0.00  0.00    -0.305 N 
ATOM      2  C   UNL d   1       1.082   3.233  -0.082  0.00  0.00     0.321 C 
ATOM      3  N   UNL d   1       2.410   3.072  -0.314  0.00  0.00    -0.338 N 
ATOM      4  O   UNL d   1       0.288   2.293  -0.143  0.00  0.00    -0.247 OA
ATOM      5  H   UNL d   1      -0.432   4.298   0.405  0.00  0.00     0.171 HD
ATOM      6  H   UNL d   1       3.019   3.661   0.228  0.00  0.00     0.164 HD
ENDROOT
BRANCH   1   7
ATOM      7  C   UNL d   1       0.988   5.736   0.357  0.00  0.00     0.092 A 
ATOM      8  C   UNL d   1       2.181   6.388   0.139  0.00  0.00     0.101 A 
ATOM      9  O   UNL d   1       2.025   7.712   0.438  0.00  0.00    -0.240 OA
ATOM     10  C   UNL d   1       3.536   6.058  -0.333  0.00  0.00     0.081 C 
ATOM     11  N   UNL d   1       0.729   7.966   0.824  0.00  0.00    -0.263 N 
ATOM     12  C   UNL d   1       0.104   6.789   0.762  0.00  0.00     0.058 A 
ATOM     13  HN  UNL d   1       0.331   8.863   1.099  1.00  0.00     0.194 HD
ATOM     14  C   UNL d   1      -1.342   6.701   1.091  0.00  0.00     0.072 C 
ENDBRANCH   1   7
BRANCH   3  15
ATOM     15  C   UNL d   1       2.841   1.702  -0.507  0.00  0.00     0.170 C 
BRANCH  15  16
ATOM     16  C   UNL d   1       4.225   1.558  -1.050  0.00  0.00     0.002 A 
ATOM     17  S   UNL d   1       4.652   2.179  -2.583  0.00  0.00    -0.092 SA
ATOM     18  C   UNL d   1       6.142   1.309  -2.616  0.00  0.00     0.015 A 
ATOM     19  C   UNL d   1       7.073   1.246  -3.673  0.00  0.00     0.019 A 
ATOM     20  C   UNL d   1       6.345   0.609  -1.426  0.00  0.00    -0.018 A 
ATOM     21  C   UNL d   1       8.213   0.450  -3.526  0.00  0.00     0.001 A 
ATOM     22  C   UNL d   1       8.434  -0.258  -2.353  0.00  0.00     0.001 A 
ATOM     23  C   UNL d   1       7.515  -0.181  -1.302  0.00  0.00     0.013 A 
ATOM     24  C   UNL d   1       5.249   0.798  -0.520  0.00  0.00     0.029 A 
ENDBRANCH  15  16
ENDBRANCH   3  15
TORSDOF 3
