REMARK  5 active torsions:
REMARK  status: ('A' for Active; 'I' for Inactive)
REMARK    1  A    between atoms: N_2  and  C_1 
REMARK    2  A    between atoms: C_15  and  N_6 
REMARK    3  A    between atoms: N_14  and  C_13 
REMARK    4  A    between atoms: C_22  and  N_14 
REMARK    5  A    between atoms: C_23  and  N_14 
ROOT
ATOM      1  C   UNL d   1      -1.327   1.170  -1.720  0.00  0.00     0.091 A 
ATOM      2  C   UNL d   1      -1.521  -0.079  -1.098  0.00  0.00     0.065 A 
ATOM      3  C   UNL d   1      -0.223   1.296  -2.586  0.00  0.00     0.065 A 
ATOM      4  N   UNL d   1       2.073  -2.978  -2.589  0.00  0.00    -0.191 NA
ATOM      5  C   UNL d   1       1.351  -2.087  -2.397  0.00  0.00     0.099 C 
ATOM      6  C   UNL d   1       0.459  -0.991  -2.166  0.00  0.00     0.048 A 
ATOM      7  C   UNL d   1       0.662   0.230  -2.809  0.00  0.00     0.049 A 
ATOM      8  C   UNL d   1      -0.634  -1.143  -1.309  0.00  0.00     0.049 A 
ATOM      9 CL   UNL d   1      -2.880  -0.388  -0.070  0.00  0.00    -0.082 Cl
ATOM     10 CL   UNL d   1       0.090   2.774  -3.433  0.00  0.00    -0.082 Cl
ENDROOT
BRANCH   1  11
ATOM     11  N   UNL d   1      -2.232   2.247  -1.574  0.00  0.00    -0.297 N 
ATOM     12  N   UNL d   1      -2.254   2.670  -0.396  0.00  0.00    -0.300 N 
ATOM     13  HN  UNL d   1      -1.742   2.250   0.380  1.00  0.00     0.187 HD
ATOM     14  HN  UNL d   1      -2.796   2.630  -2.332  1.00  0.00     0.187 HD
BRANCH  12  15
ATOM     15  C   UNL d   1      -3.083   3.805  -0.287  0.00  0.00     0.048 A 
ATOM     16  C   UNL d   1      -4.102   3.847   0.663  0.00  0.00     0.033 A 
ATOM     17  C   UNL d   1      -4.876   5.009   0.836  0.00  0.00     0.031 A 
ATOM     18  C   UNL d   1      -4.690   6.161   0.052  0.00  0.00     0.030 A 
ATOM     19  C   UNL d   1      -3.666   6.088  -0.904  0.00  0.00     0.031 A 
ATOM     20  C   UNL d   1      -2.866   4.947  -1.058  0.00  0.00     0.033 A 
BRANCH  18  21
ATOM     21  N   UNL d   1      -5.454   7.310   0.217  0.00  0.00    -0.382 N 
BRANCH  21  22
ATOM     22  C   UNL d   1      -5.784   8.171  -0.928  0.00  0.00     0.118 C 
ATOM     23  C   UNL d   1      -4.855   9.372  -1.047  0.00  0.00     0.026 C 
ENDBRANCH  21  22
BRANCH  21  24
ATOM     24  C   UNL d   1      -6.054   7.648   1.514  0.00  0.00     0.118 C 
ATOM     25  C   UNL d   1      -7.477   7.125   1.655  0.00  0.00     0.026 C 
ENDBRANCH  21  24
ENDBRANCH  18  21
ENDBRANCH  12  15
ENDBRANCH   1  11
TORSDOF 5
