REMARK  7 active torsions:
REMARK  status: ('A' for Active; 'I' for Inactive)
REMARK    1  A    between atoms: N_6  and  C_1 
REMARK    2  A    between atoms: C_10  and  C_2 
REMARK       I    between atoms: C_8  and  N_6 
REMARK       I    between atoms: C_9  and  N_7 
REMARK       I    between atoms: N_13  and  C_8 
REMARK    3  A    between atoms: O_19  and  C_9 
REMARK    4  A    between atoms: O_20  and  C_10 
REMARK    5  A    between atoms: C_18  and  N_13 
REMARK    6  A    between atoms: C_27  and  O_19 
REMARK    7  A    between atoms: C_28  and  O_20 
ROOT
ATOM      1  C   UNL d   1       1.932   1.099  -0.097  0.00  0.00     0.075 A 
ATOM      2  C   UNL d   1       0.770   1.834   0.141  0.00  0.00     0.075 A 
ATOM      3  C   UNL d   1       0.013  -0.399  -0.212  0.00  0.00     0.010 A 
ATOM      4  C   UNL d   1      -0.380   0.919   0.016  0.00  0.00    -0.023 A 
ATOM      5  S   UNL d   1       1.675  -0.543  -0.457  0.00  0.00    -0.079 SA
ATOM      6  N   UNL d   1      -2.250  -1.196  -0.420  0.00  0.00    -0.323 N 
ATOM      7  C   UNL d   1      -3.103  -1.706  -1.382  0.00  0.00     0.363 C 
ATOM      8  C   UNL d   1      -0.866  -1.626  -0.267  0.00  0.00     0.174 C 
ATOM      9  C   UNL d   1      -1.866   1.211   0.079  0.00  0.00     0.061 C 
ATOM     10  C   UNL d   1      -2.664  -0.070   0.420  0.00  0.00     0.133 C 
ATOM     11  O   UNL d   1      -4.201  -1.223  -1.631  0.00  0.00    -0.238 OA
ENDROOT
BRANCH   1  12
ATOM     12  N   UNL d   1       3.280   1.397  -0.243  0.00  0.00    -0.203 NA
ATOM     13  C   UNL d   1       4.126   1.530   0.833  0.00  0.00     0.303 C 
ATOM     14  N   UNL d   1       3.746   2.407   1.812  0.00  0.00    -0.313 N 
ATOM     15  O   UNL d   1       5.203   0.934   0.785  0.00  0.00    -0.253 OA
ATOM     16  H   UNL d   1       3.099   3.105   1.461  0.00  0.00     0.170 HD
ATOM     17  H   UNL d   1       3.736   0.692  -0.818  0.00  0.00     0.139 HD
BRANCH  14  18
ATOM     18  C   UNL d   1       4.635   2.843   2.817  0.00  0.00     0.035 A 
ATOM     19  C   UNL d   1       4.651   4.213   3.096  0.00  0.00     0.031 A 
ATOM     20  C   UNL d   1       5.597   4.743   3.982  0.00  0.00     0.026 A 
ATOM     21  C   UNL d   1       6.494   3.878   4.629  0.00  0.00     0.034 A 
ATOM     22  C   UNL d   1       6.447   2.512   4.397  0.00  0.00     0.026 A 
ATOM     23 CL   UNL d   1       7.680   4.543   5.680  0.00  0.00    -0.084 Cl
ATOM     24  C   UNL d   1       5.519   1.988   3.486  0.00  0.00     0.031 A 
ENDBRANCH  14  18
ENDBRANCH   1  12
BRANCH   2  25
ATOM     25  C   UNL d   1       0.801   3.284   0.457  0.00  0.00     0.296 C 
ATOM     26  O   UNL d   1       1.849   3.893   0.654  0.00  0.00    -0.259 OA
BRANCH  25  27
ATOM     27  O   UNL d   1      -0.420   3.876   0.658  0.00  0.00    -0.318 OA
BRANCH  27  28
ATOM     28  C   UNL d   1      -0.432   4.911   1.669  0.00  0.00     0.174 C 
ATOM     29  C   UNL d   1      -0.333   6.353   1.184  0.00  0.00     0.034 C 
ENDBRANCH  27  28
ENDBRANCH  25  27
ENDBRANCH   2  25
BRANCH   7  30
ATOM     30  O   UNL d   1      -2.600  -2.798  -2.024  0.00  0.00    -0.304 OA
BRANCH  30  31
ATOM     31  C   UNL d   1      -3.362  -3.278  -3.147  0.00  0.00     0.176 C 
ATOM     32  C   UNL d   1      -4.528  -4.157  -2.725  0.00  0.00     0.034 C 
ENDBRANCH  30  31
ENDBRANCH   7  30
TORSDOF 7
