REMARK  4 active torsions:
REMARK  status: ('A' for Active; 'I' for Inactive)
REMARK    1  A    between atoms: C_7  and  C_3 
REMARK    2  A    between atoms: C_18  and  C_10 
REMARK    3  A    between atoms: C_16  and  C_19 
REMARK       I    between atoms: N_25  and  C_16 
REMARK    4  A    between atoms: C_26  and  N_17 
ROOT
ATOM      1  C   UNL d   1       2.173   1.815  -0.052  0.00  0.00     0.046 A 
ATOM      2  N   UNL d   1       4.135   2.820  -1.006  0.00  0.00    -0.345 N 
ATOM      3  HN  UNL d   1       4.835   2.865  -1.747  1.00  0.00     0.167 HD
ATOM      4  C   UNL d   1       4.175   3.671   0.038  0.00  0.00     0.115 A 
ATOM      5  C   UNL d   1       3.136   1.900  -1.045  0.00  0.00     0.022 A 
ATOM      6  N   UNL d   1       3.271   3.684   1.031  0.00  0.00    -0.351 N 
ATOM      7  HN  UNL d   1       3.322   4.354   1.798  1.00  0.00     0.166 HD
ATOM      8  C   UNL d   1       2.289   2.757   0.956  0.00  0.00     0.107 A 
ATOM      9  C   UNL d   1       3.154   1.002  -2.248  0.00  0.00     0.069 C 
ENDROOT
BRANCH   1  10
ATOM     10  C   UNL d   1       1.107   0.828   0.000  0.00  0.00     0.127 A 
ATOM     11  N   UNL d   1      -0.114   1.181   0.568  0.00  0.00    -0.320 N 
ATOM     12  C   UNL d   1      -0.906   0.132   0.620  0.00  0.00     0.167 A 
ATOM     13  HN  UNL d   1      -0.358   2.115   0.896  1.00  0.00     0.169 HD
ATOM     14  S   UNL d   1      -0.130  -1.256  -0.047  0.00  0.00     0.024 SA
ATOM     15  N   UNL d   1      -2.146   0.083   1.156  0.00  0.00    -0.335 N 
ATOM     16  N   UNL d   1       1.268  -0.432  -0.417  0.00  0.00    -0.309 N 
ATOM     17  HN  UNL d   1       2.094  -0.817  -0.876  1.00  0.00     0.176 HD
ATOM     18  H   UNL d   1      -2.570  -0.816   1.345  0.00  0.00     0.168 HD
BRANCH  15  19
ATOM     19  C   UNL d   1      -3.023   1.175   1.284  0.00  0.00     0.034 A 
ATOM     20  C   UNL d   1      -2.982   2.281   0.423  0.00  0.00     0.029 A 
ATOM     21  C   UNL d   1      -3.847   3.362   0.598  0.00  0.00     0.002 A 
ATOM     22  C   UNL d   1      -4.745   3.369   1.660  0.00  0.00     0.000 A 
ATOM     23  C   UNL d   1      -4.782   2.291   2.542  0.00  0.00     0.002 A 
ATOM     24  C   UNL d   1      -3.930   1.199   2.351  0.00  0.00     0.029 A 
ENDBRANCH  15  19
ENDBRANCH   1  10
BRANCH   4  25
ATOM     25  C   UNL d   1       5.309   4.615   0.107  0.00  0.00     0.008 A 
ATOM     26  C   UNL d   1       5.492   5.472   1.209  0.00  0.00     0.016 A 
ATOM     27  C   UNL d   1       6.591   6.343   1.293  0.00  0.00     0.018 A 
ATOM     28  C   UNL d   1       7.540   6.382   0.268  0.00  0.00     0.031 A 
ATOM     29  C   UNL d   1       7.369   5.546  -0.841  0.00  0.00     0.018 A 
ATOM     30  C   UNL d   1       6.271   4.679  -0.917  0.00  0.00     0.016 A 
BRANCH  28  31
ATOM     31  C   UNL d   1       8.740   7.267   0.290  0.00  0.00     0.249 C 
ATOM     32  O   UNL d   1       9.562   7.256  -0.621  0.00  0.00    -0.268 OA
ATOM     33  N   UNL d   1       8.921   8.103   1.355  0.00  0.00    -0.366 N 
ATOM     34  H   UNL d   1       8.296   8.196   2.139  0.00  0.00     0.159 HD
ATOM     35  H   UNL d   1       9.745   8.691   1.333  0.00  0.00     0.159 HD
ENDBRANCH  28  31
ENDBRANCH   4  25
TORSDOF 4
