REMARK  3 active torsions:
REMARK  status: ('A' for Active; 'I' for Inactive)
REMARK    1  A    between atoms: C_6  and  C_1 
REMARK    2  A    between atoms: C_9  and  C_2 
REMARK    3  A    between atoms: C_8  and  C_5 
ROOT
ATOM      1  C   UNL d   1       1.246   0.647   0.015  0.00  0.00     0.018 A 
ATOM      2  C   UNL d   1      -0.053   1.129   0.021  0.00  0.00     0.098 A 
ATOM      3  O   UNL d   1      -0.928   0.076   0.062  0.00  0.00    -0.308 OA
ATOM      4  C   UNL d   1       1.146  -0.766  -0.061  0.00  0.00     0.054 A 
ATOM      5  C   UNL d   1      -0.196  -1.080   0.026  0.00  0.00     0.087 A 
ENDROOT
BRANCH   5   6
ATOM      6  C   UNL d   1      -0.935  -2.340   0.111  0.00  0.00    -0.002 A 
ATOM      7  C   UNL d   1      -0.252  -3.567   0.043  0.00  0.00     0.016 A 
ATOM      8  C   UNL d   1      -0.933  -4.784   0.170  0.00  0.00     0.024 A 
ATOM      9  C   UNL d   1      -2.311  -4.785   0.363  0.00  0.00     0.034 A 
ATOM     10  C   UNL d   1      -3.012  -3.584   0.421  0.00  0.00     0.024 A 
ATOM     11 CL   UNL d   1      -3.149  -6.277   0.538  0.00  0.00    -0.084 Cl
ATOM     12  C   UNL d   1      -2.326  -2.368   0.294  0.00  0.00     0.016 A 
ENDBRANCH   5   6
BRANCH   1  13
ATOM     13  C   UNL d   1       2.507   1.448   0.076  0.00  0.00     0.018 A 
ATOM     14  S   UNL d   1       4.009   0.898  -0.535  0.00  0.00    -0.101 SA
ATOM     15  C   UNL d   1       4.782   2.373  -0.146  0.00  0.00     0.050 A 
ATOM     16  C   UNL d   1       3.938   3.237   0.516  0.00  0.00     0.008 A 
ATOM     17  C   UNL d   1       2.628   2.696   0.654  0.00  0.00     0.020 A 
ENDBRANCH   1  13
BRANCH   2  18
ATOM     18  C   UNL d   1      -0.663   2.453  -0.070  0.00  0.00    -0.001 A 
ATOM     19  C   UNL d   1      -0.119   3.423  -0.928  0.00  0.00     0.014 A 
ATOM     20  C   UNL d   1      -0.629   4.723  -0.960  0.00  0.00     0.001 A 
ATOM     21  C   UNL d   1      -1.711   5.060  -0.154  0.00  0.00     0.000 A 
ATOM     22  C   UNL d   1      -2.294   4.096   0.668  0.00  0.00     0.001 A 
ATOM     23  C   UNL d   1      -1.772   2.797   0.710  0.00  0.00     0.014 A 
ENDBRANCH   2  18
TORSDOF 3
