REMARK  6 active torsions:
REMARK  status: ('A' for Active; 'I' for Inactive)
REMARK    1  A    between atoms: C_2  and  C_1 
REMARK       I    between atoms: N_5  and  C_1 
REMARK    2  A    between atoms: C_4  and  C_3 
REMARK    3  A    between atoms: O_13  and  C_4 
REMARK    4  A    between atoms: C_10  and  N_5 
REMARK    5  A    between atoms: C_11  and  C_10 
REMARK    6  A    between atoms: C_12  and  C_11 
ROOT
ATOM      1  C   UNL d   1       0.827  -0.079  -0.053  0.00  0.00     0.254 C 
ATOM      2  N   UNL d   1       0.168  -0.807  -1.044  0.00  0.00    -0.352 N 
ATOM      3  O   UNL d   1       2.054  -0.064   0.067  0.00  0.00    -0.267 OA
ATOM      4  C   UNL d   1      -1.278  -0.908  -1.222  0.00  0.00     0.152 C 
ENDROOT
BRANCH   1   5
ATOM      5  C   UNL d   1       0.089   0.762   0.913  0.00  0.00     0.049 A 
ATOM      6  C   UNL d   1       0.315   0.695   2.303  0.00  0.00     0.053 A 
ATOM      7  C   UNL d   1      -0.391   1.580   3.143  0.00  0.00     0.019 A 
ATOM      8  C   UNL d   1      -1.284   2.519   2.623  0.00  0.00     0.001 A 
ATOM      9  C   UNL d   1      -1.478   2.599   1.250  0.00  0.00     0.001 A 
ATOM     10  C   UNL d   1      -0.780   1.742   0.399  0.00  0.00     0.018 A 
BRANCH   6  11
ATOM     11  C   UNL d   1       1.187  -0.279   3.023  0.00  0.00     0.177 C 
ATOM     12  O   UNL d   1       0.894  -0.663   4.145  0.00  0.00    -0.646 OA
BRANCH  11  13
ATOM     13  O   UNL d   1       2.345  -0.632   2.441  0.00  0.00    -0.773 OA
ATOM     14  H   UNL d   1       2.505  -0.301   1.527  0.00  0.00     0.167 HD
ENDBRANCH  11  13
ENDBRANCH   6  11
ENDBRANCH   1   5
BRANCH   2  15
ATOM     15  C   UNL d   1       0.980  -1.601  -1.981  0.00  0.00     0.131 C 
BRANCH  15  16
ATOM     16  C   UNL d   1       1.118  -0.960  -3.364  0.00  0.00     0.077 C 
BRANCH  16  17
ATOM     17  C   UNL d   1       1.906  -1.863  -4.279  0.00  0.00     0.010 A 
ATOM     18  N   UNL d   1       1.211  -2.824  -4.935  0.00  0.00    -0.369 N 
ATOM     19  C   UNL d   1       1.913  -3.675  -5.717  0.00  0.00     0.088 A 
ATOM     20  HN  UNL d   1       0.198  -2.903  -4.843  1.00  0.00     0.165 HD
ATOM     21  C   UNL d   1       3.287  -3.620  -5.877  0.00  0.00     0.017 A 
ATOM     22  C   UNL d   1       3.985  -2.631  -5.197  0.00  0.00     0.003 A 
ATOM     23  C   UNL d   1       3.290  -1.738  -4.384  0.00  0.00     0.025 A 
ENDBRANCH  16  17
ENDBRANCH  15  16
ENDBRANCH   2  15
TORSDOF 6
