REMARK  10 active torsions:
REMARK  status: ('A' for Active; 'I' for Inactive)
REMARK       I    between atoms: N_3  and  C_1 
REMARK       I    between atoms: N_4  and  C_1 
REMARK    1  A    between atoms: C_6  and  N_3 
REMARK    2  A    between atoms: C_5  and  N_4 
REMARK    3  A    between atoms: C_7  and  C_5 
REMARK    4  A    between atoms: C_8  and  C_6 
REMARK    5  A    between atoms: C_13  and  C_7 
REMARK    6  A    between atoms: C_14  and  C_8 
REMARK    7  A    between atoms: C_9  and  C_11 
REMARK    8  A    between atoms: C_10  and  C_12 
REMARK    9  A    between atoms: C_11  and  C_13 
REMARK   10  A    between atoms: C_12  and  C_14 
ROOT
ATOM      1  C   UNL d   1       0.871   0.048   0.073  0.00  0.00     0.316 C 
ATOM      2  O   UNL d   1       0.261  -0.127   1.116  0.00  0.00    -0.247 OA
ATOM      3  N   UNL d   1       0.271   0.200  -1.148  0.00  0.00    -0.343 N 
ATOM      4  N   UNL d   1       2.238   0.115  -0.012  0.00  0.00    -0.343 N 
ATOM      5  H   UNL d   1       0.835   0.482  -1.932  0.00  0.00     0.164 HD
ATOM      6  H   UNL d   1       2.665   0.118  -0.923  0.00  0.00     0.164 HD
ENDROOT
BRANCH   3   7
ATOM      7  C   UNL d   1      -1.173   0.238  -1.287  0.00  0.00     0.124 C 
BRANCH   7   8
ATOM      8  C   UNL d   1      -1.761   1.634  -1.066  0.00  0.00     0.020 C 
BRANCH   8   9
ATOM      9  C   UNL d   1      -1.315   2.641  -2.130  0.00  0.00     0.002 C 
BRANCH   9  10
ATOM     10  C   UNL d   1      -1.964   4.010  -1.911  0.00  0.00    -0.000 C 
BRANCH  10  11
ATOM     11  C   UNL d   1      -1.502   5.019  -2.962  0.00  0.00    -0.005 C 
ATOM     12  C   UNL d   1      -2.135   6.384  -2.744  0.00  0.00     0.005 C 
ENDBRANCH  10  11
ENDBRANCH   9  10
ENDBRANCH   8   9
ENDBRANCH   7   8
ENDBRANCH   3   7
BRANCH   4  13
ATOM     13  C   UNL d   1       3.082  -0.090   1.147  0.00  0.00     0.124 C 
BRANCH  13  14
ATOM     14  C   UNL d   1       3.388  -1.567   1.415  0.00  0.00     0.020 C 
BRANCH  14  15
ATOM     15  C   UNL d   1       4.218  -2.212   0.301  0.00  0.00     0.002 C 
BRANCH  15  16
ATOM     16  C   UNL d   1       4.551  -3.670   0.624  0.00  0.00    -0.000 C 
BRANCH  16  17
ATOM     17  C   UNL d   1       5.359  -4.318  -0.500  0.00  0.00    -0.005 C 
ATOM     18  C   UNL d   1       5.686  -5.770  -0.189  0.00  0.00     0.005 C 
ENDBRANCH  16  17
ENDBRANCH  15  16
ENDBRANCH  14  15
ENDBRANCH  13  14
ENDBRANCH   4  13
TORSDOF 10
