REMARK  6 active torsions:
REMARK  status: ('A' for Active; 'I' for Inactive)
REMARK    1  A    between atoms: C_8  and  C_3 
REMARK    2  A    between atoms: C_16  and  C_4 
REMARK    3  A    between atoms: C_12  and  C_8 
REMARK    4  A    between atoms: O_17  and  C_9 
REMARK    5  A    between atoms: O_18  and  C_10 
REMARK    6  A    between atoms: O_19  and  C_11 
ROOT
ATOM      1  N   UNL d   1      -3.595   2.243  -1.336  0.00  0.00    -0.341 N 
ATOM      2  HN  UNL d   1      -3.320   3.171  -1.658  1.00  0.00     0.167 HD
ATOM      3  C   UNL d   1      -2.803   1.506  -0.477  0.00  0.00     0.104 C 
ATOM      4  C   UNL d   1      -4.707   1.691  -1.711  0.00  0.00     0.109 C 
ATOM      5  C   UNL d   1      -3.058   0.043  -0.222  0.00  0.00     0.282 C 
ATOM      6  N   UNL d   1      -4.179  -0.451  -0.842  0.00  0.00    -0.280 N 
ATOM      7  N   UNL d   1      -5.155   0.428  -1.344  0.00  0.00    -0.187 NA
ATOM      8  O   UNL d   1      -2.340  -0.671   0.473  0.00  0.00    -0.265 OA
ATOM      9  H   UNL d   1      -4.479  -1.374  -0.554  0.00  0.00     0.184 HD
ATOM     10  H   UNL d   1      -5.782  -0.013  -2.014  0.00  0.00     0.154 HD
ENDROOT
BRANCH   3  11
ATOM     11  C   UNL d   1      -1.759   2.057   0.167  0.00  0.00     0.046 C 
BRANCH  11  12
ATOM     12  C   UNL d   1      -1.403   3.468   0.010  0.00  0.00    -0.028 A 
ATOM     13  C   UNL d   1      -1.877   4.418   0.909  0.00  0.00     0.051 A 
ATOM     14  C   UNL d   1      -1.588   5.780   0.747  0.00  0.00     0.105 A 
ATOM     15  C   UNL d   1      -0.785   6.194  -0.335  0.00  0.00     0.135 A 
ATOM     16  C   UNL d   1      -0.245   5.217  -1.208  0.00  0.00     0.105 A 
ATOM     17  C   UNL d   1      -0.605   3.873  -1.057  0.00  0.00     0.051 A 
BRANCH  14  18
ATOM     18  O   UNL d   1      -2.175   6.527   1.734  0.00  0.00    -0.353 OA
ATOM     19  C   UNL d   1      -1.977   7.928   1.770  0.00  0.00     0.210 C 
ENDBRANCH  14  18
BRANCH  15  20
ATOM     20  O   UNL d   1      -0.436   7.518  -0.436  0.00  0.00    -0.351 OA
ATOM     21  C   UNL d   1      -0.663   8.125  -1.708  0.00  0.00     0.210 C 
ENDBRANCH  15  20
BRANCH  16  22
ATOM     22  O   UNL d   1       0.649   5.634  -2.168  0.00  0.00    -0.353 OA
ATOM     23  C   UNL d   1       1.461   4.624  -2.760  0.00  0.00     0.210 C 
ENDBRANCH  16  22
ENDBRANCH  11  12
ENDBRANCH   3  11
BRANCH   4  24
ATOM     24  C   UNL d   1      -5.583   2.497  -2.627  0.00  0.00     0.004 A 
ATOM     25  C   UNL d   1      -5.006   3.447  -3.480  0.00  0.00     0.015 A 
ATOM     26  C   UNL d   1      -5.809   4.180  -4.356  0.00  0.00     0.001 A 
ATOM     27  C   UNL d   1      -7.189   3.976  -4.372  0.00  0.00     0.000 A 
ATOM     28  C   UNL d   1      -7.770   3.048  -3.510  0.00  0.00     0.001 A 
ATOM     29  C   UNL d   1      -6.971   2.311  -2.633  0.00  0.00     0.015 A 
ENDBRANCH   4  24
TORSDOF 6
