REMARK  0 active torsions:
REMARK  status: ('A' for Active; 'I' for Inactive)
ROOT
ATOM      1  C   UNL d   1      -0.477   1.068   0.017  0.00  0.00     0.160 A 
ATOM      2  C   UNL d   1      -0.956  -0.205   0.073  0.00  0.00     0.164 A 
ATOM      3  N   UNL d   1      -1.477   1.982  -0.066  0.00  0.00    -0.174 N 
ATOM      4  HN  UNL d   1      -1.381   2.993  -0.150  1.00  0.00     0.186 HD
ATOM      5  N   UNL d   1       0.872   1.338   0.016  0.00  0.00    -0.287 N 
ATOM      6  C   UNL d   1      -2.600   1.290  -0.016  0.00  0.00     0.684 A 
ATOM      7  N   UNL d   1       1.259  -1.020   0.052  0.00  0.00    -0.269 N 
ATOM      8  C   UNL d   1       1.784   0.282   0.031  0.00  0.00     0.332 A 
ATOM      9  C   UNL d   1      -0.101  -1.347   0.089  0.00  0.00     0.282 A 
ATOM     10  N   UNL d   1      -2.322  -0.069   0.078  0.00  0.00    -0.178 N 
ATOM     11  N   UNL d   1      -3.862   1.790  -0.151  0.00  0.00    -0.217 N 
ATOM     12  O   UNL d   1       3.002   0.492   0.023  0.00  0.00    -0.246 OA
ATOM     13  O   UNL d   1      -0.511  -2.502   0.123  0.00  0.00    -0.265 OA
ATOM     14  C   UNL d   1       1.381   2.693  -0.003  0.00  0.00     0.163 C 
ATOM     15  C   UNL d   1       2.183  -2.138   0.037  0.00  0.00     0.164 C 
ATOM     16  C   UNL d   1      -3.288  -1.138   0.043  0.00  0.00     0.176 C 
ATOM     17  C   UNL d   1      -4.032   2.953  -1.022  0.00  0.00     0.141 C 
ATOM     18  C   UNL d   1      -4.927   1.389   0.764  0.00  0.00     0.141 C 
ATOM     19  C   UNL d   1      -3.785   4.276  -0.302  0.00  0.00     0.020 C 
ATOM     20  C   UNL d   1      -5.954   2.465   1.108  0.00  0.00     0.020 C 
ATOM     21  C   UNL d   1      -5.348   3.749   1.667  0.00  0.00     0.002 C 
ATOM     22  C   UNL d   1      -4.945   4.736   0.576  0.00  0.00     0.002 C 
ENDROOT
TORSDOF 0
