REMARK  8 active torsions:
REMARK  status: ('A' for Active; 'I' for Inactive)
REMARK    1  A    between atoms: N_2  and  C_1 
REMARK    2  A    between atoms: N_4  and  C_3 
REMARK    3  A    between atoms: C_5  and  C_9 
REMARK       I    between atoms: N_15  and  C_5 
REMARK    4  A    between atoms: C_10  and  C_16 
REMARK    5  A    between atoms: C_12  and  C_19 
REMARK    6  A    between atoms: C_23  and  N_15 
REMARK    7  A    between atoms: O_24  and  C_17 
REMARK    8  A    between atoms: C_25  and  C_23 
ROOT
ATOM      1  C   UNL d   1       1.116  -0.175   0.110  0.00  0.00     0.130 A 
ATOM      2  C   UNL d   1       0.307  -1.328   0.007  0.00  0.00     0.063 A 
ATOM      3  C   UNL d   1       0.596   1.142   0.106  0.00  0.00     0.050 A 
ATOM      4  C   UNL d   1      -1.072  -1.052  -0.149  0.00  0.00     0.033 A 
ATOM      5  C   UNL d   1      -0.775   1.361  -0.015  0.00  0.00    -0.034 A 
ATOM      6  C   UNL d   1      -1.601   0.249  -0.151  0.00  0.00     0.014 A 
ENDROOT
BRANCH   2   7
ATOM      7  N   UNL d   1       0.777  -2.671   0.079  0.00  0.00    -0.379 N 
ATOM      8  C   UNL d   1      -0.127  -3.693  -0.480  0.00  0.00     0.123 C 
ATOM      9  C   UNL d   1       0.468  -5.090  -0.442  0.00  0.00     0.029 C 
ATOM     10  C   UNL d   1       0.852  -5.513   0.982  0.00  0.00     0.024 C 
ATOM     11  C   UNL d   1       1.811  -4.470   1.561  0.00  0.00     0.029 C 
ATOM     12  C   UNL d   1       1.468  -2.993   1.350  0.00  0.00     0.123 C 
BRANCH  10  13
ATOM     13  C   UNL d   1      -0.336  -5.928   1.846  0.00  0.00    -0.021 A 
ATOM     14  C   UNL d   1      -0.672  -7.280   2.095  0.00  0.00     0.074 A 
ATOM     15  C   UNL d   1      -1.761  -7.596   2.929  0.00  0.00     0.037 A 
ATOM     16  C   UNL d   1      -2.550  -6.599   3.500  0.00  0.00     0.003 A 
ATOM     17  C   UNL d   1      -2.241  -5.271   3.258  0.00  0.00     0.001 A 
ATOM     18  C   UNL d   1      -1.146  -4.944   2.451  0.00  0.00     0.010 A 
BRANCH  14  19
ATOM     19  O   UNL d   1       0.060  -8.377   1.724  0.00  0.00    -0.355 OA
ATOM     20  C   UNL d   1       0.306  -8.545   0.333  0.00  0.00     0.210 C 
ENDBRANCH  14  19
ENDBRANCH  10  13
ENDBRANCH   2   7
BRANCH   1  21
ATOM     21  N   UNL d   1       2.564  -0.260   0.204  0.00  0.00    -0.113 N 
ATOM     22  O   UNL d   1       3.174  -0.790  -0.733  0.00  0.00    -0.532 OA
ATOM     23  O   UNL d   1       3.089   0.254   1.199  0.00  0.00    -0.532 OA
ENDBRANCH   1  21
BRANCH   5  24
ATOM     24  C   UNL d   1      -1.314   2.717   0.143  0.00  0.00     0.017 C 
ATOM     25  C   UNL d   1      -2.434   3.182  -0.442  0.00  0.00     0.075 C 
BRANCH  25  26
ATOM     26  C   UNL d   1      -2.931   4.534  -0.066  0.00  0.00     0.241 C 
ATOM     27  N   UNL d   1      -4.136   4.845  -0.639  0.00  0.00    -0.353 N 
ATOM     28  H   UNL d   1      -4.567   4.222  -1.305  0.00  0.00     0.163 HD
ATOM     29  O   UNL d   1      -2.328   5.261   0.714  0.00  0.00    -0.269 OA
BRANCH  27  30
ATOM     30  C   UNL d   1      -4.836   6.067  -0.315  0.00  0.00     0.161 C 
BRANCH  30  31
ATOM     31  C   UNL d   1      -4.979   6.955  -1.523  0.00  0.00    -0.041 A 
ATOM     32  C   UNL d   1      -6.110   6.877  -2.345  0.00  0.00     0.009 A 
ATOM     33  C   UNL d   1      -6.237   7.718  -3.452  0.00  0.00     0.001 A 
ATOM     34  C   UNL d   1      -5.232   8.636  -3.752  0.00  0.00     0.000 A 
ATOM     35  C   UNL d   1      -4.093   8.708  -2.951  0.00  0.00     0.001 A 
ATOM     36  C   UNL d   1      -3.963   7.867  -1.845  0.00  0.00     0.009 A 
ENDBRANCH  30  31
ENDBRANCH  27  30
ENDBRANCH  25  26
ENDBRANCH   5  24
TORSDOF 8
