REMARK  9 active torsions:
REMARK  status: ('A' for Active; 'I' for Inactive)
REMARK    1  A    between atoms: C_14  and  N_1 
REMARK    2  A    between atoms: S_8  and  C_2 
REMARK    3  A    between atoms: C_12  and  C_3 
REMARK    4  A    between atoms: C_9  and  S_8 
REMARK    5  A    between atoms: C_10  and  C_9 
REMARK    6  A    between atoms: C_11  and  C_9 
REMARK    7  A    between atoms: O_20  and  C_10 
REMARK    8  A    between atoms: C_18  and  C_14 
REMARK    9  A    between atoms: C_26  and  O_20 
ROOT
ATOM      1  N   UNL d   1      -0.331  -1.274   0.260  0.00  0.00    -0.307 N 
ATOM      2  C   UNL d   1       0.917  -0.729   0.058  0.00  0.00     0.164 A 
ATOM      3  C   UNL d   1      -1.233  -0.237   0.042  0.00  0.00     0.135 A 
ATOM      4  N   UNL d   1      -0.528   0.837  -0.279  0.00  0.00    -0.283 N 
ATOM      5  HN  UNL d   1      -0.919   1.753  -0.501  1.00  0.00     0.188 HD
ATOM      6  N   UNL d   1       0.804   0.531  -0.269  0.00  0.00    -0.278 N 
ATOM      7  HN  UNL d   1       1.571   1.171  -0.477  1.00  0.00     0.189 HD
ENDROOT
BRANCH   2   8
ATOM      8  S   UNL d   1       2.413  -1.593   0.183  0.00  0.00    -0.070 SA
BRANCH   8   9
ATOM      9  C   UNL d   1       3.644  -0.227   0.228  0.00  0.00     0.223 C 
BRANCH   9  10
ATOM     10  C   UNL d   1       3.572   0.494   1.552  0.00  0.00     0.280 C 
ATOM     11  O   UNL d   1       3.928   0.015   2.623  0.00  0.00    -0.263 OA
BRANCH  10  12
ATOM     12  O   UNL d   1       3.005   1.724   1.405  0.00  0.00    -0.321 OA
BRANCH  12  13
ATOM     13  C   UNL d   1       2.600   2.376   2.617  0.00  0.00     0.174 C 
ATOM     14  C   UNL d   1       1.211   1.895   2.998  0.00  0.00     0.034 C 
ENDBRANCH  12  13
ENDBRANCH  10  12
ENDBRANCH   9  10
BRANCH   9  15
ATOM     15  C   UNL d   1       5.035  -0.776  -0.024  0.00  0.00     0.146 C 
ATOM     16  O   UNL d   1       5.734  -0.325  -0.940  0.00  0.00    -0.297 OA
ATOM     17  C   UNL d   1       5.607  -1.847   0.877  0.00  0.00     0.092 C 
ENDBRANCH   9  15
ENDBRANCH   8   9
ENDBRANCH   2   8
BRANCH   1  18
ATOM     18  C   UNL d   1      -0.616  -2.643   0.656  0.00  0.00     0.159 C 
BRANCH  18  19
ATOM     19  C   UNL d   1      -1.205  -3.538  -0.400  0.00  0.00    -0.017 C 
ATOM     20  C   UNL d   1      -1.284  -3.327  -1.719  0.00  0.00     0.008 C 
ENDBRANCH  18  19
ENDBRANCH   1  18
BRANCH   3  21
ATOM     21  C   UNL d   1      -2.707  -0.246   0.054  0.00  0.00     0.012 A 
ATOM     22  C   UNL d   1      -3.494  -1.056   0.875  0.00  0.00     0.032 A 
ATOM     23  C   UNL d   1      -4.878  -0.969   0.787  0.00  0.00     0.088 A 
ATOM     24  N   UNL d   1      -5.529  -0.122  -0.029  0.00  0.00    -0.375 N 
ATOM     25  C   UNL d   1      -4.768   0.685  -0.788  0.00  0.00     0.088 A 
ATOM     26  HN  UNL d   1      -6.548  -0.094  -0.071  1.00  0.00     0.164 HD
ATOM     27  C   UNL d   1      -3.380   0.656  -0.781  0.00  0.00     0.032 A 
ENDBRANCH   3  21
TORSDOF 9
