REMARK  2 active torsions:
REMARK  status: ('A' for Active; 'I' for Inactive)
REMARK    1  A    between atoms: N_2  and  C_1 
REMARK    2  A    between atoms: C_7  and  C_3 
ROOT
ATOM      1  C   UNL d   1       0.087   1.260  -0.008  0.00  0.00     0.144 A 
ATOM      2  C   UNL d   1       1.430  -0.658   0.003  0.00  0.00     0.019 A 
ATOM      3  C   UNL d   1       1.380   0.779  -0.000  0.00  0.00     0.059 A 
ATOM      4  S   UNL d   1      -1.073   0.025  -0.013  0.00  0.00    -0.077 SA
ATOM      5  C   UNL d   1       0.143  -1.180  -0.004  0.00  0.00     0.067 A 
ENDROOT
BRANCH   1   6
ATOM      6  N   UNL d   1      -0.306   2.646  -0.013  0.00  0.00    -0.108 N 
ATOM      7  O   UNL d   1       0.616   3.474  -0.008  0.00  0.00    -0.531 OA
ATOM      8  O   UNL d   1      -1.513   2.918  -0.021  0.00  0.00    -0.531 OA
ENDBRANCH   1   6
BRANCH   2   9
ATOM      9  C   UNL d   1       2.615  -1.529   0.011  0.00  0.00     0.156 C 
ATOM     10  O   UNL d   1       2.493  -2.755   0.013  0.00  0.00    -0.293 OA
ATOM     11  C   UNL d   1       3.998  -0.926   0.016  0.00  0.00     0.097 C 
ENDBRANCH   2   9
TORSDOF 2
