REMARK  5 active torsions:
REMARK  status: ('A' for Active; 'I' for Inactive)
REMARK    1  A    between atoms: C_3  and  C_1 
REMARK    2  A    between atoms: N_6  and  C_2 
REMARK       I    between atoms: C_7  and  N_11 
REMARK    3  A    between atoms: O_19  and  C_7 
REMARK    4  A    between atoms: N_11  and  C_12 
REMARK    5  A    between atoms: C_22  and  O_19 
ROOT
ATOM      1  C   UNL d   1       4.646  -4.059  -2.220  0.00  0.00    -0.091 C 
ATOM      2  C   UNL d   1       4.626  -4.038  -3.418  0.00  0.00     0.014 C 
ATOM      3  C   UNL d   1       4.620  -4.041  -0.749  0.00  0.00     0.273 C 
ENDROOT
BRANCH   3   4
ATOM      4  O   UNL d   1       3.279  -3.768  -0.315  0.00  0.00    -0.292 OA
BRANCH   4   5
ATOM      5  C   UNL d   1       3.017  -2.448  -0.142  0.00  0.00     0.366 C 
ATOM      6  N   UNL d   1       1.657  -2.277  -0.030  0.00  0.00    -0.301 N 
ATOM      7  H   UNL d   1       1.123  -3.133  -0.101  0.00  0.00     0.171 HD
ATOM      8  O   UNL d   1       3.871  -1.580  -0.140  0.00  0.00    -0.238 OA
BRANCH   6   9
ATOM      9  C   UNL d   1       0.973  -1.048   0.013  0.00  0.00     0.053 A 
ATOM     10  C   UNL d   1       1.611   0.175   0.104  0.00  0.00     0.051 A 
ATOM     11  C   UNL d   1       0.891   1.387   0.128  0.00  0.00     0.093 A 
ATOM     12  C   UNL d   1      -0.497   1.351  -0.000  0.00  0.00     0.118 A 
ATOM     13  N   UNL d   1      -1.132   0.151  -0.057  0.00  0.00    -0.350 N 
ATOM     14  C   UNL d   1      -0.407  -1.000  -0.044  0.00  0.00     0.119 A 
ATOM     15  HN  UNL d   1      -2.150   0.113  -0.109  1.00  0.00     0.166 HD
BRANCH  11  16
ATOM     16  C   UNL d   1       1.714   2.627   0.321  0.00  0.00     0.421 C 
ATOM     17  F   UNL d   1       1.080   3.683   0.900  0.00  0.00    -0.166 F 
ATOM     18  F   UNL d   1       2.808   2.415   1.112  0.00  0.00    -0.166 F 
ATOM     19  F   UNL d   1       2.218   3.095  -0.860  0.00  0.00    -0.166 F 
ENDBRANCH  11  16
BRANCH  12  20
ATOM     20  N   UNL d   1      -1.288   2.477   0.026  0.00  0.00    -0.363 N 
ATOM     21  C   UNL d   1      -1.053   3.632  -0.858  0.00  0.00     0.150 C 
ATOM     22  C   UNL d   1      -1.493   4.887  -0.083  0.00  0.00     0.187 C 
ATOM     23  O   UNL d   1      -2.894   4.813   0.244  0.00  0.00    -0.388 OA
ATOM     24  C   UNL d   1      -3.172   3.642   1.038  0.00  0.00     0.187 C 
ATOM     25  C   UNL d   1      -2.722   2.341   0.339  0.00  0.00     0.150 C 
ENDBRANCH  12  20
ENDBRANCH   6   9
ENDBRANCH   4   5
ENDBRANCH   3   4
TORSDOF 5
