REMARK  3 active torsions:
REMARK  status: ('A' for Active; 'I' for Inactive)
REMARK    1  A    between atoms: C_12  and  C_1 
REMARK    2  A    between atoms: C_14  and  C_7 
REMARK    3  A    between atoms: C_15  and  C_8 
ROOT
ATOM      1  C   UNL d   1       0.132   1.207  -0.055  0.00  0.00     0.100 A 
ATOM      2  N   UNL d   1       0.677  -3.653   0.053  0.00  0.00    -0.318 N 
ATOM      3  HN  UNL d   1       1.687  -3.587   0.176  1.00  0.00     0.169 HD
ATOM      4  C   UNL d   1      -0.197  -2.677  -0.097  0.00  0.00     0.189 A 
ATOM      5  S   UNL d   1      -1.031  -0.063  -0.143  0.00  0.00    -0.081 SA
ATOM      6  C   UNL d   1       0.152  -1.283  -0.094  0.00  0.00     0.059 A 
ATOM      7  C   UNL d   1       1.431   0.701  -0.048  0.00  0.00    -0.003 A 
ATOM      8  C   UNL d   1      -0.111  -4.787   0.003  0.00  0.00     0.138 A 
ATOM      9  C   UNL d   1       1.418  -0.741  -0.048  0.00  0.00     0.037 A 
ATOM     10  N   UNL d   1      -1.413  -4.532  -0.185  0.00  0.00    -0.242 N 
ATOM     11  HN  UNL d   1      -2.179  -5.201  -0.264  1.00  0.00     0.196 HD
ATOM     12  O   UNL d   1      -1.476  -3.145  -0.248  0.00  0.00    -0.217 OA
ENDROOT
BRANCH   1  13
ATOM     13  C   UNL d   1      -0.376   2.616   0.003  0.00  0.00     0.424 C 
ATOM     14  F   UNL d   1      -1.712   2.696   0.251  0.00  0.00    -0.166 F 
ATOM     15  F   UNL d   1       0.231   3.343   0.976  0.00  0.00    -0.166 F 
ATOM     16  F   UNL d   1      -0.176   3.275  -1.169  0.00  0.00    -0.166 F 
ENDBRANCH   1  13
BRANCH   7  17
ATOM     17  C   UNL d   1       2.651   1.518  -0.005  0.00  0.00    -0.025 A 
ATOM     18  C   UNL d   1       3.739   1.097   0.778  0.00  0.00     0.012 A 
ATOM     19  C   UNL d   1       4.937   1.819   0.795  0.00  0.00     0.001 A 
ATOM     20  C   UNL d   1       5.060   2.983   0.042  0.00  0.00     0.000 A 
ATOM     21  C   UNL d   1       3.993   3.413  -0.741  0.00  0.00     0.001 A 
ATOM     22  C   UNL d   1       2.804   2.676  -0.779  0.00  0.00     0.012 A 
ENDBRANCH   7  17
BRANCH   8  23
ATOM     23  C   UNL d   1       0.443  -6.128   0.158  0.00  0.00     0.010 A 
ATOM     24  C   UNL d   1       1.812  -6.308   0.405  0.00  0.00     0.015 A 
ATOM     25  C   UNL d   1       2.342  -7.590   0.575  0.00  0.00     0.001 A 
ATOM     26  C   UNL d   1       1.511  -8.705   0.497  0.00  0.00     0.000 A 
ATOM     27  C   UNL d   1       0.150  -8.543   0.247  0.00  0.00     0.001 A 
ATOM     28  C   UNL d   1      -0.382  -7.262   0.078  0.00  0.00     0.015 A 
ENDBRANCH   8  23
TORSDOF 3
