REMARK  4 active torsions:
REMARK  status: ('A' for Active; 'I' for Inactive)
REMARK    1  A    between atoms: C_8  and  N_1 
REMARK    2  A    between atoms: C_3  and  C_2 
REMARK    3  A    between atoms: C_9  and  C_7 
REMARK    4  A    between atoms: S_23  and  C_16 
ROOT
ATOM      1  N   UNL d   1      -0.239  -1.304   0.084  0.00  0.00    -0.239 N 
ATOM      2  C   UNL d   1       0.962  -0.687  -0.029  0.00  0.00     0.149 A 
ATOM      3  N   UNL d   1       0.866   0.591  -0.212  0.00  0.00    -0.238 N 
ATOM      4  HN  UNL d   1       1.629   1.260  -0.312  1.00  0.00     0.196 HD
ATOM      5  C   UNL d   1      -1.177  -0.346  -0.130  0.00  0.00     0.395 A 
ATOM      6  O   UNL d   1      -0.533   0.865  -0.247  0.00  0.00    -0.179 OA
ATOM      7  O   UNL d   1      -2.387  -0.480  -0.215  0.00  0.00    -0.235 OA
ENDROOT
BRANCH   2   8
ATOM      8  C   UNL d   1       2.268  -1.376  -0.063  0.00  0.00     0.041 A 
ATOM      9  C   UNL d   1       3.437  -0.893   0.538  0.00  0.00     0.066 A 
ATOM     10  C   UNL d   1       4.642  -1.602   0.324  0.00  0.00     0.054 A 
ATOM     11  C   UNL d   1       4.646  -2.757  -0.446  0.00  0.00     0.070 A 
ATOM     12  N   UNL d   1       3.531  -3.217  -1.033  0.00  0.00    -0.360 N 
ATOM     13  C   UNL d   1       2.390  -2.516  -0.855  0.00  0.00     0.105 A 
ATOM     14  HN  UNL d   1       3.544  -4.067  -1.596  1.00  0.00     0.166 HD
BRANCH   9  15
ATOM     15  C   UNL d   1       3.524   0.339   1.401  0.00  0.00     0.418 C 
ATOM     16  F   UNL d   1       2.349   0.832   1.859  0.00  0.00    -0.166 F 
ATOM     17  F   UNL d   1       4.255   0.092   2.530  0.00  0.00    -0.166 F 
ATOM     18  F   UNL d   1       4.170   1.362   0.775  0.00  0.00    -0.166 F 
ENDBRANCH   9  15
BRANCH  11  19
ATOM     19  S   UNL d   1       6.155  -3.664  -0.691  0.00  0.00    -0.117 SA
ATOM     20  C   UNL d   1       5.520  -5.093  -1.613  0.00  0.00     0.097 C 
ENDBRANCH  11  19
ENDBRANCH   2   8
BRANCH   1  21
ATOM     21  C   UNL d   1      -0.522  -2.684   0.154  0.00  0.00     0.052 A 
ATOM     22  C   UNL d   1      -0.083  -3.485   1.222  0.00  0.00    -0.034 A 
ATOM     23  C   UNL d   1      -0.239  -4.882   1.128  0.00  0.00     0.015 A 
ATOM     24  C   UNL d   1       0.488  -2.932   2.498  0.00  0.00     0.050 C 
ATOM     25  C   UNL d   1      -0.820  -5.479  -0.000  0.00  0.00    -0.061 A 
ATOM     26  C   UNL d   1      -1.299  -4.665  -1.026  0.00  0.00     0.009 A 
ATOM     27  C   UNL d   1      -0.949  -6.972  -0.076  0.00  0.00     0.048 C 
ATOM     28  C   UNL d   1      -1.168  -3.277  -0.942  0.00  0.00     0.031 A 
ENDBRANCH   1  21
TORSDOF 4
