REMARK  3 active torsions:
REMARK  status: ('A' for Active; 'I' for Inactive)
REMARK    1  A    between atoms: C_13  and  N_2 
REMARK    2  A    between atoms: N_10  and  C_7 
REMARK    3  A    between atoms: C_16  and  C_13 
ROOT
ATOM      1  C   UNL d   1       0.317  -0.734  -0.018  0.00  0.00     0.135 A 
ATOM      2  N   UNL d   1       1.477   1.096   0.013  0.00  0.00    -0.254 N 
ATOM      3  C   UNL d   1       0.188   0.646  -0.071  0.00  0.00     0.154 A 
ATOM      4  N   UNL d   1       2.358   0.072   0.070  0.00  0.00    -0.018 NA
ATOM      5  N   UNL d   1       1.653  -1.056   0.068  0.00  0.00    -0.277 N 
ATOM      6  HN  UNL d   1       2.037  -1.999   0.120  1.00  0.00     0.184 HD
ATOM      7  C   UNL d   1      -0.868  -1.501  -0.077  0.00  0.00     0.136 A 
ATOM      8  N   UNL d   1      -0.941   1.366  -0.172  0.00  0.00    -0.336 N 
ATOM      9  HN  UNL d   1      -0.981   2.385  -0.202  1.00  0.00     0.168 HD
ATOM     10  N   UNL d   1      -2.035  -0.793  -0.197  0.00  0.00    -0.337 N 
ATOM     11  HN  UNL d   1      -2.925  -1.287  -0.264  1.00  0.00     0.168 HD
ATOM     12  C   UNL d   1      -2.009   0.556  -0.225  0.00  0.00     0.183 A 
ENDROOT
BRANCH   2  13
ATOM     13  C   UNL d   1       1.944   2.469   0.018  0.00  0.00     0.187 C 
BRANCH  13  14
ATOM     14  C   UNL d   1       2.074   2.987   1.431  0.00  0.00    -0.038 A 
ATOM     15  C   UNL d   1       3.267   2.802   2.149  0.00  0.00     0.012 A 
ATOM     16  C   UNL d   1       3.355   3.195   3.486  0.00  0.00     0.043 A 
ATOM     17  C   UNL d   1       2.254   3.775   4.103  0.00  0.00     0.116 A 
ATOM     18  C   UNL d   1       1.072   3.989   3.404  0.00  0.00     0.043 A 
ATOM     19  F   UNL d   1       2.329   4.123   5.394  0.00  0.00    -0.206 F 
ATOM     20  C   UNL d   1       0.980   3.596   2.068  0.00  0.00     0.012 A 
ENDBRANCH  13  14
ENDBRANCH   2  13
BRANCH   7  21
ATOM     21  N   UNL d   1      -0.967  -2.893   0.018  0.00  0.00    -0.361 N 
ATOM     22  C   UNL d   1       0.258  -3.687   0.203  0.00  0.00     0.150 C 
ATOM     23  C   UNL d   1      -0.125  -5.138   0.546  0.00  0.00     0.187 C 
ATOM     24  O   UNL d   1      -0.973  -5.713  -0.463  0.00  0.00    -0.388 OA
ATOM     25  C   UNL d   1      -2.185  -4.950  -0.580  0.00  0.00     0.187 C 
ATOM     26  C   UNL d   1      -1.903  -3.488  -0.955  0.00  0.00     0.150 C 
ENDBRANCH   7  21
TORSDOF 3
