REMARK  4 active torsions:
REMARK  status: ('A' for Active; 'I' for Inactive)
REMARK    1  A    between atoms: C_14  and  N_2 
REMARK    2  A    between atoms: N_8  and  C_7 
REMARK    3  A    between atoms: C_20  and  N_11 
REMARK    4  A    between atoms: C_21  and  C_14 
ROOT
ATOM      1  C   UNL d   1       0.162  -0.715   0.452  0.00  0.00     0.135 A 
ATOM      2  N   UNL d   1       1.145   1.155   0.952  0.00  0.00    -0.254 N 
ATOM      3  C   UNL d   1       0.037   0.661   0.322  0.00  0.00     0.154 A 
ATOM      4  N   UNL d   1       1.936   0.158   1.409  0.00  0.00    -0.018 NA
ATOM      5  N   UNL d   1       1.333  -0.990   1.122  0.00  0.00    -0.277 N 
ATOM      6  HN  UNL d   1       1.679  -1.920   1.357  1.00  0.00     0.184 HD
ATOM      7  C   UNL d   1      -0.864  -1.520  -0.099  0.00  0.00     0.136 A 
ATOM      8  N   UNL d   1      -0.951   1.346  -0.278  0.00  0.00    -0.336 N 
ATOM      9  HN  UNL d   1      -0.992   2.363  -0.352  1.00  0.00     0.168 HD
ATOM     10  N   UNL d   1      -1.885  -0.841  -0.714  0.00  0.00    -0.337 N 
ATOM     11  HN  UNL d   1      -2.655  -1.359  -1.136  1.00  0.00     0.168 HD
ATOM     12  C   UNL d   1      -1.877   0.506  -0.766  0.00  0.00     0.183 A 
ENDROOT
BRANCH   7  13
ATOM     13  N   UNL d   1      -0.963  -2.914  -0.029  0.00  0.00    -0.362 N 
ATOM     14  C   UNL d   1      -1.689  -3.537  -1.159  0.00  0.00     0.144 C 
ATOM     15  C   UNL d   1      -2.097  -4.998  -0.843  0.00  0.00     0.143 C 
ATOM     16  N   UNL d   1      -0.951  -5.776  -0.342  0.00  0.00    -0.378 N 
ATOM     17  C   UNL d   1      -0.219  -5.143   0.767  0.00  0.00     0.143 C 
ATOM     18  C   UNL d   1       0.204  -3.698   0.422  0.00  0.00     0.144 C 
BRANCH  16  19
ATOM     19  C   UNL d   1      -0.448  -6.854  -1.046  0.00  0.00     0.030 A 
ATOM     20  C   UNL d   1      -1.302  -7.793  -1.644  0.00  0.00     0.029 A 
ATOM     21  C   UNL d   1      -0.807  -8.917  -2.317  0.00  0.00     0.002 A 
ATOM     22  C   UNL d   1       0.564  -9.123  -2.413  0.00  0.00     0.000 A 
ATOM     23  C   UNL d   1       1.434  -8.203  -1.840  0.00  0.00     0.002 A 
ATOM     24  C   UNL d   1       0.928  -7.086  -1.168  0.00  0.00     0.029 A 
ENDBRANCH  16  19
ENDBRANCH   7  13
BRANCH   2  25
ATOM     25  C   UNL d   1       1.533   2.542   1.109  0.00  0.00     0.187 C 
BRANCH  25  26
ATOM     26  C   UNL d   1       1.018   3.107   2.410  0.00  0.00    -0.039 A 
ATOM     27  C   UNL d   1       1.774   2.988   3.587  0.00  0.00     0.009 A 
ATOM     28  C   UNL d   1       1.262   3.437   4.805  0.00  0.00     0.001 A 
ATOM     29  C   UNL d   1      -0.005   4.013   4.860  0.00  0.00     0.000 A 
ATOM     30  C   UNL d   1      -0.756   4.156   3.695  0.00  0.00     0.001 A 
ATOM     31  C   UNL d   1      -0.248   3.706   2.475  0.00  0.00     0.009 A 
ENDBRANCH  25  26
ENDBRANCH   2  25
TORSDOF 4
