REMARK  2 active torsions:
REMARK  status: ('A' for Active; 'I' for Inactive)
REMARK    1  A    between atoms: N_7  and  C_2 
REMARK       I    between atoms: C_4  and  N_6 
REMARK       I    between atoms: N_12  and  C_4 
REMARK    2  A    between atoms: C_18  and  N_12 
ROOT
ATOM      1  C   UNL d   1       2.647  -6.745  -0.790  0.00  0.00     0.323 C 
ATOM      2  N   UNL d   1       2.271  -5.478  -0.379  0.00  0.00    -0.332 N 
ATOM      3  N   UNL d   1       1.529  -2.733  -0.036  0.00  0.00    -0.265 NA
ATOM      4  N   UNL d   1       3.829  -7.223  -0.269  0.00  0.00    -0.309 N 
ATOM      5  O   UNL d   1       1.952  -7.374  -1.584  0.00  0.00    -0.247 OA
ATOM      6  C   UNL d   1       2.870  -4.657   0.694  0.00  0.00     0.142 C 
ATOM      7  C   UNL d   1       0.965  -4.974  -0.852  0.00  0.00     0.142 C 
ATOM      8  C   UNL d   1       2.888  -3.159   0.335  0.00  0.00     0.117 C 
ATOM      9  C   UNL d   1       1.021  -3.478  -1.206  0.00  0.00     0.117 C 
ATOM     10  H   UNL d   1       4.303  -6.646   0.402  0.00  0.00     0.170 HD
ENDROOT
BRANCH   4  11
ATOM     11  C   UNL d   1       4.421  -8.484  -0.498  0.00  0.00     0.038 A 
ATOM     12  C   UNL d   1       3.911  -9.446  -1.373  0.00  0.00     0.055 A 
ATOM     13  C   UNL d   1       4.510 -10.707  -1.477  0.00  0.00     0.058 A 
ATOM     14 CL   UNL d   1       3.791 -11.853  -2.555  0.00  0.00    -0.082 Cl
ATOM     15  C   UNL d   1       5.640 -11.010  -0.714  0.00  0.00     0.055 A 
ATOM     16  C   UNL d   1       6.184 -10.037   0.127  0.00  0.00     0.028 A 
ATOM     17 CL   UNL d   1       6.399 -12.560  -0.748  0.00  0.00    -0.083 Cl
ATOM     18  C   UNL d   1       5.580  -8.781   0.230  0.00  0.00     0.031 A 
ENDBRANCH   4  11
BRANCH   3  19
ATOM     19  C   UNL d   1       1.371  -1.348  -0.138  0.00  0.00     0.103 A 
ATOM     20  C   UNL d   1       0.124  -0.716   0.027  0.00  0.00     0.070 A 
ATOM     21  S   UNL d   1      -1.429  -1.399   0.331  0.00  0.00    -0.096 SA
ATOM     22  C   UNL d   1       0.050   0.674  -0.003  0.00  0.00     0.060 A 
ATOM     23  C   UNL d   1      -2.177   0.128   0.386  0.00  0.00     0.059 A 
ATOM     24  C   UNL d   1      -1.285   1.166   0.204  0.00  0.00    -0.027 A 
ATOM     25  C   UNL d   1      -1.668   2.606   0.234  0.00  0.00     0.051 C 
ATOM     26  N   UNL d   1       1.142   1.456  -0.191  0.00  0.00    -0.351 N 
ATOM     27  C   UNL d   1       2.284   0.779  -0.319  0.00  0.00     0.182 A 
ATOM     28  HN  UNL d   1       1.094   2.474  -0.231  1.00  0.00     0.166 HD
ATOM     29  N   UNL d   1       2.454  -0.550  -0.295  0.00  0.00    -0.342 N 
ATOM     30  HN  UNL d   1       3.385  -0.955  -0.393  1.00  0.00     0.167 HD
ENDBRANCH   3  19
TORSDOF 2
