REMARK  17 active torsions:
REMARK  status: ('A' for Active; 'I' for Inactive)
REMARK    1  A    between atoms: C_1  and  C_3 
REMARK    2  A    between atoms: C_3  and  O_11 
REMARK    3  A    between atoms: C_3  and  C_5 
REMARK    4  A    between atoms: C_4  and  C_10 
REMARK    5  A    between atoms: C_7  and  C_5 
REMARK    6  A    between atoms: C_5  and  O_12 
REMARK    7  A    between atoms: C_9  and  C_7 
REMARK    8  A    between atoms: C_7  and  O_13 
REMARK    9  A    between atoms: C_9  and  O_14 
REMARK   10  A    between atoms: C_20  and  C_9 
REMARK   11  A    between atoms: O_28  and  C_10 
REMARK   12  A    between atoms: C_15  and  O_11 
REMARK   13  A    between atoms: C_16  and  O_12 
REMARK   14  A    between atoms: C_17  and  O_13 
REMARK   15  A    between atoms: C_18  and  O_14 
REMARK   16  A    between atoms: C_19  and  O_22 
REMARK   17  A    between atoms: O_22  and  C_20 
ROOT
ATOM      1  C   UNL d   1      -3.964   0.035   0.955  0.00  0.00     0.196 C 
ENDROOT
BRANCH   1   2
ATOM      2  C   UNL d   1      -4.406   0.481  -0.475  0.00  0.00     0.195 C 
BRANCH   2   3
ATOM      3  C   UNL d   1      -5.948   0.635  -0.602  0.00  0.00     0.188 C 
BRANCH   3   4
ATOM      4  O   UNL d   1      -6.433   1.680   0.276  0.00  0.00    -0.311 OA
BRANCH   4   5
ATOM      5  C   UNL d   1      -7.141   1.282   1.365  0.00  0.00     0.255 C 
ATOM      6  O   UNL d   1      -7.368   0.125   1.686  0.00  0.00    -0.266 OA
ATOM      7  C   UNL d   1      -7.604   2.479   2.134  0.00  0.00     0.126 C 
ENDBRANCH   4   5
ENDBRANCH   3   4
BRANCH   3   8
ATOM      8  C   UNL d   1      -6.369   1.040  -2.027  0.00  0.00     0.213 C 
BRANCH   8   9
ATOM      9  O   UNL d   1      -7.809   1.132  -2.127  0.00  0.00    -0.319 OA
BRANCH   9  10
ATOM     10  C   UNL d   1      -8.465  -0.037  -2.355  0.00  0.00     0.254 C 
ATOM     11  O   UNL d   1      -7.928  -1.128  -2.478  0.00  0.00    -0.266 OA
ATOM     12  C   UNL d   1      -9.948   0.185  -2.402  0.00  0.00     0.126 C 
ENDBRANCH   9  10
ENDBRANCH   8   9
ENDBRANCH   3   8
ENDBRANCH   2   3
BRANCH   2  13
ATOM     13  O   UNL d   1      -3.804   1.741  -0.854  0.00  0.00    -0.311 OA
BRANCH  13  14
ATOM     14  C   UNL d   1      -2.599   1.688  -1.480  0.00  0.00     0.255 C 
ATOM     15  O   UNL d   1      -2.039   0.656  -1.818  0.00  0.00    -0.266 OA
ATOM     16  C   UNL d   1      -2.073   3.061  -1.762  0.00  0.00     0.126 C 
ENDBRANCH  13  14
ENDBRANCH   2  13
ENDBRANCH   1   2
BRANCH   1  17
ATOM     17  O   UNL d   1      -4.298   1.011   1.997  0.00  0.00    -0.311 OA
BRANCH  17  18
ATOM     18  C   UNL d   1      -3.515   2.093   2.221  0.00  0.00     0.255 C 
ATOM     19  O   UNL d   1      -2.611   2.493   1.502  0.00  0.00    -0.266 OA
ATOM     20  C   UNL d   1      -3.833   2.678   3.565  0.00  0.00     0.126 C 
ENDBRANCH  17  18
ENDBRANCH   1  17
BRANCH   1  21
ATOM     21  C   UNL d   1      -2.491  -0.465   1.121  0.00  0.00     0.207 C 
BRANCH  21  22
ATOM     22  C   UNL d   1      -2.160  -1.758   0.304  0.00  0.00     0.315 C 
ATOM     23  N   UNL d   1      -0.743  -2.143   0.373  0.00  0.00     0.116 N 
ATOM     24  C   UNL d   1      -0.603  -3.615   0.261  0.00  0.00     0.338 C 
ATOM     25  H   UNL d   1      -0.319  -1.802   1.235  0.00  0.00     0.318 HD
ATOM     26  C   UNL d   1      -1.736  -4.311   1.037  0.00  0.00     0.043 C 
ATOM     27  S   UNL d   1      -3.165  -3.203   0.806  0.00  0.00    -0.119 SA
ATOM     28  C   UNL d   1      -1.429  -4.364   2.543  0.00  0.00     0.029 C 
ATOM     29  C   UNL d   1      -2.085  -5.718   0.547  0.00  0.00     0.029 C 
BRANCH  24  30
ATOM     30  C   UNL d   1      -0.431  -4.068  -1.199  0.00  0.00     0.293 C 
ATOM     31  O   UNL d   1       0.225  -5.058  -1.509  0.00  0.00    -0.263 OA
BRANCH  30  32
ATOM     32  O   UNL d   1      -1.084  -3.267  -2.083  0.00  0.00    -0.325 OA
ATOM     33  C   UNL d   1      -0.834  -3.525  -3.464  0.00  0.00     0.213 C 
ENDBRANCH  30  32
ENDBRANCH  24  30
ENDBRANCH  21  22
BRANCH  21  34
ATOM     34  O   UNL d   1      -2.295  -0.698   2.557  0.00  0.00    -0.310 OA
BRANCH  34  35
ATOM     35  C   UNL d   1      -1.058  -0.476   3.070  0.00  0.00     0.255 C 
ATOM     36  O   UNL d   1      -0.063  -0.199   2.416  0.00  0.00    -0.266 OA
ATOM     37  C   UNL d   1      -1.042  -0.662   4.554  0.00  0.00     0.126 C 
ENDBRANCH  34  35
ENDBRANCH  21  34
ENDBRANCH   1  21
TORSDOF 17
