REMARK  10 active torsions:
REMARK  status: ('A' for Active; 'I' for Inactive)
REMARK    1  A    between atoms: C_4  and  C_1 
REMARK    2  A    between atoms: C_6  and  N_2 
REMARK    3  A    between atoms: N_3  and  C_5 
REMARK    4  A    between atoms: C_9  and  N_12 
REMARK    5  A    between atoms: N_25  and  C_9 
REMARK    6  A    between atoms: N_12  and  C_27 
REMARK    7  A    between atoms: C_31  and  N_25 
REMARK    8  A    between atoms: C_29  and  C_31 
REMARK    9  A    between atoms: C_32  and  C_29 
REMARK   10  A    between atoms: O_30  and  C_32 
ROOT
ATOM      1  C   UNL d   1      -1.800   5.520   7.254  0.00  0.00     0.103 A 
ATOM      2  N   UNL d   1      -3.029   5.823   7.730  0.00  0.00    -0.350 N 
ATOM      3  HN  UNL d   1      -3.850   5.314   7.403  1.00  0.00     0.166 HD
ATOM      4  C   UNL d   1      -0.703   6.263   7.695  0.00  0.00     0.051 A 
ATOM      5  C   UNL d   1      -3.154   6.817   8.653  0.00  0.00     0.119 A 
ATOM      6  C   UNL d   1      -2.109   7.592   9.133  0.00  0.00     0.050 A 
ATOM      7  C   UNL d   1      -0.855   7.304   8.623  0.00  0.00     0.035 A 
ENDROOT
BRANCH   1   8
ATOM      8  N   UNL d   1      -1.660   4.413   6.431  0.00  0.00    -0.364 N 
ATOM      9  C   UNL d   1      -0.553   4.246   5.470  0.00  0.00     0.144 C 
ATOM     10  C   UNL d   1      -0.989   4.604   4.033  0.00  0.00     0.144 C 
ATOM     11  N   UNL d   1      -2.232   3.920   3.628  0.00  0.00    -0.364 N 
ATOM     12  C   UNL d   1      -3.334   4.021   4.610  0.00  0.00     0.144 C 
ATOM     13  C   UNL d   1      -2.870   3.662   6.042  0.00  0.00     0.144 C 
BRANCH  11  14
ATOM     14  C   UNL d   1      -2.159   2.867   2.736  0.00  0.00     0.103 A 
ATOM     15  C   UNL d   1      -3.294   2.445   2.037  0.00  0.00     0.049 A 
ATOM     16  C   UNL d   1      -3.197   1.456   1.051  0.00  0.00     0.021 A 
ATOM     17  C   UNL d   1      -1.964   0.883   0.769  0.00  0.00     0.063 A 
ATOM     18  C   UNL d   1      -0.885   1.337   1.508  0.00  0.00     0.106 A 
ATOM     19  N   UNL d   1      -0.961   2.301   2.463  0.00  0.00    -0.352 N 
ATOM     20  HN  UNL d   1      -0.125   2.593   2.969  1.00  0.00     0.166 HD
BRANCH  17  21
ATOM     21  C   UNL d   1      -1.802  -0.145  -0.306  0.00  0.00     0.418 C 
ATOM     22  F   UNL d   1      -0.547  -0.667  -0.383  0.00  0.00    -0.166 F 
ATOM     23  F   UNL d   1      -2.074   0.350  -1.545  0.00  0.00    -0.166 F 
ATOM     24  F   UNL d   1      -2.637  -1.209  -0.142  0.00  0.00    -0.166 F 
ENDBRANCH  17  21
ENDBRANCH  11  14
ENDBRANCH   1   8
BRANCH   6  25
ATOM     25  N   UNL d   1      -2.333   8.511  10.180  0.00  0.00    -0.332 N 
ATOM     26  H   UNL d   1      -3.194   8.384  10.710  0.00  0.00     0.168 HD
BRANCH  25  27
ATOM     27  C   UNL d   1      -1.620   9.631  10.525  0.00  0.00     0.172 C 
ATOM     28  S   UNL d   1      -0.704  10.603   9.521  0.00  0.00    -0.041 SA
BRANCH  27  29
ATOM     29  N   UNL d   1      -1.730  10.011  11.838  0.00  0.00    -0.367 N 
ATOM     30  H   UNL d   1      -1.196  10.846  12.058  0.00  0.00     0.161 HD
BRANCH  29  31
ATOM     31  C   UNL d   1      -2.058   9.137  12.954  0.00  0.00     0.124 C 
BRANCH  31  32
ATOM     32  C   UNL d   1      -3.362   9.513  13.647  0.00  0.00     0.046 C 
BRANCH  32  33
ATOM     33  C   UNL d   1      -4.590   9.467  12.743  0.00  0.00     0.168 C 
BRANCH  33  34
ATOM     34  O   UNL d   1      -4.646   8.218  12.051  0.00  0.00    -0.396 OA
ATOM     35  C   UNL d   1      -5.866   8.083  11.327  0.00  0.00     0.201 C 
ENDBRANCH  33  34
ENDBRANCH  32  33
ENDBRANCH  31  32
ENDBRANCH  29  31
ENDBRANCH  27  29
ENDBRANCH  25  27
ENDBRANCH   6  25
TORSDOF 10
