REMARK  4 active torsions:
REMARK  status: ('A' for Active; 'I' for Inactive)
REMARK    1  A    between atoms: O_6  and  S_1 
REMARK    2  A    between atoms: C_7  and  S_1 
REMARK    3  A    between atoms: N_2  and  C_4 
REMARK    4  A    between atoms: C_5  and  O_6 
ROOT
ATOM      1  O   UNL d   1       0.362   0.904  -0.674  0.00  0.00    -0.266 OA
ENDROOT
BRANCH   1   2
ATOM      2  C   UNL d   1       1.067   2.098  -1.031  0.00  0.00     0.149 C 
ATOM      3  C   UNL d   1       0.038   3.251  -1.161  0.00  0.00     0.045 C 
ATOM      4  C   UNL d   1       0.672   4.596  -1.579  0.00  0.00     0.162 C 
ATOM      5  C   UNL d   1      -0.234   3.550   0.321  0.00  0.00     0.014 C 
ATOM      6  C   UNL d   1       1.538   4.992  -0.374  0.00  0.00     0.037 C 
ATOM      7  C   UNL d   1       1.235   3.857   0.620  0.00  0.00    -0.009 C 
ATOM      8  C   UNL d   1       1.947   2.581   0.138  0.00  0.00     0.038 C 
BRANCH   4   9
ATOM      9  N   UNL d   1       1.439   4.485  -2.863  0.00  0.00    -0.150 N 
ATOM     10  O   UNL d   1       2.632   4.166  -2.812  0.00  0.00    -0.536 OA
ATOM     11  O   UNL d   1       0.802   4.708  -3.899  0.00  0.00    -0.536 OA
ENDBRANCH   4   9
ENDBRANCH   1   2
BRANCH   1  12
ATOM     12  S   UNL d   1       1.183  -0.515  -0.650  0.00  0.00     0.298 S 
ATOM     13  O   UNL d   1       2.035  -0.533   0.522  0.00  0.00    -0.193 OA
ATOM     14  O   UNL d   1       1.715  -0.734  -1.979  0.00  0.00    -0.193 OA
BRANCH  12  15
ATOM     15  C   UNL d   1      -0.056  -1.756  -0.372  0.00  0.00     0.086 A 
ATOM     16  C   UNL d   1       0.221  -3.071  -0.751  0.00  0.00     0.026 A 
ATOM     17  C   UNL d   1      -0.758  -4.053  -0.598  0.00  0.00     0.008 A 
ATOM     18  C   UNL d   1      -2.015  -3.725  -0.072  0.00  0.00    -0.062 A 
ATOM     19  C   UNL d   1      -2.268  -2.406   0.332  0.00  0.00     0.008 A 
ATOM     20  C   UNL d   1      -3.078  -4.781   0.031  0.00  0.00     0.048 C 
ATOM     21  C   UNL d   1      -1.292  -1.418   0.184  0.00  0.00     0.026 A 
ENDBRANCH  12  15
ENDBRANCH   1  12
TORSDOF 4
