REMARK  2 active torsions:
REMARK  status: ('A' for Active; 'I' for Inactive)
REMARK       I    between atoms: N_3  and  C_1 
REMARK    1  A    between atoms: C_5  and  C_1 
REMARK       I    between atoms: C_2  and  N_4 
REMARK    2  A    between atoms: C_14  and  C_2 
ROOT
ATOM      1  C   UNL d   1       1.036   0.124   0.085  0.00  0.00     0.277 C 
ATOM      2  C   UNL d   1      -0.751   2.060   4.819  0.00  0.00     0.253 C 
ATOM      3  N   UNL d   1       0.245   0.826   0.999  0.00  0.00    -0.343 N 
ATOM      4  N   UNL d   1      -0.076   1.453   3.763  0.00  0.00    -0.345 N 
ATOM      5  C   UNL d   1       0.752   2.091   1.548  0.00  0.00     0.146 C 
ATOM      6  C   UNL d   1      -0.572   0.166   3.259  0.00  0.00     0.146 C 
ATOM      7  C   UNL d   1      -0.881   0.239   1.750  0.00  0.00     0.146 C 
ATOM      8  C   UNL d   1       1.109   1.932   3.034  0.00  0.00     0.146 C 
ATOM      9  O   UNL d   1       2.197   0.478  -0.131  0.00  0.00    -0.265 OA
ATOM     10  O   UNL d   1      -1.670   1.488   5.408  0.00  0.00    -0.267 OA
ENDROOT
BRANCH   2  11
ATOM     11  C   UNL d   1      -0.401   3.425   5.302  0.00  0.00     0.032 A 
ATOM     12  C   UNL d   1      -0.072   4.484   4.450  0.00  0.00     0.017 A 
ATOM     13  C   UNL d   1       0.246   5.741   4.974  0.00  0.00     0.001 A 
ATOM     14  C   UNL d   1       0.168   5.968   6.347  0.00  0.00     0.000 A 
ATOM     15  C   UNL d   1      -0.235   4.942   7.198  0.00  0.00     0.001 A 
ATOM     16  C   UNL d   1      -0.514   3.676   6.679  0.00  0.00     0.017 A 
ENDBRANCH   2  11
BRANCH   1  17
ATOM     17  C   UNL d   1       0.466  -1.019  -0.608  0.00  0.00     0.142 A 
ATOM     18  O   UNL d   1      -0.882  -1.091  -0.851  0.00  0.00    -0.317 OA
ATOM     19  C   UNL d   1      -1.109  -2.231  -1.551  0.00  0.00     0.143 A 
ATOM     20  C   UNL d   1       0.074  -2.896  -1.785  0.00  0.00     0.027 A 
ATOM     21  C   UNL d   1       1.088  -2.107  -1.196  0.00  0.00     0.045 A 
ENDBRANCH   1  17
TORSDOF 2
