REMARK  2 active torsions:
REMARK  status: ('A' for Active; 'I' for Inactive)
REMARK    1  A    between atoms: C_7  and  N_3 
REMARK    2  A    between atoms: C_8  and  C_7 
ROOT
ATOM      1  N   UNL d   1      -0.013   0.755   1.206  0.00  0.00    -0.275 N 
ATOM      2  C   UNL d   1      -0.501  -0.525   1.175  0.00  0.00     0.329 A 
ATOM      3  N   UNL d   1      -0.660  -1.072  -0.091  0.00  0.00    -0.305 N 
ATOM      4  C   UNL d   1       0.299   1.529   0.127  0.00  0.00     0.256 A 
ATOM      5  C   UNL d   1       0.214   0.860  -1.191  0.00  0.00     0.022 A 
ATOM      6  C   UNL d   1      -0.279  -0.384  -1.227  0.00  0.00     0.108 A 
ATOM      7  O   UNL d   1      -0.753  -1.101   2.228  0.00  0.00    -0.246 OA
ATOM      8  O   UNL d   1       0.632   2.704   0.245  0.00  0.00    -0.267 OA
ATOM      9  C   UNL d   1       0.657   1.596  -2.413  0.00  0.00     0.056 C 
ATOM     10  H   UNL d   1       0.055   1.186   2.114  0.00  0.00     0.173 HD
ENDROOT
BRANCH   3  11
ATOM     11  C   UNL d   1      -1.268  -2.404  -0.224  0.00  0.00     0.172 C 
BRANCH  11  12
ATOM     12  C   UNL d   1      -2.779  -2.333  -0.372  0.00  0.00    -0.034 A 
ATOM     13  C   UNL d   1      -3.682  -2.493   0.701  0.00  0.00    -0.054 A 
ATOM     14  C   UNL d   1      -3.286  -2.877   2.101  0.00  0.00     0.049 C 
ATOM     15  C   UNL d   1      -5.058  -2.287   0.477  0.00  0.00     0.007 A 
ATOM     16  C   UNL d   1      -5.546  -1.954  -0.784  0.00  0.00     0.001 A 
ATOM     17  C   UNL d   1      -4.669  -1.844  -1.853  0.00  0.00     0.001 A 
ATOM     18  C   UNL d   1      -3.301  -2.035  -1.649  0.00  0.00     0.009 A 
ENDBRANCH  11  12
ENDBRANCH   3  11
TORSDOF 2
