REMARK  1 active torsions:
REMARK  status: ('A' for Active; 'I' for Inactive)
REMARK    1  A    between atoms: C_4  and  N_1 
ROOT
ATOM      1  N   UNL d   1       0.026   0.874   0.031  0.00  0.00    -0.245 N 
ATOM      2  C   UNL d   1      -1.094   0.093   0.099  0.00  0.00     0.255 A 
ATOM      3  C   UNL d   1       1.118   0.093  -0.213  0.00  0.00     0.255 A 
ATOM      4  C   UNL d   1      -0.651  -1.302   0.000  0.00  0.00     0.080 A 
ATOM      5  C   UNL d   1       0.668  -1.304  -0.180  0.00  0.00     0.080 A 
ATOM      6  O   UNL d   1      -2.273   0.392   0.154  0.00  0.00    -0.268 OA
ATOM      7  O   UNL d   1       2.287   0.392  -0.400  0.00  0.00    -0.268 OA
ENDROOT
BRANCH   1   8
ATOM      8  C   UNL d   1       0.025   2.288   0.036  0.00  0.00     0.051 A 
ATOM      9  C   UNL d   1      -0.692   3.040   0.989  0.00  0.00    -0.035 A 
ATOM     10  C   UNL d   1      -1.400   2.440   2.175  0.00  0.00     0.050 C 
ATOM     11  C   UNL d   1      -0.703   4.444   0.886  0.00  0.00     0.009 A 
ATOM     12  C   UNL d   1       0.004   5.100  -0.119  0.00  0.00     0.001 A 
ATOM     13  C   UNL d   1       0.746   4.362  -1.032  0.00  0.00     0.002 A 
ATOM     14  C   UNL d   1       0.765   2.969  -0.948  0.00  0.00     0.031 A 
ENDBRANCH   1   8
TORSDOF 1
