REMARK  3 active torsions:
REMARK  status: ('A' for Active; 'I' for Inactive)
REMARK    1  A    between atoms: C_15  and  C_3 
REMARK    2  A    between atoms: C_14  and  C_6 
REMARK    3  A    between atoms: N_18  and  C_8 
ROOT
ATOM      1  C   UNL d   1      -0.009   0.783  -0.027  0.00  0.00     0.057 A 
ATOM      2  C   UNL d   1       0.085  -0.618  -0.033  0.00  0.00     0.121 A 
ATOM      3  C   UNL d   1       1.216   1.528   0.125  0.00  0.00    -0.006 A 
ATOM      4  N   UNL d   1       1.250  -1.261   0.014  0.00  0.00    -0.341 N 
ATOM      5  HN  UNL d   1       1.266  -2.280  -0.028  1.00  0.00     0.167 HD
ATOM      6  C   UNL d   1       2.405  -0.582   0.117  0.00  0.00     0.044 A 
ATOM      7  C   UNL d   1       2.413   0.799   0.200  0.00  0.00     0.043 A 
ATOM      8  C   UNL d   1      -1.335   1.245  -0.203  0.00  0.00     0.093 A 
ATOM      9  N   UNL d   1      -0.967  -1.417  -0.103  0.00  0.00    -0.338 N 
ATOM     10  HN  UNL d   1      -0.860  -2.432  -0.093  1.00  0.00     0.168 HD
ATOM     11  N   UNL d   1      -2.407   0.447  -0.257  0.00  0.00    -0.343 N 
ATOM     12  HN  UNL d   1      -3.353   0.818  -0.346  1.00  0.00     0.167 HD
ATOM     13  C   UNL d   1      -2.168  -0.856  -0.187  0.00  0.00     0.183 A 
ENDROOT
BRANCH   6  14
ATOM     14  C   UNL d   1       3.654  -1.374   0.070  0.00  0.00    -0.009 A 
ATOM     15  C   UNL d   1       4.819  -0.968   0.743  0.00  0.00     0.014 A 
ATOM     16  C   UNL d   1       6.021  -1.670   0.612  0.00  0.00     0.007 A 
ATOM     17  C   UNL d   1       6.093  -2.809  -0.194  0.00  0.00    -0.062 A 
ATOM     18  C   UNL d   1       4.935  -3.255  -0.835  0.00  0.00     0.007 A 
ATOM     19  C   UNL d   1       7.396  -3.535  -0.345  0.00  0.00     0.048 C 
ATOM     20  C   UNL d   1       3.733  -2.548  -0.703  0.00  0.00     0.014 A 
ENDBRANCH   6  14
BRANCH   3  21
ATOM     21  C   UNL d   1       1.336   3.006   0.217  0.00  0.00    -0.025 A 
ATOM     22  C   UNL d   1       0.574   3.766   1.118  0.00  0.00     0.012 A 
ATOM     23  C   UNL d   1       0.729   5.154   1.216  0.00  0.00     0.001 A 
ATOM     24  C   UNL d   1       1.696   5.806   0.456  0.00  0.00     0.000 A 
ATOM     25  C   UNL d   1       2.496   5.075  -0.413  0.00  0.00     0.001 A 
ATOM     26  C   UNL d   1       2.306   3.695  -0.541  0.00  0.00     0.012 A 
ENDBRANCH   3  21
BRANCH   8  27
ATOM     27  N   UNL d   1      -1.672   2.589  -0.316  0.00  0.00    -0.288 NA
ATOM     28  H   UNL d   1      -1.124   3.073  -1.021  0.00  0.00     0.125 HD
ATOM     29  H   UNL d   1      -2.671   2.646  -0.497  0.00  0.00     0.125 HD
ENDBRANCH   8  27
TORSDOF 3
