REMARK  2 active torsions:
REMARK  status: ('A' for Active; 'I' for Inactive)
REMARK    1  A    between atoms: C_2  and  N_1 
REMARK    2  A    between atoms: N_4  and  C_3 
REMARK       I    between atoms: C_5  and  N_4 
ROOT
ATOM      1  C   UNL d   1       0.226  -1.112   0.468  0.00  0.00     0.129 A 
ATOM      2  C   UNL d   1       0.915  -1.522   1.630  0.00  0.00     0.068 A 
ATOM      3  C   UNL d   1      -1.073  -1.572   0.184  0.00  0.00     0.038 A 
ATOM      4  C   UNL d   1       0.245  -2.392   2.502  0.00  0.00     0.032 A 
ATOM      5  C   UNL d   1      -1.709  -2.439   1.068  0.00  0.00     0.003 A 
ATOM      6  C   UNL d   1      -1.052  -2.842   2.226  0.00  0.00     0.002 A 
ENDROOT
BRANCH   2   7
ATOM      7  N   UNL d   1       2.227  -1.056   1.919  0.00  0.00    -0.325 N 
ATOM      8  C   UNL d   1       3.106  -1.546   2.864  0.00  0.00     0.218 C 
ATOM      9  O   UNL d   1       2.946  -2.546   3.556  0.00  0.00    -0.274 OA
ATOM     10  C   UNL d   1       4.379  -0.743   2.968  0.00  0.00     0.117 C 
ATOM     11  H   UNL d   1       2.573  -0.307   1.319  0.00  0.00     0.169 HD
ENDBRANCH   2   7
BRANCH   1  12
ATOM     12  N   UNL d   1       0.852  -0.221  -0.513  0.00  0.00    -0.113 N 
ATOM     13  O   UNL d   1       1.729   0.560  -0.109  0.00  0.00    -0.532 OA
ATOM     14  O   UNL d   1       0.472  -0.300  -1.690  0.00  0.00    -0.532 OA
ENDBRANCH   1  12
TORSDOF 2
