REMARK  4 active torsions:
REMARK  status: ('A' for Active; 'I' for Inactive)
REMARK    1  A    between atoms: C_7  and  N_1 
REMARK    2  A    between atoms: C_6  and  C_8 
REMARK    3  A    between atoms: O_14  and  C_6 
REMARK    4  A    between atoms: C_17  and  O_14 
ROOT
ATOM      1  C   UNL d   1       2.147  -1.518  -0.022  0.00  0.00     0.039 A 
ATOM      2  C   UNL d   1       4.477  -3.091  -0.114  0.00  0.00     0.039 A 
ATOM      3  C   UNL d   1       2.388  -2.366  -1.111  0.00  0.00     0.031 A 
ATOM      4  C   UNL d   1       3.081  -1.474   1.024  0.00  0.00     0.031 A 
ATOM      5  C   UNL d   1       3.539  -3.157  -1.152  0.00  0.00     0.020 A 
ATOM      6  C   UNL d   1       4.255  -2.233   0.963  0.00  0.00     0.020 A 
ENDROOT
BRANCH   1   7
ATOM      7  N   UNL d   1       0.977  -0.693   0.007  0.00  0.00    -0.320 N 
ATOM      8  C   UNL d   1      -0.299  -1.038  -0.456  0.00  0.00     0.013 A 
ATOM      9  C   UNL d   1      -1.137   0.046  -0.276  0.00  0.00     0.027 A 
ATOM     10  C   UNL d   1      -0.731  -2.372  -0.971  0.00  0.00     0.068 C 
ATOM     11  C   UNL d   1      -0.398   1.069   0.329  0.00  0.00     0.027 A 
ATOM     12  C   UNL d   1       0.900   0.622   0.487  0.00  0.00     0.013 A 
ATOM     13  C   UNL d   1       2.031   1.456   0.993  0.00  0.00     0.068 C 
ENDBRANCH   1   7
BRANCH   2  14
ATOM     14  C   UNL d   1       5.760  -3.827  -0.189  0.00  0.00     0.293 C 
ATOM     15  O   UNL d   1       6.804  -3.425   0.294  0.00  0.00    -0.259 OA
BRANCH  14  16
ATOM     16  O   UNL d   1       5.572  -4.954  -0.912  0.00  0.00    -0.318 OA
BRANCH  16  17
ATOM     17  C   UNL d   1       6.761  -5.567  -1.425  0.00  0.00     0.174 C 
ATOM     18  C   UNL d   1       6.995  -5.000  -2.812  0.00  0.00     0.034 C 
ENDBRANCH  16  17
ENDBRANCH  14  16
ENDBRANCH   2  14
TORSDOF 4
