REMARK  3 active torsions:
REMARK  status: ('A' for Active; 'I' for Inactive)
REMARK    1  A    between atoms: C_12  and  C_4 
REMARK    2  A    between atoms: O_14  and  C_10 
REMARK    3  A    between atoms: O_15  and  C_11 
ROOT
ATOM      1  C   UNL d   1      -0.124   0.486   0.017  0.00  0.00     0.069 A 
ATOM      2  N   UNL d   1       0.384  -1.874  -0.004  0.00  0.00    -0.339 N 
ATOM      3  HN  UNL d   1       0.075  -2.846  -0.017  1.00  0.00     0.168 HD
ATOM      4  C   UNL d   1       1.641  -1.574   0.002  0.00  0.00     0.136 A 
ATOM      5  C   UNL d   1       1.320   0.745   0.024  0.00  0.00     0.302 A 
ATOM      6  O   UNL d   1       2.153  -0.322   0.026  0.00  0.00    -0.261 OA
ATOM      7  C   UNL d   1      -0.533  -0.832   0.007  0.00  0.00     0.053 A 
ATOM      8  C   UNL d   1      -1.057   1.532   0.017  0.00  0.00     0.059 A 
ATOM      9  C   UNL d   1      -1.897  -1.113  -0.003  0.00  0.00     0.070 A 
ATOM     10  C   UNL d   1      -2.432   1.256   0.009  0.00  0.00     0.102 A 
ATOM     11  C   UNL d   1      -2.856  -0.086  -0.003  0.00  0.00     0.103 A 
ATOM     12  O   UNL d   1       1.744   1.897   0.028  0.00  0.00    -0.259 OA
ENDROOT
BRANCH   4  13
ATOM     13  C   UNL d   1       2.725  -2.654  -0.041  0.00  0.00     0.015 C 
ATOM     14  C   UNL d   1       2.078  -4.051  -0.057  0.00  0.00     0.023 C 
ATOM     15  C   UNL d   1       3.559  -2.475  -1.318  0.00  0.00     0.023 C 
ATOM     16  C   UNL d   1       3.630  -2.544   1.193  0.00  0.00     0.023 C 
ENDBRANCH   4  13
BRANCH  11  17
ATOM     17  O   UNL d   1      -4.134  -0.580  -0.017  0.00  0.00    -0.353 OA
ATOM     18  C   UNL d   1      -5.226   0.327  -0.020  0.00  0.00     0.210 C 
ENDBRANCH  11  17
BRANCH  10  19
ATOM     19  O   UNL d   1      -3.386   2.236   0.013  0.00  0.00    -0.353 OA
ATOM     20  C   UNL d   1      -2.973   3.595   0.028  0.00  0.00     0.210 C 
ENDBRANCH  10  19
TORSDOF 3
