REMARK  6 active torsions:
REMARK  status: ('A' for Active; 'I' for Inactive)
REMARK    1  A    between atoms: C_4  and  C_1 
REMARK    2  A    between atoms: N_2  and  C_3 
REMARK    3  A    between atoms: O_15  and  C_6 
REMARK    4  A    between atoms: C_17  and  O_15 
REMARK    5  A    between atoms: O_16  and  C_18 
REMARK    6  A    between atoms: C_18  and  C_17 
ROOT
ATOM      1  C   UNL d   1       0.729   1.167   0.039  0.00  0.00     0.101 A 
ATOM      2  C   UNL d   1       0.799  -1.252  -0.047  0.00  0.00     0.119 A 
ATOM      3  C   UNL d   1       1.470  -0.026  -0.047  0.00  0.00     0.058 A 
ATOM      4  C   UNL d   1      -0.653   1.063   0.132  0.00  0.00     0.157 A 
ATOM      5  N   UNL d   1      -1.310  -0.121   0.126  0.00  0.00    -0.344 N 
ATOM      6  HN  UNL d   1      -2.327  -0.155   0.187  1.00  0.00     0.167 HD
ATOM      7  C   UNL d   1      -0.579  -1.258   0.038  0.00  0.00     0.126 A 
ENDROOT
BRANCH   4   8
ATOM      8  O   UNL d   1      -1.397   2.224   0.200  0.00  0.00    -0.333 OA
BRANCH   8   9
ATOM      9  C   UNL d   1      -2.736   1.986   0.648  0.00  0.00     0.203 C 
BRANCH   9  10
ATOM     10  C   UNL d   1      -3.528   3.290   0.665  0.00  0.00     0.193 C 
BRANCH  10  11
ATOM     11  O   UNL d   1      -4.817   3.021   1.218  0.00  0.00    -0.394 OA
ATOM     12  C   UNL d   1      -5.665   4.159   1.185  0.00  0.00     0.201 C 
ENDBRANCH  10  11
ENDBRANCH   9  10
ENDBRANCH   8   9
ENDBRANCH   4   8
BRANCH   1  13
ATOM     13  C   UNL d   1       1.393   2.510   0.044  0.00  0.00     0.421 C 
ATOM     14  F   UNL d   1       2.754   2.419  -0.007  0.00  0.00    -0.166 F 
ATOM     15  F   UNL d   1       1.044   3.286  -1.017  0.00  0.00    -0.166 F 
ATOM     16  F   UNL d   1       1.124   3.237   1.162  0.00  0.00    -0.166 F 
ENDBRANCH   1  13
BRANCH   2  17
ATOM     17  N   UNL d   1       1.522  -2.513  -0.129  0.00  0.00    -0.114 N 
ATOM     18  O   UNL d   1       2.758  -2.460  -0.182  0.00  0.00    -0.532 OA
ATOM     19  O   UNL d   1       0.859  -3.559  -0.140  0.00  0.00    -0.532 OA
ENDBRANCH   2  17
TORSDOF 6
