REMARK  2 active torsions:
REMARK  status: ('A' for Active; 'I' for Inactive)
REMARK    1  A    between atoms: C_4  and  C_3 
REMARK    2  A    between atoms: N_10  and  C_9 
ROOT
ATOM      1  C   UNL d   1       1.478  -2.190   0.022  0.00  0.00     0.001 A 
ATOM      2  C   UNL d   1       1.403  -3.161  -0.991  0.00  0.00     0.037 A 
ATOM      3  C   UNL d   1       2.274  -4.257  -1.021  0.00  0.00     0.006 A 
ATOM      4  C   UNL d   1       2.429  -2.360   1.036  0.00  0.00     0.014 A 
ATOM      5  C   UNL d   1       3.260  -3.481   1.052  0.00  0.00     0.003 A 
ATOM      6  C   UNL d   1       3.163  -4.436   0.039  0.00  0.00     0.023 A 
ENDROOT
BRANCH   1   7
ATOM      7  C   UNL d   1       0.568  -1.052   0.018  0.00  0.00     0.102 A 
ATOM      8  C   UNL d   1      -0.490  -0.636  -0.765  0.00  0.00     0.127 A 
ATOM      9  N   UNL d   1      -1.001   0.548  -0.295  0.00  0.00    -0.354 N 
ATOM     10  C   UNL d   1      -0.246   0.807   0.747  0.00  0.00     0.233 A 
ATOM     11  HN  UNL d   1      -1.779   1.094  -0.665  1.00  0.00     0.166 HD
ATOM     12  O   UNL d   1       0.726  -0.109   1.003  0.00  0.00    -0.304 OA
ENDBRANCH   1   7
BRANCH   3  13
ATOM     13  N   UNL d   1       2.091  -5.274  -1.967  0.00  0.00    -0.303 NA
ATOM     14  H   UNL d   1       1.693  -4.955  -2.844  0.00  0.00     0.124 HD
ATOM     15  H   UNL d   1       2.914  -5.853  -2.109  0.00  0.00     0.124 HD
ENDBRANCH   3  13
TORSDOF 2
