REMARK  2 active torsions:
REMARK  status: ('A' for Active; 'I' for Inactive)
REMARK       I    between atoms: N_2  and  C_1 
REMARK    1  A    between atoms: C_8  and  C_1 
REMARK    2  A    between atoms: C_5  and  N_2 
ROOT
ATOM      1  C   UNL d   1       0.985   0.034  -0.130  0.00  0.00     0.256 C 
ATOM      2  N   UNL d   1       0.373  -1.203  -0.022  0.00  0.00    -0.323 N 
ATOM      3  O   UNL d   1       0.410   1.115  -0.203  0.00  0.00    -0.267 OA
ATOM      4  H   UNL d   1       0.948  -1.975   0.294  0.00  0.00     0.169 HD
ENDROOT
BRANCH   2   5
ATOM      5  C   UNL d   1      -0.994  -1.478  -0.240  0.00  0.00     0.036 A 
ATOM      6  C   UNL d   1      -1.877  -0.561  -0.821  0.00  0.00     0.056 A 
ATOM      7  C   UNL d   1      -3.207  -0.917  -1.064  0.00  0.00     0.074 A 
ATOM      8 CL   UNL d   1      -4.266   0.219  -1.810  0.00  0.00    -0.081 Cl
ATOM      9  C   UNL d   1      -3.659  -2.187  -0.723  0.00  0.00     0.138 A 
ATOM     10  C   UNL d   1      -2.795  -3.108  -0.141  0.00  0.00     0.046 A 
ATOM     11  F   UNL d   1      -4.928  -2.551  -0.956  0.00  0.00    -0.204 F 
ATOM     12  C   UNL d   1      -1.462  -2.756   0.095  0.00  0.00     0.032 A 
ENDBRANCH   2   5
BRANCH   1  13
ATOM     13  C   UNL d   1       2.475   0.027  -0.135  0.00  0.00     0.032 A 
ATOM     14  C   UNL d   1       3.207  -1.032  -0.691  0.00  0.00     0.017 A 
ATOM     15  C   UNL d   1       4.600  -0.953  -0.763  0.00  0.00     0.001 A 
ATOM     16  C   UNL d   1       5.264   0.178  -0.288  0.00  0.00     0.000 A 
ATOM     17  C   UNL d   1       4.540   1.234   0.265  0.00  0.00     0.001 A 
ATOM     18  C   UNL d   1       3.149   1.160   0.339  0.00  0.00     0.017 A 
ENDBRANCH   1  13
TORSDOF 2
