REMARK  3 active torsions:
REMARK  status: ('A' for Active; 'I' for Inactive)
REMARK    1  A    between atoms: C_8  and  C_4 
REMARK    2  A    between atoms: O_14  and  C_7 
REMARK    3  A    between atoms: O_15  and  C_11 
ROOT
ATOM      1  C   UNL d   1       2.065   0.660   0.665  0.00  0.00    -0.002 A 
ATOM      2  C   UNL d   1       1.031   1.726   0.847  0.00  0.00     0.189 A 
ATOM      3  C   UNL d   1       0.049   1.201   1.809  0.00  0.00     0.021 A 
ATOM      4  C   UNL d   1       3.170   0.828  -0.075  0.00  0.00     0.023 C 
ATOM      5  C   UNL d   1       0.414  -0.093   2.181  0.00  0.00    -0.040 A 
ATOM      6  C   UNL d   1       1.650  -0.548   1.472  0.00  0.00     0.082 A 
ATOM      7  O   UNL d   1       1.004   2.815   0.314  0.00  0.00    -0.287 OA
ATOM      8  C   UNL d   1      -1.071   1.827   2.325  0.00  0.00     0.016 A 
ATOM      9  C   UNL d   1      -0.342  -0.801   3.101  0.00  0.00     0.008 A 
ATOM     10  C   UNL d   1      -1.838   1.118   3.254  0.00  0.00     0.001 A 
ATOM     11  C   UNL d   1      -1.474  -0.185   3.641  0.00  0.00     0.001 A 
ENDROOT
BRANCH   4  12
ATOM     12  C   UNL d   1       4.151  -0.251  -0.199  0.00  0.00    -0.033 A 
ATOM     13  C   UNL d   1       4.018  -1.200  -1.221  0.00  0.00     0.051 A 
ATOM     14  C   UNL d   1       4.841  -2.337  -1.269  0.00  0.00     0.102 A 
ATOM     15  C   UNL d   1       5.856  -2.479  -0.305  0.00  0.00     0.101 A 
ATOM     16  C   UNL d   1       5.990  -1.518   0.707  0.00  0.00     0.040 A 
ATOM     17  C   UNL d   1       5.144  -0.412   0.765  0.00  0.00     0.014 A 
BRANCH  14  18
ATOM     18  O   UNL d   1       4.668  -3.347  -2.179  0.00  0.00    -0.353 OA
ATOM     19  C   UNL d   1       3.601  -3.227  -3.114  0.00  0.00     0.210 C 
ENDBRANCH  14  18
BRANCH  15  20
ATOM     20  O   UNL d   1       6.745  -3.517  -0.173  0.00  0.00    -0.353 OA
ATOM     21  C   UNL d   1       7.151  -4.178  -1.365  0.00  0.00     0.210 C 
ENDBRANCH  15  20
ENDBRANCH   4  12
TORSDOF 3
