REMARK  4 active torsions:
REMARK  status: ('A' for Active; 'I' for Inactive)
REMARK    1  A    between atoms: N_11  and  C_1 
REMARK    2  A    between atoms: C_2  and  C_5 
REMARK       I    between atoms: C_5  and  N_10 
REMARK    3  A    between atoms: O_15  and  C_9 
REMARK    4  A    between atoms: C_14  and  O_15 
ROOT
ATOM      1  C   UNL d   1      -3.353   1.963   3.889  0.00  0.00     0.277 C 
ATOM      2  N   UNL d   1      -2.249   2.218   3.046  0.00  0.00    -0.343 N 
ATOM      3  N   UNL d   1      -0.085   2.644   1.047  0.00  0.00     0.105 N 
ATOM      4  C   UNL d   1      -1.086   1.343   2.959  0.00  0.00     0.156 C 
ATOM      5  C   UNL d   1      -2.476   3.123   1.917  0.00  0.00     0.156 C 
ATOM      6  C   UNL d   1      -1.205   3.590   1.159  0.00  0.00     0.293 C 
ATOM      7  C   UNL d   1       0.145   2.015   2.354  0.00  0.00     0.293 C 
ATOM      8  O   UNL d   1      -4.308   2.735   3.908  0.00  0.00    -0.265 OA
ENDROOT
BRANCH   1   9
ATOM      9  C   UNL d   1      -3.326   0.757   4.715  0.00  0.00     0.146 A 
ATOM     10  O   UNL d   1      -3.813   0.837   5.996  0.00  0.00    -0.282 OA
ATOM     11  C   UNL d   1      -3.619  -0.378   6.580  0.00  0.00     0.191 A 
ATOM     12  C   UNL d   1      -3.087  -1.264   5.670  0.00  0.00     0.067 A 
ATOM     13  C   UNL d   1      -2.919  -0.543   4.470  0.00  0.00     0.048 A 
BRANCH  11  14
ATOM     14  O   UNL d   1      -3.952  -0.433   7.870  0.00  0.00    -0.288 OA
BRANCH  14  15
ATOM     15  C   UNL d   1      -3.366  -1.384   8.675  0.00  0.00     0.081 A 
ATOM     16  C   UNL d   1      -1.990  -1.635   8.635  0.00  0.00     0.061 A 
ATOM     17  C   UNL d   1      -1.445  -2.629   9.443  0.00  0.00     0.038 A 
ATOM     18 CL   UNL d   1       0.234  -2.984   9.331  0.00  0.00    -0.084 Cl
ATOM     19  C   UNL d   1      -2.250  -3.342  10.325  0.00  0.00     0.048 A 
ATOM     20  C   UNL d   1      -3.612  -3.048  10.396  0.00  0.00     0.038 A 
ATOM     21  C   UNL d   1      -4.177  -2.071   9.575  0.00  0.00     0.061 A 
ATOM     22 CL   UNL d   1      -4.605  -3.911  11.506  0.00  0.00    -0.084 Cl
ENDBRANCH  14  15
ENDBRANCH  11  14
ENDBRANCH   1   9
BRANCH   3  23
ATOM     23  C   UNL d   1      -0.067   1.768  -0.145  0.00  0.00     0.290 C 
ATOM     24  C   UNL d   1       1.126   0.799  -0.117  0.00  0.00    -0.009 A 
ATOM     25  C   UNL d   1       0.667  -0.538  -0.071  0.00  0.00    -0.017 A 
ATOM     26  C   UNL d   1       2.480   1.097  -0.072  0.00  0.00     0.010 A 
ATOM     27  C   UNL d   1       1.567  -1.588   0.016  0.00  0.00     0.013 A 
ATOM     28  C   UNL d   1      -0.775  -0.542  -0.163  0.00  0.00    -0.017 C 
ATOM     29  C   UNL d   1       2.931  -1.293   0.069  0.00  0.00     0.001 A 
ATOM     30  C   UNL d   1       3.385   0.037   0.028  0.00  0.00     0.001 A 
ATOM     31  C   UNL d   1      -1.226   0.788  -0.319  0.00  0.00    -0.009 C 
ATOM     32  C   UNL d   1      -1.675  -1.595  -0.139  0.00  0.00     0.013 C 
ATOM     33  C   UNL d   1      -2.550   1.045  -0.638  0.00  0.00     0.010 C 
ATOM     34  C   UNL d   1      -3.461  -0.011  -0.608  0.00  0.00     0.001 C 
ATOM     35  C   UNL d   1      -3.031  -1.317  -0.329  0.00  0.00     0.001 C 
ENDBRANCH   3  23
TORSDOF 4
