REMARK  3 active torsions:
REMARK  status: ('A' for Active; 'I' for Inactive)
REMARK    1  A    between atoms: C_10  and  C_3 
REMARK    2  A    between atoms: C_4  and  C_5 
REMARK    3  A    between atoms: N_7  and  C_6 
ROOT
ATOM      1  N   UNL d   1       1.222   0.102   0.167  0.00  0.00    -0.318 N 
ATOM      2  HN  UNL d   1       2.220   0.200   0.353  1.00  0.00     0.169 HD
ATOM      3  C   UNL d   1       0.288   1.093  -0.015  0.00  0.00     0.139 A 
ATOM      4  C   UNL d   1       0.522  -1.003   0.044  0.00  0.00     0.182 A 
ATOM      5  N   UNL d   1      -0.966   0.630  -0.156  0.00  0.00    -0.242 N 
ATOM      6  HN  UNL d   1      -1.827   1.167  -0.254  1.00  0.00     0.196 HD
ATOM      7  O   UNL d   1      -0.812  -0.755  -0.135  0.00  0.00    -0.217 OA
ENDROOT
BRANCH   3   8
ATOM      8  C   UNL d   1       0.630   2.511  -0.035  0.00  0.00     0.032 A 
ATOM      9  C   UNL d   1       1.853   2.998  -0.531  0.00  0.00     0.049 A 
ATOM     10  C   UNL d   1       2.124   4.373  -0.536  0.00  0.00     0.048 A 
ATOM     11 CL   UNL d   1       3.078   1.983  -1.220  0.00  0.00    -0.083 Cl
ATOM     12  C   UNL d   1       1.179   5.272  -0.053  0.00  0.00     0.035 A 
ATOM     13  C   UNL d   1      -0.039   4.814   0.437  0.00  0.00     0.025 A 
ATOM     14 CL   UNL d   1       1.513   6.958  -0.077  0.00  0.00    -0.084 Cl
ATOM     15  C   UNL d   1      -0.312   3.443   0.446  0.00  0.00     0.018 A 
ENDBRANCH   3   8
BRANCH   4  16
ATOM     16  C   UNL d   1       1.134  -2.362   0.076  0.00  0.00     0.027 A 
ATOM     17  C   UNL d   1       2.524  -2.618   0.284  0.00  0.00     0.060 A 
ATOM     18  C   UNL d   1       2.796  -3.969   0.258  0.00  0.00     0.144 A 
ATOM     19  S   UNL d   1       1.411  -4.914  -0.028  0.00  0.00    -0.077 SA
ATOM     20  C   UNL d   1       0.411  -3.521  -0.110  0.00  0.00     0.068 A 
BRANCH  18  21
ATOM     21  N   UNL d   1       4.084  -4.587   0.444  0.00  0.00    -0.108 N 
ATOM     22  O   UNL d   1       5.033  -3.821   0.658  0.00  0.00    -0.531 OA
ATOM     23  O   UNL d   1       4.158  -5.821   0.381  0.00  0.00    -0.531 OA
ENDBRANCH  18  21
ENDBRANCH   4  16
TORSDOF 3
