REMARK  4 active torsions:
REMARK  status: ('A' for Active; 'I' for Inactive)
REMARK    1  A    between atoms: N_2  and  C_1 
REMARK    2  A    between atoms: C_8  and  C_3 
REMARK    3  A    between atoms: C_10  and  C_8 
REMARK    4  A    between atoms: C_9  and  C_10 
ROOT
ATOM      1  C   UNL d   1      -0.741   0.259  -0.032  0.00  0.00     0.162 A 
ATOM      2  C   UNL d   1      -1.195  -1.060   0.029  0.00  0.00     0.134 A 
ATOM      3  N   UNL d   1       1.073  -1.068   0.252  0.00  0.00    -0.263 N 
ATOM      4  HN  UNL d   1       2.031  -1.398   0.371  1.00  0.00     0.194 HD
ATOM      5  C   UNL d   1       0.671   0.196   0.119  0.00  0.00     0.064 A 
ATOM      6  O   UNL d   1      -0.061  -1.833   0.196  0.00  0.00    -0.235 OA
ATOM      7  C   UNL d   1       1.682   1.282   0.152  0.00  0.00     0.073 C 
ENDROOT
BRANCH   2   8
ATOM      8  C   UNL d   1      -2.496  -1.657  -0.034  0.00  0.00     0.045 C 
BRANCH   8   9
ATOM      9  C   UNL d   1      -2.634  -2.992   0.060  0.00  0.00     0.040 C 
BRANCH   9  10
ATOM     10  C   UNL d   1      -3.914  -3.618   0.049  0.00  0.00     0.075 A 
ATOM     11  O   UNL d   1      -5.106  -2.948  -0.118  0.00  0.00    -0.323 OA
ATOM     12  C   UNL d   1      -6.119  -3.844  -0.038  0.00  0.00     0.142 A 
ATOM     13  C   UNL d   1      -5.627  -5.106   0.175  0.00  0.00     0.027 A 
ATOM     14  C   UNL d   1      -4.219  -4.966   0.215  0.00  0.00     0.039 A 
ENDBRANCH   9  10
ENDBRANCH   8   9
ENDBRANCH   2   8
BRANCH   1  15
ATOM     15  N   UNL d   1      -1.520   1.449  -0.203  0.00  0.00    -0.111 N 
ATOM     16  O   UNL d   1      -2.745   1.331  -0.310  0.00  0.00    -0.532 OA
ATOM     17  O   UNL d   1      -0.906   2.523  -0.233  0.00  0.00    -0.532 OA
ENDBRANCH   1  15
TORSDOF 4
