REMARK  9 active torsions:
REMARK  status: ('A' for Active; 'I' for Inactive)
REMARK    1  A    between atoms: C_3  and  S_1 
REMARK    2  A    between atoms: N_14  and  S_1 
REMARK    3  A    between atoms: C_2  and  C_4 
REMARK    4  A    between atoms: C_16  and  C_5 
REMARK    5  A    between atoms: C_15  and  C_6 
REMARK    6  A    between atoms: C_21  and  N_14 
REMARK    7  A    between atoms: O_23  and  C_15 
REMARK    8  A    between atoms: O_22  and  C_16 
REMARK    9  A    between atoms: O_31  and  C_24 
ROOT
ATOM      1  C   UNL d   1      -0.091   1.087  -1.244  0.00  0.00     0.116 A 
ATOM      2  C   UNL d   1      -0.413   1.648  -3.513  0.00  0.00    -0.015 A 
ATOM      3  C   UNL d   1      -0.576   0.670  -2.469  0.00  0.00     0.045 A 
ATOM      4  S   UNL d   1       0.638   2.626  -1.359  0.00  0.00    -0.088 SA
ATOM      5  C   UNL d   1       0.257   2.756  -3.028  0.00  0.00     0.063 A 
ENDROOT
BRANCH   2   6
ATOM      6  C   UNL d   1      -0.935   1.555  -4.892  0.00  0.00     0.011 A 
ATOM      7  C   UNL d   1      -2.273   1.140  -5.104  0.00  0.00     0.073 A 
ATOM      8  C   UNL d   1      -2.752   0.954  -6.402  0.00  0.00     0.022 A 
ATOM      9  C   UNL d   1      -4.134   0.485  -6.752  0.00  0.00     0.069 C 
ATOM     10  N   UNL d   1      -1.984   1.219  -7.484  0.00  0.00    -0.362 N 
ATOM     11  C   UNL d   1      -0.717   1.666  -7.306  0.00  0.00     0.022 A 
ATOM     12  HN  UNL d   1      -2.355   1.084  -8.424  1.00  0.00     0.165 HD
ATOM     13  C   UNL d   1      -0.152   1.839  -6.033  0.00  0.00     0.073 A 
ATOM     14  C   UNL d   1       0.009   1.962  -8.588  0.00  0.00     0.069 C 
BRANCH   7  15
ATOM     15  C   UNL d   1      -3.217   1.048  -3.980  0.00  0.00     0.295 C 
ATOM     16  O   UNL d   1      -3.547   2.013  -3.312  0.00  0.00    -0.259 OA
BRANCH  15  17
ATOM     17  O   UNL d   1      -3.629  -0.234  -3.851  0.00  0.00    -0.322 OA
ATOM     18  C   UNL d   1      -4.671  -0.442  -2.896  0.00  0.00     0.213 C 
ENDBRANCH  15  17
ENDBRANCH   7  15
BRANCH  13  19
ATOM     19  C   UNL d   1       1.272   2.221  -5.941  0.00  0.00     0.295 C 
ATOM     20  O   UNL d   1       2.117   1.557  -5.367  0.00  0.00    -0.259 OA
BRANCH  19  21
ATOM     21  O   UNL d   1       1.462   3.384  -6.608  0.00  0.00    -0.322 OA
ATOM     22  C   UNL d   1       2.823   3.784  -6.809  0.00  0.00     0.213 C 
ENDBRANCH  19  21
ENDBRANCH  13  19
ENDBRANCH   2   6
BRANCH   1  23
ATOM     23  S   UNL d   1      -0.135   0.329   0.373  0.00  0.00     0.252 S 
ATOM     24  O   UNL d   1       1.184   0.533   0.933  0.00  0.00    -0.205 OA
ATOM     25  O   UNL d   1      -0.665  -1.000   0.147  0.00  0.00    -0.205 OA
BRANCH  23  26
ATOM     26  N   UNL d   1      -1.215   1.214   1.337  0.00  0.00    -0.181 NA
ATOM     27  H   UNL d   1      -0.828   2.141   1.528  0.00  0.00     0.146 HD
BRANCH  26  28
ATOM     28  C   UNL d   1      -2.591   1.200   0.963  0.00  0.00     0.023 A 
ATOM     29  C   UNL d   1      -3.405   0.127   1.331  0.00  0.00     0.027 A 
ATOM     30  C   UNL d   1      -4.757   0.104   0.959  0.00  0.00     0.038 A 
ATOM     31  C   UNL d   1      -5.289   1.143   0.197  0.00  0.00     0.068 A 
ATOM     32  C   UNL d   1      -4.462   2.204  -0.178  0.00  0.00     0.038 A 
ATOM     33  C   UNL d   1      -3.116   2.238   0.197  0.00  0.00     0.027 A 
BRANCH  31  34
ATOM     34  O   UNL d   1      -6.572   1.235  -0.265  0.00  0.00    -0.356 OA
ATOM     35  C   UNL d   1      -7.445   0.151   0.018  0.00  0.00     0.210 C 
ENDBRANCH  31  34
ENDBRANCH  26  28
ENDBRANCH  23  26
ENDBRANCH   1  23
TORSDOF 9
