REMARK  2 active torsions:
REMARK  status: ('A' for Active; 'I' for Inactive)
REMARK    1  A    between atoms: C_2  and  N_1 
REMARK       I    between atoms: C_3  and  N_1 
REMARK    2  A    between atoms: C_6  and  C_3 
ROOT
ATOM      1  C   UNL d   1       0.361  -0.833  -0.828  0.00  0.00     0.046 A 
ATOM      2  C   UNL d   1       0.672  -2.205  -0.948  0.00  0.00    -0.034 A 
ATOM      3  C   UNL d   1      -0.820  -0.331  -1.421  0.00  0.00    -0.034 A 
ATOM      4  C   UNL d   1      -0.167  -3.039  -1.712  0.00  0.00     0.015 A 
ATOM      5  C   UNL d   1      -1.646  -1.201  -2.159  0.00  0.00     0.015 A 
ATOM      6  C   UNL d   1      -1.326  -2.550  -2.317  0.00  0.00    -0.061 A 
ATOM      7  C   UNL d   1       1.848  -2.867  -0.278  0.00  0.00     0.050 C 
ATOM      8  C   UNL d   1      -1.225   1.120  -1.406  0.00  0.00     0.050 C 
ATOM      9  C   UNL d   1      -2.201  -3.468  -3.117  0.00  0.00     0.048 C 
ENDROOT
BRANCH   1  10
ATOM     10  N   UNL d   1       1.166   0.043  -0.061  0.00  0.00    -0.326 N 
ATOM     11  C   UNL d   1       2.528   0.203  -0.267  0.00  0.00     0.229 C 
ATOM     12  O   UNL d   1       3.159  -0.358  -1.163  0.00  0.00    -0.272 OA
ATOM     13  H   UNL d   1       0.692   0.824   0.364  0.00  0.00     0.169 HD
BRANCH  11  14
ATOM     14  C   UNL d   1       3.220   1.155   0.736  0.00  0.00     0.030 C 
ATOM     15  C   UNL d   1       3.098   0.568   2.150  0.00  0.00     0.025 C 
ATOM     16  C   UNL d   1       4.713   1.266   0.371  0.00  0.00     0.025 C 
ATOM     17  C   UNL d   1       2.610   2.564   0.704  0.00  0.00     0.025 C 
ENDBRANCH  11  14
ENDBRANCH   1  10
TORSDOF 2
