REMARK  8 active torsions:
REMARK  status: ('A' for Active; 'I' for Inactive)
REMARK       I    between atoms: C_2  and  N_1 
REMARK    1  A    between atoms: C_3  and  N_1 
REMARK    2  A    between atoms: C_4  and  C_2 
REMARK    3  A    between atoms: N_11  and  C_3 
REMARK    4  A    between atoms: O_16  and  C_5 
REMARK    5  A    between atoms: O_18  and  C_8 
REMARK    6  A    between atoms: C_19  and  N_11 
REMARK    7  A    between atoms: C_14  and  C_22 
REMARK    8  A    between atoms: C_22  and  C_19 
ROOT
ATOM      1  N   UNL d   1       3.262   0.111  -1.060  0.00  0.00    -0.367 N 
ATOM      2  H   UNL d   1       2.727   0.105  -1.924  0.00  0.00     0.161 HD
ENDROOT
BRANCH   1   3
ATOM      3  C   UNL d   1       2.491   0.339   0.053  0.00  0.00     0.174 C 
ATOM      4  S   UNL d   1       0.844   0.423  -0.180  0.00  0.00    -0.041 SA
BRANCH   3   5
ATOM      5  N   UNL d   1       3.195   0.467   1.236  0.00  0.00    -0.300 N 
ATOM      6  C   UNL d   1       2.741   0.744   2.524  0.00  0.00     0.257 C 
ATOM      7  O   UNL d   1       1.588   0.978   2.853  0.00  0.00    -0.267 OA
ATOM      8  H   UNL d   1       4.191   0.445   1.128  0.00  0.00     0.171 HD
BRANCH   6   9
ATOM      9  C   UNL d   1       3.801   0.797   3.577  0.00  0.00     0.034 A 
ATOM     10  C   UNL d   1       4.960   0.013   3.517  0.00  0.00     0.041 A 
ATOM     11  C   UNL d   1       5.867   0.050   4.578  0.00  0.00     0.035 A 
ATOM     12 CL   UNL d   1       7.284  -0.927   4.515  0.00  0.00    -0.084 Cl
ATOM     13  C   UNL d   1       5.634   0.854   5.692  0.00  0.00     0.024 A 
ATOM     14  C   UNL d   1       4.491   1.651   5.742  0.00  0.00     0.003 A 
ATOM     15  C   UNL d   1       3.579   1.625   4.686  0.00  0.00     0.017 A 
ENDBRANCH   6   9
ENDBRANCH   3   5
ENDBRANCH   1   3
BRANCH   1  16
ATOM     16  C   UNL d   1       4.704  -0.059  -1.140  0.00  0.00     0.126 C 
BRANCH  16  17
ATOM     17  C   UNL d   1       5.181  -0.385  -2.554  0.00  0.00     0.058 C 
BRANCH  17  18
ATOM     18  C   UNL d   1       6.684  -0.504  -2.600  0.00  0.00    -0.054 A 
ATOM     19  C   UNL d   1       7.308  -1.746  -2.399  0.00  0.00     0.046 A 
ATOM     20  C   UNL d   1       8.707  -1.871  -2.384  0.00  0.00     0.102 A 
ATOM     21  C   UNL d   1       9.489  -0.722  -2.596  0.00  0.00     0.101 A 
ATOM     22  C   UNL d   1       8.864   0.518  -2.784  0.00  0.00     0.040 A 
ATOM     23  C   UNL d   1       7.475   0.630  -2.788  0.00  0.00     0.010 A 
BRANCH  20  24
ATOM     24  O   UNL d   1       9.351  -3.052  -2.131  0.00  0.00    -0.353 OA
ATOM     25  C   UNL d   1       8.562  -4.213  -1.903  0.00  0.00     0.210 C 
ENDBRANCH  20  24
BRANCH  21  26
ATOM     26  O   UNL d   1      10.858  -0.629  -2.584  0.00  0.00    -0.353 OA
ATOM     27  C   UNL d   1      11.588  -1.757  -3.046  0.00  0.00     0.210 C 
ENDBRANCH  21  26
ENDBRANCH  17  18
ENDBRANCH  16  17
ENDBRANCH   1  16
TORSDOF 8
