REMARK  5 active torsions:
REMARK  status: ('A' for Active; 'I' for Inactive)
REMARK    1  A    between atoms: C_11  and  N_1 
REMARK    2  A    between atoms: C_9  and  C_2 
REMARK    3  A    between atoms: N_12  and  C_10 
REMARK    4  A    between atoms: C_13  and  N_12 
REMARK    5  A    between atoms: C_20  and  N_12 
ROOT
ATOM      1  N   UNL d   1       0.232  -0.436  -1.004  0.00  0.00    -0.223 N 
ATOM      2  C   UNL d   1       1.074  -0.679   0.080  0.00  0.00     0.145 C 
ATOM      3  N   UNL d   1      -0.823   0.037   0.807  0.00  0.00    -0.226 N 
ATOM      4  HN  UNL d   1      -1.550   0.351   1.451  1.00  0.00     0.210 HD
ATOM      5  N   UNL d   1      -0.980  -0.073  -0.497  0.00  0.00    -0.219 N 
ATOM      6  HN  UNL d   1      -1.839   0.084  -1.023  1.00  0.00     0.210 HD
ATOM      7  N   UNL d   1       0.434  -0.323   1.182  0.00  0.00    -0.268 N 
ATOM      8  HN  UNL d   1       0.811  -0.319   2.130  1.00  0.00     0.190 HD
ENDROOT
BRANCH   2   9
ATOM      9  C   UNL d   1       2.370  -1.232   0.009  0.00  0.00     0.069 C 
ATOM     10  C   UNL d   1       2.582  -2.514  -0.332  0.00  0.00     0.095 C 
BRANCH  10  11
ATOM     11  N   UNL d   1       3.799  -3.191  -0.319  0.00  0.00    -0.357 N 
BRANCH  11  12
ATOM     12  C   UNL d   1       4.687  -3.135   0.793  0.00  0.00     0.034 A 
ATOM     13  C   UNL d   1       4.202  -2.962   2.105  0.00  0.00     0.029 A 
ATOM     14  C   UNL d   1       5.062  -2.897   3.208  0.00  0.00     0.002 A 
ATOM     15  C   UNL d   1       6.436  -3.001   3.025  0.00  0.00     0.000 A 
ATOM     16  C   UNL d   1       6.944  -3.170   1.741  0.00  0.00     0.002 A 
ATOM     17  C   UNL d   1       6.079  -3.236   0.641  0.00  0.00     0.029 A 
ENDBRANCH  11  12
BRANCH  11  18
ATOM     18  C   UNL d   1       4.074  -4.239  -1.325  0.00  0.00     0.124 C 
ATOM     19  C   UNL d   1       3.694  -5.629  -0.841  0.00  0.00     0.027 C 
ENDBRANCH  11  18
ENDBRANCH  10  11
ENDBRANCH   2   9
BRANCH   1  20
ATOM     20  C   UNL d   1       0.417  -0.451  -2.420  0.00  0.00     0.060 A 
ATOM     21  C   UNL d   1      -0.722  -0.370  -3.249  0.00  0.00     0.033 A 
ATOM     22  C   UNL d   1      -0.597  -0.339  -4.640  0.00  0.00     0.026 A 
ATOM     23  C   UNL d   1       0.666  -0.374  -5.218  0.00  0.00     0.034 A 
ATOM     24  C   UNL d   1       1.801  -0.445  -4.414  0.00  0.00     0.026 A 
ATOM     25 CL   UNL d   1       0.825  -0.314  -6.929  0.00  0.00    -0.084 Cl
ATOM     26  C   UNL d   1       1.683  -0.486  -3.017  0.00  0.00     0.033 A 
ENDBRANCH   1  20
TORSDOF 5
