REMARK  5 active torsions:
REMARK  status: ('A' for Active; 'I' for Inactive)
REMARK    1  A    between atoms: N_7  and  C_1 
REMARK    2  A    between atoms: N_9  and  C_1 
REMARK    3  A    between atoms: C_2  and  N_8 
REMARK    4  A    between atoms: C_3  and  C_4 
REMARK    5  A    between atoms: C_11  and  N_9 
ROOT
ATOM      1  N   UNL d   1       0.333  -1.410   0.437  0.00  0.00    -0.355 N 
ATOM      2  N   UNL d   1       0.131  -4.283   0.067  0.00  0.00    -0.363 N 
ATOM      3  C   UNL d   1       0.932  -2.318   1.421  0.00  0.00     0.145 C 
ATOM      4  C   UNL d   1      -0.788  -1.988  -0.317  0.00  0.00     0.145 C 
ATOM      5  C   UNL d   1       1.242  -3.721   0.864  0.00  0.00     0.144 C 
ATOM      6  C   UNL d   1      -0.407  -3.343  -0.937  0.00  0.00     0.144 C 
ENDROOT
BRANCH   2   7
ATOM      7  C   UNL d   1      -0.785  -5.144   0.670  0.00  0.00     0.125 A 
ATOM      8  N   UNL d   1      -2.102  -4.820   0.579  0.00  0.00    -0.350 N 
ATOM      9  C   UNL d   1      -3.039  -5.698   1.021  0.00  0.00     0.106 A 
ATOM     10  HN  UNL d   1      -2.384  -3.924   0.182  1.00  0.00     0.166 HD
ATOM     11  C   UNL d   1      -2.748  -6.925   1.585  0.00  0.00     0.065 A 
ATOM     12  C   UNL d   1      -1.401  -7.253   1.717  0.00  0.00     0.045 A 
ATOM     13  C   UNL d   1      -0.413  -6.374   1.251  0.00  0.00     0.078 A 
ATOM     14 CL   UNL d   1       1.216  -6.961   1.307  0.00  0.00    -0.080 Cl
BRANCH  11  15
ATOM     15  C   UNL d   1      -3.854  -7.854   1.978  0.00  0.00     0.418 C 
ATOM     16  F   UNL d   1      -3.414  -9.024   2.519  0.00  0.00    -0.166 F 
ATOM     17  F   UNL d   1      -4.694  -7.310   2.897  0.00  0.00    -0.166 F 
ATOM     18  F   UNL d   1      -4.636  -8.206   0.919  0.00  0.00    -0.166 F 
ENDBRANCH  11  15
ENDBRANCH   2   7
BRANCH   1  19
ATOM     19  C   UNL d   1       0.747  -0.113   0.271  0.00  0.00     0.170 C 
ATOM     20  S   UNL d   1       2.346   0.348   0.106  0.00  0.00    -0.041 SA
BRANCH  19  21
ATOM     21  N   UNL d   1      -0.203   0.866   0.234  0.00  0.00    -0.362 N 
ATOM     22  H   UNL d   1       0.173   1.791   0.059  0.00  0.00     0.162 HD
BRANCH  21  23
ATOM     23  C   UNL d   1      -1.507   0.813   0.880  0.00  0.00     0.092 C 
ATOM     24  C   UNL d   1      -1.874   2.081   1.706  0.00  0.00     0.031 C 
ATOM     25  C   UNL d   1      -1.922   3.301   0.810  0.00  0.00    -0.024 C 
ATOM     26  C   UNL d   1      -3.383   1.851   1.863  0.00  0.00     0.019 C 
ATOM     27  C   UNL d   1      -2.981   3.156  -0.001  0.00  0.00    -0.026 C 
ATOM     28  C   UNL d   1      -3.636   1.843   0.352  0.00  0.00     0.010 C 
ATOM     29  C   UNL d   1      -2.695   0.715  -0.121  0.00  0.00     0.034 C 
ENDBRANCH  21  23
ENDBRANCH  19  21
ENDBRANCH   1  19
TORSDOF 5
