REMARK  4 active torsions:
REMARK  status: ('A' for Active; 'I' for Inactive)
REMARK    1  A    between atoms: C_8  and  N_1 
REMARK    2  A    between atoms: C_9  and  C_2 
REMARK    3  A    between atoms: C_11  and  C_7 
REMARK    4  A    between atoms: C_12  and  C_8 
ROOT
ATOM      1  N   UNL d   1       0.105  -1.440   0.029  0.00  0.00    -0.293 N 
ATOM      2  C   UNL d   1       1.377  -0.957  -0.114  0.00  0.00     0.121 A 
ATOM      3  N   UNL d   1       1.473   0.345  -0.095  0.00  0.00    -0.337 N 
ATOM      4  HN  UNL d   1       2.323   0.906  -0.160  1.00  0.00     0.167 HD
ATOM      5  C   UNL d   1       0.178   0.798   0.034  0.00  0.00     0.103 A 
ATOM      6  C   UNL d   1      -0.745  -0.369   0.129  0.00  0.00     0.276 A 
ATOM      7  C   UNL d   1      -0.170   2.091   0.057  0.00  0.00     0.046 C 
ATOM      8  O   UNL d   1      -1.948  -0.376   0.287  0.00  0.00    -0.265 OA
ENDROOT
BRANCH   1   9
ATOM      9  C   UNL d   1      -0.412  -2.795   0.179  0.00  0.00     0.172 C 
BRANCH   9  10
ATOM     10  C   UNL d   1       0.143  -3.534   1.377  0.00  0.00    -0.040 A 
ATOM     11  C   UNL d   1       0.372  -2.877   2.596  0.00  0.00     0.010 A 
ATOM     12  C   UNL d   1       0.905  -3.567   3.686  0.00  0.00     0.024 A 
ATOM     13  C   UNL d   1       1.185  -4.925   3.576  0.00  0.00     0.034 A 
ATOM     14  C   UNL d   1       0.926  -5.604   2.387  0.00  0.00     0.024 A 
ATOM     15 CL   UNL d   1       1.850  -5.772   4.917  0.00  0.00    -0.084 Cl
ATOM     16  C   UNL d   1       0.401  -4.912   1.292  0.00  0.00     0.010 A 
ENDBRANCH   9  10
ENDBRANCH   1   9
BRANCH   2  17
ATOM     17  C   UNL d   1       2.581  -1.821  -0.234  0.00  0.00     0.008 A 
ATOM     18  C   UNL d   1       2.567  -3.040  -0.918  0.00  0.00     0.015 A 
ATOM     19  C   UNL d   1       3.709  -3.842  -0.967  0.00  0.00     0.001 A 
ATOM     20  C   UNL d   1       4.895  -3.403  -0.386  0.00  0.00     0.000 A 
ATOM     21  C   UNL d   1       4.940  -2.160   0.244  0.00  0.00     0.001 A 
ATOM     22  C   UNL d   1       3.787  -1.373   0.325  0.00  0.00     0.015 A 
ENDBRANCH   2  17
BRANCH   7  23
ATOM     23  C   UNL d   1      -1.546   2.582   0.147  0.00  0.00    -0.034 A 
ATOM     24  C   UNL d   1      -2.135   2.824   1.394  0.00  0.00     0.013 A 
ATOM     25  C   UNL d   1      -3.472   3.226   1.472  0.00  0.00     0.024 A 
ATOM     26  C   UNL d   1      -4.217   3.389   0.305  0.00  0.00     0.034 A 
ATOM     27  C   UNL d   1      -3.634   3.167  -0.941  0.00  0.00     0.024 A 
ATOM     28 CL   UNL d   1      -5.870   3.857   0.404  0.00  0.00    -0.084 Cl
ATOM     29  C   UNL d   1      -2.298   2.765  -1.020  0.00  0.00     0.013 A 
ENDBRANCH   7  23
TORSDOF 4
