REMARK  5 active torsions:
REMARK  status: ('A' for Active; 'I' for Inactive)
REMARK    1  A    between atoms: C_10  and  C_1 
REMARK    2  A    between atoms: C_4  and  C_2 
REMARK    3  A    between atoms: C_5  and  S_9 
REMARK    4  A    between atoms: O_14  and  C_6 
REMARK    5  A    between atoms: S_9  and  C_10 
ROOT
ATOM      1  C   UNL d   1       1.444  -0.369   0.135  0.00  0.00    -0.014 A 
ATOM      2  C   UNL d   1      -0.888  -1.103  -0.060  0.00  0.00     0.010 A 
ATOM      3  C   UNL d   1       0.480  -1.389  -0.022  0.00  0.00     0.026 A 
ATOM      4  C   UNL d   1       1.000   0.965   0.114  0.00  0.00     0.075 A 
ATOM      5  C   UNL d   1      -1.313   0.223  -0.058  0.00  0.00     0.018 A 
ATOM      6  C   UNL d   1      -0.371   1.252   0.025  0.00  0.00     0.038 A 
ENDROOT
BRANCH   1   7
ATOM      7  C   UNL d   1       2.910  -0.725   0.300  0.00  0.00     0.122 C 
BRANCH   7   8
ATOM      8  S   UNL d   1       3.235  -2.282   1.194  0.00  0.00    -0.108 SA
BRANCH   8   9
ATOM      9  C   UNL d   1       5.012  -2.330   1.097  0.00  0.00     0.069 A 
ATOM     10  N   UNL d   1       5.656  -1.318   0.472  0.00  0.00    -0.361 N 
ATOM     11  C   UNL d   1       7.005  -1.382   0.422  0.00  0.00     0.089 A 
ATOM     12  HN  UNL d   1       5.145  -0.540   0.056  1.00  0.00     0.165 HD
ATOM     13  C   UNL d   1       7.750  -2.416   0.964  0.00  0.00     0.017 A 
ATOM     14  C   UNL d   1       7.069  -3.448   1.599  0.00  0.00     0.004 A 
ATOM     15  C   UNL d   1       5.679  -3.408   1.668  0.00  0.00     0.037 A 
ENDBRANCH   8   9
ENDBRANCH   7   8
ENDBRANCH   1   7
BRANCH   4  16
ATOM     16  O   UNL d   1       1.787   2.073   0.291  0.00  0.00    -0.355 OA
ATOM     17  C   UNL d   1       2.909   2.193  -0.579  0.00  0.00     0.210 C 
ENDBRANCH   4  16
BRANCH   2  18
ATOM     18  C   UNL d   1      -1.915  -2.183  -0.059  0.00  0.00     0.155 C 
ATOM     19  O   UNL d   1      -3.018  -1.970  -0.560  0.00  0.00    -0.293 OA
ATOM     20  C   UNL d   1      -1.600  -3.504   0.600  0.00  0.00     0.096 C 
ENDBRANCH   2  18
TORSDOF 5
