REMARK  7 active torsions:
REMARK  status: ('A' for Active; 'I' for Inactive)
REMARK    1  A    between atoms: C_9  and  C_1 
REMARK    2  A    between atoms: C_10  and  N_2 
REMARK    3  A    between atoms: C_8  and  C_3 
REMARK    4  A    between atoms: C_14  and  C_4 
REMARK    5  A    between atoms: N_7  and  C_12 
REMARK    6  A    between atoms: O_24  and  C_9 
REMARK    7  A    between atoms: C_27  and  O_24 
ROOT
ATOM      1  C   UNL d   1      -0.337  -1.149   0.035  0.00  0.00     0.098 C 
ATOM      2  N   UNL d   1      -0.472   1.064  -0.081  0.00  0.00    -0.254 N 
ATOM      3  C   UNL d   1       0.947  -0.536  -0.054  0.00  0.00     0.084 C 
ATOM      4  C   UNL d   1      -1.257  -0.088   0.013  0.00  0.00     0.085 C 
ATOM      5  N   UNL d   1       0.826   0.770  -0.302  0.00  0.00    -0.291 N 
ATOM      6  HN  UNL d   1       1.561   1.412  -0.598  1.00  0.00     0.187 HD
ENDROOT
BRANCH   2   7
ATOM      7  C   UNL d   1      -0.844   2.441  -0.011  0.00  0.00     0.057 A 
ATOM      8  C   UNL d   1      -1.925   2.866   0.774  0.00  0.00     0.034 A 
ATOM      9  C   UNL d   1      -2.344   4.199   0.733  0.00  0.00     0.038 A 
ATOM     10  C   UNL d   1      -1.659   5.118  -0.071  0.00  0.00     0.103 A 
ATOM     11  C   UNL d   1      -0.537   4.719  -0.810  0.00  0.00     0.038 A 
ATOM     12  C   UNL d   1      -0.122   3.383  -0.766  0.00  0.00     0.034 A 
BRANCH  10  13
ATOM     13  N   UNL d   1      -2.126   6.506  -0.148  0.00  0.00    -0.116 N 
ATOM     14  O   UNL d   1      -1.502   7.290  -0.872  0.00  0.00    -0.532 OA
ATOM     15  O   UNL d   1      -3.135   6.811   0.513  0.00  0.00    -0.532 OA
ENDBRANCH  10  13
ENDBRANCH   2   7
BRANCH   4  16
ATOM     16  C   UNL d   1      -2.741  -0.119   0.009  0.00  0.00    -0.006 A 
ATOM     17  C   UNL d   1      -3.494   0.757  -0.790  0.00  0.00     0.014 A 
ATOM     18  C   UNL d   1      -4.891   0.788  -0.717  0.00  0.00     0.001 A 
ATOM     19  C   UNL d   1      -5.565  -0.123   0.087  0.00  0.00     0.000 A 
ATOM     20  C   UNL d   1      -4.843  -1.051   0.831  0.00  0.00     0.001 A 
ATOM     21  C   UNL d   1      -3.443  -1.030   0.813  0.00  0.00     0.014 A 
ENDBRANCH   4  16
BRANCH   1  22
ATOM     22  C   UNL d   1      -0.644  -2.571  -0.001  0.00  0.00     0.298 C 
ATOM     23  O   UNL d   1       0.005  -3.434   0.568  0.00  0.00    -0.259 OA
BRANCH  22  24
ATOM     24  O   UNL d   1      -1.707  -2.841  -0.812  0.00  0.00    -0.318 OA
BRANCH  24  25
ATOM     25  C   UNL d   1      -1.882  -4.207  -1.204  0.00  0.00     0.174 C 
ATOM     26  C   UNL d   1      -1.279  -4.354  -2.587  0.00  0.00     0.034 C 
ENDBRANCH  24  25
ENDBRANCH  22  24
ENDBRANCH   1  22
BRANCH   3  27
ATOM     27  C   UNL d   1       2.332  -1.145   0.000  0.00  0.00     0.034 A 
ATOM     28  S   UNL d   1       3.702  -0.391  -0.718  0.00  0.00    -0.100 SA
ATOM     29  C   UNL d   1       4.754  -1.638  -0.210  0.00  0.00     0.050 A 
ATOM     30  C   UNL d   1       4.097  -2.590   0.533  0.00  0.00     0.008 A 
ATOM     31  C   UNL d   1       2.705  -2.298   0.661  0.00  0.00     0.021 A 
ENDBRANCH   3  27
TORSDOF 7
