REMARK  5 active torsions:
REMARK  status: ('A' for Active; 'I' for Inactive)
REMARK    1  A    between atoms: N_4  and  N_1 
REMARK       I    between atoms: N_2  and  C_7 
REMARK       I    between atoms: C_7  and  N_4 
REMARK    2  A    between atoms: N_8  and  C_6 
REMARK    3  A    between atoms: S_12  and  C_6 
REMARK    4  A    between atoms: C_11  and  N_8 
REMARK    5  A    between atoms: C_14  and  C_11 
ROOT
ATOM      1  N   UNL d   1       4.061  -0.075   1.657  0.00  0.00    -0.169 N 
ATOM      2  HN  UNL d   1       4.338   0.826   1.267  1.00  0.00     0.186 HD
ATOM      3  N   UNL d   1       5.023   0.246   3.750  0.00  0.00    -0.072 N 
ATOM      4  HN  UNL d   1       5.563  -0.092   4.547  1.00  0.00     0.212 HD
ATOM      5  C   UNL d   1       3.079  -0.697   1.076  0.00  0.00     0.157 C 
ATOM      6  C   UNL d   1       4.750  -0.523   2.736  0.00  0.00     0.697 C 
ATOM      7  N   UNL d   1       5.287  -1.773   2.752  0.00  0.00    -0.233 N 
ATOM      8  H   UNL d   1       5.418  -2.203   1.844  0.00  0.00     0.174 HD
ATOM      9  H   UNL d   1       6.056  -1.886   3.403  0.00  0.00     0.174 HD
ENDROOT
BRANCH   5  10
ATOM     10  N   UNL d   1       2.422  -0.115  -0.013  0.00  0.00    -0.361 N 
ATOM     11  C   UNL d   1       0.964  -0.000  -0.034  0.00  0.00     0.152 C 
BRANCH  10  12
ATOM     12  C   UNL d   1       3.110   0.898  -0.824  0.00  0.00     0.163 C 
BRANCH  12  13
ATOM     13  C   UNL d   1       3.896   0.204  -1.915  0.00  0.00    -0.039 A 
ATOM     14  C   UNL d   1       3.280  -0.141  -3.129  0.00  0.00     0.032 A 
ATOM     15  C   UNL d   1       4.000  -0.816  -4.115  0.00  0.00     0.034 A 
ATOM     16 CL   UNL d   1       3.232  -1.234  -5.596  0.00  0.00    -0.084 Cl
ATOM     17  C   UNL d   1       5.335  -1.157  -3.908  0.00  0.00     0.024 A 
ATOM     18  C   UNL d   1       5.955  -0.821  -2.704  0.00  0.00     0.002 A 
ATOM     19  C   UNL d   1       5.240  -0.146  -1.714  0.00  0.00     0.009 A 
ENDBRANCH  12  13
ENDBRANCH  10  12
ENDBRANCH   5  10
BRANCH   5  20
ATOM     20  S   UNL d   1       2.500  -2.294   1.536  0.00  0.00    -0.098 SA
ATOM     21  C   UNL d   1       2.461  -3.125  -0.079  0.00  0.00     0.099 C 
ENDBRANCH   5  20
BRANCH   3  22
ATOM     22  N   UNL d   1       4.563   1.502   3.700  0.00  0.00    -0.024 N 
ATOM     23  O   UNL d   1       3.784   1.862   4.595  0.00  0.00    -0.516 OA
ATOM     24  O   UNL d   1       5.002   2.288   2.844  0.00  0.00    -0.516 OA
ENDBRANCH   3  22
TORSDOF 5
