REMARK  4 active torsions:
REMARK  status: ('A' for Active; 'I' for Inactive)
REMARK    1  A    between atoms: S_11  and  C_3 
REMARK    2  A    between atoms: C_9  and  C_8 
REMARK    3  A    between atoms: C_12  and  C_9 
REMARK    4  A    between atoms: C_10  and  S_11 
ROOT
ATOM      1  S   UNL d   1       4.365  -2.089  -0.010  0.00  0.00    -0.077 SA
ENDROOT
BRANCH   1   2
ATOM      2  C   UNL d   1       3.855  -3.744   0.064  0.00  0.00     0.056 C 
ATOM      3  C   UNL d   1       4.761  -4.716  -0.120  0.00  0.00     0.063 C 
BRANCH   3   4
ATOM      4  C   UNL d   1       4.370  -6.148  -0.062  0.00  0.00     0.182 C 
ATOM      5  O   UNL d   1       3.335  -6.518   0.479  0.00  0.00    -0.288 OA
BRANCH   4   6
ATOM      6  C   UNL d   1       5.310  -7.141  -0.656  0.00  0.00     0.014 A 
ATOM      7  C   UNL d   1       5.350  -8.433  -0.112  0.00  0.00     0.018 A 
ATOM      8  C   UNL d   1       6.199  -9.399  -0.658  0.00  0.00     0.043 A 
ATOM      9  C   UNL d   1       6.993  -9.075  -1.751  0.00  0.00     0.116 A 
ATOM     10  C   UNL d   1       6.957  -7.802  -2.310  0.00  0.00     0.043 A 
ATOM     11  F   UNL d   1       7.800 -10.004  -2.282  0.00  0.00    -0.206 F 
ATOM     12  C   UNL d   1       6.113  -6.831  -1.765  0.00  0.00     0.018 A 
ENDBRANCH   4   6
ENDBRANCH   3   4
ENDBRANCH   1   2
BRANCH   1  13
ATOM     13  C   UNL d   1       2.846  -1.225   0.161  0.00  0.00     0.117 A 
ATOM     14  N   UNL d   1       1.673  -1.800   0.298  0.00  0.00    -0.344 N 
ATOM     15  C   UNL d   1       0.683  -0.834   0.412  0.00  0.00     0.052 A 
ATOM     16  HN  UNL d   1       1.513  -2.808   0.319  1.00  0.00     0.167 HD
ATOM     17  C   UNL d   1       1.129   0.489   0.351  0.00  0.00     0.034 A 
ATOM     18  C   UNL d   1      -0.697  -1.074   0.579  0.00  0.00     0.054 A 
ATOM     19  C   UNL d   1       0.252   1.582   0.447  0.00  0.00     0.023 A 
ATOM     20  S   UNL d   1       2.836   0.493   0.149  0.00  0.00    -0.063 SA
ATOM     21  C   UNL d   1      -1.111   1.319   0.613  0.00  0.00     0.025 A 
ATOM     22  C   UNL d   1      -1.575   0.010   0.677  0.00  0.00     0.036 A 
ATOM     23 CL   UNL d   1      -3.260  -0.280   0.882  0.00  0.00    -0.084 Cl
ENDBRANCH   1  13
TORSDOF 4
