REMARK  2 active torsions:
REMARK  status: ('A' for Active; 'I' for Inactive)
REMARK    1  A    between atoms: C_6  and  N_1 
REMARK    2  A    between atoms: S_12  and  C_11 
ROOT
ATOM      1  C   UNL d   1       0.042   2.334  -0.012  0.00  0.00     0.046 A 
ATOM      2  C   UNL d   1      -0.676   3.060   0.948  0.00  0.00     0.031 A 
ATOM      3  C   UNL d   1       0.794   3.064  -0.941  0.00  0.00     0.031 A 
ATOM      4  C   UNL d   1       0.130   5.180   0.067  0.00  0.00    -0.000 A 
ATOM      5  C   UNL d   1      -0.620   4.463   0.998  0.00  0.00     0.021 A 
ATOM      6  C   UNL d   1       0.833   4.465  -0.905  0.00  0.00     0.021 A 
ENDROOT
BRANCH   1   7
ATOM      7  N   UNL d   1       0.025   0.912  -0.030  0.00  0.00    -0.245 N 
ATOM      8  C   UNL d   1      -0.921   0.118   0.563  0.00  0.00     0.255 A 
ATOM      9  C   UNL d   1      -0.540  -1.278   0.322  0.00  0.00     0.080 A 
ATOM     10  O   UNL d   1      -1.943   0.399   1.165  0.00  0.00    -0.268 OA
ATOM     11  C   UNL d   1       0.586  -1.279  -0.383  0.00  0.00     0.080 A 
ATOM     12  C   UNL d   1       0.970   0.117  -0.623  0.00  0.00     0.255 A 
ATOM     13  O   UNL d   1       1.997   0.393  -1.217  0.00  0.00    -0.268 OA
ENDBRANCH   1   7
BRANCH   4  14
ATOM     14  S   UNL d   1       0.309   6.956   0.079  0.00  0.00    -0.134 SA
ATOM     15  C   UNL d   1      -1.279   7.504   0.757  0.00  0.00     0.095 C 
ENDBRANCH   4  14
TORSDOF 2
