REMARK  6 active torsions:
REMARK  status: ('A' for Active; 'I' for Inactive)
REMARK    1  A    between atoms: C_2  and  C_1 
REMARK       I    between atoms: N_4  and  C_1 
REMARK    2  A    between atoms: C_3  and  C_2 
REMARK    3  A    between atoms: S_5  and  C_3 
REMARK    4  A    between atoms: C_7  and  N_4 
REMARK    5  A    between atoms: C_8  and  S_5 
REMARK    6  A    between atoms: O_20  and  C_10 
ROOT
ATOM      1  C   UNL d   1       0.856  -0.085   0.114  0.00  0.00     0.223 C 
ATOM      2  N   UNL d   1       1.853  -1.031   0.017  0.00  0.00    -0.327 N 
ATOM      3  O   UNL d   1       0.428   0.411   1.158  0.00  0.00    -0.273 OA
ATOM      4  H   UNL d   1       2.245  -1.167  -0.907  0.00  0.00     0.169 HD
ENDROOT
BRANCH   1   5
ATOM      5  C   UNL d   1       0.245   0.309  -1.221  0.00  0.00     0.123 C 
BRANCH   5   6
ATOM      6  C   UNL d   1       1.152   1.030  -2.237  0.00  0.00     0.014 C 
ATOM      7  C   UNL d   1       0.272   1.616  -3.357  0.00  0.00     0.027 C 
ATOM      8  C   UNL d   1       1.884   2.217  -1.573  0.00  0.00     0.027 C 
BRANCH   6   9
ATOM      9  S   UNL d   1       2.506  -0.046  -2.957  0.00  0.00    -0.120 SA
BRANCH   9  10
ATOM     10  C   UNL d   1       1.688  -1.462  -3.672  0.00  0.00     0.001 A 
ATOM     11  C   UNL d   1       0.816  -1.357  -4.758  0.00  0.00     0.020 A 
ATOM     12  C   UNL d   1       0.254  -2.500  -5.337  0.00  0.00     0.025 A 
ATOM     13  C   UNL d   1       0.599  -3.761  -4.861  0.00  0.00     0.034 A 
ATOM     14  C   UNL d   1       1.502  -3.888  -3.811  0.00  0.00     0.025 A 
ATOM     15 CL   UNL d   1      -0.062  -5.167  -5.598  0.00  0.00    -0.084 Cl
ATOM     16  C   UNL d   1       2.047  -2.741  -3.223  0.00  0.00     0.020 A 
ENDBRANCH   9  10
ENDBRANCH   6   9
ENDBRANCH   5   6
ENDBRANCH   1   5
BRANCH   2  17
ATOM     17  C   UNL d   1       2.504  -1.695   1.074  0.00  0.00     0.034 A 
ATOM     18  C   UNL d   1       2.040  -1.682   2.390  0.00  0.00     0.032 A 
ATOM     19  C   UNL d   1       2.752  -2.332   3.405  0.00  0.00     0.039 A 
ATOM     20  C   UNL d   1       3.938  -3.000   3.112  0.00  0.00     0.068 A 
ATOM     21  C   UNL d   1       4.376  -3.067   1.790  0.00  0.00     0.039 A 
ATOM     22  C   UNL d   1       3.665  -2.416   0.776  0.00  0.00     0.032 A 
BRANCH  20  23
ATOM     23  O   UNL d   1       4.720  -3.646   4.030  0.00  0.00    -0.356 OA
ATOM     24  C   UNL d   1       4.692  -3.086   5.340  0.00  0.00     0.210 C 
ENDBRANCH  20  23
ENDBRANCH   2  17
TORSDOF 6
