REMARK  6 active torsions:
REMARK  status: ('A' for Active; 'I' for Inactive)
REMARK    1  A    between atoms: O_4  and  C_1 
REMARK    2  A    between atoms: C_3  and  C_2 
REMARK       I    between atoms: N_10  and  C_3 
REMARK    3  A    between atoms: C_11  and  O_4 
REMARK    4  A    between atoms: C_15  and  N_10 
REMARK    5  A    between atoms: C_12  and  C_14 
REMARK    6  A    between atoms: C_14  and  C_15 
ROOT
ATOM      1  C   UNL d   1      -0.556   1.123   0.044  0.00  0.00     0.163 A 
ATOM      2  C   UNL d   1       0.824   1.139   0.250  0.00  0.00     0.083 A 
ATOM      3  N   UNL d   1      -1.266  -0.029  -0.131  0.00  0.00    -0.346 N 
ATOM      4  HN  UNL d   1      -2.280  -0.011  -0.240  1.00  0.00     0.167 HD
ATOM      5  C   UNL d   1       1.498  -0.091   0.206  0.00  0.00     0.023 A 
ATOM      6  C   UNL d   1      -0.583  -1.190  -0.153  0.00  0.00     0.090 A 
ATOM      7  C   UNL d   1       0.788  -1.270  -0.010  0.00  0.00     0.018 A 
ENDROOT
BRANCH   2   8
ATOM      8  C   UNL d   1       1.563   2.384   0.602  0.00  0.00     0.255 C 
ATOM      9  O   UNL d   1       1.005   3.310   1.177  0.00  0.00    -0.268 OA
ATOM     10  N   UNL d   1       2.911   2.400   0.301  0.00  0.00    -0.356 N 
ATOM     11  H   UNL d   1       3.300   1.748  -0.378  0.00  0.00     0.162 HD
BRANCH  10  12
ATOM     12  C   UNL d   1       3.775   3.513   0.657  0.00  0.00     0.129 C 
BRANCH  12  13
ATOM     13  C   UNL d   1       5.236   3.087   0.827  0.00  0.00     0.076 C 
BRANCH  13  14
ATOM     14  C   UNL d   1       5.882   2.638  -0.464  0.00  0.00     0.010 A 
ATOM     15  N   UNL d   1       5.364   1.534  -1.064  0.00  0.00    -0.369 N 
ATOM     16  C   UNL d   1       5.970   1.106  -2.197  0.00  0.00     0.088 A 
ATOM     17  HN  UNL d   1       4.554   1.049  -0.678  1.00  0.00     0.165 HD
ATOM     18  C   UNL d   1       7.070   1.723  -2.766  0.00  0.00     0.017 A 
ATOM     19  C   UNL d   1       7.587   2.848  -2.138  0.00  0.00     0.003 A 
ATOM     20  C   UNL d   1       6.989   3.315  -0.970  0.00  0.00     0.025 A 
ENDBRANCH  13  14
ENDBRANCH  12  13
ENDBRANCH  10  12
ENDBRANCH   2   8
BRANCH   1  21
ATOM     21  O   UNL d   1      -1.258   2.321   0.016  0.00  0.00    -0.293 OA
BRANCH  21  22
ATOM     22  C   UNL d   1      -2.411   2.395  -0.738  0.00  0.00     0.077 A 
ATOM     23  C   UNL d   1      -3.434   3.205  -0.236  0.00  0.00     0.039 A 
ATOM     24  C   UNL d   1      -4.620   3.373  -0.962  0.00  0.00     0.026 A 
ATOM     25  C   UNL d   1      -4.774   2.736  -2.192  0.00  0.00     0.034 A 
ATOM     26  C   UNL d   1      -3.753   1.941  -2.708  0.00  0.00     0.026 A 
ATOM     27 CL   UNL d   1      -6.228   2.942  -3.089  0.00  0.00    -0.084 Cl
ATOM     28  C   UNL d   1      -2.565   1.785  -1.989  0.00  0.00     0.039 A 
ENDBRANCH  21  22
ENDBRANCH   1  21
TORSDOF 6
