REMARK  5 active torsions:
REMARK  status: ('A' for Active; 'I' for Inactive)
REMARK       I    between atoms: C_7  and  N_1 
REMARK    1  A    between atoms: C_3  and  C_2 
REMARK       I    between atoms: N_10  and  C_3 
REMARK    2  A    between atoms: C_4  and  N_12 
REMARK    3  A    between atoms: O_15  and  C_7 
REMARK    4  A    between atoms: C_22  and  O_15 
REMARK    5  A    between atoms: C_27  and  C_22 
ROOT
ATOM      1  C   UNL d   1       2.799   0.011   1.498  0.00  0.00     0.243 C 
ATOM      2  N   UNL d   1       2.265  -1.131   2.095  0.00  0.00    -0.347 N 
ATOM      3  N   UNL d   1       1.308  -3.441   3.694  0.00  0.00     0.105 N 
ATOM      4  O   UNL d   1       2.389   1.132   1.822  0.00  0.00    -0.271 OA
ATOM      5  C   UNL d   1       2.841  -2.462   1.920  0.00  0.00     0.156 C 
ATOM      6  C   UNL d   1       1.561  -0.906   3.360  0.00  0.00     0.156 C 
ATOM      7  C   UNL d   1       1.859  -3.564   2.333  0.00  0.00     0.293 C 
ATOM      8  C   UNL d   1       0.736  -2.103   3.879  0.00  0.00     0.293 C 
ENDROOT
BRANCH   1   9
ATOM      9  C   UNL d   1       3.859  -0.167   0.376  0.00  0.00     0.191 C 
ATOM     10  N   UNL d   1       4.615   1.092   0.228  0.00  0.00    -0.279 N 
ATOM     11  C   UNL d   1       5.543   1.485   1.180  0.00  0.00     0.368 C 
ATOM     12  C   UNL d   1       3.998   1.841  -0.788  0.00  0.00     0.046 A 
ATOM     13  O   UNL d   1       5.810   0.807   2.160  0.00  0.00    -0.238 OA
ATOM     14  C   UNL d   1       3.089   1.026  -1.483  0.00  0.00    -0.029 A 
ATOM     15  C   UNL d   1       4.104   3.186  -1.089  0.00  0.00     0.030 A 
ATOM     16  C   UNL d   1       2.273   1.538  -2.478  0.00  0.00     0.009 A 
ATOM     17  C   UNL d   1       3.151  -0.386  -0.972  0.00  0.00     0.076 C 
ATOM     18  C   UNL d   1       2.367   2.900  -2.769  0.00  0.00     0.001 A 
ATOM     19  C   UNL d   1       3.276   3.717  -2.080  0.00  0.00     0.002 A 
BRANCH  11  20
ATOM     20  O   UNL d   1       6.122   2.675   0.889  0.00  0.00    -0.299 OA
BRANCH  20  21
ATOM     21  C   UNL d   1       6.675   3.394   1.995  0.00  0.00     0.219 C 
BRANCH  21  22
ATOM     22  C   UNL d   1       8.154   3.674   1.869  0.00  0.00    -0.034 A 
ATOM     23  C   UNL d   1       8.811   3.719   0.632  0.00  0.00     0.009 A 
ATOM     24  C   UNL d   1      10.168   4.056   0.562  0.00  0.00     0.001 A 
ATOM     25  C   UNL d   1      10.876   4.364   1.723  0.00  0.00     0.000 A 
ATOM     26  C   UNL d   1      10.231   4.338   2.957  0.00  0.00     0.001 A 
ATOM     27  C   UNL d   1       8.878   3.998   3.027  0.00  0.00     0.009 A 
ENDBRANCH  21  22
ENDBRANCH  20  21
ENDBRANCH  11  20
ENDBRANCH   1   9
BRANCH   3  28
ATOM     28  C   UNL d   1       2.129  -3.968   4.806  0.00  0.00     0.290 C 
ATOM     29  C   UNL d   1       2.612  -5.388   4.481  0.00  0.00    -0.009 A 
ATOM     30  C   UNL d   1       4.019  -5.411   4.374  0.00  0.00    -0.017 A 
ATOM     31  C   UNL d   1       1.843  -6.506   4.187  0.00  0.00     0.010 A 
ATOM     32  C   UNL d   1       4.674  -6.569   3.987  0.00  0.00     0.013 A 
ATOM     33  C   UNL d   1       4.536  -4.102   4.710  0.00  0.00    -0.017 C 
ATOM     34  C   UNL d   1       3.905  -7.697   3.684  0.00  0.00     0.001 A 
ATOM     35  C   UNL d   1       2.503  -7.665   3.778  0.00  0.00     0.001 A 
ATOM     36  C   UNL d   1       3.458  -3.269   5.083  0.00  0.00    -0.009 C 
ATOM     37  C   UNL d   1       5.830  -3.610   4.689  0.00  0.00     0.013 C 
ATOM     38  C   UNL d   1       3.692  -2.014   5.622  0.00  0.00     0.010 C 
ATOM     39  C   UNL d   1       4.993  -1.509   5.587  0.00  0.00     0.001 C 
ATOM     40  C   UNL d   1       6.048  -2.289   5.093  0.00  0.00     0.001 C 
ENDBRANCH   3  28
TORSDOF 5
