REMARK  10 active torsions:
REMARK  status: ('A' for Active; 'I' for Inactive)
REMARK       I    between atoms: C_2  and  N_1 
REMARK    1  A    between atoms: C_3  and  N_1 
REMARK    2  A    between atoms: C_4  and  C_2 
REMARK    3  A    between atoms: O_17  and  C_5 
REMARK    4  A    between atoms: O_19  and  C_6 
REMARK    5  A    between atoms: O_20  and  C_7 
REMARK    6  A    between atoms: O_22  and  C_10 
REMARK    7  A    between atoms: O_23  and  C_13 
REMARK    8  A    between atoms: C_24  and  N_15 
REMARK    9  A    between atoms: C_18  and  C_25 
REMARK   10  A    between atoms: C_25  and  C_24 
ROOT
ATOM      1  N   UNL d   1       1.091   0.050  -0.273  0.00  0.00    -0.300 N 
ATOM      2  C   UNL d   1       0.349  -0.887  -0.985  0.00  0.00     0.258 C 
ATOM      3  O   UNL d   1       0.783  -1.604  -1.875  0.00  0.00    -0.267 OA
ATOM      4  H   UNL d   1       0.578   0.711   0.298  0.00  0.00     0.171 HD
ENDROOT
BRANCH   1   5
ATOM      5  C   UNL d   1       2.451   0.154  -0.098  0.00  0.00     0.174 C 
ATOM      6  S   UNL d   1       3.005   1.400   0.868  0.00  0.00    -0.041 SA
ATOM      7  N   UNL d   1       3.209  -0.815  -0.688  0.00  0.00    -0.367 N 
ATOM      8  H   UNL d   1       2.717  -1.434  -1.333  0.00  0.00     0.161 HD
BRANCH   7   9
ATOM      9  C   UNL d   1       4.612  -1.117  -0.408  0.00  0.00     0.126 C 
BRANCH   9  10
ATOM     10  C   UNL d   1       4.777  -1.784   0.962  0.00  0.00     0.058 C 
BRANCH  10  11
ATOM     11  C   UNL d   1       6.196  -2.179   1.278  0.00  0.00    -0.054 A 
ATOM     12  C   UNL d   1       6.645  -3.477   0.991  0.00  0.00     0.046 A 
ATOM     13  C   UNL d   1       7.939  -3.898   1.335  0.00  0.00     0.102 A 
ATOM     14  C   UNL d   1       8.808  -2.978   1.947  0.00  0.00     0.101 A 
ATOM     15  C   UNL d   1       8.358  -1.683   2.236  0.00  0.00     0.040 A 
ATOM     16  C   UNL d   1       7.067  -1.280   1.898  0.00  0.00     0.010 A 
BRANCH  13  17
ATOM     17  O   UNL d   1       8.391  -5.176   1.136  0.00  0.00    -0.353 OA
ATOM     18  C   UNL d   1       7.480  -6.128   0.601  0.00  0.00     0.210 C 
ENDBRANCH  13  17
BRANCH  14  19
ATOM     19  O   UNL d   1      10.091  -3.213   2.373  0.00  0.00    -0.353 OA
ATOM     20  C   UNL d   1      10.861  -4.114   1.586  0.00  0.00     0.210 C 
ENDBRANCH  14  19
ENDBRANCH  10  11
ENDBRANCH   9  10
ENDBRANCH   7   9
ENDBRANCH   1   5
BRANCH   2  21
ATOM     21  C   UNL d   1      -1.093  -0.894  -0.631  0.00  0.00     0.037 A 
ATOM     22  C   UNL d   1      -2.065  -0.831  -1.631  0.00  0.00     0.057 A 
ATOM     23  C   UNL d   1      -3.427  -0.743  -1.291  0.00  0.00     0.105 A 
ATOM     24  C   UNL d   1      -3.814  -0.749   0.073  0.00  0.00     0.135 A 
ATOM     25  C   UNL d   1      -2.819  -0.903   1.065  0.00  0.00     0.105 A 
ATOM     26  C   UNL d   1      -1.470  -0.948   0.709  0.00  0.00     0.057 A 
BRANCH  23  27
ATOM     27  O   UNL d   1      -4.416  -0.643  -2.233  0.00  0.00    -0.353 OA
ATOM     28  C   UNL d   1      -4.068  -0.686  -3.611  0.00  0.00     0.210 C 
ENDBRANCH  23  27
BRANCH  24  29
ATOM     29  O   UNL d   1      -5.089  -0.609   0.556  0.00  0.00    -0.351 OA
ATOM     30  C   UNL d   1      -6.140  -0.178  -0.291  0.00  0.00     0.210 C 
ENDBRANCH  24  29
BRANCH  25  31
ATOM     31  O   UNL d   1      -3.003  -0.953   2.425  0.00  0.00    -0.353 OA
ATOM     32  C   UNL d   1      -4.194  -1.577   2.892  0.00  0.00     0.210 C 
ENDBRANCH  25  31
ENDBRANCH   2  21
TORSDOF 10
