REMARK  9 active torsions:
REMARK  status: ('A' for Active; 'I' for Inactive)
REMARK    1  A    between atoms: C_7  and  S_1 
REMARK    2  A    between atoms: N_12  and  S_1 
REMARK    3  A    between atoms: N_2  and  C_3 
REMARK    4  A    between atoms: C_4  and  C_6 
REMARK    5  A    between atoms: C_8  and  N_25 
REMARK    6  A    between atoms: C_26  and  N_12 
REMARK       I    between atoms: C_13  and  N_15 
REMARK    7  A    between atoms: N_15  and  C_24 
REMARK    8  A    between atoms: N_25  and  C_29 
REMARK    9  A    between atoms: C_29  and  C_26 
ROOT
ATOM      1  C   UNL d   1       3.197   0.630  -1.435  0.00  0.00     0.147 C 
ENDROOT
BRANCH   1   2
ATOM      2  N   UNL d   1       2.580   0.333  -0.130  0.00  0.00    -0.314 N 
ATOM      3  H   UNL d   1       1.711  -0.200  -0.129  0.00  0.00     0.172 HD
BRANCH   2   4
ATOM      4  S   UNL d   1       2.680   1.415   1.155  0.00  0.00     0.258 S 
ATOM      5  O   UNL d   1       1.688   0.992   2.118  0.00  0.00    -0.201 OA
ATOM      6  O   UNL d   1       4.072   1.568   1.507  0.00  0.00    -0.201 OA
BRANCH   4   7
ATOM      7  C   UNL d   1       2.104   2.919   0.415  0.00  0.00     0.079 A 
ATOM      8  C   UNL d   1       0.793   2.977  -0.059  0.00  0.00     0.027 A 
ATOM      9  C   UNL d   1       0.351   4.125  -0.722  0.00  0.00     0.031 A 
ATOM     10  C   UNL d   1       1.208   5.220  -0.902  0.00  0.00     0.034 A 
ATOM     11  C   UNL d   1       2.512   5.150  -0.401  0.00  0.00     0.031 A 
ATOM     12  C   UNL d   1       2.966   4.003   0.258  0.00  0.00     0.027 A 
BRANCH  10  13
ATOM     13  N   UNL d   1       0.693   6.338  -1.591  0.00  0.00    -0.328 N 
ATOM     14  C   UNL d   1       1.358   7.515  -1.889  0.00  0.00     0.218 C 
ATOM     15  O   UNL d   1       2.518   7.795  -1.600  0.00  0.00    -0.274 OA
ATOM     16  C   UNL d   1       0.509   8.510  -2.639  0.00  0.00     0.117 C 
ATOM     17  H   UNL d   1      -0.267   6.264  -1.904  0.00  0.00     0.169 HD
ENDBRANCH  10  13
ENDBRANCH   4   7
ENDBRANCH   2   4
ENDBRANCH   1   2
BRANCH   1  18
ATOM     18  C   UNL d   1       4.708   0.874  -1.347  0.00  0.00     0.113 C 
BRANCH  18  19
ATOM     19  N   UNL d   1       5.285   1.134  -2.674  0.00  0.00    -0.289 NA
ATOM     20  H   UNL d   1       4.735   1.829  -3.197  0.00  0.00     0.127 HD
BRANCH  19  21
ATOM     21  C   UNL d   1       6.659   1.471  -2.707  0.00  0.00     0.041 A 
ATOM     22  C   UNL d   1       7.227   2.340  -3.671  0.00  0.00     0.124 A 
ATOM     23  C   UNL d   1       8.624   2.542  -3.739  0.00  0.00     0.054 A 
ATOM     24  C   UNL d   1       9.490   1.875  -2.861  0.00  0.00     0.050 A 
ATOM     25  C   UNL d   1       8.939   1.018  -1.907  0.00  0.00     0.018 A 
ATOM     26  C   UNL d   1       7.558   0.812  -1.847  0.00  0.00     0.027 A 
BRANCH  22  27
ATOM     27  N   UNL d   1       6.387   3.103  -4.614  0.00  0.00    -0.114 N 
ATOM     28  O   UNL d   1       6.962   3.792  -5.471  0.00  0.00    -0.532 OA
ATOM     29  O   UNL d   1       5.152   3.042  -4.493  0.00  0.00    -0.532 OA
ENDBRANCH  22  27
BRANCH  24  30
ATOM     30  C   UNL d   1      10.988   2.044  -2.938  0.00  0.00     0.417 C 
ATOM     31  F   UNL d   1      11.390   2.874  -3.937  0.00  0.00    -0.166 F 
ATOM     32  F   UNL d   1      11.512   2.551  -1.790  0.00  0.00    -0.166 F 
ATOM     33  F   UNL d   1      11.627   0.861  -3.153  0.00  0.00    -0.166 F 
ENDBRANCH  24  30
ENDBRANCH  19  21
ENDBRANCH  18  19
ENDBRANCH   1  18
TORSDOF 9
