REMARK  3 active torsions:
REMARK  status: ('A' for Active; 'I' for Inactive)
REMARK    1  A    between atoms: N_8  and  C_1 
REMARK    2  A    between atoms: C_14  and  C_2 
REMARK       I    between atoms: C_7  and  N_8 
REMARK       I    between atoms: N_10  and  C_7 
REMARK    3  A    between atoms: C_16  and  N_10 
ROOT
ATOM      1  C   UNL d   1       2.046  -2.341   0.201  0.00  0.00     0.325 C 
ATOM      2  N   UNL d   1       0.773  -2.322  -0.332  0.00  0.00    -0.304 N 
ATOM      3  N   UNL d   1       2.479  -3.635   0.440  0.00  0.00    -0.309 N 
ATOM      4  O   UNL d   1       2.697  -1.331   0.411  0.00  0.00    -0.247 OA
ATOM      5  H   UNL d   1       0.453  -3.150  -0.810  0.00  0.00     0.171 HD
ATOM      6  H   UNL d   1       1.805  -4.374   0.317  0.00  0.00     0.170 HD
ENDROOT
BRANCH   2   7
ATOM      7  C   UNL d   1       0.019  -1.166  -0.531  0.00  0.00     0.097 A 
ATOM      8  C   UNL d   1      -0.998  -1.077  -1.462  0.00  0.00     0.137 A 
ATOM      9  O   UNL d   1      -1.606   0.133  -1.353  0.00  0.00    -0.235 OA
ATOM     10  N   UNL d   1      -0.953   0.896  -0.410  0.00  0.00    -0.263 N 
ATOM     11  C   UNL d   1       0.053   0.138   0.051  0.00  0.00     0.058 A 
ATOM     12  HN  UNL d   1      -1.187   1.846  -0.121  1.00  0.00     0.194 HD
ATOM     13  C   UNL d   1       0.979   0.739   1.041  0.00  0.00     0.072 C 
BRANCH   8  14
ATOM     14  C   UNL d   1      -1.428  -1.892  -2.587  0.00  0.00     0.002 A 
ATOM     15  C   UNL d   1      -2.774  -1.977  -2.962  0.00  0.00     0.014 A 
ATOM     16  C   UNL d   1      -3.142  -2.687  -4.108  0.00  0.00     0.001 A 
ATOM     17  C   UNL d   1      -2.171  -3.318  -4.886  0.00  0.00     0.000 A 
ATOM     18  C   UNL d   1      -0.830  -3.246  -4.519  0.00  0.00     0.001 A 
ATOM     19  C   UNL d   1      -0.462  -2.536  -3.378  0.00  0.00     0.014 A 
ENDBRANCH   8  14
ENDBRANCH   2   7
BRANCH   3  20
ATOM     20  C   UNL d   1       3.714  -4.005   1.025  0.00  0.00     0.037 A 
ATOM     21  C   UNL d   1       4.717  -3.086   1.351  0.00  0.00     0.042 A 
ATOM     22  C   UNL d   1       5.894  -3.485   2.028  0.00  0.00    -0.017 A 
ATOM     23  C   UNL d   1       6.999  -2.700   2.498  0.00  0.00     0.020 A 
ATOM     24  C   UNL d   1       6.058  -4.836   2.328  0.00  0.00     0.015 A 
ATOM     25  C   UNL d   1       7.944  -3.455   3.151  0.00  0.00     0.051 A 
ATOM     26  S   UNL d   1       7.537  -5.111   3.170  0.00  0.00    -0.101 SA
ATOM     27  C   UNL d   1       5.088  -5.787   1.960  0.00  0.00     0.022 A 
ATOM     28  C   UNL d   1       3.921  -5.353   1.315  0.00  0.00     0.031 A 
ENDBRANCH   3  20
TORSDOF 3
