REMARK  3 active torsions:
REMARK  status: ('A' for Active; 'I' for Inactive)
REMARK    1  A    between atoms: N_3  and  N_1 
REMARK    2  A    between atoms: C_8  and  N_3 
REMARK    3  A    between atoms: C_5  and  C_4 
ROOT
ATOM      1  N   UNL d   1       0.921  -0.068   0.013  0.00  0.00    -0.311 N 
ATOM      2  HN  UNL d   1       0.392  -0.940   0.042  1.00  0.00     0.186 HD
ATOM      3  C   UNL d   1       2.204  -0.036   0.167  0.00  0.00     0.118 C 
ENDROOT
BRANCH   1   4
ATOM      4  N   UNL d   1       0.324   1.133  -0.189  0.00  0.00    -0.301 N 
ATOM      5  H   UNL d   1       0.832   1.878  -0.661  0.00  0.00     0.187 HD
BRANCH   4   6
ATOM      6  C   UNL d   1      -1.066   1.141  -0.444  0.00  0.00     0.048 A 
ATOM      7  C   UNL d   1      -1.861  -0.003  -0.287  0.00  0.00     0.031 A 
ATOM      8  C   UNL d   1      -3.246   0.047  -0.462  0.00  0.00     0.002 A 
ATOM      9  C   UNL d   1      -3.862   1.256  -0.773  0.00  0.00     0.000 A 
ATOM     10  C   UNL d   1      -3.094   2.409  -0.907  0.00  0.00     0.002 A 
ATOM     11  C   UNL d   1      -1.707   2.353  -0.736  0.00  0.00     0.031 A 
ENDBRANCH   4   6
ENDBRANCH   1   4
BRANCH   3  12
ATOM     12  C   UNL d   1       2.968  -1.276   0.415  0.00  0.00    -0.019 A 
ATOM     13  C   UNL d   1       2.308  -2.506   0.515  0.00  0.00     0.014 A 
ATOM     14  C   UNL d   1       3.039  -3.672   0.753  0.00  0.00     0.024 A 
ATOM     15  C   UNL d   1       4.424  -3.603   0.888  0.00  0.00     0.034 A 
ATOM     16  C   UNL d   1       5.085  -2.377   0.792  0.00  0.00     0.024 A 
ATOM     17 CL   UNL d   1       5.326  -5.039   1.177  0.00  0.00    -0.084 Cl
ATOM     18  C   UNL d   1       4.357  -1.207   0.555  0.00  0.00     0.014 A 
ENDBRANCH   3  12
TORSDOF 3
