REMARK  3 active torsions:
REMARK  status: ('A' for Active; 'I' for Inactive)
REMARK    1  A    between atoms: C_7  and  N_1 
REMARK    2  A    between atoms: C_12  and  C_6 
REMARK    3  A    between atoms: C_10  and  C_11 
ROOT
ATOM      1  N   UNL d   1      -0.136  -1.261  -0.001  0.00  0.00    -0.180 N 
ATOM      2  N   UNL d   1       1.135  -0.789   0.187  0.00  0.00    -0.266 N 
ATOM      3  HN  UNL d   1       1.986  -1.311   0.399  1.00  0.00     0.190 HD
ATOM      4  C   UNL d   1      -1.016  -0.234  -0.263  0.00  0.00     0.394 A 
ATOM      5  O   UNL d   1      -0.264   0.915  -0.233  0.00  0.00    -0.240 OA
ATOM      6  C   UNL d   1       0.988   0.487   0.029  0.00  0.00     0.178 A 
ATOM      7  O   UNL d   1      -2.215  -0.229  -0.480  0.00  0.00    -0.236 OA
ENDROOT
BRANCH   1   8
ATOM      8  C   UNL d   1      -0.389  -2.645  -0.007  0.00  0.00     0.133 A 
ATOM      9  N   UNL d   1      -1.604  -3.103  -0.380  0.00  0.00    -0.337 N 
ATOM     10  C   UNL d   1      -1.813  -4.452  -0.444  0.00  0.00     0.118 A 
ATOM     11  HN  UNL d   1      -2.354  -2.452  -0.610  1.00  0.00     0.167 HD
ATOM     12  C   UNL d   1      -0.816  -5.369  -0.113  0.00  0.00     0.034 A 
ATOM     13  C   UNL d   1       0.424  -4.896   0.288  0.00  0.00     0.006 A 
ATOM     14  C   UNL d   1       0.640  -3.523   0.337  0.00  0.00     0.051 A 
BRANCH  10  15
ATOM     15  C   UNL d   1      -3.158  -4.987  -0.920  0.00  0.00     0.432 C 
ATOM     16  F   UNL d   1      -4.081  -4.033  -1.220  0.00  0.00    -0.165 F 
ATOM     17  F   UNL d   1      -3.035  -5.752  -2.046  0.00  0.00    -0.165 F 
ATOM     18  F   UNL d   1      -3.749  -5.802   0.004  0.00  0.00    -0.165 F 
ENDBRANCH  10  15
ENDBRANCH   1   8
BRANCH   6  19
ATOM     19  C   UNL d   1       2.053   1.494   0.092  0.00  0.00     0.018 A 
ATOM     20  C   UNL d   1       3.373   1.054   0.263  0.00  0.00     0.041 A 
ATOM     21  C   UNL d   1       4.420   1.976   0.338  0.00  0.00     0.056 A 
ATOM     22 CL   UNL d   1       6.018   1.356   0.550  0.00  0.00    -0.083 Cl
ATOM     23  C   UNL d   1       4.150   3.345   0.242  0.00  0.00     0.055 A 
ATOM     24  C   UNL d   1       2.833   3.783   0.062  0.00  0.00     0.026 A 
ATOM     25 CL   UNL d   1       5.392   4.541   0.342  0.00  0.00    -0.083 Cl
ATOM     26  C   UNL d   1       1.784   2.861  -0.015  0.00  0.00     0.017 A 
ENDBRANCH   6  19
TORSDOF 3
