REMARK  5 active torsions:
REMARK  status: ('A' for Active; 'I' for Inactive)
REMARK    1  A    between atoms: C_2  and  C_1 
REMARK    2  A    between atoms: S_6  and  C_1 
REMARK       I    between atoms: N_5  and  C_2 
REMARK    3  A    between atoms: C_3  and  C_4 
REMARK       I    between atoms: C_4  and  N_7 
REMARK    4  A    between atoms: N_7  and  N_5 
REMARK    5  A    between atoms: C_16  and  S_6 
ROOT
ATOM      1  C   UNL d   1       0.271   1.618   0.008  0.00  0.00     0.320 C 
ATOM      2  N   UNL d   1      -1.010   1.734  -0.513  0.00  0.00    -0.261 N 
ATOM      3  O   UNL d   1       0.848   2.610   0.473  0.00  0.00    -0.264 OA
ATOM      4  H   UNL d   1      -1.600   0.928  -0.735  0.00  0.00     0.190 HD
ENDROOT
BRANCH   1   5
ATOM      5  C   UNL d   1       0.887   0.202  -0.016  0.00  0.00     0.377 C 
ATOM      6  F   UNL d   1       0.007  -0.699   0.520  0.00  0.00    -0.182 F 
ATOM      7  F   UNL d   1       2.010   0.108   0.755  0.00  0.00    -0.182 F 
BRANCH   5   8
ATOM      8  S   UNL d   1       1.273  -0.360  -1.713  0.00  0.00    -0.043 SA
BRANCH   8   9
ATOM      9  C   UNL d   1       2.284   0.951  -2.380  0.00  0.00     0.006 A 
ATOM     10  C   UNL d   1       3.174   1.724  -1.631  0.00  0.00     0.018 A 
ATOM     11  C   UNL d   1       3.878   2.774  -2.231  0.00  0.00     0.001 A 
ATOM     12  C   UNL d   1       3.722   3.039  -3.590  0.00  0.00     0.000 A 
ATOM     13  C   UNL d   1       2.883   2.237  -4.358  0.00  0.00     0.001 A 
ATOM     14  C   UNL d   1       2.175   1.195  -3.756  0.00  0.00     0.018 A 
ENDBRANCH   8   9
ENDBRANCH   5   8
ENDBRANCH   1   5
BRANCH   2  15
ATOM     15  N   UNL d   1      -1.659   2.977  -0.367  0.00  0.00    -0.263 N 
ATOM     16  C   UNL d   1      -3.036   3.041  -0.466  0.00  0.00     0.270 C 
ATOM     17  O   UNL d   1      -3.702   2.046  -0.761  0.00  0.00    -0.266 OA
ATOM     18  H   UNL d   1      -1.084   3.739  -0.017  0.00  0.00     0.190 HD
BRANCH  16  19
ATOM     19  C   UNL d   1      -3.655   4.344  -0.196  0.00  0.00     0.040 A 
ATOM     20  C   UNL d   1      -2.997   5.515   0.148  0.00  0.00     0.066 A 
ATOM     21  S   UNL d   1      -4.056   6.842   0.378  0.00  0.00    -0.113 SA
ATOM     22  C   UNL d   1      -5.423   5.886   0.024  0.00  0.00     0.050 A 
ATOM     23  C   UNL d   1      -5.074   4.584  -0.262  0.00  0.00     0.024 A 
ENDBRANCH  16  19
ENDBRANCH   2  15
TORSDOF 5
