REMARK  2 active torsions:
REMARK  status: ('A' for Active; 'I' for Inactive)
REMARK    1  A    between atoms: C_13  and  N_1 
REMARK    2  A    between atoms: N_2  and  C_8 
ROOT
ATOM      1  N   UNL d   1       1.540   1.157   0.003  0.00  0.00    -0.306 N 
ATOM      2  C   UNL d   1       2.299   0.011  -0.115  0.00  0.00     0.189 A 
ATOM      3  N   UNL d   1       1.575  -1.084  -0.086  0.00  0.00    -0.350 N 
ATOM      4  HN  UNL d   1       1.907  -2.048  -0.122  1.00  0.00     0.166 HD
ATOM      5  C   UNL d   1       0.213   0.742   0.045  0.00  0.00     0.067 A 
ATOM      6  C   UNL d   1       0.281  -0.652   0.001  0.00  0.00     0.062 A 
ATOM      7  C   UNL d   1      -2.123  -0.744   0.040  0.00  0.00     0.105 A 
ATOM      8  C   UNL d   1      -0.893  -1.419   0.017  0.00  0.00     0.068 A 
ATOM      9  C   UNL d   1      -1.017   1.423   0.043  0.00  0.00     0.035 A 
ATOM     10  C   UNL d   1      -2.187   0.655   0.047  0.00  0.00     0.038 A 
ENDROOT
BRANCH   1  11
ATOM     11  C   UNL d   1       2.054   2.480   0.063  0.00  0.00     0.040 A 
ATOM     12  C   UNL d   1       3.231   2.804  -0.625  0.00  0.00     0.030 A 
ATOM     13  C   UNL d   1       3.735   4.106  -0.571  0.00  0.00     0.002 A 
ATOM     14  C   UNL d   1       3.085   5.078   0.186  0.00  0.00     0.000 A 
ATOM     15  C   UNL d   1       1.927   4.755   0.890  0.00  0.00     0.002 A 
ATOM     16  C   UNL d   1       1.407   3.460   0.828  0.00  0.00     0.030 A 
ENDBRANCH   1  11
BRANCH   7  17
ATOM     17  N   UNL d   1      -3.368  -1.522   0.026  0.00  0.00    -0.116 N 
ATOM     18  O   UNL d   1      -3.280  -2.757   0.009  0.00  0.00    -0.532 OA
ATOM     19  O   UNL d   1      -4.438  -0.894   0.032  0.00  0.00    -0.532 OA
ENDBRANCH   7  17
TORSDOF 2
