REMARK  9 active torsions:
REMARK  status: ('A' for Active; 'I' for Inactive)
REMARK    1  A    between atoms: O_7  and  C_1 
REMARK    2  A    between atoms: C_11  and  N_2 
REMARK    3  A    between atoms: S_22  and  C_5 
REMARK    4  A    between atoms: S_6  and  C_17 
REMARK    5  A    between atoms: C_15  and  S_6 
REMARK    6  A    between atoms: C_10  and  O_7 
REMARK    7  A    between atoms: C_12  and  C_10 
REMARK    8  A    between atoms: C_17  and  C_27 
REMARK    9  A    between atoms: C_27  and  S_22 
ROOT
ATOM      1  C   UNL d   1       0.056  -1.273   0.156  0.00  0.00     0.251 A 
ATOM      2  N   UNL d   1       1.264  -0.694  -0.194  0.00  0.00    -0.286 N 
ATOM      3  N   UNL d   1      -0.748  -0.334   0.618  0.00  0.00    -0.262 N 
ATOM      4  HN  UNL d   1      -1.723  -0.464   0.887  1.00  0.00     0.190 HD
ATOM      5  C   UNL d   1       1.161   0.618   0.225  0.00  0.00     0.164 A 
ATOM      6  N   UNL d   1      -0.053   0.844   0.677  0.00  0.00    -0.277 N 
ATOM      7  HN  UNL d   1      -0.412   1.737   1.013  1.00  0.00     0.189 HD
ENDROOT
BRANCH   5   8
ATOM      8  S   UNL d   1       2.391   1.831   0.138  0.00  0.00    -0.091 SA
BRANCH   8   9
ATOM      9  C   UNL d   1       1.719   3.166   1.175  0.00  0.00     0.098 C 
BRANCH   9  10
ATOM     10  C   UNL d   1       1.696   2.779   2.642  0.00  0.00     0.156 C 
BRANCH  10  11
ATOM     11  S   UNL d   1       1.341   4.170   3.690  0.00  0.00     0.176 S 
ATOM     12  O   UNL d   1       1.150   3.685   5.039  0.00  0.00    -0.223 OA
ATOM     13  O   UNL d   1       2.329   5.197   3.405  0.00  0.00    -0.223 OA
BRANCH  11  14
ATOM     14  C   UNL d   1      -0.238   4.781   3.143  0.00  0.00     0.059 A 
ATOM     15  C   UNL d   1      -1.356   3.943   3.219  0.00  0.00     0.026 A 
ATOM     16  C   UNL d   1      -2.589   4.413   2.776  0.00  0.00     0.044 A 
ATOM     17  C   UNL d   1      -2.696   5.709   2.277  0.00  0.00     0.116 A 
ATOM     18  C   UNL d   1      -1.588   6.549   2.215  0.00  0.00     0.044 A 
ATOM     19  F   UNL d   1      -3.885   6.157   1.854  0.00  0.00    -0.206 F 
ATOM     20  C   UNL d   1      -0.347   6.086   2.652  0.00  0.00     0.026 A 
ENDBRANCH  11  14
ENDBRANCH  10  11
ENDBRANCH   9  10
ENDBRANCH   8   9
ENDBRANCH   5   8
BRANCH   2  21
ATOM     21  C   UNL d   1       2.353  -1.367  -0.874  0.00  0.00     0.096 A 
ATOM     22  C   UNL d   1       3.684  -1.529  -0.156  0.00  0.00     0.028 A 
ATOM     23  C   UNL d   1       3.628  -0.798  -1.456  0.00  0.00     0.028 A 
ENDBRANCH   2  21
BRANCH   1  24
ATOM     24  O   UNL d   1      -0.358  -2.521   0.103  0.00  0.00    -0.240 OA
BRANCH  24  25
ATOM     25  C   UNL d   1       0.331  -3.665   0.241  0.00  0.00     0.307 C 
ATOM     26  O   UNL d   1       1.550  -3.780   0.255  0.00  0.00    -0.258 OA
BRANCH  25  27
ATOM     27  C   UNL d   1      -0.583  -4.797   0.380  0.00  0.00     0.080 A 
ATOM     28  S   UNL d   1      -2.237  -4.586   0.796  0.00  0.00    -0.096 SA
ATOM     29  C   UNL d   1      -2.538  -6.266   0.769  0.00  0.00     0.050 A 
ATOM     30  C   UNL d   1      -1.406  -6.988   0.466  0.00  0.00     0.009 A 
ATOM     31  C   UNL d   1      -0.275  -6.142   0.263  0.00  0.00     0.025 A 
ENDBRANCH  25  27
ENDBRANCH  24  25
ENDBRANCH   1  24
TORSDOF 9
