REMARK  4 active torsions:
REMARK  status: ('A' for Active; 'I' for Inactive)
REMARK    1  A    between atoms: C_13  and  C_5 
REMARK    2  A    between atoms: N_12  and  C_7 
REMARK    3  A    between atoms: O_16  and  C_13 
REMARK    4  A    between atoms: C_20  and  O_16 
ROOT
ATOM      1  C   UNL d   1       1.549  -0.891  -0.071  0.00  0.00     0.162 A 
ATOM      2  N   UNL d   1       0.878   0.315  -0.072  0.00  0.00    -0.221 N 
ATOM      3  N   UNL d   1       0.902  -2.091  -0.050  0.00  0.00    -0.325 N 
ATOM      4  HN  UNL d   1       1.424  -2.967  -0.066  1.00  0.00     0.169 HD
ATOM      5  C   UNL d   1       2.880  -0.498  -0.056  0.00  0.00     0.167 A 
ATOM      6  N   UNL d   1       1.718   1.364  -0.113  0.00  0.00    -0.013 NA
ATOM      7  C   UNL d   1      -0.411  -2.090  -0.009  0.00  0.00     0.117 A 
ATOM      8  N   UNL d   1       2.951   0.880  -0.100  0.00  0.00    -0.275 N 
ATOM      9  HN  UNL d   1       3.808   1.433  -0.120  1.00  0.00     0.184 HD
ATOM     10  C   UNL d   1      -1.204  -0.802  -0.011  0.00  0.00     0.036 A 
ATOM     11  C   UNL d   1      -0.513   0.410  -0.030  0.00  0.00     0.070 A 
ATOM     12  C   UNL d   1      -2.600  -0.778  -0.043  0.00  0.00     0.017 A 
ATOM     13  C   UNL d   1      -1.179   1.636  -0.027  0.00  0.00     0.032 A 
ATOM     14  C   UNL d   1      -3.282   0.440  -0.036  0.00  0.00     0.001 A 
ATOM     15  C   UNL d   1      -2.574   1.643  -0.020  0.00  0.00     0.002 A 
ENDROOT
BRANCH   7  16
ATOM     16  N   UNL d   1      -1.114  -3.284  -0.014  0.00  0.00    -0.366 N 
ATOM     17  C   UNL d   1      -1.782  -3.747   1.208  0.00  0.00     0.124 C 
ATOM     18  C   UNL d   1      -3.037  -4.527   0.809  0.00  0.00     0.020 C 
ATOM     19  C   UNL d   1      -2.716  -5.653  -0.175  0.00  0.00     0.003 C 
ATOM     20  C   UNL d   1      -1.844  -5.169  -1.336  0.00  0.00     0.020 C 
ATOM     21  C   UNL d   1      -0.624  -4.398  -0.833  0.00  0.00     0.124 C 
ENDBRANCH   7  16
BRANCH   5  22
ATOM     22  C   UNL d   1       4.056  -1.337   0.069  0.00  0.00     0.315 C 
ATOM     23  O   UNL d   1       4.036  -2.559   0.182  0.00  0.00    -0.257 OA
BRANCH  22  24
ATOM     24  O   UNL d   1       5.197  -0.588   0.145  0.00  0.00    -0.317 OA
BRANCH  24  25
ATOM     25  C   UNL d   1       6.340  -1.247   0.703  0.00  0.00     0.175 C 
ATOM     26  C   UNL d   1       6.290  -1.086   2.212  0.00  0.00     0.034 C 
ENDBRANCH  24  25
ENDBRANCH  22  24
ENDBRANCH   5  22
TORSDOF 4
