REMARK  10 active torsions:
REMARK  status: ('A' for Active; 'I' for Inactive)
REMARK    1  A    between atoms: C_5  and  C_1 
REMARK    2  A    between atoms: C_13  and  N_4 
REMARK    3  A    between atoms: N_9  and  C_5 
REMARK       I    between atoms: C_10  and  N_9 
REMARK    4  A    between atoms: N_11  and  N_9 
REMARK    5  A    between atoms: O_22  and  C_10 
REMARK       I    between atoms: C_12  and  N_11 
REMARK    6  A    between atoms: O_23  and  C_12 
REMARK    7  A    between atoms: C_16  and  C_14 
REMARK    8  A    between atoms: N_15  and  C_17 
REMARK    9  A    between atoms: C_30  and  O_22 
REMARK   10  A    between atoms: C_31  and  O_23 
ROOT
ATOM      1  C   UNL d   1      -0.308  -2.999  -0.145  0.00  0.00     0.108 C 
ATOM      2  C   UNL d   1       0.695  -3.884  -0.356  0.00  0.00     0.037 C 
ENDROOT
BRANCH   1   3
ATOM      3  C   UNL d   1      -0.010  -1.597   0.023  0.00  0.00     0.164 A 
ATOM      4  N   UNL d   1       1.108  -0.997  -0.415  0.00  0.00    -0.263 N 
ATOM      5  N   UNL d   1       0.891   0.278  -0.031  0.00  0.00    -0.179 N 
ATOM      6  HN  UNL d   1       1.907  -1.397  -0.906  1.00  0.00     0.190 HD
ATOM      7  N   UNL d   1      -0.296   0.473   0.589  0.00  0.00     0.003 NA
ATOM      8  N   UNL d   1      -0.886  -0.718   0.605  0.00  0.00    -0.265 N 
ATOM      9  HN  UNL d   1      -1.811  -0.935   0.977  1.00  0.00     0.186 HD
BRANCH   5  10
ATOM     10  C   UNL d   1       1.836   1.301  -0.288  0.00  0.00     0.073 A 
ATOM     11  C   UNL d   1       2.985   1.008  -1.045  0.00  0.00     0.034 A 
ATOM     12  C   UNL d   1       3.922   2.007  -1.315  0.00  0.00     0.026 A 
ATOM     13  C   UNL d   1       3.719   3.294  -0.821  0.00  0.00     0.034 A 
ATOM     14  C   UNL d   1       2.587   3.591  -0.061  0.00  0.00     0.026 A 
ATOM     15 CL   UNL d   1       4.873   4.525  -1.156  0.00  0.00    -0.084 Cl
ATOM     16  C   UNL d   1       1.638   2.598   0.204  0.00  0.00     0.034 A 
ENDBRANCH   5  10
ENDBRANCH   1   3
BRANCH   1  17
ATOM     17  N   UNL d   1      -1.644  -3.380  -0.171  0.00  0.00    -0.191 N 
ATOM     18  C   UNL d   1      -2.334  -3.648  -1.356  0.00  0.00     0.386 C 
ATOM     19  O   UNL d   1      -3.500  -4.049  -1.382  0.00  0.00    -0.236 OA
BRANCH  18  20
ATOM     20  O   UNL d   1      -1.577  -3.421  -2.463  0.00  0.00    -0.303 OA
BRANCH  20  21
ATOM     21  C   UNL d   1      -2.077  -3.863  -3.729  0.00  0.00     0.176 C 
ATOM     22  C   UNL d   1      -2.500  -2.678  -4.575  0.00  0.00     0.034 C 
ENDBRANCH  20  21
ENDBRANCH  18  20
BRANCH  17  23
ATOM     23  N   UNL d   1      -2.415  -3.443   1.032  0.00  0.00    -0.234 N 
ATOM     24  C   UNL d   1      -1.841  -3.717   2.248  0.00  0.00     0.380 C 
ATOM     25  O   UNL d   1      -0.657  -3.607   2.535  0.00  0.00    -0.237 OA
ATOM     26  H   UNL d   1      -3.368  -3.768   0.902  0.00  0.00     0.193 HD
BRANCH  24  27
ATOM     27  O   UNL d   1      -2.792  -4.175   3.110  0.00  0.00    -0.303 OA
BRANCH  27  28
ATOM     28  C   UNL d   1      -2.278  -4.635   4.372  0.00  0.00     0.176 C 
ATOM     29  C   UNL d   1      -1.864  -6.091   4.249  0.00  0.00     0.034 C 
ENDBRANCH  27  28
ENDBRANCH  24  27
ENDBRANCH  17  23
ENDBRANCH   1  17
BRANCH   2  30
ATOM     30  C   UNL d   1       0.621  -5.296  -0.670  0.00  0.00     0.019 C 
ATOM     31  C   UNL d   1       1.724  -6.057  -0.757  0.00  0.00     0.085 C 
BRANCH  31  32
ATOM     32  N   UNL d   1       1.845  -7.368  -1.175  0.00  0.00    -0.390 N 
ATOM     33  C   UNL d   1       3.114  -8.099  -1.193  0.00  0.00     0.122 C 
ATOM     34  C   UNL d   1       3.032  -8.951  -2.451  0.00  0.00     0.021 C 
ATOM     35  C   UNL d   1       1.556  -9.291  -2.552  0.00  0.00     0.021 C 
ATOM     36  C   UNL d   1       0.839  -8.073  -1.972  0.00  0.00     0.122 C 
ENDBRANCH  31  32
ENDBRANCH   2  30
TORSDOF 10
