REMARK  6 active torsions:
REMARK  status: ('A' for Active; 'I' for Inactive)
REMARK    1  A    between atoms: C_4  and  N_1 
REMARK    2  A    between atoms: C_12  and  C_2 
REMARK    3  A    between atoms: N_5  and  C_3 
REMARK    4  A    between atoms: C_14  and  C_12 
REMARK    5  A    between atoms: C_21  and  C_14 
REMARK    6  A    between atoms: O_18  and  C_21 
ROOT
ATOM      1  N   UNL d   1       0.034   3.221  -3.930  0.00  0.00    -0.197 NA
ATOM      2  C   UNL d   1       0.682   3.732  -3.110  0.00  0.00     0.066 C 
ATOM      3  C   UNL d   1       1.514   4.394  -2.096  0.00  0.00     0.120 C 
ENDROOT
BRANCH   3   4
ATOM      4  C   UNL d   1       0.700   4.699  -0.826  0.00  0.00     0.062 C 
BRANCH   4   5
ATOM      5  C   UNL d   1       0.089   3.547  -0.038  0.00  0.00    -0.028 A 
ATOM      6  C   UNL d   1       0.734   2.293  -0.029  0.00  0.00     0.045 A 
ATOM      7  C   UNL d   1       0.168   1.198   0.635  0.00  0.00     0.103 A 
ATOM      8  C   UNL d   1      -1.014   1.350   1.352  0.00  0.00     0.038 A 
ATOM      9  C   UNL d   1      -1.639   2.601   1.379  0.00  0.00     0.032 A 
ATOM     10  C   UNL d   1      -1.125   3.718   0.689  0.00  0.00     0.036 A 
BRANCH   7  11
ATOM     11  N   UNL d   1       0.812  -0.119   0.549  0.00  0.00    -0.116 N 
ATOM     12  O   UNL d   1       1.847  -0.212  -0.127  0.00  0.00    -0.532 OA
ATOM     13  O   UNL d   1       0.282  -1.062   1.155  0.00  0.00    -0.532 OA
ENDBRANCH   7  11
BRANCH  10  14
ATOM     14  N   UNL d   1      -1.836   4.907   0.650  0.00  0.00    -0.376 N 
ATOM     15  C   UNL d   1      -3.308   4.916   0.724  0.00  0.00     0.149 C 
ATOM     16  C   UNL d   1      -3.822   6.101  -0.114  0.00  0.00     0.187 C 
ATOM     17  O   UNL d   1      -3.262   7.352   0.329  0.00  0.00    -0.388 OA
ATOM     18  C   UNL d   1      -1.823   7.314   0.269  0.00  0.00     0.187 C 
ATOM     19  C   UNL d   1      -1.259   6.174   1.140  0.00  0.00     0.149 C 
ENDBRANCH  10  14
ENDBRANCH   4   5
ENDBRANCH   3   4
BRANCH   3  20
ATOM     20  C   UNL d   1       2.072   5.699  -2.686  0.00  0.00     0.183 C 
BRANCH  20  21
ATOM     21  O   UNL d   1       2.924   6.346  -1.746  0.00  0.00    -0.400 OA
ATOM     22  H   UNL d   1       3.283   7.142  -2.178  0.00  0.00     0.209 HD
ENDBRANCH  20  21
ENDBRANCH   3  20
TORSDOF 6
