REMARK  4 active torsions:
REMARK  status: ('A' for Active; 'I' for Inactive)
REMARK    1  A    between atoms: N_7  and  C_1 
REMARK    2  A    between atoms: C_11  and  N_7 
REMARK    3  A    between atoms: O_8  and  C_12 
REMARK    4  A    between atoms: C_12  and  C_11 
ROOT
ATOM      1  C   UNL d   1      -2.321  -0.007  -0.032  0.00  0.00     0.679 A 
ATOM      2  N   UNL d   1      -1.600   1.084  -0.129  0.00  0.00    -0.190 N 
ATOM      3  HN  UNL d   1      -1.938   2.041  -0.229  1.00  0.00     0.184 HD
ATOM      4  N   UNL d   1      -1.525  -1.116   0.082  0.00  0.00    -0.190 N 
ATOM      5  C   UNL d   1      -0.291   0.666  -0.068  0.00  0.00     0.076 A 
ATOM      6  C   UNL d   1      -0.215  -0.717   0.035  0.00  0.00     0.076 A 
ATOM      7  C   UNL d   1       0.895   1.415  -0.103  0.00  0.00     0.032 A 
ATOM      8  C   UNL d   1       0.989  -1.422   0.079  0.00  0.00     0.032 A 
ATOM      9  C   UNL d   1       2.162  -0.659   0.032  0.00  0.00     0.002 A 
ATOM     10  C   UNL d   1       2.119   0.736  -0.049  0.00  0.00     0.002 A 
ATOM     11  H   UNL d   1      -1.860  -2.061   0.169  0.00  0.00     0.184 HD
ENDROOT
BRANCH   1  12
ATOM     12  N   UNL d   1      -3.655  -0.147  -0.034  0.00  0.00    -0.224 N 
ATOM     13  H   UNL d   1      -4.128  -1.046  -0.001  0.00  0.00     0.177 HD
BRANCH  12  14
ATOM     14  C   UNL d   1      -4.508   0.926  -0.527  0.00  0.00     0.164 C 
BRANCH  14  15
ATOM     15  C   UNL d   1      -5.388   0.381  -1.660  0.00  0.00     0.184 C 
BRANCH  15  16
ATOM     16  O   UNL d   1      -6.173  -0.717  -1.184  0.00  0.00    -0.399 OA
ATOM     17  H   UNL d   1      -6.748  -0.989  -1.920  0.00  0.00     0.209 HD
ENDBRANCH  15  16
ENDBRANCH  14  15
ENDBRANCH  12  14
ENDBRANCH   1  12
TORSDOF 4
