REMARK  3 active torsions:
REMARK  status: ('A' for Active; 'I' for Inactive)
REMARK    1  A    between atoms: C_9  and  C_1 
REMARK    2  A    between atoms: C_16  and  C_7 
REMARK    3  A    between atoms: N_8  and  C_15 
ROOT
ATOM      1  C   UNL d   1      -0.210  -1.150   0.164  0.00  0.00     0.153 A 
ATOM      2  O   UNL d   1      -1.148  -0.167   0.403  0.00  0.00    -0.276 OA
ATOM      3  N   UNL d   1       1.004  -0.654   0.009  0.00  0.00    -0.280 N 
ATOM      4  HN  UNL d   1       1.860  -1.183  -0.156  1.00  0.00     0.189 HD
ATOM      5  N   UNL d   1       0.894   0.711   0.111  0.00  0.00    -0.277 N 
ATOM      6  HN  UNL d   1       1.650   1.390   0.028  1.00  0.00     0.189 HD
ATOM      7  C   UNL d   1      -0.377   0.975   0.337  0.00  0.00     0.174 A 
ENDROOT
BRANCH   1   8
ATOM      8  C   UNL d   1      -0.645  -2.554  -0.162  0.00  0.00     0.134 C 
ATOM      9  C   UNL d   1      -1.556  -2.635  -1.376  0.00  0.00    -0.008 A 
ATOM     10  C   UNL d   1      -2.450  -3.702  -1.486  0.00  0.00     0.083 A 
ATOM     11  C   UNL d   1      -1.437  -1.748  -2.463  0.00  0.00     0.011 A 
ATOM     12  C   UNL d   1      -3.204  -3.886  -2.648  0.00  0.00     0.038 A 
ATOM     13  O   UNL d   1      -2.629  -4.647  -0.510  0.00  0.00    -0.310 OA
ATOM     14  C   UNL d   1      -3.083  -2.996  -3.712  0.00  0.00     0.003 A 
ATOM     15  C   UNL d   1      -2.204  -1.922  -3.616  0.00  0.00     0.001 A 
ATOM     16  C   UNL d   1      -2.020  -4.469   0.707  0.00  0.00     0.083 A 
ATOM     17  C   UNL d   1      -1.116  -3.431   0.987  0.00  0.00    -0.008 A 
ATOM     18  C   UNL d   1      -2.325  -5.448   1.660  0.00  0.00     0.038 A 
ATOM     19  C   UNL d   1      -0.532  -3.396   2.265  0.00  0.00     0.011 A 
ATOM     20  C   UNL d   1      -0.842  -4.379   3.221  0.00  0.00     0.001 A 
ATOM     21  C   UNL d   1      -1.728  -5.408   2.916  0.00  0.00     0.003 A 
ENDBRANCH   1   8
BRANCH   7  22
ATOM     22  C   UNL d   1      -1.025   2.275   0.496  0.00  0.00     0.019 A 
ATOM     23  C   UNL d   1      -2.396   2.404   0.751  0.00  0.00     0.052 A 
ATOM     24  C   UNL d   1      -2.970   3.673   0.945  0.00  0.00     0.103 A 
ATOM     25  C   UNL d   1      -2.180   4.835   0.870  0.00  0.00     0.036 A 
ATOM     26  C   UNL d   1      -0.819   4.715   0.589  0.00  0.00     0.003 A 
ATOM     27  C   UNL d   1      -0.252   3.450   0.405  0.00  0.00     0.016 A 
BRANCH  24  28
ATOM     28  N   UNL d   1      -4.401   3.791   1.237  0.00  0.00    -0.116 N 
ATOM     29  O   UNL d   1      -5.057   2.753   1.294  0.00  0.00    -0.532 OA
ATOM     30  O   UNL d   1      -4.853   4.930   1.415  0.00  0.00    -0.532 OA
ENDBRANCH  24  28
ENDBRANCH   7  22
TORSDOF 3
