REMARK  3 active torsions:
REMARK  status: ('A' for Active; 'I' for Inactive)
REMARK    1  A    between atoms: C_8  and  N_1 
REMARK    2  A    between atoms: S_12  and  C_2 
REMARK    3  A    between atoms: C_19  and  S_12 
ROOT
ATOM      1  C   UNL d   1       4.257   4.389   0.447  0.00  0.00    -0.107 C 
ATOM      2  C   UNL d   1       5.009   5.333   0.373  0.00  0.00     0.013 C 
ATOM      3  C   UNL d   1       3.272   3.296   0.555  0.00  0.00     0.175 C 
ENDROOT
BRANCH   3   4
ATOM      4  S   UNL d   1       3.850   1.708  -0.125  0.00  0.00    -0.081 SA
BRANCH   4   5
ATOM      5  C   UNL d   1       2.373   0.742   0.004  0.00  0.00     0.155 A 
ATOM      6  N   UNL d   1       2.450  -0.653  -0.041  0.00  0.00    -0.258 N 
ATOM      7  C   UNL d   1       1.280  -1.422   0.016  0.00  0.00     0.266 A 
ATOM      8  C   UNL d   1       0.004  -0.698   0.022  0.00  0.00     0.059 A 
ATOM      9  O   UNL d   1       1.232  -2.653   0.097  0.00  0.00    -0.267 OA
ATOM     10  C   UNL d   1       0.050   0.690   0.032  0.00  0.00     0.049 A 
ATOM     11  C   UNL d   1      -1.216  -1.388   0.005  0.00  0.00     0.019 A 
ATOM     12  C   UNL d   1      -1.155   1.395  -0.004  0.00  0.00     0.030 A 
ATOM     13  N   UNL d   1       1.256   1.396   0.051  0.00  0.00    -0.335 N 
ATOM     14  C   UNL d   1      -2.380   0.718  -0.040  0.00  0.00     0.002 A 
ATOM     15  C   UNL d   1      -2.410  -0.676  -0.029  0.00  0.00     0.001 A 
ATOM     16  HN  UNL d   1       1.256   2.415   0.100  1.00  0.00     0.168 HD
BRANCH   6  17
ATOM     17  C   UNL d   1       3.670  -1.402  -0.043  0.00  0.00     0.045 A 
ATOM     18  C   UNL d   1       3.857  -2.409  -1.010  0.00  0.00     0.033 A 
ATOM     19  C   UNL d   1       4.936  -3.289  -0.926  0.00  0.00     0.044 A 
ATOM     20  C   UNL d   1       5.829  -3.169   0.129  0.00  0.00     0.116 A 
ATOM     21  C   UNL d   1       5.676  -2.171   1.085  0.00  0.00     0.044 A 
ATOM     22  F   UNL d   1       6.837  -4.043   0.240  0.00  0.00    -0.206 F 
ATOM     23  C   UNL d   1       4.599  -1.281   1.000  0.00  0.00     0.033 A 
ENDBRANCH   6  17
ENDBRANCH   4   5
ENDBRANCH   3   4
TORSDOF 3
