REMARK  1 active torsions:
REMARK  status: ('A' for Active; 'I' for Inactive)
REMARK    1  A    between atoms: C_9  and  N_1 
ROOT
ATOM      1  N   UNL d   1       3.136   0.492  -1.052  0.00  0.00    -0.246 NA
ATOM      2  C   UNL d   1       4.336   0.192  -0.295  0.00  0.00     0.036 A 
ATOM      3  C   UNL d   1       5.077  -0.993  -0.329  0.00  0.00     0.013 A 
ATOM      4  N   UNL d   1       6.747   0.107   1.051  0.00  0.00    -0.358 N 
ATOM      5  HN  UNL d   1       7.638   0.073   1.545  1.00  0.00     0.166 HD
ATOM      6  C   UNL d   1       4.807   1.301   0.409  0.00  0.00    -0.012 A 
ATOM      7  C   UNL d   1       6.332  -0.963   0.330  0.00  0.00     0.050 A 
ATOM      8  C   UNL d   1       5.981   1.218   1.115  0.00  0.00     0.013 A 
ATOM      9  C   UNL d   1       3.208   1.989  -1.071  0.00  0.00     0.106 C 
ATOM     10  C   UNL d   1       3.878   2.441   0.230  0.00  0.00     0.057 C 
ATOM     11  C   UNL d   1       7.185  -2.065   0.182  0.00  0.00    -0.034 A 
ATOM     12  C   UNL d   1       4.673  -2.154  -1.028  0.00  0.00     0.015 A 
ATOM     13  C   UNL d   1       6.491   2.362   1.932  0.00  0.00     0.068 C 
ATOM     14  C   UNL d   1       5.504  -3.264  -1.096  0.00  0.00     0.002 A 
ATOM     15  C   UNL d   1       6.763  -3.215  -0.503  0.00  0.00     0.009 A 
ATOM     16  C   UNL d   1       8.574  -2.034   0.768  0.00  0.00     0.050 C 
ENDROOT
BRANCH   1  17
ATOM     17  C   UNL d   1       1.804   0.107  -0.708  0.00  0.00     0.054 A 
ATOM     18  C   UNL d   1       1.407  -0.361   0.552  0.00  0.00     0.138 A 
ATOM     19  F   UNL d   1       2.301  -0.554   1.534  0.00  0.00    -0.204 F 
ATOM     20  C   UNL d   1       0.058  -0.572   0.854  0.00  0.00     0.044 A 
ATOM     21  C   UNL d   1      -0.923  -0.329  -0.107  0.00  0.00     0.003 A 
ATOM     22  C   UNL d   1      -0.551   0.095  -1.379  0.00  0.00     0.002 A 
ATOM     23  C   UNL d   1       0.798   0.296  -1.678  0.00  0.00     0.027 A 
ENDBRANCH   1  17
TORSDOF 1
