REMARK  8 active torsions:
REMARK  status: ('A' for Active; 'I' for Inactive)
REMARK    1  A    between atoms: S_10  and  C_1 
REMARK       I    between atoms: N_5  and  C_6 
REMARK    2  A    between atoms: C_11  and  N_5 
REMARK    3  A    between atoms: C_12  and  N_5 
REMARK    4  A    between atoms: C_6  and  C_15 
REMARK    5  A    between atoms: C_15  and  S_10 
REMARK    6  A    between atoms: C_13  and  C_11 
REMARK    7  A    between atoms: O_24  and  C_13 
REMARK    8  A    between atoms: C_28  and  O_24 
ROOT
ATOM      1  C   UNL d   1      -2.223   1.806   0.089  0.00  0.00     0.091 A 
ATOM      2  C   UNL d   1      -3.360   1.071   0.435  0.00  0.00     0.084 A 
ATOM      3  N   UNL d   1      -1.103   1.225  -0.413  0.00  0.00    -0.353 N 
ATOM      4  HN  UNL d   1      -0.286   1.788  -0.650  1.00  0.00     0.166 HD
ATOM      5  C   UNL d   1      -3.328  -0.328   0.272  0.00  0.00    -0.037 A 
ATOM      6  C   UNL d   1      -4.540   1.719   0.936  0.00  0.00     0.103 C 
ATOM      7  N   UNL d   1      -5.512   2.199   1.346  0.00  0.00    -0.191 NA
ATOM      8  C   UNL d   1      -1.092  -0.113  -0.593  0.00  0.00     0.006 A 
ATOM      9  C   UNL d   1      -2.176  -0.914  -0.268  0.00  0.00     0.033 A 
ATOM     10  C   UNL d   1      -4.501  -1.219   0.586  0.00  0.00     0.050 C 
ATOM     11  C   UNL d   1       0.135  -0.708  -1.215  0.00  0.00     0.068 C 
ENDROOT
BRANCH   1  12
ATOM     12  S   UNL d   1      -2.138   3.587   0.275  0.00  0.00    -0.101 SA
BRANCH  12  13
ATOM     13  C   UNL d   1      -0.391   3.897  -0.172  0.00  0.00     0.184 C 
BRANCH  13  14
ATOM     14  C   UNL d   1      -0.049   5.388  -0.114  0.00  0.00     0.234 C 
ATOM     15  N   UNL d   1       1.305   5.739  -0.174  0.00  0.00    -0.308 N 
ATOM     16  O   UNL d   1      -0.920   6.262  -0.099  0.00  0.00    -0.272 OA
BRANCH  15  17
ATOM     17  C   UNL d   1       1.662   7.164  -0.307  0.00  0.00     0.243 C 
BRANCH  17  18
ATOM     18  C   UNL d   1       2.337   7.829   0.890  0.00  0.00     0.277 C 
ATOM     19  O   UNL d   1       2.760   8.980   0.844  0.00  0.00    -0.263 OA
BRANCH  18  20
ATOM     20  O   UNL d   1       2.453   7.010   1.971  0.00  0.00    -0.321 OA
BRANCH  20  21
ATOM     21  C   UNL d   1       3.271   7.507   3.043  0.00  0.00     0.174 C 
ATOM     22  C   UNL d   1       4.693   7.013   2.843  0.00  0.00     0.034 C 
ENDBRANCH  20  21
ENDBRANCH  18  20
ENDBRANCH  17  18
ENDBRANCH  15  17
BRANCH  15  23
ATOM     23  C   UNL d   1       2.357   4.802  -0.319  0.00  0.00     0.037 A 
ATOM     24  C   UNL d   1       3.024   4.698  -1.544  0.00  0.00     0.031 A 
ATOM     25  C   UNL d   1       4.106   3.827  -1.683  0.00  0.00     0.026 A 
ATOM     26  C   UNL d   1       4.528   3.070  -0.593  0.00  0.00     0.034 A 
ATOM     27  C   UNL d   1       3.871   3.169   0.633  0.00  0.00     0.026 A 
ATOM     28 CL   UNL d   1       5.877   2.015  -0.761  0.00  0.00    -0.084 Cl
ATOM     29  C   UNL d   1       2.780   4.033   0.770  0.00  0.00     0.031 A 
ENDBRANCH  15  23
ENDBRANCH  13  14
ENDBRANCH  12  13
ENDBRANCH   1  12
TORSDOF 8
