REMARK  2 active torsions:
REMARK  status: ('A' for Active; 'I' for Inactive)
REMARK    1  A    between atoms: C_12  and  C_6 
REMARK    2  A    between atoms: O_22  and  C_20 
ROOT
ATOM      1  C   UNL d   1      -1.262   0.646  -0.078  0.00  0.00     0.120 C 
ATOM      2  C   UNL d   1      -1.312  -0.702  -0.061  0.00  0.00     0.067 C 
ATOM      3  C   UNL d   1      -2.630  -1.375  -0.100  0.00  0.00     0.258 C 
ATOM      4  C   UNL d   1       1.215  -0.725  -0.103  0.00  0.00     0.024 C 
ATOM      5  N   UNL d   1      -2.426   1.363  -0.081  0.00  0.00    -0.319 N 
ATOM      6  C   UNL d   1      -0.057  -1.559   0.020  0.00  0.00     0.100 C 
ATOM      7  N   UNL d   1      -3.721  -0.557   0.006  0.00  0.00    -0.299 N 
ATOM      8  C   UNL d   1       1.177   0.625  -0.111  0.00  0.00     0.022 C 
ATOM      9  N   UNL d   1      -0.041   1.282  -0.074  0.00  0.00    -0.345 N 
ATOM     10  C   UNL d   1      -3.667   0.803  -0.018  0.00  0.00     0.180 C 
ATOM     11  C   UNL d   1       2.521  -1.436  -0.213  0.00  0.00     0.159 C 
ATOM     12  C   UNL d   1       2.426   1.477  -0.106  0.00  0.00     0.067 C 
ATOM     13  C   UNL d   1       3.655   0.731   0.460  0.00  0.00    -0.036 C 
ATOM     14  C   UNL d   1       3.789  -0.610  -0.276  0.00  0.00     0.092 C 
ATOM     15  S   UNL d   1      -5.039   1.738   0.028  0.00  0.00    -0.040 SA
ATOM     16  O   UNL d   1      -2.750  -2.587  -0.245  0.00  0.00    -0.267 OA
ATOM     17  O   UNL d   1       2.565  -2.659  -0.333  0.00  0.00    -0.293 OA
ATOM     18  C   UNL d   1       3.513   0.507   1.982  0.00  0.00     0.015 C 
ATOM     19  C   UNL d   1       4.923   1.569   0.225  0.00  0.00     0.015 C 
ATOM     20  H   UNL d   1      -2.384   2.374  -0.087  0.00  0.00     0.170 HD
ATOM     21  H   UNL d   1      -4.624  -1.009   0.011  0.00  0.00     0.171 HD
ATOM     22  H   UNL d   1      -0.039   2.295  -0.118  0.00  0.00     0.167 HD
ENDROOT
BRANCH   6  23
ATOM     23  C   UNL d   1      -0.045  -2.360   1.326  0.00  0.00    -0.042 A 
ATOM     24  C   UNL d   1      -0.015  -3.767   1.288  0.00  0.00     0.044 A 
ATOM     25  C   UNL d   1      -0.016  -4.512   2.468  0.00  0.00     0.068 A 
ATOM     26  C   UNL d   1      -0.044  -3.846   3.695  0.00  0.00     0.037 A 
ATOM     27  C   UNL d   1      -0.066  -2.453   3.751  0.00  0.00     0.003 A 
ATOM     28  C   UNL d   1      -0.066  -1.713   2.574  0.00  0.00     0.008 A 
BRANCH  25  29
ATOM     29  O   UNL d   1       0.005  -5.878   2.560  0.00  0.00    -0.356 OA
ATOM     30  C   UNL d   1       0.026  -6.599   1.334  0.00  0.00     0.210 C 
ENDBRANCH  25  29
ENDBRANCH   6  23
TORSDOF 2
