REMARK  6 active torsions:
REMARK  status: ('A' for Active; 'I' for Inactive)
REMARK    1  A    between atoms: C_2  and  C_1 
REMARK    2  A    between atoms: O_10  and  C_2 
REMARK    3  A    between atoms: S_9  and  C_3 
REMARK    4  A    between atoms: C_14  and  S_9 
REMARK    5  A    between atoms: C_12  and  C_15 
REMARK    6  A    between atoms: C_15  and  C_14 
ROOT
ATOM      1  N   UNL d   1      -5.136   6.454   2.712  0.00  0.00    -0.197 NA
ATOM      2  C   UNL d   1      -4.559   5.495   2.411  0.00  0.00     0.059 C 
ATOM      3  C   UNL d   1      -3.811   4.278   2.034  0.00  0.00     0.124 C 
ENDROOT
BRANCH   3   4
ATOM      4  C   UNL d   1      -2.325   4.610   1.854  0.00  0.00     0.025 C 
BRANCH   4   5
ATOM      5  C   UNL d   1      -1.418   3.408   1.581  0.00  0.00     0.082 C 
BRANCH   5   6
ATOM      6  S   UNL d   1      -1.589   2.792  -0.125  0.00  0.00    -0.111 SA
BRANCH   6   7
ATOM      7  C   UNL d   1      -0.558   1.333  -0.029  0.00  0.00     0.086 A 
ATOM      8  C   UNL d   1       0.839   1.329   0.006  0.00  0.00     0.071 A 
ATOM      9  C   UNL d   1       1.493   0.086   0.038  0.00  0.00     0.022 A 
ATOM     10  C   UNL d   1       0.757  -1.093   0.017  0.00  0.00     0.018 A 
ATOM     11  C   UNL d   1      -0.620  -0.993  -0.021  0.00  0.00     0.089 A 
ATOM     12  N   UNL d   1      -1.283   0.184  -0.044  0.00  0.00    -0.360 N 
ATOM     13  HN  UNL d   1      -2.302   0.210  -0.072  1.00  0.00     0.166 HD
BRANCH   8  14
ATOM     14  C   UNL d   1       1.705   2.527   0.049  0.00  0.00     0.179 C 
ATOM     15  O   UNL d   1       2.786   2.514   0.621  0.00  0.00    -0.646 OA
BRANCH  14  16
ATOM     16  O   UNL d   1       1.266   3.602  -0.631  0.00  0.00    -0.773 OA
ATOM     17  H   UNL d   1       0.388   3.508  -1.056  0.00  0.00     0.167 HD
ENDBRANCH  14  16
ENDBRANCH   8  14
ENDBRANCH   6   7
ENDBRANCH   5   6
ENDBRANCH   4   5
ENDBRANCH   3   4
TORSDOF 6
