REMARK  2 active torsions:
REMARK  status: ('A' for Active; 'I' for Inactive)
REMARK    1  A    between atoms: C_7  and  C_2 
REMARK    2  A    between atoms: O_8  and  C_2 
ROOT
ATOM      1  C   UNL d   1      -2.474  -0.477   0.012  0.00  0.00     0.266 A 
ATOM      2  C   UNL d   1      -1.903   0.999   0.011  0.00  0.00     0.196 A 
ATOM      3  N   UNL d   1      -1.386  -1.345  -0.023  0.00  0.00    -0.323 N 
ATOM      4  C   UNL d   1      -0.413   0.722   0.025  0.00  0.00     0.017 A 
ATOM      5  C   UNL d   1      -0.185  -0.654  -0.011  0.00  0.00     0.045 A 
ATOM      6  O   UNL d   1      -3.640  -0.838   0.093  0.00  0.00    -0.269 OA
ATOM      7  C   UNL d   1       0.654   1.605   0.085  0.00  0.00     0.013 A 
ATOM      8  C   UNL d   1       1.082  -1.198  -0.011  0.00  0.00     0.030 A 
ATOM      9  C   UNL d   1       1.949   1.077   0.081  0.00  0.00     0.001 A 
ATOM     10  C   UNL d   1       2.161  -0.313   0.030  0.00  0.00     0.002 A 
ATOM     11  H   UNL d   1      -1.493  -2.348  -0.020  0.00  0.00     0.169 HD
ENDROOT
BRANCH   2  12
ATOM     12  C   UNL d   1      -2.439   1.768  -1.195  0.00  0.00    -0.010 A 
ATOM     13  C   UNL d   1      -3.664   2.455  -1.092  0.00  0.00     0.011 A 
ATOM     14  C   UNL d   1      -4.225   3.106  -2.192  0.00  0.00     0.001 A 
ATOM     15  C   UNL d   1      -3.573   3.083  -3.421  0.00  0.00     0.000 A 
ATOM     16  C   UNL d   1      -2.360   2.412  -3.548  0.00  0.00     0.001 A 
ATOM     17  C   UNL d   1      -1.800   1.754  -2.448  0.00  0.00     0.011 A 
ENDBRANCH   2  12
BRANCH   2  18
ATOM     18  O   UNL d   1      -2.229   1.691   1.216  0.00  0.00    -0.371 OA
ATOM     19  H   UNL d   1      -1.913   1.135   1.948  0.00  0.00     0.212 HD
ENDBRANCH   2  18
TORSDOF 2
