REMARK  3 active torsions:
REMARK  status: ('A' for Active; 'I' for Inactive)
REMARK       I    between atoms: N_2  and  C_1 
REMARK    1  A    between atoms: C_3  and  C_1 
REMARK       I    between atoms: C_4  and  N_2 
REMARK    2  A    between atoms: C_5  and  C_4 
REMARK       I    between atoms: N_6  and  C_5 
REMARK    3  A    between atoms: C_7  and  N_6 
ROOT
ATOM      1  C   UNL d   1      -0.658   0.132  -0.765  0.00  0.00     0.264 C 
ATOM      2  N   UNL d   1       0.602   0.539  -1.166  0.00  0.00    -0.285 N 
ATOM      3  C   UNL d   1       1.101   0.491  -2.453  0.00  0.00     0.316 C 
ATOM      4  O   UNL d   1      -1.568  -0.159  -1.528  0.00  0.00    -0.267 OA
ATOM      5  O   UNL d   1       0.518   0.329  -3.513  0.00  0.00    -0.262 OA
ATOM      6  H   UNL d   1       1.303   0.753  -0.461  0.00  0.00     0.172 HD
ENDROOT
BRANCH   3   7
ATOM      7  C   UNL d   1       2.621   0.733  -2.475  0.00  0.00     0.314 C 
ATOM      8  N   UNL d   1       3.147   0.692  -3.751  0.00  0.00    -0.316 N 
ATOM      9  H   UNL d   1       2.445   0.650  -4.488  0.00  0.00     0.169 HD
ATOM     10  O   UNL d   1       3.168   0.969  -1.409  0.00  0.00    -0.262 OA
BRANCH   8  11
ATOM     11  C   UNL d   1       4.500   0.817  -4.128  0.00  0.00     0.074 A 
ATOM     12  C   UNL d   1       5.593   0.645  -3.267  0.00  0.00     0.144 A 
ATOM     13  C   UNL d   1       6.903   0.812  -3.713  0.00  0.00     0.068 A 
ATOM     14  F   UNL d   1       5.432   0.234  -2.002  0.00  0.00    -0.204 F 
ATOM     15  C   UNL d   1       7.138   1.146  -5.041  0.00  0.00     0.037 A 
ATOM     16  C   UNL d   1       6.071   1.288  -5.927  0.00  0.00     0.026 A 
ATOM     17 CL   UNL d   1       8.749   1.369  -5.597  0.00  0.00    -0.084 Cl
ATOM     18  C   UNL d   1       4.758   1.114  -5.473  0.00  0.00     0.034 A 
ENDBRANCH   8  11
ENDBRANCH   3   7
BRANCH   1  19
ATOM     19  C   UNL d   1      -0.876   0.064   0.703  0.00  0.00     0.109 A 
ATOM     20  C   UNL d   1      -0.192   0.900   1.586  0.00  0.00     0.135 A 
ATOM     21  F   UNL d   1       0.675   1.815   1.126  0.00  0.00    -0.205 F 
ATOM     22  C   UNL d   1      -0.373   0.806   2.966  0.00  0.00     0.043 A 
ATOM     23  C   UNL d   1      -1.258  -0.135   3.486  0.00  0.00     0.006 A 
ATOM     24  C   UNL d   1      -1.964  -0.966   2.618  0.00  0.00     0.043 A 
ATOM     25  C   UNL d   1      -1.775  -0.861   1.237  0.00  0.00     0.135 A 
ATOM     26  F   UNL d   1      -2.455  -1.707   0.451  0.00  0.00    -0.205 F 
ENDBRANCH   1  19
TORSDOF 3
