REMARK  5 active torsions:
REMARK  status: ('A' for Active; 'I' for Inactive)
REMARK       I    between atoms: N_2  and  C_1 
REMARK    1  A    between atoms: C_9  and  C_1 
REMARK    2  A    between atoms: C_11  and  N_2 
REMARK    3  A    between atoms: O_10  and  C_5 
REMARK    4  A    between atoms: C_6  and  C_7 
REMARK    5  A    between atoms: C_15  and  O_10 
ROOT
ATOM      1  N   UNL d   1       1.942  -4.766   1.386  0.00  0.00    -0.344 N 
ATOM      2  HN  UNL d   1       2.392  -5.337   2.101  1.00  0.00     0.167 HD
ATOM      3  C   UNL d   1       2.175  -4.969   0.076  0.00  0.00     0.148 A 
ATOM      4  C   UNL d   1       0.405  -2.972   0.795  0.00  0.00     0.050 A 
ATOM      5  C   UNL d   1       1.086  -3.769   1.715  0.00  0.00     0.119 A 
ATOM      6  C   UNL d   1       1.566  -4.224  -0.923  0.00  0.00     0.059 A 
ATOM      7  C   UNL d   1       0.669  -3.212  -0.555  0.00  0.00     0.035 A 
ENDROOT
BRANCH   3   8
ATOM      8  O   UNL d   1       3.016  -6.005  -0.311  0.00  0.00    -0.294 OA
BRANCH   8   9
ATOM      9  C   UNL d   1       4.015  -6.375   0.566  0.00  0.00     0.077 A 
ATOM     10  C   UNL d   1       4.295  -7.732   0.702  0.00  0.00     0.038 A 
ATOM     11  C   UNL d   1       5.347  -8.155   1.529  0.00  0.00     0.011 A 
ATOM     12  C   UNL d   1       6.151  -7.232   2.230  0.00  0.00    -0.050 A 
ATOM     13  C   UNL d   1       5.843  -5.871   2.075  0.00  0.00     0.011 A 
ATOM     14  C   UNL d   1       4.805  -5.447   1.241  0.00  0.00     0.038 A 
BRANCH  12  15
ATOM     15  C   UNL d   1       7.329  -7.708   3.100  0.00  0.00    -0.024 C 
ATOM     16  C   UNL d   1       8.099  -6.551   3.780  0.00  0.00     0.019 C 
ATOM     17  C   UNL d   1       6.828  -8.641   4.222  0.00  0.00     0.019 C 
ATOM     18  C   UNL d   1       8.343  -8.472   2.222  0.00  0.00     0.019 C 
ENDBRANCH  12  15
ENDBRANCH   8   9
ENDBRANCH   3   8
BRANCH   4  19
ATOM     19  N   UNL d   1      -0.566  -1.998   1.151  0.00  0.00    -0.322 N 
ATOM     20  C   UNL d   1      -0.870  -1.632   2.451  0.00  0.00     0.256 C 
ATOM     21  O   UNL d   1      -0.223  -1.963   3.443  0.00  0.00    -0.267 OA
ATOM     22  H   UNL d   1      -1.108  -1.607   0.392  0.00  0.00     0.169 HD
BRANCH  20  23
ATOM     23  C   UNL d   1      -2.077  -0.790   2.692  0.00  0.00     0.032 A 
ATOM     24  C   UNL d   1      -2.645  -0.860   3.975  0.00  0.00     0.017 A 
ATOM     25  C   UNL d   1      -3.737  -0.065   4.320  0.00  0.00     0.001 A 
ATOM     26  C   UNL d   1      -4.273   0.810   3.380  0.00  0.00     0.000 A 
ATOM     27  C   UNL d   1      -3.728   0.876   2.096  0.00  0.00     0.001 A 
ATOM     28  C   UNL d   1      -2.632   0.078   1.746  0.00  0.00     0.017 A 
ENDBRANCH  20  23
ENDBRANCH   4  19
TORSDOF 5
