REMARK  6 active torsions:
REMARK  status: ('A' for Active; 'I' for Inactive)
REMARK    1  A    between atoms: C_4  and  C_1 
REMARK    2  A    between atoms: C_6  and  N_2 
REMARK    3  A    between atoms: N_3  and  C_5 
REMARK       I    between atoms: C_11  and  N_15 
REMARK    4  A    between atoms: C_12  and  C_11 
REMARK    5  A    between atoms: C_29  and  C_14 
REMARK    6  A    between atoms: N_15  and  C_28 
ROOT
ATOM      1  C   UNL d   1      -1.478   2.274  -8.832  0.00  0.00     0.103 A 
ATOM      2  N   UNL d   1      -0.841   2.043  -9.993  0.00  0.00    -0.350 N 
ATOM      3  HN  UNL d   1       0.005   1.475 -10.024  1.00  0.00     0.166 HD
ATOM      4  C   UNL d   1      -2.637   3.061  -8.825  0.00  0.00     0.051 A 
ATOM      5  C   UNL d   1      -1.361   2.589 -11.125  0.00  0.00     0.119 A 
ATOM      6  C   UNL d   1      -2.509   3.385 -11.204  0.00  0.00     0.050 A 
ATOM      7  C   UNL d   1      -3.162   3.613 -10.010  0.00  0.00     0.035 A 
ENDROOT
BRANCH   1   8
ATOM      8  N   UNL d   1      -0.935   1.797  -7.636  0.00  0.00    -0.364 N 
ATOM      9  C   UNL d   1       0.435   1.229  -7.707  0.00  0.00     0.144 C 
ATOM     10  C   UNL d   1       0.465  -0.275  -8.083  0.00  0.00     0.144 C 
ATOM     11  N   UNL d   1      -0.474  -1.083  -7.268  0.00  0.00    -0.364 N 
ATOM     12  C   UNL d   1      -1.836  -0.507  -7.239  0.00  0.00     0.144 C 
ATOM     13  C   UNL d   1      -1.831   0.972  -6.790  0.00  0.00     0.144 C 
BRANCH  11  14
ATOM     14  C   UNL d   1      -0.015  -1.621  -6.066  0.00  0.00     0.103 A 
ATOM     15  C   UNL d   1       1.113  -2.445  -6.046  0.00  0.00     0.049 A 
ATOM     16  C   UNL d   1       1.488  -3.103  -4.871  0.00  0.00     0.021 A 
ATOM     17  C   UNL d   1       0.733  -2.929  -3.712  0.00  0.00     0.063 A 
ATOM     18  C   UNL d   1      -0.355  -2.080  -3.801  0.00  0.00     0.106 A 
ATOM     19  N   UNL d   1      -0.734  -1.439  -4.936  0.00  0.00    -0.352 N 
ATOM     20  HN  UNL d   1      -1.551  -0.828  -4.936  1.00  0.00     0.166 HD
BRANCH  17  21
ATOM     21  C   UNL d   1       1.044  -3.660  -2.442  0.00  0.00     0.418 C 
ATOM     22  F   UNL d   1       0.267  -3.279  -1.389  0.00  0.00    -0.166 F 
ATOM     23  F   UNL d   1       2.330  -3.486  -2.036  0.00  0.00    -0.166 F 
ATOM     24  F   UNL d   1       0.869  -5.005  -2.561  0.00  0.00    -0.166 F 
ENDBRANCH  17  21
ENDBRANCH  11  14
ENDBRANCH   1   8
BRANCH   6  25
ATOM     25  N   UNL d   1      -2.841   3.883 -12.472  0.00  0.00    -0.322 N 
ATOM     26  C   UNL d   1      -3.812   4.614 -13.070  0.00  0.00     0.245 C 
ATOM     27  O   UNL d   1      -3.642   4.821 -14.278  0.00  0.00    -0.268 OA
ATOM     28  H   UNL d   1      -2.177   3.641 -13.201  0.00  0.00     0.169 HD
BRANCH  26  29
ATOM     29  C   UNL d   1      -5.029   5.141 -12.400  0.00  0.00     0.075 C 
ATOM     30  C   UNL d   1      -6.053   5.448 -13.223  0.00  0.00     0.017 C 
BRANCH  30  31
ATOM     31  C   UNL d   1      -7.341   6.104 -12.937  0.00  0.00    -0.036 A 
ATOM     32  C   UNL d   1      -8.011   6.705 -14.020  0.00  0.00     0.011 A 
ATOM     33  C   UNL d   1      -9.263   7.303 -13.860  0.00  0.00     0.001 A 
ATOM     34  C   UNL d   1      -9.869   7.307 -12.609  0.00  0.00     0.000 A 
ATOM     35  C   UNL d   1      -9.220   6.716 -11.524  0.00  0.00     0.001 A 
ATOM     36  C   UNL d   1      -7.962   6.115 -11.686  0.00  0.00     0.011 A 
ENDBRANCH  30  31
ENDBRANCH  26  29
ENDBRANCH   6  25
TORSDOF 6
