REMARK  6 active torsions:
REMARK  status: ('A' for Active; 'I' for Inactive)
REMARK    1  A    between atoms: O_2  and  S_1 
REMARK    2  A    between atoms: C_4  and  S_1 
REMARK    3  A    between atoms: C_5  and  O_2 
REMARK    4  A    between atoms: N_3  and  C_11 
REMARK    5  A    between atoms: O_25  and  C_14 
REMARK    6  A    between atoms: O_26  and  C_18 
ROOT
ATOM      1  C   UNL d   1       0.762   1.144  -2.219  0.00  0.00     0.162 A 
ATOM      2  N   UNL d   1       2.068   1.439  -2.209  0.00  0.00    -0.339 N 
ATOM      3  HN  UNL d   1       2.714   0.916  -1.618  1.00  0.00     0.168 HD
ATOM      4  C   UNL d   1       1.675   3.180  -3.843  0.00  0.00    -0.001 A 
ATOM      5  C   UNL d   1       0.306   2.857  -3.858  0.00  0.00    -0.017 A 
ATOM      6  C   UNL d   1       2.513   2.443  -2.995  0.00  0.00     0.018 A 
ATOM      7  C   UNL d   1       2.145   4.231  -4.669  0.00  0.00     0.054 A 
ATOM      8  C   UNL d   1       1.299   4.978  -5.493  0.00  0.00     0.102 A 
ATOM      9  C   UNL d   1      -0.548   3.618  -4.689  0.00  0.00     0.052 A 
ATOM     10  C   UNL d   1      -0.071   4.676  -5.495  0.00  0.00     0.102 A 
ATOM     11  C   UNL d   1      -0.149   1.803  -3.032  0.00  0.00     0.069 A 
ATOM     12  C   UNL d   1       3.977   2.751  -2.854  0.00  0.00     0.069 C 
ENDROOT
BRANCH   1  13
ATOM     13  O   UNL d   1       0.332   0.129  -1.393  0.00  0.00    -0.211 OA
BRANCH  13  14
ATOM     14  S   UNL d   1       1.197  -0.132  -0.025  0.00  0.00     0.305 S 
ATOM     15  O   UNL d   1       0.994   0.997   0.868  0.00  0.00    -0.193 OA
ATOM     16  O   UNL d   1       2.530  -0.630  -0.314  0.00  0.00    -0.193 OA
BRANCH  14  17
ATOM     17  C   UNL d   1       0.378  -1.535   0.767  0.00  0.00     0.095 A 
ATOM     18  C   UNL d   1      -0.144  -1.339   2.060  0.00  0.00     0.062 A 
ATOM     19  C   UNL d   1      -0.658  -2.431   2.775  0.00  0.00     0.104 A 
ATOM     20  C   UNL d   1      -0.648  -3.711   2.216  0.00  0.00     0.037 A 
ATOM     21  C   UNL d   1      -0.133  -3.897   0.932  0.00  0.00     0.011 A 
ATOM     22  C   UNL d   1       0.382  -2.819   0.184  0.00  0.00    -0.038 A 
ATOM     23  C   UNL d   1       0.934  -3.146  -1.177  0.00  0.00     0.050 C 
BRANCH  19  24
ATOM     24  N   UNL d   1      -1.198  -2.235   4.130  0.00  0.00    -0.116 N 
ATOM     25  O   UNL d   1      -1.198  -1.085   4.584  0.00  0.00    -0.532 OA
ATOM     26  O   UNL d   1      -1.624  -3.235   4.727  0.00  0.00    -0.532 OA
ENDBRANCH  19  24
ENDBRANCH  14  17
ENDBRANCH  13  14
ENDBRANCH   1  13
BRANCH  10  27
ATOM     27  O   UNL d   1      -1.068   5.298  -6.207  0.00  0.00    -0.353 OA
ATOM     28  C   UNL d   1      -0.724   6.401  -7.040  0.00  0.00     0.210 C 
ENDBRANCH  10  27
BRANCH   8  29
ATOM     29  O   UNL d   1       1.757   5.991  -6.291  0.00  0.00    -0.353 OA
ATOM     30  C   UNL d   1       3.145   6.297  -6.290  0.00  0.00     0.210 C 
ENDBRANCH   8  29
TORSDOF 6
