REMARK  5 active torsions:
REMARK  status: ('A' for Active; 'I' for Inactive)
REMARK    1  A    between atoms: N_6  and  C_1 
REMARK    2  A    between atoms: C_12  and  C_2 
REMARK       I    between atoms: C_5  and  N_6 
REMARK       I    between atoms: N_9  and  C_5 
REMARK    3  A    between atoms: C_11  and  N_9 
REMARK    4  A    between atoms: C_13  and  N_9 
REMARK    5  A    between atoms: C_14  and  C_11 
ROOT
ATOM      1  C   UNL d   1       1.512  -2.553  -0.301  0.00  0.00     0.301 C 
ATOM      2  N   UNL d   1       0.367  -2.030   0.232  0.00  0.00    -0.206 NA
ATOM      3  N   UNL d   1       2.744  -1.953  -0.072  0.00  0.00    -0.330 N 
ATOM      4  O   UNL d   1       1.398  -3.667  -0.819  0.00  0.00    -0.254 OA
ATOM      5  H   UNL d   1      -0.360  -2.716   0.039  0.00  0.00     0.138 HD
ENDROOT
BRANCH   2   6
ATOM      6  C   UNL d   1      -0.135  -0.746   0.059  0.00  0.00     0.077 A 
ATOM      7  C   UNL d   1      -0.403   0.067  -1.091  0.00  0.00     0.089 A 
ATOM      8  N   UNL d   1      -0.886   1.260  -0.683  0.00  0.00    -0.258 N 
ATOM      9  O   UNL d   1      -1.012   1.205   0.679  0.00  0.00    -0.240 OA
ATOM     10  HN  UNL d   1      -1.115   2.055  -1.279  1.00  0.00     0.195 HD
ATOM     11  C   UNL d   1      -0.598  -0.002   1.123  0.00  0.00     0.096 A 
ATOM     12  C   UNL d   1      -0.676  -0.224   2.579  0.00  0.00     0.081 C 
BRANCH   7  13
ATOM     13  C   UNL d   1      -0.318  -0.205  -2.532  0.00  0.00    -0.006 A 
ATOM     14  C   UNL d   1      -0.362  -1.504  -3.050  0.00  0.00     0.014 A 
ATOM     15  C   UNL d   1      -0.404  -1.720  -4.434  0.00  0.00     0.001 A 
ATOM     16  C   UNL d   1      -0.408  -0.641  -5.316  0.00  0.00     0.000 A 
ATOM     17  C   UNL d   1      -0.353   0.656  -4.819  0.00  0.00     0.001 A 
ATOM     18  C   UNL d   1      -0.303   0.870  -3.441  0.00  0.00     0.014 A 
ENDBRANCH   7  13
ENDBRANCH   2   6
BRANCH   3  19
ATOM     19  C   UNL d   1       3.914  -2.844  -0.192  0.00  0.00     0.166 C 
BRANCH  19  20
ATOM     20  C   UNL d   1       4.989  -2.432  -1.168  0.00  0.00    -0.040 A 
ATOM     21  C   UNL d   1       6.252  -2.014  -0.714  0.00  0.00     0.009 A 
ATOM     22  C   UNL d   1       7.265  -1.686  -1.615  0.00  0.00     0.001 A 
ATOM     23  C   UNL d   1       7.036  -1.793  -2.985  0.00  0.00     0.000 A 
ATOM     24  C   UNL d   1       5.793  -2.219  -3.450  0.00  0.00     0.001 A 
ATOM     25  C   UNL d   1       4.772  -2.531  -2.548  0.00  0.00     0.009 A 
ENDBRANCH  19  20
ENDBRANCH   3  19
BRANCH   3  26
ATOM     26  C   UNL d   1       2.951  -0.587   0.462  0.00  0.00     0.080 C 
ATOM     27  C   UNL d   1       3.841  -0.519   1.703  0.00  0.00     0.032 C 
ATOM     28  C   UNL d   1       3.407   0.386  -0.628  0.00  0.00     0.032 C 
ENDBRANCH   3  26
TORSDOF 5
