REMARK  1 active torsions:
REMARK  status: ('A' for Active; 'I' for Inactive)
REMARK    1  A    between atoms: C_5  and  C_3 
REMARK       I    between atoms: N_8  and  C_5 
ROOT
ATOM      1  C   UNL d   1      -1.196  -0.623  -0.104  0.00  0.00     0.042 A 
ATOM      2  C   UNL d   1      -0.003  -1.511  -0.196  0.00  0.00     0.195 A 
ATOM      3  C   UNL d   1      -2.553  -0.899  -0.049  0.00  0.00     0.047 A 
ATOM      4  C   UNL d   1      -0.707   0.699  -0.074  0.00  0.00    -0.010 A 
ATOM      5  C   UNL d   1       1.190  -0.632  -0.131  0.00  0.00     0.026 A 
ATOM      6  C   UNL d   1       0.738   0.693  -0.078  0.00  0.00    -0.011 A 
ATOM      7  O   UNL d   1       0.028  -2.709  -0.375  0.00  0.00    -0.287 OA
ATOM      8  C   UNL d   1      -1.581   1.771  -0.022  0.00  0.00     0.013 A 
ATOM      9  C   UNL d   1      -3.429   0.195   0.053  0.00  0.00     0.018 A 
ATOM     10  C   UNL d   1       2.529  -0.967  -0.128  0.00  0.00     0.016 A 
ATOM     11  C   UNL d   1       1.652   1.733  -0.021  0.00  0.00     0.013 A 
ATOM     12  C   UNL d   1      -2.951   1.514   0.038  0.00  0.00     0.002 A 
ATOM     13  C   UNL d   1       3.452   0.082  -0.068  0.00  0.00     0.001 A 
ATOM     14  C   UNL d   1       3.018   1.419  -0.017  0.00  0.00     0.001 A 
ENDROOT
BRANCH   3  15
ATOM     15  C   UNL d   1      -3.097  -2.265   0.122  0.00  0.00     0.254 C 
ATOM     16  N   UNL d   1      -4.225  -2.649  -0.598  0.00  0.00    -0.344 N 
ATOM     17  C   UNL d   1      -4.947  -3.860  -0.204  0.00  0.00     0.152 C 
ATOM     18  C   UNL d   1      -4.758  -2.033  -1.820  0.00  0.00     0.152 C 
ATOM     19  C   UNL d   1      -6.445  -3.552  -0.091  0.00  0.00     0.187 C 
ATOM     20  O   UNL d   1      -6.958  -3.009  -1.323  0.00  0.00    -0.388 OA
ATOM     21  C   UNL d   1      -6.269  -1.798  -1.678  0.00  0.00     0.187 C 
ATOM     22  O   UNL d   1      -2.611  -2.953   1.017  0.00  0.00    -0.267 OA
ENDBRANCH   3  15
TORSDOF 1
