REMARK  6 active torsions:
REMARK  status: ('A' for Active; 'I' for Inactive)
REMARK    1  A    between atoms: C_12  and  C_5 
REMARK    2  A    between atoms: N_13  and  C_7 
REMARK    3  A    between atoms: O_17  and  C_12 
REMARK    4  A    between atoms: C_14  and  N_13 
REMARK    5  A    between atoms: C_25  and  O_17 
REMARK    6  A    between atoms: O_21  and  C_18 
ROOT
ATOM      1  C   UNL d   1       1.583  -0.859   0.050  0.00  0.00     0.162 A 
ATOM      2  N   UNL d   1       0.920   0.343   0.022  0.00  0.00    -0.221 N 
ATOM      3  N   UNL d   1       0.936  -2.054   0.047  0.00  0.00    -0.325 N 
ATOM      4  HN  UNL d   1       1.464  -2.927   0.008  1.00  0.00     0.169 HD
ATOM      5  C   UNL d   1       2.918  -0.488   0.024  0.00  0.00     0.167 A 
ATOM      6  N   UNL d   1       1.770   1.384  -0.020  0.00  0.00    -0.013 NA
ATOM      7  C   UNL d   1      -0.376  -2.074   0.095  0.00  0.00     0.120 A 
ATOM      8  N   UNL d   1       3.002   0.890  -0.012  0.00  0.00    -0.275 N 
ATOM      9  HN  UNL d   1       3.864   1.436  -0.031  1.00  0.00     0.184 HD
ATOM     10  C   UNL d   1      -1.167  -0.784   0.184  0.00  0.00     0.036 A 
ATOM     11  C   UNL d   1      -0.472   0.429   0.064  0.00  0.00     0.070 A 
ATOM     12  C   UNL d   1      -2.557  -0.744   0.333  0.00  0.00     0.017 A 
ATOM     13  C   UNL d   1      -1.132   1.659   0.008  0.00  0.00     0.032 A 
ATOM     14  C   UNL d   1      -3.226   0.487   0.301  0.00  0.00     0.001 A 
ATOM     15  C   UNL d   1      -2.520   1.678   0.115  0.00  0.00     0.002 A 
ENDROOT
BRANCH   7  16
ATOM     16  N   UNL d   1      -1.037  -3.288   0.046  0.00  0.00    -0.342 N 
ATOM     17  H   UNL d   1      -2.025  -3.306   0.256  0.00  0.00     0.167 HD
BRANCH  16  18
ATOM     18  C   UNL d   1      -0.714  -4.353  -0.836  0.00  0.00     0.036 A 
ATOM     19  C   UNL d   1       0.098  -4.191  -1.968  0.00  0.00     0.066 A 
ATOM     20  C   UNL d   1       0.313  -5.252  -2.854  0.00  0.00     0.070 A 
ATOM     21  C   UNL d   1      -0.211  -6.510  -2.567  0.00  0.00     0.037 A 
ATOM     22  C   UNL d   1      -0.975  -6.703  -1.419  0.00  0.00     0.005 A 
ATOM     23  C   UNL d   1      -1.229  -5.628  -0.563  0.00  0.00     0.029 A 
BRANCH  20  24
ATOM     24  O   UNL d   1       1.033  -5.162  -4.015  0.00  0.00    -0.356 OA
ATOM     25  C   UNL d   1       0.956  -3.897  -4.669  0.00  0.00     0.210 C 
ENDBRANCH  20  24
ENDBRANCH  16  18
ENDBRANCH   7  16
BRANCH   5  26
ATOM     26  C   UNL d   1       4.076  -1.359  -0.048  0.00  0.00     0.315 C 
ATOM     27  O   UNL d   1       5.226  -0.951  -0.190  0.00  0.00    -0.257 OA
BRANCH  26  28
ATOM     28  O   UNL d   1       3.734  -2.679  -0.040  0.00  0.00    -0.317 OA
BRANCH  28  29
ATOM     29  C   UNL d   1       4.675  -3.583  -0.622  0.00  0.00     0.175 C 
ATOM     30  C   UNL d   1       4.458  -3.592  -2.124  0.00  0.00     0.034 C 
ENDBRANCH  28  29
ENDBRANCH  26  28
ENDBRANCH   5  26
TORSDOF 6
