REMARK  6 active torsions:
REMARK  status: ('A' for Active; 'I' for Inactive)
REMARK    1  A    between atoms: N_2  and  S_1 
REMARK    2  A    between atoms: C_3  and  S_1 
REMARK    3  A    between atoms: C_8  and  N_2 
REMARK    4  A    between atoms: C_14  and  N_2 
REMARK    5  A    between atoms: C_9  and  C_15 
REMARK    6  A    between atoms: C_15  and  C_14 
ROOT
ATOM      1  S   UNL d   1       1.114   0.037  -0.063  0.00  0.00     0.244 S 
ATOM      2  O   UNL d   1       0.855  -1.156  -0.851  0.00  0.00    -0.206 OA
ATOM      3  O   UNL d   1       2.467   0.511   0.133  0.00  0.00    -0.206 OA
ENDROOT
BRANCH   1   4
ATOM      4  N   UNL d   1       0.392  -0.220   1.496  0.00  0.00    -0.202 NA
BRANCH   4   5
ATOM      5  C   UNL d   1      -1.127  -0.187   1.540  0.00  0.00     0.066 C 
ATOM      6  C   UNL d   1      -1.797  -1.291   0.727  0.00  0.00     0.027 C 
ATOM      7  C   UNL d   1      -1.662  -0.172   2.980  0.00  0.00     0.027 C 
ENDBRANCH   4   5
BRANCH   4   8
ATOM      8  C   UNL d   1       0.986  -1.438   2.191  0.00  0.00     0.112 C 
BRANCH   8   9
ATOM      9  C   UNL d   1       2.502  -1.371   2.430  0.00  0.00     0.041 C 
BRANCH   9  10
ATOM     10  C   UNL d   1       3.043  -2.650   3.017  0.00  0.00    -0.036 C 
ATOM     11  C   UNL d   1       3.906  -3.444   2.366  0.00  0.00     0.007 C 
ENDBRANCH   9  10
ENDBRANCH   8   9
ENDBRANCH   4   8
ENDBRANCH   1   4
BRANCH   1  12
ATOM     12  C   UNL d   1       0.257   1.388  -0.823  0.00  0.00     0.074 A 
ATOM     13  C   UNL d   1       0.393   2.673  -0.291  0.00  0.00     0.025 A 
ATOM     14  C   UNL d   1      -0.158   3.758  -0.977  0.00  0.00     0.008 A 
ATOM     15  C   UNL d   1      -0.832   3.565  -2.193  0.00  0.00    -0.062 A 
ATOM     16  C   UNL d   1      -0.949   2.272  -2.718  0.00  0.00     0.008 A 
ATOM     17  C   UNL d   1      -1.389   4.743  -2.937  0.00  0.00     0.048 C 
ATOM     18  C   UNL d   1      -0.406   1.184  -2.036  0.00  0.00     0.025 A 
ENDBRANCH   1  12
TORSDOF 6
