REMARK  3 active torsions:
REMARK  status: ('A' for Active; 'I' for Inactive)
REMARK    1  A    between atoms: C_4  and  N_1 
REMARK    2  A    between atoms: N_3  and  C_2 
REMARK    3  A    between atoms: C_11  and  N_3 
ROOT
ATOM      1  C   UNL d   1      -0.590   3.062   2.375  0.00  0.00     0.052 A 
ATOM      2  C   UNL d   1       0.848   1.187   0.772  0.00  0.00     0.104 A 
ATOM      3  C   UNL d   1      -0.038   3.418   1.113  0.00  0.00     0.062 A 
ATOM      4  C   UNL d   1       0.685   2.501   0.332  0.00  0.00     0.062 A 
ATOM      5  C   UNL d   1      -0.393   1.718   2.769  0.00  0.00     0.033 A 
ATOM      6  C   UNL d   1       0.302   0.786   1.987  0.00  0.00     0.038 A 
ATOM      7 CL   UNL d   1      -0.284   4.959   0.347  0.00  0.00    -0.082 Cl
ENDROOT
BRANCH   1   8
ATOM      8  N   UNL d   1      -1.274   3.930   3.240  0.00  0.00    -0.379 N 
ATOM      9  C   UNL d   1      -0.884   5.334   3.298  0.00  0.00     0.150 C 
BRANCH   8  10
ATOM     10  C   UNL d   1      -2.413   3.435   4.056  0.00  0.00     0.084 C 
ATOM     11  C   UNL d   1      -3.699   4.255   3.876  0.00  0.00     0.025 C 
ATOM     12  C   UNL d   1      -3.802   5.507   4.740  0.00  0.00     0.002 C 
ATOM     13  C   UNL d   1      -3.462   5.250   6.204  0.00  0.00     0.000 C 
ATOM     14  C   UNL d   1      -2.154   4.495   6.405  0.00  0.00     0.002 C 
ATOM     15  C   UNL d   1      -2.044   3.245   5.536  0.00  0.00     0.025 C 
ENDBRANCH   8  10
ENDBRANCH   1   8
BRANCH   2  16
ATOM     16  N   UNL d   1       1.585   0.225  -0.056  0.00  0.00    -0.116 N 
ATOM     17  O   UNL d   1       2.135   0.648  -1.079  0.00  0.00    -0.532 OA
ATOM     18  O   UNL d   1       1.610  -0.955   0.323  0.00  0.00    -0.532 OA
ENDBRANCH   2  16
TORSDOF 3
