REMARK  2 active torsions:
REMARK  status: ('A' for Active; 'I' for Inactive)
REMARK    1  A    between atoms: C_2  and  N_1 
REMARK    2  A    between atoms: C_6  and  C_4 
ROOT
ATOM      1  C   UNL d   1      -0.029  -2.243  -2.897  0.00  0.00    -0.035 A 
ATOM      2  C   UNL d   1      -1.484  -3.688  -4.839  0.00  0.00    -0.062 A 
ATOM      3  C   UNL d   1      -1.428  -2.307  -2.842  0.00  0.00     0.012 A 
ATOM      4  C   UNL d   1       0.629  -2.894  -3.948  0.00  0.00     0.012 A 
ATOM      5  C   UNL d   1      -2.147  -3.028  -3.799  0.00  0.00     0.007 A 
ATOM      6  C   UNL d   1      -0.090  -3.615  -4.907  0.00  0.00     0.007 A 
ATOM      7  C   UNL d   1      -2.273  -4.450  -5.862  0.00  0.00     0.048 C 
ENDROOT
BRANCH   1   8
ATOM      8  C   UNL d   1       0.765  -1.473  -1.928  0.00  0.00     0.035 C 
ATOM      9  C   UNL d   1       0.397  -1.305  -0.651  0.00  0.00     0.168 C 
BRANCH   9  10
ATOM     10  N   UNL d   1       1.225  -0.534   0.246  0.00  0.00    -0.127 N 
ATOM     11  O   UNL d   1       0.797  -0.417   1.401  0.00  0.00    -0.532 OA
ATOM     12  O   UNL d   1       2.281  -0.047  -0.178  0.00  0.00    -0.532 OA
ENDBRANCH   9  10
ENDBRANCH   1   8
TORSDOF 2
