REMARK  5 active torsions:
REMARK  status: ('A' for Active; 'I' for Inactive)
REMARK    1  A    between atoms: C_8  and  C_1 
REMARK    2  A    between atoms: S_9  and  C_5 
REMARK    3  A    between atoms: C_22  and  S_9 
REMARK    4  A    between atoms: C_10  and  N_12 
REMARK    5  A    between atoms: C_11  and  C_22 
REMARK       I    between atoms: N_12  and  C_11 
ROOT
ATOM      1  S   UNL d   1       1.015  -2.466   1.281  0.00  0.00    -0.083 SA
ENDROOT
BRANCH   1   2
ATOM      2  C   UNL d   1       0.686  -0.803   0.892  0.00  0.00     0.163 A 
ATOM      3  N   UNL d   1      -0.204  -0.006   1.568  0.00  0.00    -0.312 N 
ATOM      4  C   UNL d   1      -0.237   1.184   0.868  0.00  0.00     0.209 A 
ATOM      5  C   UNL d   1      -0.893  -0.370   2.779  0.00  0.00     0.160 C 
ATOM      6  N   UNL d   1       0.656   1.112  -0.108  0.00  0.00    -0.279 N 
ATOM      7  N   UNL d   1       1.226  -0.133  -0.092  0.00  0.00    -0.278 N 
ATOM      8  HN  UNL d   1       0.881   1.860  -0.764  1.00  0.00     0.188 HD
ATOM      9  HN  UNL d   1       1.942  -0.475  -0.733  1.00  0.00     0.189 HD
BRANCH   4  10
ATOM     10  C   UNL d   1      -1.119   2.357   1.123  0.00  0.00     0.450 C 
ATOM     11  F   UNL d   1      -2.038   2.150   2.101  0.00  0.00    -0.163 F 
ATOM     12  F   UNL d   1      -0.413   3.455   1.496  0.00  0.00    -0.163 F 
ATOM     13  F   UNL d   1      -1.829   2.702   0.016  0.00  0.00    -0.163 F 
ENDBRANCH   4  10
ENDBRANCH   1   2
BRANCH   1  14
ATOM     14  C   UNL d   1       2.307  -2.799   0.048  0.00  0.00     0.185 C 
BRANCH  14  15
ATOM     15  C   UNL d   1       2.792  -4.239  -0.036  0.00  0.00     0.231 C 
ATOM     16  N   UNL d   1       2.065  -5.198   0.645  0.00  0.00    -0.326 N 
ATOM     17  H   UNL d   1       1.212  -4.878   1.094  0.00  0.00     0.169 HD
ATOM     18  O   UNL d   1       3.762  -4.482  -0.755  0.00  0.00    -0.272 OA
BRANCH  16  19
ATOM     19  C   UNL d   1       2.314  -6.593   0.643  0.00  0.00     0.037 A 
ATOM     20  C   UNL d   1       3.500  -7.163   0.168  0.00  0.00     0.053 A 
ATOM     21  C   UNL d   1       3.652  -8.551   0.120  0.00  0.00     0.037 A 
ATOM     22 CL   UNL d   1       5.116  -9.226  -0.490  0.00  0.00    -0.084 Cl
ATOM     23  C   UNL d   1       2.640  -9.393   0.555  0.00  0.00     0.048 A 
ATOM     24  C   UNL d   1       1.474  -8.831   1.069  0.00  0.00     0.037 A 
ATOM     25  C   UNL d   1       1.312  -7.443   1.128  0.00  0.00     0.053 A 
ATOM     26 CL   UNL d   1       0.210  -9.861   1.619  0.00  0.00    -0.084 Cl
ENDBRANCH  16  19
ENDBRANCH  14  15
ENDBRANCH   1  14
TORSDOF 5
