REMARK  3 active torsions:
REMARK  status: ('A' for Active; 'I' for Inactive)
REMARK    1  A    between atoms: C_11  and  N_9 
REMARK    2  A    between atoms: C_16  and  C_11 
REMARK    3  A    between atoms: O_22  and  C_17 
ROOT
ATOM      1  C   UNL d   1       0.225  -0.655   0.028  0.00  0.00     0.145 A 
ATOM      2  C   UNL d   1       0.210   0.709   0.033  0.00  0.00     0.149 A 
ATOM      3  N   UNL d   1      -0.935  -1.391   0.014  0.00  0.00    -0.287 N 
ATOM      4  N   UNL d   1      -2.145   0.671   0.014  0.00  0.00    -0.269 N 
ATOM      5  C   UNL d   1      -2.167  -0.734  -0.001  0.00  0.00     0.332 A 
ATOM      6  C   UNL d   1      -0.994   1.465   0.046  0.00  0.00     0.282 A 
ATOM      7  N   UNL d   1       1.494  -1.149   0.048  0.00  0.00    -0.336 N 
ATOM      8  HN  UNL d   1       1.783  -2.127   0.061  1.00  0.00     0.168 HD
ATOM      9  N   UNL d   1       1.528   1.078   0.014  0.00  0.00    -0.331 N 
ATOM     10  C   UNL d   1       2.263  -0.081   0.046  0.00  0.00     0.185 A 
ATOM     11  O   UNL d   1      -3.227  -1.366  -0.022  0.00  0.00    -0.246 OA
ATOM     12  O   UNL d   1      -1.021   2.692   0.093  0.00  0.00    -0.265 OA
ATOM     13  C   UNL d   1      -0.923  -2.840   0.004  0.00  0.00     0.163 C 
ATOM     14  C   UNL d   1      -3.408   1.384   0.014  0.00  0.00     0.164 C 
ENDROOT
BRANCH   9  15
ATOM     15  C   UNL d   1       2.083   2.422  -0.002  0.00  0.00     0.168 C 
BRANCH  15  16
ATOM     16  C   UNL d   1       2.316   2.902  -1.413  0.00  0.00    -0.040 A 
ATOM     17  C   UNL d   1       1.299   3.557  -2.121  0.00  0.00     0.011 A 
ATOM     18  C   UNL d   1       1.488   3.960  -3.447  0.00  0.00     0.037 A 
ATOM     19  C   UNL d   1       2.704   3.717  -4.082  0.00  0.00     0.068 A 
ATOM     20  C   UNL d   1       3.736   3.101  -3.374  0.00  0.00     0.037 A 
ATOM     21  C   UNL d   1       3.543   2.683  -2.054  0.00  0.00     0.011 A 
BRANCH  19  22
ATOM     22  O   UNL d   1       3.004   4.083  -5.366  0.00  0.00    -0.356 OA
ATOM     23  C   UNL d   1       1.907   4.076  -6.272  0.00  0.00     0.210 C 
ENDBRANCH  19  22
ENDBRANCH  15  16
ENDBRANCH   9  15
TORSDOF 3
