REMARK  4 active torsions:
REMARK  status: ('A' for Active; 'I' for Inactive)
REMARK    1  A    between atoms: N_3  and  C_7 
REMARK    2  A    between atoms: C_12  and  C_4 
REMARK    3  A    between atoms: O_17  and  C_12 
REMARK    4  A    between atoms: C_19  and  O_17 
ROOT
ATOM      1  C   UNL d   1       1.556  -0.816   1.053  0.00  0.00     0.051 A 
ATOM      2  C   UNL d   1       0.232  -0.142   1.099  0.00  0.00     0.004 A 
ATOM      3  C   UNL d   1       2.440  -0.683   0.040  0.00  0.00    -0.024 A 
ATOM      4  S   UNL d   1       0.807   1.213  -1.311  0.00  0.00    -0.125 SA
ATOM      5  C   UNL d   1      -0.175   0.748   0.093  0.00  0.00     0.012 A 
ATOM      6  C   UNL d   1       2.258   0.163  -1.187  0.00  0.00     0.117 A 
ATOM      7  C   UNL d   1      -0.675  -0.378   2.159  0.00  0.00     0.038 A 
ATOM      8 CL   UNL d   1       1.943  -1.872   2.399  0.00  0.00    -0.083 Cl
ATOM      9  C   UNL d   1      -1.441   1.365   0.159  0.00  0.00     0.021 A 
ATOM     10  C   UNL d   1      -1.924   0.243   2.215  0.00  0.00     0.035 A 
ATOM     11  C   UNL d   1      -2.313   1.117   1.215  0.00  0.00     0.025 A 
ATOM     12 CL   UNL d   1      -2.981  -0.075   3.534  0.00  0.00    -0.084 Cl
ENDROOT
BRANCH   3  13
ATOM     13  C   UNL d   1       3.748  -1.459  -0.030  0.00  0.00     0.212 C 
BRANCH  13  14
ATOM     14  O   UNL d   1       4.853  -0.552  -0.097  0.00  0.00    -0.347 OA
BRANCH  14  15
ATOM     15  C   UNL d   1       6.099  -1.125  -0.137  0.00  0.00     0.069 A 
ATOM     16  C   UNL d   1       6.361  -2.499  -0.112  0.00  0.00     0.039 A 
ATOM     17  C   UNL d   1       7.674  -2.973  -0.140  0.00  0.00     0.039 A 
ATOM     18  C   UNL d   1       8.736  -2.064  -0.199  0.00  0.00     0.103 A 
ATOM     19  C   UNL d   1       8.488  -0.686  -0.236  0.00  0.00     0.039 A 
ATOM     20  C   UNL d   1       7.168  -0.225  -0.203  0.00  0.00     0.039 A 
BRANCH  18  21
ATOM     21  N   UNL d   1      10.116  -2.565  -0.219  0.00  0.00    -0.116 N 
ATOM     22  O   UNL d   1      10.284  -3.791  -0.159  0.00  0.00    -0.532 OA
ATOM     23  O   UNL d   1      11.031  -1.732  -0.295  0.00  0.00    -0.532 OA
ENDBRANCH  18  21
ENDBRANCH  14  15
ENDBRANCH  13  14
ENDBRANCH   3  13
TORSDOF 4
