REMARK  5 active torsions:
REMARK  status: ('A' for Active; 'I' for Inactive)
REMARK    1  A    between atoms: N_4  and  S_1 
REMARK    2  A    between atoms: C_5  and  S_1 
REMARK       I    between atoms: C_3  and  N_2 
REMARK    3  A    between atoms: O_16  and  C_3 
REMARK    4  A    between atoms: C_11  and  N_4 
REMARK    5  A    between atoms: C_20  and  O_16 
ROOT
ATOM      1  N   UNL d   1       0.818   0.753   1.129  0.00  0.00    -0.310 N 
ATOM      2  H   UNL d   1       1.199   0.273   0.315  0.00  0.00     0.172 HD
ENDROOT
BRANCH   1   3
ATOM      3  S   UNL d   1       0.688   2.427   0.924  0.00  0.00     0.259 S 
ATOM      4  O   UNL d   1       0.495   3.038   2.220  0.00  0.00    -0.201 OA
ATOM      5  O   UNL d   1      -0.237   2.639  -0.170  0.00  0.00    -0.201 OA
BRANCH   3   6
ATOM      6  C   UNL d   1       2.290   2.901   0.312  0.00  0.00     0.079 A 
ATOM      7  C   UNL d   1       2.692   2.463  -0.954  0.00  0.00     0.026 A 
ATOM      8  C   UNL d   1       3.887   2.938  -1.502  0.00  0.00     0.008 A 
ATOM      9  C   UNL d   1       4.674   3.859  -0.799  0.00  0.00    -0.062 A 
ATOM     10  C   UNL d   1       4.270   4.277   0.475  0.00  0.00     0.008 A 
ATOM     11  C   UNL d   1       5.912   4.426  -1.437  0.00  0.00     0.048 C 
ATOM     12  C   UNL d   1       3.079   3.802   1.032  0.00  0.00     0.026 A 
ENDBRANCH   3   6
ENDBRANCH   1   3
BRANCH   1  13
ATOM     13  C   UNL d   1       1.152   0.209   2.462  0.00  0.00     0.096 C 
ATOM     14  C   UNL d   1       2.637   0.319   2.784  0.00  0.00     0.045 C 
ATOM     15  C   UNL d   1       3.480  -0.680   2.009  0.00  0.00     0.130 C 
ATOM     16  N   UNL d   1       2.978  -2.037   2.155  0.00  0.00    -0.328 N 
ATOM     17  C   UNL d   1       1.564  -2.242   1.860  0.00  0.00     0.130 C 
ATOM     18  C   UNL d   1       3.887  -3.071   1.965  0.00  0.00     0.362 C 
ATOM     19  C   UNL d   1       0.663  -1.240   2.567  0.00  0.00     0.045 C 
ATOM     20  O   UNL d   1       5.088  -2.904   1.785  0.00  0.00    -0.238 OA
BRANCH  18  21
ATOM     21  O   UNL d   1       3.279  -4.286   1.944  0.00  0.00    -0.304 OA
BRANCH  21  22
ATOM     22  C   UNL d   1       4.032  -5.356   1.362  0.00  0.00     0.176 C 
ATOM     23  C   UNL d   1       3.732  -5.366  -0.126  0.00  0.00     0.034 C 
ENDBRANCH  21  22
ENDBRANCH  18  21
ENDBRANCH   1  13
TORSDOF 5
