REMARK  3 active torsions:
REMARK  status: ('A' for Active; 'I' for Inactive)
REMARK    1  A    between atoms: C_2  and  S_1 
REMARK    2  A    between atoms: O_5  and  S_1 
REMARK    3  A    between atoms: C_13  and  O_5 
ROOT
ATOM      1  N   UNL d   1       1.571   6.878  -4.051  0.00  0.00    -0.191 NA
ATOM      2  C   UNL d   1       1.366   5.937  -3.405  0.00  0.00     0.099 C 
ATOM      3  C   UNL d   1       0.708   2.584  -0.883  0.00  0.00     0.089 A 
ATOM      4  C   UNL d   1       1.121   4.784  -2.585  0.00  0.00     0.044 A 
ATOM      5  C   UNL d   1      -0.037   4.705  -1.808  0.00  0.00     0.025 A 
ATOM      6  C   UNL d   1      -0.239   3.612  -0.958  0.00  0.00     0.040 A 
ATOM      7  C   UNL d   1       1.849   2.647  -1.682  0.00  0.00     0.040 A 
ATOM      8  C   UNL d   1       2.055   3.745  -2.530  0.00  0.00     0.025 A 
ENDROOT
BRANCH   3   9
ATOM      9  O   UNL d   1       0.460   1.622   0.063  0.00  0.00    -0.229 OA
BRANCH   9  10
ATOM     10  S   UNL d   1       1.007   0.091  -0.073  0.00  0.00     0.304 S 
ATOM     11  O   UNL d   1       0.270  -0.551  -1.146  0.00  0.00    -0.193 OA
ATOM     12  O   UNL d   1       2.455   0.055  -0.052  0.00  0.00    -0.193 OA
BRANCH  10  13
ATOM     13  C   UNL d   1       0.476  -0.681   1.443  0.00  0.00     0.110 A 
ATOM     14  C   UNL d   1      -0.365  -1.802   1.370  0.00  0.00     0.053 A 
ATOM     15  C   UNL d   1      -0.794  -2.436   2.541  0.00  0.00     0.057 A 
ATOM     16 CL   UNL d   1      -1.841  -3.798   2.381  0.00  0.00    -0.083 Cl
ATOM     17  C   UNL d   1      -0.373  -1.956   3.786  0.00  0.00     0.057 A 
ATOM     18  C   UNL d   1       0.475  -0.846   3.853  0.00  0.00     0.051 A 
ATOM     19 CL   UNL d   1      -0.866  -2.682   5.274  0.00  0.00    -0.082 Cl
ATOM     20  C   UNL d   1       0.899  -0.201   2.684  0.00  0.00     0.059 A 
ATOM     21 CL   UNL d   1       1.926   1.170   2.885  0.00  0.00    -0.083 Cl
ENDBRANCH  10  13
ENDBRANCH   9  10
ENDBRANCH   3   9
TORSDOF 3
