REMARK  4 active torsions:
REMARK  status: ('A' for Active; 'I' for Inactive)
REMARK    1  A    between atoms: C_11  and  N_2 
REMARK    2  A    between atoms: O_12  and  C_9 
REMARK    3  A    between atoms: C_13  and  C_11 
REMARK    4  A    between atoms: C_16  and  O_12 
ROOT
ATOM      1  C   UNL d   1      -0.184  -0.841  -0.177  0.00  0.00     0.147 C 
ATOM      2  N   UNL d   1       1.886   0.888   0.035  0.00  0.00    -0.260 N 
ATOM      3  C   UNL d   1      -0.438   0.501  -0.149  0.00  0.00     0.151 C 
ATOM      4  N   UNL d   1      -1.304  -1.580  -0.298  0.00  0.00    -0.305 N 
ATOM      5  HN  UNL d   1      -1.372  -2.588  -0.439  1.00  0.00     0.171 HD
ATOM      6  N   UNL d   1       1.075  -1.355  -0.019  0.00  0.00    -0.287 N 
ATOM      7  C   UNL d   1       2.149  -0.491   0.154  0.00  0.00     0.333 C 
ATOM      8  C   UNL d   1       0.606   1.465  -0.058  0.00  0.00     0.282 C 
ATOM      9  C   UNL d   1      -2.291  -0.715  -0.196  0.00  0.00     0.233 C 
ATOM     10  N   UNL d   1      -1.817   0.583  -0.182  0.00  0.00    -0.309 N 
ATOM     11  O   UNL d   1       3.283  -0.922   0.389  0.00  0.00    -0.246 OA
ATOM     12  O   UNL d   1       0.404   2.678  -0.067  0.00  0.00    -0.265 OA
ATOM     13  C   UNL d   1       1.301  -2.788   0.032  0.00  0.00     0.163 C 
ATOM     14  C   UNL d   1      -2.635   1.760  -0.065  0.00  0.00     0.160 C 
ENDROOT
BRANCH   2  15
ATOM     15  C   UNL d   1       3.047   1.771   0.031  0.00  0.00     0.177 C 
BRANCH  15  16
ATOM     16  C   UNL d   1       3.670   1.999  -1.342  0.00  0.00    -0.018 A 
ATOM     17  C   UNL d   1       4.818   2.803  -1.475  0.00  0.00     0.042 A 
ATOM     18 CL   UNL d   1       5.621   3.478  -0.099  0.00  0.00    -0.084 Cl
ATOM     19  C   UNL d   1       5.357   3.091  -2.735  0.00  0.00     0.024 A 
ATOM     20  C   UNL d   1       4.769   2.571  -3.885  0.00  0.00     0.002 A 
ATOM     21  C   UNL d   1       3.658   1.741  -3.774  0.00  0.00     0.001 A 
ATOM     22  C   UNL d   1       3.116   1.456  -2.518  0.00  0.00     0.010 A 
ENDBRANCH  15  16
ENDBRANCH   2  15
BRANCH   9  23
ATOM     23  O   UNL d   1      -3.571  -1.056  -0.010  0.00  0.00    -0.279 OA
BRANCH  23  24
ATOM     24  C   UNL d   1      -3.847  -2.260   0.628  0.00  0.00     0.085 A 
ATOM     25  C   UNL d   1      -4.948  -3.035   0.232  0.00  0.00    -0.028 A 
ATOM     26  C   UNL d   1      -5.874  -2.650  -0.884  0.00  0.00     0.051 C 
ATOM     27  C   UNL d   1      -5.205  -4.242   0.911  0.00  0.00     0.009 A 
ATOM     28  C   UNL d   1      -4.379  -4.681   1.948  0.00  0.00     0.001 A 
ATOM     29  C   UNL d   1      -3.295  -3.909   2.340  0.00  0.00     0.003 A 
ATOM     30  C   UNL d   1      -3.048  -2.696   1.701  0.00  0.00     0.038 A 
ENDBRANCH  23  24
ENDBRANCH   9  23
TORSDOF 4
