REMARK  5 active torsions:
REMARK  status: ('A' for Active; 'I' for Inactive)
REMARK       I    between atoms: N_3  and  C_1 
REMARK       I    between atoms: N_6  and  C_1 
REMARK       I    between atoms: C_2  and  N_4 
REMARK    1  A    between atoms: O_7  and  C_2 
REMARK    2  A    between atoms: C_5  and  O_10 
REMARK    3  A    between atoms: C_14  and  N_6 
REMARK    4  A    between atoms: C_13  and  O_7 
REMARK    5  A    between atoms: O_10  and  C_18 
ROOT
ATOM      1  C   UNL d   1       0.902  -0.088   0.021  0.00  0.00     0.322 C 
ATOM      2  C   UNL d   1      -2.720  -1.707   3.850  0.00  0.00     0.363 C 
ATOM      3  N   UNL d   1       0.289  -0.861   1.008  0.00  0.00    -0.332 N 
ATOM      4  N   UNL d   1      -2.092  -0.895   2.907  0.00  0.00    -0.326 N 
ATOM      5  N   UNL d   1       0.527  -0.327  -1.283  0.00  0.00    -0.309 N 
ATOM      6  O   UNL d   1       1.720   0.769   0.347  0.00  0.00    -0.247 OA
ATOM      7  O   UNL d   1      -3.158  -2.813   3.568  0.00  0.00    -0.238 OA
ATOM      8  C   UNL d   1      -2.149  -1.296   1.495  0.00  0.00     0.148 C 
ATOM      9  C   UNL d   1      -0.831  -1.800   0.881  0.00  0.00     0.147 C 
ATOM     10  C   UNL d   1      -0.002   0.549   3.044  0.00  0.00     0.040 C 
ATOM     11  C   UNL d   1       0.723  -0.619   2.384  0.00  0.00     0.129 C 
ATOM     12  C   UNL d   1      -1.524   0.421   3.195  0.00  0.00     0.129 C 
ATOM     13  H   UNL d   1      -0.145  -1.050  -1.464  0.00  0.00     0.170 HD
ENDROOT
BRANCH   5  14
ATOM     14  C   UNL d   1       0.938   0.420  -2.418  0.00  0.00     0.036 C 
ATOM     15  C   UNL d   1       1.950   1.382  -2.394  0.00  0.00     0.032 C 
ATOM     16  C   UNL d   1       2.222   2.181  -3.511  0.00  0.00     0.039 C 
ATOM     17  C   UNL d   1       1.457   2.054  -4.664  0.00  0.00     0.078 C 
ATOM     18  C   UNL d   1       0.528   1.016  -4.744  0.00  0.00     0.039 C 
ATOM     19  C   UNL d   1       0.273   0.199  -3.633  0.00  0.00     0.032 C 
BRANCH  17  20
ATOM     20  O   UNL d   1       1.591   2.837  -5.768  0.00  0.00    -0.255 OA
BRANCH  20  21
ATOM     21  C   UNL d   1       1.791   4.237  -5.575  0.00  0.00     0.530 C 
ATOM     22  F   UNL d   1       1.853   4.628  -4.284  0.00  0.00    -0.144 F 
ATOM     23  F   UNL d   1       2.937   4.606  -6.188  0.00  0.00    -0.144 F 
ATOM     24  F   UNL d   1       0.770   4.907  -6.157  0.00  0.00    -0.144 F 
ENDBRANCH  20  21
ENDBRANCH  17  20
ENDBRANCH   5  14
BRANCH   2  25
ATOM     25  O   UNL d   1      -2.810  -1.163   5.099  0.00  0.00    -0.294 OA
BRANCH  25  26
ATOM     26  C   UNL d   1      -3.453  -1.921   6.179  0.00  0.00     0.061 C 
ATOM     27  C   UNL d   1      -2.763  -3.275   6.400  0.00  0.00     0.046 C 
ATOM     28  C   UNL d   1      -3.295  -1.069   7.452  0.00  0.00     0.046 C 
ATOM     29  C   UNL d   1      -4.956  -2.106   5.925  0.00  0.00     0.046 C 
ENDBRANCH  25  26
ENDBRANCH   2  25
TORSDOF 5
