REMARK  2 active torsions:
REMARK  status: ('A' for Active; 'I' for Inactive)
REMARK    1  A    between atoms: S_15  and  C_5 
REMARK    2  A    between atoms: C_8  and  N_9 
ROOT
ATOM      1  C   UNL d   1       2.864  -0.674  -1.339  0.00  0.00     0.166 A 
ATOM      2  S   UNL d   1       1.579  -1.835  -1.309  0.00  0.00    -0.027 SA
ATOM      3  N   UNL d   1       3.141  -0.262  -2.560  0.00  0.00    -0.278 N 
ATOM      4  HN  UNL d   1       3.857   0.435  -2.765  1.00  0.00     0.189 HD
ATOM      5  C   UNL d   1       1.513  -1.705  -3.013  0.00  0.00     0.127 A 
ATOM      6  N   UNL d   1       2.373  -0.864  -3.533  0.00  0.00    -0.286 N 
ATOM      7  HN  UNL d   1       2.462  -0.678  -4.532  1.00  0.00     0.188 HD
ATOM      8  N   UNL d   1       3.440  -0.266  -0.178  0.00  0.00    -0.335 N 
ATOM      9  H   UNL d   1       3.041  -0.593   0.690  0.00  0.00     0.168 HD
ENDROOT
BRANCH   8  10
ATOM     10  C   UNL d   1       4.538   0.612  -0.049  0.00  0.00     0.040 A 
ATOM     11  C   UNL d   1       5.489   0.728  -1.080  0.00  0.00     0.037 A 
ATOM     12  C   UNL d   1       6.519   1.682  -1.065  0.00  0.00    -0.054 A 
ATOM     13  C   UNL d   1       7.470   1.746  -2.228  0.00  0.00     0.049 C 
ATOM     14  C   UNL d   1       6.605   2.570   0.013  0.00  0.00    -0.056 A 
ATOM     15  C   UNL d   1       5.686   2.446   1.066  0.00  0.00     0.016 A 
ATOM     16  C   UNL d   1       7.642   3.658   0.051  0.00  0.00     0.049 C 
ATOM     17  C   UNL d   1       4.662   1.475   1.057  0.00  0.00    -0.035 A 
ATOM     18  C   UNL d   1       3.709   1.490   2.223  0.00  0.00     0.050 C 
ENDBRANCH   8  10
BRANCH   5  19
ATOM     19  S   UNL d   1       0.401  -2.605  -4.010  0.00  0.00    -0.117 SA
ATOM     20  H   UNL d   1      -0.233  -3.244  -3.021  0.00  0.00     0.109 HD
ENDBRANCH   5  19
TORSDOF 2
