REMARK  4 active torsions:
REMARK  status: ('A' for Active; 'I' for Inactive)
REMARK    1  A    between atoms: C_11  and  N_2 
REMARK    2  A    between atoms: O_13  and  C_9 
REMARK    3  A    between atoms: C_12  and  C_11 
REMARK    4  A    between atoms: C_18  and  O_13 
ROOT
ATOM      1  C   UNL d   1      -0.162  -0.856  -0.074  0.00  0.00     0.147 A 
ATOM      2  N   UNL d   1       1.913   0.874   0.024  0.00  0.00    -0.260 N 
ATOM      3  C   UNL d   1      -0.411   0.487  -0.080  0.00  0.00     0.151 A 
ATOM      4  N   UNL d   1      -1.296  -1.587  -0.110  0.00  0.00    -0.305 N 
ATOM      5  HN  UNL d   1      -1.382  -2.601  -0.175  1.00  0.00     0.171 HD
ATOM      6  N   UNL d   1       1.103  -1.371   0.009  0.00  0.00    -0.287 N 
ATOM      7  C   UNL d   1       2.189  -0.505   0.093  0.00  0.00     0.333 A 
ATOM      8  C   UNL d   1       0.637   1.452  -0.051  0.00  0.00     0.282 A 
ATOM      9  C   UNL d   1      -2.267  -0.702  -0.043  0.00  0.00     0.233 A 
ATOM     10  N   UNL d   1      -1.779   0.585  -0.088  0.00  0.00    -0.309 N 
ATOM     11  O   UNL d   1       3.340  -0.934   0.209  0.00  0.00    -0.246 OA
ATOM     12  O   UNL d   1       0.437   2.662  -0.100  0.00  0.00    -0.265 OA
ATOM     13  C   UNL d   1       1.340  -2.802   0.058  0.00  0.00     0.163 C 
ATOM     14  C   UNL d   1      -2.594   1.773  -0.040  0.00  0.00     0.160 C 
ENDROOT
BRANCH   2  15
ATOM     15  C   UNL d   1       3.062   1.770   0.016  0.00  0.00     0.177 C 
BRANCH  15  16
ATOM     16  C   UNL d   1       3.656   2.035  -1.361  0.00  0.00    -0.018 A 
ATOM     17  C   UNL d   1       4.803   2.843  -1.491  0.00  0.00     0.043 A 
ATOM     18  C   UNL d   1       5.342   3.137  -2.748  0.00  0.00     0.048 A 
ATOM     19 CL   UNL d   1       5.599   3.516  -0.111  0.00  0.00    -0.084 Cl
ATOM     20  C   UNL d   1       4.743   2.624  -3.892  0.00  0.00     0.035 A 
ATOM     21  C   UNL d   1       3.624   1.806  -3.793  0.00  0.00     0.024 A 
ATOM     22 CL   UNL d   1       5.384   3.008  -5.441  0.00  0.00    -0.084 Cl
ATOM     23  C   UNL d   1       3.085   1.512  -2.538  0.00  0.00     0.012 A 
ENDBRANCH  15  16
ENDBRANCH   2  15
BRANCH   9  24
ATOM     24  O   UNL d   1      -3.559  -0.998   0.117  0.00  0.00    -0.279 OA
BRANCH  24  25
ATOM     25  C   UNL d   1      -3.889  -2.239   0.627  0.00  0.00     0.081 A 
ATOM     26  C   UNL d   1      -3.194  -2.807   1.702  0.00  0.00     0.061 A 
ATOM     27  C   UNL d   1      -3.523  -4.084   2.143  0.00  0.00     0.036 A 
ATOM     28 CL   UNL d   1      -2.617  -4.804   3.416  0.00  0.00    -0.084 Cl
ATOM     29  C   UNL d   1      -4.569  -4.785   1.548  0.00  0.00     0.024 A 
ATOM     30  C   UNL d   1      -5.294  -4.199   0.507  0.00  0.00     0.004 A 
ATOM     31  C   UNL d   1      -4.957  -2.923   0.047  0.00  0.00     0.037 A 
ENDBRANCH  24  25
ENDBRANCH   9  24
TORSDOF 4
