REMARK  4 active torsions:
REMARK  status: ('A' for Active; 'I' for Inactive)
REMARK    1  A    between atoms: C_6  and  C_1 
REMARK    2  A    between atoms: C_15  and  C_3 
REMARK    3  A    between atoms: C_8  and  C_4 
REMARK    4  A    between atoms: C_7  and  N_12 
REMARK       I    between atoms: N_12  and  C_8 
ROOT
ATOM      1  C   UNL d   1       0.164   1.232   0.124  0.00  0.00     0.100 A 
ATOM      2  S   UNL d   1      -1.016  -0.033   0.216  0.00  0.00    -0.079 SA
ATOM      3  C   UNL d   1       1.453   0.717  -0.002  0.00  0.00    -0.003 A 
ATOM      4  C   UNL d   1       0.146  -1.262   0.054  0.00  0.00     0.074 A 
ATOM      5  C   UNL d   1       1.408  -0.719  -0.074  0.00  0.00     0.038 A 
ENDROOT
BRANCH   4   6
ATOM      6  C   UNL d   1      -0.161  -2.692   0.069  0.00  0.00     0.264 C 
ATOM      7  N   UNL d   1      -1.484  -3.021   0.303  0.00  0.00    -0.307 N 
ATOM      8  H   UNL d   1      -2.161  -2.277   0.383  0.00  0.00     0.170 HD
ATOM      9  O   UNL d   1       0.738  -3.512  -0.108  0.00  0.00    -0.267 OA
BRANCH   7  10
ATOM     10  C   UNL d   1      -1.927  -4.313   0.529  0.00  0.00     0.130 A 
ATOM     11  N   UNL d   1      -1.151  -5.400   0.575  0.00  0.00    -0.245 N 
ATOM     12  O   UNL d   1      -1.967  -6.457   0.904  0.00  0.00    -0.241 OA
ATOM     13  HN  UNL d   1      -0.146  -5.438   0.400  1.00  0.00     0.196 HD
ATOM     14  C   UNL d   1      -3.241  -6.014   1.049  0.00  0.00     0.076 A 
ATOM     15  C   UNL d   1      -3.276  -4.665   0.792  0.00  0.00     0.084 A 
ATOM     16  C   UNL d   1      -4.231  -7.027   1.453  0.00  0.00     0.079 C 
ENDBRANCH   7  10
ENDBRANCH   4   6
BRANCH   1  17
ATOM     17  C   UNL d   1      -0.329   2.647   0.181  0.00  0.00     0.424 C 
ATOM     18  F   UNL d   1      -1.614   2.751   0.619  0.00  0.00    -0.166 F 
ATOM     19  F   UNL d   1       0.413   3.431   1.002  0.00  0.00    -0.166 F 
ATOM     20  F   UNL d   1      -0.308   3.226  -1.050  0.00  0.00    -0.166 F 
ENDBRANCH   1  17
BRANCH   3  21
ATOM     21  C   UNL d   1       2.701   1.500  -0.035  0.00  0.00    -0.025 A 
ATOM     22  C   UNL d   1       3.867   0.950   0.531  0.00  0.00     0.012 A 
ATOM     23  C   UNL d   1       5.086   1.634   0.501  0.00  0.00     0.001 A 
ATOM     24  C   UNL d   1       5.159   2.895  -0.079  0.00  0.00     0.000 A 
ATOM     25  C   UNL d   1       4.019   3.457  -0.645  0.00  0.00     0.001 A 
ATOM     26  C   UNL d   1       2.805   2.758  -0.640  0.00  0.00     0.012 A 
ENDBRANCH   3  21
TORSDOF 4
