REMARK  6 active torsions:
REMARK  status: ('A' for Active; 'I' for Inactive)
REMARK    1  A    between atoms: N_6  and  C_1 
REMARK    2  A    between atoms: C_2  and  C_3 
REMARK       I    between atoms: C_9  and  N_7 
REMARK    3  A    between atoms: C_18  and  C_9 
REMARK       I    between atoms: C_12  and  N_13 
REMARK    4  A    between atoms: N_13  and  C_26 
REMARK    5  A    between atoms: O_24  and  C_18 
REMARK    6  A    between atoms: C_27  and  O_24 
ROOT
ATOM      1  N   UNL d   1       0.566   2.280  -0.031  0.00  0.00    -0.363 N 
ATOM      2  N   UNL d   1       2.411   4.428  -0.058  0.00  0.00    -0.347 N 
ATOM      3  C   UNL d   1       3.204   5.540  -0.285  0.00  0.00     0.244 C 
ATOM      4  C   UNL d   1       1.325   2.520  -1.266  0.00  0.00     0.144 C 
ATOM      5  C   UNL d   1       0.210   3.521   0.675  0.00  0.00     0.144 C 
ATOM      6  C   UNL d   1       2.644   3.220  -0.878  0.00  0.00     0.145 C 
ATOM      7  C   UNL d   1       1.521   4.221   1.101  0.00  0.00     0.145 C 
ATOM      8  O   UNL d   1       4.056   5.551  -1.175  0.00  0.00    -0.271 OA
ENDROOT
BRANCH   3   9
ATOM      9  C   UNL d   1       2.956   6.809   0.536  0.00  0.00     0.278 C 
BRANCH   9  10
ATOM     10  O   UNL d   1       3.636   6.761   1.782  0.00  0.00    -0.342 OA
BRANCH  10  11
ATOM     11  C   UNL d   1       3.678   7.927   2.500  0.00  0.00     0.069 A 
ATOM     12  C   UNL d   1       4.124   7.800   3.816  0.00  0.00     0.039 A 
ATOM     13  C   UNL d   1       4.213   8.920   4.654  0.00  0.00     0.032 A 
ATOM     14  C   UNL d   1       3.876  10.194   4.182  0.00  0.00     0.034 A 
ATOM     15  C   UNL d   1       3.435  10.317   2.866  0.00  0.00     0.032 A 
ATOM     16  C   UNL d   1       3.337   9.195   2.030  0.00  0.00     0.039 A 
BRANCH  14  17
ATOM     17  N   UNL d   1       4.023  11.283   5.069  0.00  0.00    -0.328 N 
ATOM     18  C   UNL d   1       3.786  12.620   4.800  0.00  0.00     0.218 C 
ATOM     19  O   UNL d   1       3.360  13.095   3.751  0.00  0.00    -0.274 OA
ATOM     20  C   UNL d   1       4.113  13.530   5.958  0.00  0.00     0.117 C 
ATOM     21  H   UNL d   1       4.364  11.054   5.993  0.00  0.00     0.169 HD
ENDBRANCH  14  17
ENDBRANCH  10  11
ENDBRANCH   9  10
ENDBRANCH   3   9
BRANCH   1  22
ATOM     22  C   UNL d   1      -0.215   1.144   0.058  0.00  0.00     0.125 A 
ATOM     23  N   UNL d   1      -0.610   0.560  -1.103  0.00  0.00    -0.350 N 
ATOM     24  C   UNL d   1      -1.268  -0.626  -1.060  0.00  0.00     0.106 A 
ATOM     25  HN  UNL d   1      -0.415   1.008  -1.998  1.00  0.00     0.166 HD
ATOM     26  C   UNL d   1      -1.573  -1.302   0.109  0.00  0.00     0.065 A 
ATOM     27  C   UNL d   1      -1.192  -0.697   1.304  0.00  0.00     0.045 A 
ATOM     28  C   UNL d   1      -0.505   0.519   1.286  0.00  0.00     0.078 A 
ATOM     29 CL   UNL d   1       0.078   1.087   2.818  0.00  0.00    -0.080 Cl
BRANCH  26  30
ATOM     30  C   UNL d   1      -2.245  -2.638   0.060  0.00  0.00     0.418 C 
ATOM     31  F   UNL d   1      -2.444  -3.184   1.291  0.00  0.00    -0.166 F 
ATOM     32  F   UNL d   1      -3.470  -2.588  -0.529  0.00  0.00    -0.166 F 
ATOM     33  F   UNL d   1      -1.528  -3.556  -0.642  0.00  0.00    -0.166 F 
ENDBRANCH  26  30
ENDBRANCH   1  22
TORSDOF 6
