REMARK  4 active torsions:
REMARK  status: ('A' for Active; 'I' for Inactive)
REMARK       I    between atoms: N_2  and  C_1 
REMARK    1  A    between atoms: C_3  and  C_1 
REMARK       I    between atoms: C_5  and  N_2 
REMARK    2  A    between atoms: C_4  and  C_9 
REMARK       I    between atoms: N_8  and  C_5 
REMARK       I    between atoms: C_6  and  N_7 
REMARK    3  A    between atoms: C_10  and  C_6 
REMARK    4  A    between atoms: N_7  and  N_8 
ROOT
ATOM      1  C   UNL d   1       0.498  -0.733   4.509  0.00  0.00     0.261 C 
ATOM      2  N   UNL d   1       0.198  -0.738   3.159  0.00  0.00    -0.274 N 
ATOM      3  C   UNL d   1       1.042  -0.774   2.082  0.00  0.00     0.341 C 
ATOM      4  N   UNL d   1       2.383  -0.718   2.328  0.00  0.00    -0.248 N 
ATOM      5  O   UNL d   1       1.639  -0.681   4.960  0.00  0.00    -0.267 OA
ATOM      6  O   UNL d   1       0.579  -0.867   0.942  0.00  0.00    -0.245 OA
ATOM      7  H   UNL d   1      -0.770  -0.803   2.877  0.00  0.00     0.173 HD
ATOM      8  H   UNL d   1       2.768  -0.590   3.267  0.00  0.00     0.192 HD
ENDROOT
BRANCH   4   9
ATOM      9  N   UNL d   1       3.256  -0.747   1.234  0.00  0.00    -0.262 N 
ATOM     10  C   UNL d   1       4.498  -0.156   1.349  0.00  0.00     0.270 C 
ATOM     11  O   UNL d   1       4.929   0.335   2.387  0.00  0.00    -0.266 OA
ATOM     12  H   UNL d   1       2.808  -0.874   0.328  0.00  0.00     0.190 HD
BRANCH  10  13
ATOM     13  C   UNL d   1       5.316  -0.127   0.103  0.00  0.00     0.033 A 
ATOM     14  C   UNL d   1       6.241   0.909  -0.069  0.00  0.00     0.018 A 
ATOM     15  C   UNL d   1       7.060   0.943  -1.202  0.00  0.00     0.017 A 
ATOM     16  C   UNL d   1       6.976  -0.066  -2.174  0.00  0.00     0.048 A 
ATOM     17  C   UNL d   1       6.044  -1.102  -1.996  0.00  0.00     0.017 A 
ATOM     18  C   UNL d   1       5.219  -1.135  -0.866  0.00  0.00     0.018 A 
BRANCH  16  19
ATOM     19  C   UNL d   1       7.884  -0.069  -3.382  0.00  0.00     0.417 C 
ATOM     20  F   UNL d   1       8.718   1.006  -3.442  0.00  0.00    -0.166 F 
ATOM     21  F   UNL d   1       8.688  -1.168  -3.422  0.00  0.00    -0.166 F 
ATOM     22  F   UNL d   1       7.191  -0.071  -4.554  0.00  0.00    -0.166 F 
ENDBRANCH  16  19
ENDBRANCH  10  13
ENDBRANCH   4   9
BRANCH   1  23
ATOM     23  C   UNL d   1      -0.675  -0.684   5.428  0.00  0.00     0.054 A 
ATOM     24  C   UNL d   1      -1.875  -1.381   5.220  0.00  0.00     0.049 A 
ATOM     25 CL   UNL d   1      -2.102  -2.513   3.933  0.00  0.00    -0.083 Cl
ATOM     26  C   UNL d   1      -2.955  -1.194   6.091  0.00  0.00     0.025 A 
ATOM     27  C   UNL d   1      -2.842  -0.329   7.180  0.00  0.00     0.002 A 
ATOM     28  C   UNL d   1      -1.641   0.335   7.416  0.00  0.00     0.001 A 
ATOM     29  C   UNL d   1      -0.560   0.154   6.549  0.00  0.00     0.019 A 
ENDBRANCH   1  23
TORSDOF 4
