REMARK  6 active torsions:
REMARK  status: ('A' for Active; 'I' for Inactive)
REMARK    1  A    between atoms: N_2  and  C_1 
REMARK    2  A    between atoms: N_3  and  C_1 
REMARK    3  A    between atoms: C_4  and  N_3 
REMARK    4  A    between atoms: C_5  and  C_10 
REMARK    5  A    between atoms: O_17  and  C_5 
REMARK    6  A    between atoms: C_21  and  O_17 
ROOT
ATOM      1  C   UNL d   1       0.859  -0.050   0.097  0.00  0.00     0.174 C 
ATOM      2  S   UNL d   1       0.835  -0.211   1.770  0.00  0.00    -0.041 SA
ENDROOT
BRANCH   1   3
ATOM      3  N   UNL d   1       0.216  -0.969  -0.720  0.00  0.00    -0.358 N 
ATOM      4  C   UNL d   1      -0.870  -0.621  -1.623  0.00  0.00     0.126 C 
ATOM      5  C   UNL d   1      -2.094  -1.488  -1.319  0.00  0.00     0.034 C 
ATOM      6  C   UNL d   1      -1.772  -2.990  -1.225  0.00  0.00     0.088 C 
ATOM      7  C   UNL d   1      -0.498  -3.307  -0.439  0.00  0.00     0.034 C 
ATOM      8  C   UNL d   1       0.650  -2.360  -0.756  0.00  0.00     0.126 C 
BRANCH   6   9
ATOM      9  C   UNL d   1      -1.728  -3.564  -2.624  0.00  0.00     0.263 C 
ATOM     10  O   UNL d   1      -0.908  -3.257  -3.477  0.00  0.00    -0.265 OA
BRANCH   9  11
ATOM     11  O   UNL d   1      -2.812  -4.365  -2.820  0.00  0.00    -0.322 OA
BRANCH  11  12
ATOM     12  C   UNL d   1      -3.193  -4.573  -4.186  0.00  0.00     0.174 C 
ATOM     13  C   UNL d   1      -4.132  -3.446  -4.577  0.00  0.00     0.034 C 
ENDBRANCH  11  12
ENDBRANCH   9  11
ENDBRANCH   6   9
ENDBRANCH   1   3
BRANCH   1  14
ATOM     14  N   UNL d   1       1.489   0.964  -0.612  0.00  0.00    -0.333 N 
ATOM     15  H   UNL d   1       1.071   1.199  -1.499  0.00  0.00     0.168 HD
BRANCH  14  16
ATOM     16  C   UNL d   1       2.750   1.549  -0.348  0.00  0.00     0.040 A 
ATOM     17  C   UNL d   1       3.093   2.788  -0.918  0.00  0.00    -0.034 A 
ATOM     18  C   UNL d   1       4.410   3.275  -0.770  0.00  0.00     0.028 A 
ATOM     19  C   UNL d   1       2.117   3.688  -1.626  0.00  0.00     0.050 C 
ATOM     20  C   UNL d   1       5.364   2.548  -0.058  0.00  0.00     0.011 A 
ATOM     21  C   UNL d   1       5.023   1.342   0.528  0.00  0.00     0.021 A 
ATOM     22 BR   UNL d   1       7.130   3.202   0.092  0.00  0.00    -0.051 Br
ATOM     23  C   UNL d   1       3.726   0.844   0.379  0.00  0.00     0.031 A 
ENDBRANCH  14  16
ENDBRANCH   1  14
TORSDOF 6
