REMARK  3 active torsions:
REMARK  status: ('A' for Active; 'I' for Inactive)
REMARK    1  A    between atoms: N_6  and  C_18 
REMARK    2  A    between atoms: C_11  and  C_9 
REMARK    3  A    between atoms: O_20  and  C_15 
ROOT
ATOM      1  C   UNL d   1       0.421   0.590  -0.099  0.00  0.00    -0.014 C 
ATOM      2  C   UNL d   1      -0.412  -0.562  -0.088  0.00  0.00    -0.014 C 
ATOM      3  C   UNL d   1       1.850   0.457  -0.008  0.00  0.00    -0.015 A 
ATOM      4  C   UNL d   1       2.444  -0.822  -0.106  0.00  0.00    -0.023 A 
ATOM      5  C   UNL d   1      -1.845  -0.414   0.004  0.00  0.00    -0.015 A 
ATOM      6  C   UNL d   1       0.233  -1.815  -0.172  0.00  0.00     0.014 C 
ATOM      7  C   UNL d   1      -0.211   1.847  -0.204  0.00  0.00     0.014 C 
ATOM      8  C   UNL d   1       2.724   1.542   0.223  0.00  0.00     0.015 A 
ATOM      9  C   UNL d   1       1.623  -1.942  -0.218  0.00  0.00     0.013 C 
ATOM     10  C   UNL d   1       3.849  -0.963  -0.072  0.00  0.00     0.041 A 
ATOM     11  C   UNL d   1      -2.419   0.877  -0.078  0.00  0.00    -0.025 A 
ATOM     12  C   UNL d   1      -1.596   1.988  -0.225  0.00  0.00     0.013 C 
ATOM     13  C   UNL d   1       4.693   0.132   0.121  0.00  0.00     0.032 A 
ATOM     14  C   UNL d   1       4.109   1.380   0.317  0.00  0.00     0.030 A 
ATOM     15  C   UNL d   1      -2.751  -1.488   0.213  0.00  0.00     0.013 A 
ATOM     16  C   UNL d   1      -3.809   1.063   0.001  0.00  0.00     0.012 A 
ATOM     17  C   UNL d   1      -4.132  -1.290   0.331  0.00  0.00     0.001 A 
ATOM     18  C   UNL d   1      -4.662  -0.015   0.214  0.00  0.00     0.001 A 
ENDROOT
BRANCH  13  19
ATOM     19  N   UNL d   1       6.085  -0.084   0.170  0.00  0.00    -0.365 N 
ATOM     20  C   UNL d   1       6.862   0.822  -0.339  0.00  0.00     0.102 C 
ATOM     21  HN  UNL d   1       6.470  -0.928   0.593  1.00  0.00     0.165 HD
BRANCH  20  22
ATOM     22  C   UNL d   1       8.331   0.678  -0.340  0.00  0.00     0.012 A 
ATOM     23  C   UNL d   1       8.965  -0.494   0.081  0.00  0.00     0.077 A 
ATOM     24  C   UNL d   1      10.352  -0.598   0.025  0.00  0.00     0.037 A 
ATOM     25  C   UNL d   1      11.112   0.476  -0.442  0.00  0.00     0.003 A 
ATOM     26  C   UNL d   1      10.485   1.654  -0.851  0.00  0.00     0.001 A 
ATOM     27  C   UNL d   1       9.094   1.757  -0.803  0.00  0.00     0.015 A 
BRANCH  23  28
ATOM     28  O   UNL d   1       8.279  -1.581   0.551  0.00  0.00    -0.360 OA
ATOM     29  H   UNL d   1       7.326  -1.335   0.564  0.00  0.00     0.217 HD
ENDBRANCH  23  28
ENDBRANCH  20  22
ENDBRANCH  13  19
TORSDOF 3
