REMARK  3 active torsions:
REMARK  status: ('A' for Active; 'I' for Inactive)
REMARK    1  A    between atoms: C_4  and  C_1 
REMARK    2  A    between atoms: N_6  and  C_2 
REMARK       I    between atoms: C_3  and  N_5 
REMARK       I    between atoms: N_7  and  C_3 
REMARK    3  A    between atoms: C_18  and  N_7 
ROOT
ATOM      1  C   UNL d   1      -3.067   6.276  -0.243  0.00  0.00     0.323 C 
ATOM      2  N   UNL d   1      -2.527   5.000  -0.134  0.00  0.00    -0.332 N 
ATOM      3  N   UNL d   1      -1.141   2.506  -0.041  0.00  0.00    -0.266 NA
ATOM      4  N   UNL d   1      -4.155   6.532   0.556  0.00  0.00    -0.309 N 
ATOM      5  O   UNL d   1      -2.611   7.080  -1.054  0.00  0.00    -0.247 OA
ATOM      6  C   UNL d   1      -1.334   4.747  -0.959  0.00  0.00     0.142 C 
ATOM      7  C   UNL d   1      -2.753   4.053   0.978  0.00  0.00     0.142 C 
ATOM      8  C   UNL d   1      -2.460   2.576   0.613  0.00  0.00     0.117 C 
ATOM      9  C   UNL d   1      -1.152   3.264  -1.306  0.00  0.00     0.117 C 
ATOM     10  H   UNL d   1      -4.223   6.034   1.426  0.00  0.00     0.170 HD
ENDROOT
BRANCH   4  11
ATOM     11  C   UNL d   1      -5.138   7.518   0.315  0.00  0.00     0.036 A 
ATOM     12  C   UNL d   1      -5.210   8.251  -0.873  0.00  0.00     0.030 A 
ATOM     13  C   UNL d   1      -6.276   9.118  -1.116  0.00  0.00     0.009 A 
ATOM     14  C   UNL d   1      -7.299   9.263  -0.177  0.00  0.00    -0.062 A 
ATOM     15  C   UNL d   1      -7.208   8.569   1.034  0.00  0.00     0.009 A 
ATOM     16  C   UNL d   1      -8.470  10.142  -0.492  0.00  0.00     0.048 C 
ATOM     17  C   UNL d   1      -6.136   7.702   1.278  0.00  0.00     0.030 A 
ENDBRANCH   4  11
BRANCH   3  18
ATOM     18  C   UNL d   1      -0.516   1.270  -0.078  0.00  0.00     0.097 A 
ATOM     19  C   UNL d   1       0.873   1.157  -0.188  0.00  0.00     0.086 A 
ATOM     20  C   UNL d   1       1.451  -0.124  -0.196  0.00  0.00     0.021 A 
ATOM     21  C   UNL d   1       0.651  -1.251  -0.059  0.00  0.00     0.018 A 
ATOM     22  C   UNL d   1      -0.704  -1.053   0.073  0.00  0.00     0.089 A 
ATOM     23  N   UNL d   1      -1.291   0.167   0.067  0.00  0.00    -0.356 N 
ATOM     24  HN  UNL d   1      -2.302   0.254   0.169  1.00  0.00     0.166 HD
BRANCH  19  25
ATOM     25  C   UNL d   1       1.806   2.334  -0.272  0.00  0.00     0.420 C 
ATOM     26  F   UNL d   1       1.302   3.553   0.057  0.00  0.00    -0.166 F 
ATOM     27  F   UNL d   1       2.899   2.181   0.535  0.00  0.00    -0.166 F 
ATOM     28  F   UNL d   1       2.316   2.481  -1.532  0.00  0.00    -0.166 F 
ENDBRANCH  19  25
ENDBRANCH   3  18
TORSDOF 3
