REMARK  5 active torsions:
REMARK  status: ('A' for Active; 'I' for Inactive)
REMARK    1  A    between atoms: S_4  and  C_1 
REMARK    2  A    between atoms: C_9  and  C_3 
REMARK    3  A    between atoms: C_16  and  S_4 
REMARK    4  A    between atoms: C_11  and  C_19 
REMARK    5  A    between atoms: C_26  and  C_16 
ROOT
ATOM      1  S   UNL d   1       0.607   2.902  -0.018  0.00  0.00     0.212 S 
ATOM      2  O   UNL d   1       0.554   1.456   0.079  0.00  0.00    -0.219 OA
ATOM      3  O   UNL d   1       0.228   3.720   1.121  0.00  0.00    -0.219 OA
ENDROOT
BRANCH   1   4
ATOM      4  C   UNL d   1       2.302   3.290  -0.269  0.00  0.00     0.221 A 
ATOM      5  N   UNL d   1       3.342   2.967   0.565  0.00  0.00    -0.308 N 
ATOM      6  C   UNL d   1       4.469   3.536   0.008  0.00  0.00     0.209 A 
ATOM      7  C   UNL d   1       3.274   2.218   1.796  0.00  0.00     0.160 C 
ATOM      8  N   UNL d   1       4.114   4.145  -1.111  0.00  0.00    -0.279 N 
ATOM      9  N   UNL d   1       2.764   4.008  -1.270  0.00  0.00    -0.274 N 
ATOM     10  HN  UNL d   1       4.743   4.635  -1.747  1.00  0.00     0.188 HD
ATOM     11  HN  UNL d   1       2.210   4.394  -2.035  1.00  0.00     0.189 HD
BRANCH   6  12
ATOM     12  C   UNL d   1       5.838   3.493   0.587  0.00  0.00     0.450 C 
ATOM     13  F   UNL d   1       5.889   2.834   1.775  0.00  0.00    -0.163 F 
ATOM     14  F   UNL d   1       6.722   2.869  -0.232  0.00  0.00    -0.163 F 
ATOM     15  F   UNL d   1       6.324   4.738   0.825  0.00  0.00    -0.163 F 
ENDBRANCH   6  12
ENDBRANCH   1   4
BRANCH   1  16
ATOM     16  C   UNL d   1      -0.255   3.494  -1.470  0.00  0.00     0.187 C 
BRANCH  16  17
ATOM     17  C   UNL d   1       0.187   2.787  -2.727  0.00  0.00    -0.044 A 
ATOM     18  C   UNL d   1      -0.066   1.424  -2.926  0.00  0.00     0.009 A 
ATOM     19  C   UNL d   1       0.384   0.773  -4.079  0.00  0.00     0.014 A 
ATOM     20  C   UNL d   1       1.075   1.474  -5.076  0.00  0.00    -0.008 A 
ATOM     21  C   UNL d   1       1.293   2.845  -4.895  0.00  0.00     0.014 A 
ATOM     22  C   UNL d   1       0.851   3.495  -3.738  0.00  0.00     0.009 A 
BRANCH  20  23
ATOM     23  C   UNL d   1       1.592   0.808  -6.265  0.00  0.00     0.063 A 
ATOM     24  N   UNL d   1       2.688   1.318  -6.957  0.00  0.00    -0.292 N 
ATOM     25  N   UNL d   1       3.019   0.563  -7.991  0.00  0.00    -0.061 NA
ATOM     26  HN  UNL d   1       3.178   2.173  -6.696  1.00  0.00     0.183 HD
ATOM     27  S   UNL d   1       2.018  -0.763  -8.172  0.00  0.00    -0.010 SA
ATOM     28  C   UNL d   1       1.063  -0.351  -6.808  0.00  0.00     0.096 A 
ENDBRANCH  20  23
ENDBRANCH  16  17
ENDBRANCH   1  16
TORSDOF 5
