REMARK  5 active torsions:
REMARK  status: ('A' for Active; 'I' for Inactive)
REMARK       I    between atoms: C_2  and  N_1 
REMARK    1  A    between atoms: C_5  and  C_2 
REMARK    2  A    between atoms: C_18  and  C_4 
REMARK    3  A    between atoms: O_20  and  C_16 
REMARK    4  A    between atoms: O_19  and  C_17 
REMARK    5  A    between atoms: C_23  and  C_18 
ROOT
ATOM      1  N   UNL d   1      -2.506   0.372  -0.339  0.00  0.00    -0.339 N 
ATOM      2  C   UNL d   1      -3.518   0.543  -1.296  0.00  0.00     0.254 C 
ATOM      3  C   UNL d   1      -0.163   0.838   0.073  0.00  0.00    -0.022 A 
ATOM      4  C   UNL d   1      -1.571   1.395   0.211  0.00  0.00     0.121 C 
ATOM      5  C   UNL d   1       0.099  -0.516  -0.048  0.00  0.00    -0.008 A 
ATOM      6  C   UNL d   1      -2.323  -0.990   0.205  0.00  0.00     0.132 C 
ATOM      7  S   UNL d   1       1.758  -0.876  -0.136  0.00  0.00    -0.106 SA
ATOM      8  C   UNL d   1      -0.951  -1.576  -0.157  0.00  0.00     0.067 C 
ATOM      9  C   UNL d   1       1.056   1.590   0.003  0.00  0.00     0.017 A 
ATOM     10  C   UNL d   1       2.170   0.782  -0.080  0.00  0.00     0.051 A 
ATOM     11  O   UNL d   1      -4.229  -0.394  -1.661  0.00  0.00    -0.267 OA
ENDROOT
BRANCH   2  12
ATOM     12  C   UNL d   1      -3.836   1.873  -1.901  0.00  0.00     0.037 C 
ATOM     13  C   UNL d   1      -2.856   2.766  -2.329  0.00  0.00     0.054 C 
ATOM     14  C   UNL d   1      -3.216   4.046  -2.753  0.00  0.00     0.071 C 
ATOM     15  C   UNL d   1      -4.563   4.373  -2.900  0.00  0.00     0.073 C 
ATOM     16  C   UNL d   1      -5.554   3.422  -2.656  0.00  0.00     0.071 C 
ATOM     17  C   UNL d   1      -5.184   2.186  -2.119  0.00  0.00     0.054 C 
BRANCH  14  18
ATOM     18  O   UNL d   1      -2.348   5.066  -3.040  0.00  0.00    -0.356 OA
ATOM     19  C   UNL d   1      -0.965   4.744  -3.083  0.00  0.00     0.210 C 
ENDBRANCH  14  18
BRANCH  16  20
ATOM     20  O   UNL d   1      -6.890   3.590  -2.893  0.00  0.00    -0.356 OA
ATOM     21  C   UNL d   1      -7.266   4.748  -3.631  0.00  0.00     0.210 C 
ENDBRANCH  16  20
ENDBRANCH   2  12
BRANCH   4  22
ATOM     22  C   UNL d   1      -1.933   1.795   1.658  0.00  0.00     0.030 C 
BRANCH  22  23
ATOM     23  C   UNL d   1      -1.087   2.972   2.166  0.00  0.00    -0.002 C 
ATOM     24  C   UNL d   1      -1.508   3.428   3.552  0.00  0.00     0.005 C 
ENDBRANCH  22  23
ENDBRANCH   4  22
TORSDOF 5
