REMARK  5 active torsions:
REMARK  status: ('A' for Active; 'I' for Inactive)
REMARK    1  A    between atoms: C_15  and  N_1 
REMARK    2  A    between atoms: N_19  and  C_6 
REMARK    3  A    between atoms: N_9  and  C_14 
REMARK    4  A    between atoms: N_16  and  N_19 
REMARK    5  A    between atoms: C_24  and  C_23 
ROOT
ATOM      1  N   UNL d   1      -1.318  -1.338   0.031  0.00  0.00    -0.281 N 
ATOM      2  C   UNL d   1      -0.096  -0.582   0.025  0.00  0.00     0.136 A 
ATOM      3  C   UNL d   1      -2.473  -0.535   0.032  0.00  0.00     0.152 A 
ATOM      4  C   UNL d   1      -0.300   0.780  -0.018  0.00  0.00     0.098 A 
ATOM      5  S   UNL d   1      -2.014   1.172   0.004  0.00  0.00    -0.052 SA
ATOM      6  C   UNL d   1       0.823   1.589  -0.099  0.00  0.00     0.142 A 
ATOM      7  N   UNL d   1       1.132  -1.126   0.004  0.00  0.00    -0.331 N 
ATOM      8  HN  UNL d   1       1.268  -2.137  -0.000  1.00  0.00     0.168 HD
ATOM      9  N   UNL d   1       2.067   1.063  -0.060  0.00  0.00    -0.330 N 
ATOM     10  HN  UNL d   1       2.895   1.659  -0.067  1.00  0.00     0.168 HD
ATOM     11  C   UNL d   1       2.171  -0.278  -0.011  0.00  0.00     0.080 A 
ATOM     12  S   UNL d   1      -4.096  -0.924   0.156  0.00  0.00    -0.052 SA
ATOM     13  C   UNL d   1       3.540  -0.886   0.012  0.00  0.00     0.089 C 
ENDROOT
BRANCH   6  14
ATOM     14  N   UNL d   1       0.757   2.989  -0.261  0.00  0.00    -0.285 N 
ATOM     15  H   UNL d   1       1.697   3.357  -0.389  0.00  0.00     0.188 HD
BRANCH  14  16
ATOM     16  N   UNL d   1      -0.287   3.468  -0.979  0.00  0.00    -0.309 N 
ATOM     17  C   UNL d   1      -0.132   4.599  -1.583  0.00  0.00     0.118 C 
ATOM     18  HN  UNL d   1      -1.165   2.953  -1.041  1.00  0.00     0.186 HD
BRANCH  17  19
ATOM     19  C   UNL d   1      -1.241   5.166  -2.382  0.00  0.00    -0.019 A 
ATOM     20  C   UNL d   1      -2.485   4.519  -2.441  0.00  0.00     0.015 A 
ATOM     21  C   UNL d   1      -3.528   5.066  -3.194  0.00  0.00     0.037 A 
ATOM     22  C   UNL d   1      -3.317   6.263  -3.887  0.00  0.00     0.102 A 
ATOM     23  C   UNL d   1      -2.072   6.910  -3.836  0.00  0.00     0.037 A 
ATOM     24  C   UNL d   1      -1.033   6.356  -3.081  0.00  0.00     0.015 A 
BRANCH  22  25
ATOM     25  N   UNL d   1      -4.411   6.852  -4.673  0.00  0.00    -0.116 N 
ATOM     26  O   UNL d   1      -5.492   6.252  -4.694  0.00  0.00    -0.532 OA
ATOM     27  O   UNL d   1      -4.182   7.914  -5.267  0.00  0.00    -0.532 OA
ENDBRANCH  22  25
ENDBRANCH  17  19
ENDBRANCH  14  16
ENDBRANCH   6  14
BRANCH   1  28
ATOM     28  C   UNL d   1      -1.275  -2.772   0.020  0.00  0.00     0.042 A 
ATOM     29  C   UNL d   1      -0.264  -3.492   0.678  0.00  0.00     0.030 A 
ATOM     30  C   UNL d   1      -0.237  -4.892   0.680  0.00  0.00     0.002 A 
ATOM     31  C   UNL d   1      -1.240  -5.609   0.041  0.00  0.00     0.000 A 
ATOM     32  C   UNL d   1      -2.252  -4.926  -0.619  0.00  0.00     0.002 A 
ATOM     33  C   UNL d   1      -2.256  -3.526  -0.643  0.00  0.00     0.030 A 
ENDBRANCH   1  28
TORSDOF 5
