REMARK  6 active torsions:
REMARK  status: ('A' for Active; 'I' for Inactive)
REMARK    1  A    between atoms: N_2  and  S_1 
REMARK    2  A    between atoms: C_4  and  S_1 
REMARK    3  A    between atoms: C_3  and  N_2 
REMARK    4  A    between atoms: O_10  and  C_9 
REMARK    5  A    between atoms: C_19  and  O_10 
REMARK    6  A    between atoms: C_14  and  C_19 
ROOT
ATOM      1  C   UNL d   1       0.900  -0.551  -2.570  0.00  0.00     0.128 A 
ATOM      2  N   UNL d   1      -0.129  -0.438  -3.435  0.00  0.00    -0.354 N 
ATOM      3  HN  UNL d   1      -1.065  -0.772  -3.205  1.00  0.00     0.166 HD
ATOM      4  C   UNL d   1       2.211  -0.131  -2.819  0.00  0.00     0.108 A 
ATOM      5  C   UNL d   1       0.148   0.141  -4.619  0.00  0.00     0.089 A 
ATOM      6  C   UNL d   1       2.454   0.455  -4.060  0.00  0.00     0.041 A 
ATOM      7  C   UNL d   1       1.406   0.601  -4.971  0.00  0.00     0.020 A 
ENDROOT
BRANCH   1   8
ATOM      8  N   UNL d   1       0.439  -1.015  -1.314  0.00  0.00    -0.164 NA
ATOM      9  H   UNL d   1      -0.435  -1.518  -1.455  0.00  0.00     0.147 HD
BRANCH   8  10
ATOM     10  S   UNL d   1       0.173   0.157  -0.123  0.00  0.00     0.247 S 
ATOM     11  O   UNL d   1       1.301   0.154   0.785  0.00  0.00    -0.205 OA
ATOM     12  O   UNL d   1      -1.165  -0.080   0.377  0.00  0.00    -0.205 OA
BRANCH  10  13
ATOM     13  C   UNL d   1       0.159   1.735  -0.949  0.00  0.00     0.074 A 
ATOM     14  C   UNL d   1      -0.994   2.165  -1.606  0.00  0.00     0.025 A 
ATOM     15  C   UNL d   1      -0.949   3.337  -2.363  0.00  0.00     0.008 A 
ATOM     16  C   UNL d   1       0.236   4.080  -2.456  0.00  0.00    -0.062 A 
ATOM     17  C   UNL d   1       1.363   3.676  -1.728  0.00  0.00     0.008 A 
ATOM     18  C   UNL d   1       0.290   5.294  -3.337  0.00  0.00     0.048 C 
ATOM     19  C   UNL d   1       1.320   2.513  -0.960  0.00  0.00     0.025 A 
ENDBRANCH  10  13
ENDBRANCH   8  10
ENDBRANCH   1   8
BRANCH   4  20
ATOM     20  O   UNL d   1       3.141  -0.349  -1.848  0.00  0.00    -0.343 OA
BRANCH  20  21
ATOM     21  C   UNL d   1       4.365   0.382  -1.906  0.00  0.00     0.214 C 
BRANCH  21  22
ATOM     22  C   UNL d   1       5.233  -0.085  -0.763  0.00  0.00    -0.028 A 
ATOM     23  C   UNL d   1       6.541  -0.533  -0.989  0.00  0.00     0.051 A 
ATOM     24  C   UNL d   1       7.310  -1.010   0.073  0.00  0.00     0.119 A 
ATOM     25  F   UNL d   1       8.553  -1.449  -0.166  0.00  0.00    -0.206 F 
ATOM     26  C   UNL d   1       6.813  -1.043   1.367  0.00  0.00     0.084 A 
ATOM     27  C   UNL d   1       5.526  -0.581   1.595  0.00  0.00     0.119 A 
ATOM     28  C   UNL d   1       4.742  -0.095   0.552  0.00  0.00     0.051 A 
ATOM     29  F   UNL d   1       5.028  -0.606   2.838  0.00  0.00    -0.206 F 
ENDBRANCH  21  22
ENDBRANCH  20  21
ENDBRANCH   4  20
TORSDOF 6
