REMARK  0 active torsions:
REMARK  status: ('A' for Active; 'I' for Inactive)
ROOT
ATOM      1  N   UNL d   1       4.037   3.059  -0.085  0.00  0.00    -0.229 NA
ATOM      2  C   UNL d   1       4.722   3.999   0.827  0.00  0.00     0.029 C 
ATOM      3  C   UNL d   1       5.811   3.763   1.729  0.00  0.00     0.031 C 
ATOM      4  C   UNL d   1       3.295   1.978   0.417  0.00  0.00     0.201 C 
ATOM      5  C   UNL d   1       7.160   3.025   1.476  0.00  0.00     0.161 C 
ATOM      6  O   UNL d   1       2.207   2.198   0.940  0.00  0.00    -0.280 OA
ATOM      7  O   UNL d   1       8.200   3.628   1.796  0.00  0.00    -0.292 OA
ATOM      8  C   UNL d   1       5.931   4.607   2.854  0.00  0.00     0.017 C 
ATOM      9  C   UNL d   1       4.157   5.292   0.845  0.00  0.00     0.025 C 
ATOM     10  C   UNL d   1       3.719   0.491   0.066  0.00  0.00     0.097 C 
ATOM     11  C   UNL d   1       7.304   1.603   0.911  0.00  0.00     0.084 C 
ATOM     12  C   UNL d   1       5.218   5.797   2.946  0.00  0.00     0.001 C 
ATOM     13  C   UNL d   1       4.418   6.186   1.884  0.00  0.00     0.002 C 
ATOM     14  C   UNL d   1       5.215   0.057   0.028  0.00  0.00     0.009 C 
ATOM     15  C   UNL d   1       5.931   1.254   0.518  0.00  0.00     0.008 C 
ATOM     16  H   UNL d   1       3.310   3.619  -0.549  0.00  0.00     0.136 HD
ENDROOT
TORSDOF 0
