REMARK  5 active torsions:
REMARK  status: ('A' for Active; 'I' for Inactive)
REMARK    1  A    between atoms: C_2  and  C_1 
REMARK    2  A    between atoms: C_12  and  N_3 
REMARK    3  A    between atoms: N_15  and  C_6 
REMARK    4  A    between atoms: C_14  and  C_10 
REMARK    5  A    between atoms: O_21  and  C_18 
ROOT
ATOM      1  C   UNL d   1       0.907  -0.636   0.001  0.00  0.00     0.142 A 
ATOM      2  N   UNL d   1       0.929   0.738   0.042  0.00  0.00    -0.271 N 
ATOM      3  N   UNL d   1      -0.288  -1.164  -0.042  0.00  0.00    -0.282 N 
ATOM      4  HN  UNL d   1      -0.534  -2.152  -0.093  1.00  0.00     0.188 HD
ATOM      5  C   UNL d   1      -0.411   1.097   0.033  0.00  0.00     0.199 A 
ATOM      6  N   UNL d   1      -1.128  -0.095  -0.004  0.00  0.00    -0.274 N 
ATOM      7  S   UNL d   1      -1.187   2.565  -0.030  0.00  0.00    -0.039 SA
ATOM      8  H   UNL d   1      -2.135  -0.191  -0.067  0.00  0.00     0.189 HD
ENDROOT
BRANCH   1   9
ATOM      9  C   UNL d   1       2.077  -1.499   0.066  0.00  0.00     0.044 A 
ATOM     10  C   UNL d   1       2.190  -2.677  -0.656  0.00  0.00     0.082 A 
ATOM     11  S   UNL d   1       3.697  -3.439  -0.419  0.00  0.00    -0.071 SA
ATOM     12  C   UNL d   1       4.234  -2.243   0.681  0.00  0.00     0.018 A 
ATOM     13  C   UNL d   1       3.247  -1.296   0.882  0.00  0.00     0.038 A 
BRANCH  10  14
ATOM     14  N   UNL d   1       1.282  -3.224  -1.497  0.00  0.00    -0.393 N 
ATOM     15  H   UNL d   1       0.306  -2.949  -1.381  0.00  0.00     0.156 HD
ATOM     16  H   UNL d   1       1.388  -4.206  -1.735  0.00  0.00     0.156 HD
ENDBRANCH  10  14
BRANCH  12  17
ATOM     17  C   UNL d   1       5.598  -2.291   1.231  0.00  0.00    -0.019 A 
ATOM     18  C   UNL d   1       6.203  -3.500   1.607  0.00  0.00     0.013 A 
ATOM     19  C   UNL d   1       7.517  -3.529   2.082  0.00  0.00     0.001 A 
ATOM     20  C   UNL d   1       8.243  -2.347   2.196  0.00  0.00     0.000 A 
ATOM     21  C   UNL d   1       7.654  -1.134   1.846  0.00  0.00     0.001 A 
ATOM     22  C   UNL d   1       6.340  -1.106   1.370  0.00  0.00     0.013 A 
ENDBRANCH  12  17
ENDBRANCH   1   9
BRANCH   2  23
ATOM     23  C   UNL d   1       2.047   1.603  -0.046  0.00  0.00     0.043 A 
ATOM     24  C   UNL d   1       3.131   1.298  -0.884  0.00  0.00     0.033 A 
ATOM     25  C   UNL d   1       4.268   2.116  -0.930  0.00  0.00     0.039 A 
ATOM     26  C   UNL d   1       4.333   3.266  -0.149  0.00  0.00     0.068 A 
ATOM     27  C   UNL d   1       3.242   3.608   0.647  0.00  0.00     0.039 A 
ATOM     28  C   UNL d   1       2.115   2.780   0.707  0.00  0.00     0.033 A 
BRANCH  26  29
ATOM     29  O   UNL d   1       5.380   4.143  -0.115  0.00  0.00    -0.356 OA
ATOM     30  C   UNL d   1       6.659   3.590  -0.406  0.00  0.00     0.210 C 
ENDBRANCH  26  29
ENDBRANCH   2  23
TORSDOF 5
