REMARK  2 active torsions:
REMARK  status: ('A' for Active; 'I' for Inactive)
REMARK    1  A    between atoms: C_5  and  C_1 
REMARK    2  A    between atoms: C_11  and  N_4 
REMARK       I    between atoms: N_8  and  C_5 
ROOT
ATOM      1  C   UNL d   1      -0.303  -1.190  -0.094  0.00  0.00     0.142 C 
ATOM      2  N   UNL d   1      -1.215  -0.336   0.404  0.00  0.00    -0.272 N 
ATOM      3  HN  UNL d   1      -2.044  -0.544   0.961  1.00  0.00     0.189 HD
ATOM      4  N   UNL d   1      -0.763   0.871  -0.016  0.00  0.00    -0.196 N 
ATOM      5  N   UNL d   1       0.432   0.867  -0.659  0.00  0.00    -0.281 N 
ATOM      6  HN  UNL d   1       0.956   1.655  -1.039  1.00  0.00     0.189 HD
ATOM      7  C   UNL d   1       0.751  -0.435  -0.668  0.00  0.00     0.057 C 
ATOM      8  C   UNL d   1       2.023  -0.907  -1.262  0.00  0.00     0.072 C 
ENDROOT
BRANCH   1   9
ATOM      9  C   UNL d   1      -0.420  -2.654  -0.003  0.00  0.00     0.278 C 
ATOM     10  N   UNL d   1      -1.712  -3.221  -0.137  0.00  0.00    -0.312 N 
ATOM     11  C   UNL d   1      -1.999  -4.590   0.208  0.00  0.00     0.043 A 
ATOM     12  C   UNL d   1      -2.835  -2.461  -0.712  0.00  0.00     0.133 C 
ATOM     13  C   UNL d   1      -3.167  -5.217  -0.285  0.00  0.00    -0.031 A 
ATOM     14  C   UNL d   1      -1.170  -5.331   1.064  0.00  0.00     0.030 A 
ATOM     15  C   UNL d   1      -3.465  -6.545   0.073  0.00  0.00     0.009 A 
ATOM     16  C   UNL d   1      -4.147  -4.506  -1.180  0.00  0.00     0.042 C 
ATOM     17  C   UNL d   1      -2.619  -7.261   0.912  0.00  0.00     0.001 A 
ATOM     18  C   UNL d   1      -1.474  -6.652   1.411  0.00  0.00     0.002 A 
ATOM     19  C   UNL d   1      -3.555  -3.252  -1.786  0.00  0.00     0.025 C 
ATOM     20  O   UNL d   1       0.610  -3.320   0.122  0.00  0.00    -0.265 OA
ENDBRANCH   1   9
BRANCH   4  21
ATOM     21  C   UNL d   1      -1.533   2.047   0.164  0.00  0.00     0.074 A 
ATOM     22  C   UNL d   1      -2.696   2.003   0.949  0.00  0.00     0.033 A 
ATOM     23  C   UNL d   1      -3.456   3.156   1.134  0.00  0.00     0.002 A 
ATOM     24  C   UNL d   1      -3.072   4.349   0.524  0.00  0.00     0.000 A 
ATOM     25  C   UNL d   1      -1.923   4.395  -0.266  0.00  0.00     0.002 A 
ATOM     26  C   UNL d   1      -1.148   3.247  -0.447  0.00  0.00     0.033 A 
ENDBRANCH   4  21
TORSDOF 2
