REMARK  3 active torsions:
REMARK  status: ('A' for Active; 'I' for Inactive)
REMARK    1  A    between atoms: C_4  and  C_1 
REMARK       I    between atoms: N_8  and  C_4 
REMARK    2  A    between atoms: N_7  and  C_9 
REMARK    3  A    between atoms: C_12  and  N_8 
ROOT
ATOM      1  C   UNL d   1       4.000  -0.096  -0.458  0.00  0.00     0.264 C 
ATOM      2  N   UNL d   1       4.536  -1.306  -0.009  0.00  0.00    -0.322 N 
ATOM      3  O   UNL d   1       2.913  -0.024  -1.033  0.00  0.00    -0.267 OA
ATOM      4  H   UNL d   1       5.333  -1.242   0.608  0.00  0.00     0.169 HD
ENDROOT
BRANCH   2   5
ATOM      5  C   UNL d   1       3.892  -2.557  -0.123  0.00  0.00     0.035 C 
ATOM      6  C   UNL d   1       2.870  -2.799  -1.036  0.00  0.00     0.032 C 
ATOM      7  C   UNL d   1       2.107  -3.964  -0.959  0.00  0.00     0.031 C 
ATOM      8  C   UNL d   1       2.338  -4.927   0.028  0.00  0.00     0.030 C 
ATOM      9  C   UNL d   1       3.479  -4.751   0.824  0.00  0.00     0.031 C 
ATOM     10  C   UNL d   1       4.255  -3.582   0.750  0.00  0.00     0.032 C 
BRANCH   8  11
ATOM     11  N   UNL d   1       1.423  -5.934   0.289  0.00  0.00    -0.381 N 
ATOM     12  C   UNL d   1       0.012  -5.734  -0.058  0.00  0.00     0.123 C 
ATOM     13  C   UNL d   1      -0.856  -6.353   1.033  0.00  0.00     0.020 C 
ATOM     14  C   UNL d   1      -0.504  -7.821   1.248  0.00  0.00     0.003 C 
ATOM     15  C   UNL d   1       0.992  -7.996   1.516  0.00  0.00     0.020 C 
ATOM     16  C   UNL d   1       1.851  -7.322   0.443  0.00  0.00     0.123 C 
ENDBRANCH   8  11
ENDBRANCH   2   5
BRANCH   1  17
ATOM     17  C   UNL d   1       4.787   1.106  -0.202  0.00  0.00     0.096 A 
ATOM     18  S   UNL d   1       6.326   1.045   0.541  0.00  0.00    -0.082 SA
ATOM     19  C   UNL d   1       6.599   2.731   0.322  0.00  0.00     0.017 A 
ATOM     20  C   UNL d   1       7.754   3.459   0.671  0.00  0.00     0.020 A 
ATOM     21  C   UNL d   1       5.504   3.349  -0.283  0.00  0.00     0.004 A 
ATOM     22  C   UNL d   1       7.817   4.820   0.358  0.00  0.00     0.001 A 
ATOM     23  C   UNL d   1       6.756   5.451  -0.272  0.00  0.00     0.001 A 
ATOM     24  C   UNL d   1       5.599   4.734  -0.579  0.00  0.00     0.014 A 
ATOM     25  C   UNL d   1       4.439   2.410  -0.505  0.00  0.00     0.068 A 
ATOM     26 CL   UNL d   1       2.927   2.937  -1.147  0.00  0.00    -0.082 Cl
ENDBRANCH   1  17
TORSDOF 3
