REMARK  2 active torsions:
REMARK  status: ('A' for Active; 'I' for Inactive)
REMARK    1  A    between atoms: C_10  and  C_2 
REMARK    2  A    between atoms: C_9  and  C_6 
ROOT
ATOM      1  C   UNL d   1      -0.464  -0.386  -0.012  0.00  0.00     0.123 A 
ATOM      2  C   UNL d   1       0.285  -1.516  -0.039  0.00  0.00     0.004 A 
ATOM      3  C   UNL d   1       0.224   0.940   0.015  0.00  0.00     0.267 A 
ATOM      4  N   UNL d   1       1.596   0.919   0.049  0.00  0.00    -0.322 N 
ATOM      5  C   UNL d   1       1.742  -1.418  -0.019  0.00  0.00     0.044 A 
ATOM      6  C   UNL d   1       2.348  -0.224   0.035  0.00  0.00     0.046 A 
ATOM      7  C   UNL d   1      -1.887  -0.384  -0.003  0.00  0.00     0.106 C 
ATOM      8  N   UNL d   1      -3.048  -0.426   0.011  0.00  0.00    -0.191 NA
ATOM      9  O   UNL d   1      -0.389   2.002   0.008  0.00  0.00    -0.266 OA
ATOM     10  H   UNL d   1       2.053   1.824   0.078  0.00  0.00     0.169 HD
ENDROOT
BRANCH   2  11
ATOM     11  C   UNL d   1      -0.369  -2.839  -0.077  0.00  0.00    -0.009 A 
ATOM     12  C   UNL d   1      -0.670  -3.532   1.093  0.00  0.00     0.100 A 
ATOM     13  N   UNL d   1      -1.264  -4.747   1.122  0.00  0.00    -0.374 N 
ATOM     14  C   UNL d   1      -1.585  -5.295  -0.070  0.00  0.00     0.087 A 
ATOM     15  HN  UNL d   1      -1.459  -5.227   2.001  1.00  0.00     0.164 HD
ATOM     16  C   UNL d   1      -1.326  -4.690  -1.290  0.00  0.00     0.018 A 
ATOM     17  C   UNL d   1      -0.702  -3.445  -1.292  0.00  0.00     0.015 A 
ENDBRANCH   2  11
BRANCH   6  18
ATOM     18  C   UNL d   1       3.805  -0.091   0.082  0.00  0.00    -0.009 A 
ATOM     19  C   UNL d   1       4.544   0.024  -1.103  0.00  0.00     0.015 A 
ATOM     20  C   UNL d   1       5.933   0.169  -1.054  0.00  0.00     0.024 A 
ATOM     21  C   UNL d   1       6.584   0.201   0.179  0.00  0.00     0.034 A 
ATOM     22  C   UNL d   1       5.859   0.082   1.363  0.00  0.00     0.024 A 
ATOM     23 CL   UNL d   1       8.292   0.394   0.238  0.00  0.00    -0.084 Cl
ATOM     24  C   UNL d   1       4.470  -0.065   1.315  0.00  0.00     0.015 A 
ENDBRANCH   6  18
TORSDOF 2
