REMARK  4 active torsions:
REMARK  status: ('A' for Active; 'I' for Inactive)
REMARK    1  A    between atoms: C_2  and  C_1 
REMARK    2  A    between atoms: O_3  and  C_1 
REMARK    3  A    between atoms: C_5  and  O_3 
REMARK    4  A    between atoms: C_7  and  C_4 
ROOT
ATOM      1  C   UNL d   1      -1.671   0.892  -0.386  0.00  0.00     0.043 A 
ATOM      2  C   UNL d   1      -0.993  -0.146  -1.045  0.00  0.00     0.093 A 
ATOM      3  C   UNL d   1      -3.058   1.015  -0.541  0.00  0.00     0.018 A 
ATOM      4  C   UNL d   1      -1.680  -0.979  -1.932  0.00  0.00     0.038 A 
ATOM      5  C   UNL d   1      -3.748   0.156  -1.395  0.00  0.00     0.001 A 
ATOM      6  C   UNL d   1      -3.055  -0.818  -2.110  0.00  0.00     0.003 A 
ENDROOT
BRANCH   2   7
ATOM      7  O   UNL d   1       0.333  -0.411  -0.622  0.00  0.00    -0.274 OA
BRANCH   7   8
ATOM      8  C   UNL d   1       1.092  -1.536  -0.974  0.00  0.00     0.305 C 
ATOM      9  O   UNL d   1       1.051  -2.090  -2.062  0.00  0.00    -0.258 OA
BRANCH   8  10
ATOM     10  C   UNL d   1       1.871  -1.937   0.185  0.00  0.00     0.080 A 
ATOM     11  S   UNL d   1       2.834  -3.353   0.118  0.00  0.00    -0.096 SA
ATOM     12  C   UNL d   1       3.279  -3.213   1.764  0.00  0.00     0.050 A 
ATOM     13  C   UNL d   1       2.736  -2.096   2.354  0.00  0.00     0.009 A 
ATOM     14  C   UNL d   1       1.932  -1.353   1.439  0.00  0.00     0.025 A 
ENDBRANCH   8  10
ENDBRANCH   7   8
ENDBRANCH   2   7
BRANCH   1  15
ATOM     15  C   UNL d   1      -1.002   1.864   0.519  0.00  0.00     0.158 C 
ATOM     16  O   UNL d   1      -1.593   2.258   1.524  0.00  0.00    -0.293 OA
ATOM     17  C   UNL d   1       0.359   2.401   0.158  0.00  0.00     0.097 C 
ENDBRANCH   1  15
TORSDOF 4
