REMARK  6 active torsions:
REMARK  status: ('A' for Active; 'I' for Inactive)
REMARK    1  A    between atoms: C_4  and  C_1 
REMARK    2  A    between atoms: O_16  and  C_2 
REMARK    3  A    between atoms: O_12  and  C_4 
REMARK    4  A    between atoms: C_5  and  C_7 
REMARK    5  A    between atoms: N_19  and  C_7 
REMARK    6  A    between atoms: N_10  and  O_12 
ROOT
ATOM      1  C   UNL d   1       0.808  -5.129   0.114  0.00  0.00     0.133 C 
ATOM      2  N   UNL d   1       1.359  -3.952   0.207  0.00  0.00    -0.241 N 
ATOM      3  HN  UNL d   1       2.338  -3.793   0.444  1.00  0.00     0.196 HD
ENDROOT
BRANCH   2   4
ATOM      4  O   UNL d   1       0.428  -2.926  -0.060  0.00  0.00    -0.193 OA
BRANCH   4   5
ATOM      5  C   UNL d   1       1.023  -1.684   0.025  0.00  0.00     0.325 C 
ATOM      6  O   UNL d   1       2.207  -1.485   0.287  0.00  0.00    -0.257 OA
BRANCH   5   7
ATOM      7  C   UNL d   1       0.041  -0.639  -0.247  0.00  0.00     0.116 A 
ATOM      8  C   UNL d   1       0.274   0.670  -0.651  0.00  0.00     0.109 A 
ATOM      9  C   UNL d   1      -0.950   1.390  -0.820  0.00  0.00     0.052 A 
ATOM     10 BR   UNL d   1      -1.136   3.160  -1.467  0.00  0.00    -0.048 Br
ATOM     11  C   UNL d   1      -2.059   0.640  -0.508  0.00  0.00     0.072 A 
ATOM     12  S   UNL d   1      -1.641  -0.940  -0.034  0.00  0.00    -0.092 SA
BRANCH   8  13
ATOM     13  O   UNL d   1       1.548   1.048  -0.935  0.00  0.00    -0.353 OA
ATOM     14  C   UNL d   1       1.911   2.358  -0.527  0.00  0.00     0.210 C 
ENDBRANCH   8  13
ENDBRANCH   5   7
ENDBRANCH   4   5
ENDBRANCH   2   4
BRANCH   1  15
ATOM     15  C   UNL d   1       1.677  -6.320   0.375  0.00  0.00     0.048 A 
ATOM     16  C   UNL d   1       1.129  -7.571   0.685  0.00  0.00     0.133 A 
ATOM     17  C   UNL d   1       1.944  -8.671   0.937  0.00  0.00     0.085 A 
ATOM     18  F   UNL d   1      -0.200  -7.739   0.768  0.00  0.00    -0.205 F 
ATOM     19  C   UNL d   1       3.323  -8.518   0.874  0.00  0.00     0.119 A 
ATOM     20  C   UNL d   1       3.896  -7.289   0.568  0.00  0.00     0.043 A 
ATOM     21  F   UNL d   1       4.113  -9.572   1.115  0.00  0.00    -0.206 F 
ATOM     22  C   UNL d   1       3.074  -6.186   0.321  0.00  0.00     0.021 A 
ENDBRANCH   1  15
BRANCH   1  23
ATOM     23  N   UNL d   1      -0.515  -5.314  -0.212  0.00  0.00    -0.383 N 
ATOM     24  H   UNL d   1      -0.960  -6.168   0.111  0.00  0.00     0.157 HD
ATOM     25  H   UNL d   1      -1.091  -4.487  -0.102  0.00  0.00     0.157 HD
ENDBRANCH   1  23
TORSDOF 6
