REMARK  4 active torsions:
REMARK  status: ('A' for Active; 'I' for Inactive)
REMARK    1  A    between atoms: C_2  and  C_1 
REMARK       I    between atoms: N_4  and  C_2 
REMARK    2  A    between atoms: C_6  and  C_3 
REMARK    3  A    between atoms: C_5  and  N_4 
REMARK    4  A    between atoms: O_12  and  C_6 
ROOT
ATOM      1  C   UNL d   1      -1.217   1.696   0.371  0.00  0.00     0.064 A 
ATOM      2  C   UNL d   1      -0.771   1.370   1.666  0.00  0.00     0.051 A 
ATOM      3  C   UNL d   1      -1.634   3.000   0.067  0.00  0.00     0.020 A 
ATOM      4  C   UNL d   1      -0.766   2.376   2.643  0.00  0.00     0.030 A 
ATOM      5  C   UNL d   1      -1.618   3.988   1.050  0.00  0.00     0.001 A 
ATOM      6  C   UNL d   1      -1.189   3.670   2.338  0.00  0.00     0.002 A 
ENDROOT
BRANCH   2   7
ATOM      7  N   UNL d   1      -0.281   0.074   1.964  0.00  0.00    -0.319 N 
ATOM      8  C   UNL d   1      -0.391  -0.546   3.213  0.00  0.00     0.330 C 
ATOM      9  O   UNL d   1      -1.106  -0.109   4.117  0.00  0.00    -0.263 OA
ATOM     10  H   UNL d   1       0.061  -0.496   1.189  0.00  0.00     0.169 HD
BRANCH   8  11
ATOM     11  C   UNL d   1       0.370  -1.880   3.324  0.00  0.00     0.472 C 
ATOM     12  F   UNL d   1       1.321  -2.004   2.355  0.00  0.00    -0.162 F 
ATOM     13  F   UNL d   1      -0.460  -2.949   3.177  0.00  0.00    -0.162 F 
ATOM     14  F   UNL d   1       1.004  -2.029   4.516  0.00  0.00    -0.162 F 
ENDBRANCH   8  11
ENDBRANCH   2   7
BRANCH   1  15
ATOM     15  C   UNL d   1      -1.343   0.689  -0.709  0.00  0.00     0.178 C 
ATOM     16  O   UNL d   1      -1.097   0.921  -1.879  0.00  0.00    -0.646 OA
BRANCH  15  17
ATOM     17  O   UNL d   1      -1.782  -0.509  -0.262  0.00  0.00    -0.773 OA
ATOM     18  H   UNL d   1      -2.173  -0.472   0.635  0.00  0.00     0.167 HD
ENDBRANCH  15  17
ENDBRANCH   1  15
TORSDOF 4
