REMARK  12 active torsions:
REMARK  status: ('A' for Active; 'I' for Inactive)
REMARK    1  A    between atoms: C_3  and  C_1 
REMARK    2  A    between atoms: C_2  and  C_4 
REMARK    3  A    between atoms: O_28  and  C_5 
REMARK    4  A    between atoms: C_6  and  N_11 
REMARK    5  A    between atoms: N_13  and  C_6 
REMARK    6  A    between atoms: O_30  and  C_7 
REMARK    7  A    between atoms: O_31  and  C_8 
REMARK    8  A    between atoms: N_11  and  C_10 
REMARK       I    between atoms: C_12  and  N_17 
REMARK    9  A    between atoms: C_29  and  C_12 
REMARK   10  A    between atoms: N_17  and  N_13 
REMARK   11  A    between atoms: C_20  and  C_32 
REMARK   12  A    between atoms: C_32  and  C_29 
ROOT
ATOM      1  N   UNL d   1      -1.230   4.159   0.149  0.00  0.00    -0.274 N 
ATOM      2  H   UNL d   1      -1.709   3.699  -0.621  0.00  0.00     0.189 HD
ENDROOT
BRANCH   1   3
ATOM      3  C   UNL d   1      -0.019   3.618   0.486  0.00  0.00     0.191 C 
ATOM      4  S   UNL d   1       1.291   4.492   1.064  0.00  0.00    -0.039 SA
BRANCH   3   5
ATOM      5  N   UNL d   1       0.152   2.277   0.267  0.00  0.00    -0.332 N 
ATOM      6  H   UNL d   1       1.133   2.013   0.278  0.00  0.00     0.168 HD
BRANCH   5   7
ATOM      7  C   UNL d   1      -0.763   1.245  -0.028  0.00  0.00     0.035 A 
ATOM      8  C   UNL d   1      -2.126   1.266   0.288  0.00  0.00     0.045 A 
ATOM      9  C   UNL d   1      -2.970   0.196  -0.079  0.00  0.00     0.050 A 
ATOM     10  C   UNL d   1      -2.431  -0.881  -0.797  0.00  0.00     0.032 A 
ATOM     11  C   UNL d   1      -1.073  -0.909  -1.134  0.00  0.00     0.050 A 
ATOM     12  C   UNL d   1      -0.238   0.125  -0.681  0.00  0.00     0.045 A 
BRANCH   9  13
ATOM     13  C   UNL d   1      -4.446   0.219   0.260  0.00  0.00     0.417 C 
ATOM     14  F   UNL d   1      -5.117  -0.880  -0.183  0.00  0.00    -0.166 F 
ATOM     15  F   UNL d   1      -5.077   1.291  -0.292  0.00  0.00    -0.166 F 
ATOM     16  F   UNL d   1      -4.677   0.287   1.598  0.00  0.00    -0.166 F 
ENDBRANCH   9  13
BRANCH  11  17
ATOM     17  C   UNL d   1      -0.515  -1.987  -2.033  0.00  0.00     0.417 C 
ATOM     18  F   UNL d   1      -1.482  -2.685  -2.691  0.00  0.00    -0.166 F 
ATOM     19  F   UNL d   1       0.290  -1.470  -3.003  0.00  0.00    -0.166 F 
ATOM     20  F   UNL d   1       0.233  -2.902  -1.366  0.00  0.00    -0.166 F 
ENDBRANCH  11  17
ENDBRANCH   5   7
ENDBRANCH   3   5
ENDBRANCH   1   3
BRANCH   1  21
ATOM     21  N   UNL d   1      -1.486   5.539   0.272  0.00  0.00    -0.268 N 
ATOM     22  C   UNL d   1      -2.769   6.032   0.471  0.00  0.00     0.236 C 
ATOM     23  O   UNL d   1      -2.973   7.221   0.636  0.00  0.00    -0.272 OA
ATOM     24  H   UNL d   1      -0.694   6.174   0.351  0.00  0.00     0.190 HD
BRANCH  22  25
ATOM     25  C   UNL d   1      -3.848   4.959   0.438  0.00  0.00     0.109 C 
BRANCH  25  26
ATOM     26  C   UNL d   1      -5.269   5.444   0.680  0.00  0.00     0.048 C 
BRANCH  26  27
ATOM     27  C   UNL d   1      -5.686   5.725   2.104  0.00  0.00    -0.052 A 
ATOM     28  C   UNL d   1      -4.806   5.824   3.181  0.00  0.00     0.047 A 
ATOM     29  C   UNL d   1      -5.269   6.063   4.490  0.00  0.00     0.104 A 
ATOM     30  C   UNL d   1      -6.652   6.223   4.741  0.00  0.00     0.135 A 
ATOM     31  C   UNL d   1      -7.546   6.096   3.656  0.00  0.00     0.104 A 
ATOM     32  C   UNL d   1      -7.048   5.867   2.365  0.00  0.00     0.047 A 
BRANCH  29  33
ATOM     33  O   UNL d   1      -4.387   6.027   5.548  0.00  0.00    -0.353 OA
ATOM     34  C   UNL d   1      -3.078   6.534   5.286  0.00  0.00     0.210 C 
ENDBRANCH  29  33
BRANCH  30  35
ATOM     35  O   UNL d   1      -7.222   6.457   5.962  0.00  0.00    -0.351 OA
ATOM     36  C   UNL d   1      -6.453   6.922   7.060  0.00  0.00     0.210 C 
ENDBRANCH  30  35
BRANCH  31  37
ATOM     37  O   UNL d   1      -8.916   6.108   3.643  0.00  0.00    -0.353 OA
ATOM     38  C   UNL d   1      -9.650   6.589   4.754  0.00  0.00     0.210 C 
ENDBRANCH  31  37
ENDBRANCH  26  27
ENDBRANCH  25  26
ENDBRANCH  22  25
ENDBRANCH   1  21
TORSDOF 12
