REMARK  5 active torsions:
REMARK  status: ('A' for Active; 'I' for Inactive)
REMARK    1  A    between atoms: N_2  and  C_1 
REMARK    2  A    between atoms: O_9  and  C_5 
REMARK    3  A    between atoms: C_8  and  C_13 
REMARK    4  A    between atoms: O_14  and  C_8 
REMARK    5  A    between atoms: C_13  and  O_9 
ROOT
ATOM      1  C   UNL d   1      -1.010   1.210  -0.006  0.00  0.00     0.207 A 
ATOM      2  N   UNL d   1       0.359   1.155   0.004  0.00  0.00    -0.339 N 
ATOM      3  HN  UNL d   1       0.920   2.007   0.016  1.00  0.00     0.167 HD
ATOM      4  C   UNL d   1      -1.831   0.072  -0.024  0.00  0.00     0.119 A 
ATOM      5  C   UNL d   1       0.942  -0.063  -0.004  0.00  0.00     0.007 A 
ATOM      6  C   UNL d   1      -1.191  -1.170  -0.017  0.00  0.00     0.043 A 
ATOM      7  C   UNL d   1       0.203  -1.238  -0.013  0.00  0.00     0.027 A 
ATOM      8  C   UNL d   1       2.441  -0.113   0.002  0.00  0.00     0.068 C 
ENDROOT
BRANCH   4   9
ATOM      9  O   UNL d   1      -3.194   0.212   0.040  0.00  0.00    -0.337 OA
BRANCH   9  10
ATOM     10  C   UNL d   1      -3.976  -0.810  -0.587  0.00  0.00     0.285 C 
BRANCH  10  11
ATOM     11  C   UNL d   1      -4.401  -1.878   0.407  0.00  0.00     0.164 C 
ATOM     12  O   UNL d   1      -4.646  -3.036   0.105  0.00  0.00    -0.648 OA
BRANCH  11  13
ATOM     13  O   UNL d   1      -4.492  -1.417   1.678  0.00  0.00    -0.775 OA
ATOM     14  H   UNL d   1      -4.246  -0.470   1.736  0.00  0.00     0.167 HD
ENDBRANCH  11  13
ENDBRANCH  10  11
ENDBRANCH   9  10
ENDBRANCH   4   9
BRANCH   1  15
ATOM     15  N   UNL d   1      -1.692   2.514   0.010  0.00  0.00    -0.095 N 
ATOM     16  O   UNL d   1      -2.438   2.784  -0.946  0.00  0.00    -0.530 OA
ATOM     17  O   UNL d   1      -1.468   3.256   0.978  0.00  0.00    -0.530 OA
ENDBRANCH   1  15
TORSDOF 5
