REMARK  6 active torsions:
REMARK  status: ('A' for Active; 'I' for Inactive)
REMARK    1  A    between atoms: C_4  and  C_1 
REMARK       I    between atoms: N_7  and  C_1 
REMARK    2  A    between atoms: O_15  and  C_3 
REMARK    3  A    between atoms: C_5  and  C_6 
REMARK    4  A    between atoms: O_14  and  C_5 
REMARK    5  A    between atoms: C_8  and  N_7 
REMARK    6  A    between atoms: O_16  and  C_9 
ROOT
ATOM      1  C   UNL d   1      -1.827   0.267  -0.892  0.00  0.00     0.069 A 
ATOM      2  C   UNL d   1      -3.223   0.214  -0.981  0.00  0.00     0.103 A 
ATOM      3  C   UNL d   1      -1.064  -0.897  -0.756  0.00  0.00     0.037 A 
ATOM      4  C   UNL d   1      -3.867  -1.031  -0.905  0.00  0.00     0.101 A 
ATOM      5  C   UNL d   1      -3.106  -2.202  -0.835  0.00  0.00     0.042 A 
ATOM      6  C   UNL d   1      -1.711  -2.135  -0.770  0.00  0.00     0.032 A 
ENDROOT
BRANCH   3   7
ATOM      7  N   UNL d   1       0.342  -0.884  -0.609  0.00  0.00    -0.324 N 
ATOM      8  C   UNL d   1       1.110   0.221  -0.303  0.00  0.00     0.245 C 
ATOM      9  O   UNL d   1       0.713   1.354  -0.058  0.00  0.00    -0.268 OA
ATOM     10  H   UNL d   1       0.801  -1.785  -0.649  0.00  0.00     0.169 HD
BRANCH   8  11
ATOM     11  C   UNL d   1       2.561  -0.083  -0.250  0.00  0.00     0.081 C 
ATOM     12  C   UNL d   1       3.402   0.914   0.065  0.00  0.00     0.086 C 
BRANCH  12  13
ATOM     13  C   UNL d   1       4.844   0.644   0.106  0.00  0.00     0.165 C 
ATOM     14  O   UNL d   1       5.346  -0.446  -0.103  0.00  0.00    -0.647 OA
BRANCH  13  15
ATOM     15  O   UNL d   1       5.560   1.748   0.398  0.00  0.00    -0.773 OA
ATOM     16  H   UNL d   1       5.045   2.562   0.539  0.00  0.00     0.167 HD
ENDBRANCH  13  15
ENDBRANCH  12  13
ENDBRANCH   8  11
ENDBRANCH   3   7
BRANCH   2  17
ATOM     17  O   UNL d   1      -4.029   1.318  -1.124  0.00  0.00    -0.353 OA
ATOM     18  C   UNL d   1      -3.384   2.579  -1.261  0.00  0.00     0.210 C 
ENDBRANCH   2  17
BRANCH   4  19
ATOM     19  O   UNL d   1      -5.239  -1.037  -0.955  0.00  0.00    -0.353 OA
ATOM     20  C   UNL d   1      -5.862  -2.024  -0.140  0.00  0.00     0.210 C 
ENDBRANCH   4  19
TORSDOF 6
