REMARK  4 active torsions:
REMARK  status: ('A' for Active; 'I' for Inactive)
REMARK    1  A    between atoms: O_15  and  C_11 
REMARK    2  A    between atoms: C_12  and  O_15 
REMARK    3  A    between atoms: O_24  and  C_12 
REMARK    4  A    between atoms: C_26  and  O_24 
ROOT
ATOM      1  C   UNL d   1      -0.700  -1.638  -0.915  0.00  0.00    -0.013 C 
ATOM      2  C   UNL d   1       1.301   1.409   1.681  0.00  0.00    -0.013 C 
ATOM      3  C   UNL d   1      -2.180  -1.304  -1.145  0.00  0.00    -0.067 C 
ATOM      4  C   UNL d   1      -0.081  -0.571   0.050  0.00  0.00     0.003 C 
ATOM      5  C   UNL d   1       0.266   1.969   0.653  0.00  0.00     0.001 C 
ATOM      6  C   UNL d   1      -0.436   0.910  -0.268  0.00  0.00    -0.004 C 
ATOM      7  C   UNL d   1      -3.169  -2.214  -1.057  0.00  0.00     0.059 C 
ATOM      8  C   UNL d   1      -0.563  -3.036  -0.222  0.00  0.00     0.055 C 
ATOM      9  C   UNL d   1      -1.503  -4.072  -0.749  0.00  0.00    -0.016 C 
ATOM     10  C   UNL d   1      -2.928  -3.657  -0.837  0.00  0.00     0.177 C 
ATOM     11  C   UNL d   1       0.437   1.396   2.990  0.00  0.00     0.142 C 
ATOM     12  C   UNL d   1       1.913   0.017   1.436  0.00  0.00     0.012 C 
ATOM     13  C   UNL d   1       1.434  -0.693   0.189  0.00  0.00     0.007 C 
ATOM     14  C   UNL d   1      -1.950   1.085  -0.432  0.00  0.00     0.010 C 
ATOM     15  C   UNL d   1      -0.614   2.944   1.519  0.00  0.00     0.008 C 
ATOM     16  C   UNL d   1      -2.499   0.130  -1.483  0.00  0.00     0.035 C 
ATOM     17  C   UNL d   1      -0.159   2.789   2.989  0.00  0.00     0.034 C 
ATOM     18  O   UNL d   1      -3.863  -4.444  -0.748  0.00  0.00    -0.288 OA
ATOM     19  C   UNL d   1      -1.159  -5.319  -1.097  0.00  0.00     0.023 C 
ATOM     20  C   UNL d   1       0.032  -1.679  -2.272  0.00  0.00     0.021 C 
ATOM     21  C   UNL d   1       2.487   2.413   1.687  0.00  0.00     0.018 C 
ENDROOT
BRANCH  11  22
ATOM     22  O   UNL d   1      -0.727   0.562   2.751  0.00  0.00    -0.292 OA
BRANCH  22  23
ATOM     23  C   UNL d   1      -1.334  -0.301   3.569  0.00  0.00     0.406 C 
ATOM     24  O   UNL d   1      -0.913  -0.715   4.641  0.00  0.00    -0.229 OA
BRANCH  23  25
ATOM     25  O   UNL d   1      -2.486  -0.617   2.942  0.00  0.00    -0.298 OA
BRANCH  25  26
ATOM     26  C   UNL d   1      -3.438  -1.631   3.308  0.00  0.00     0.176 C 
ATOM     27  C   UNL d   1      -3.470  -2.087   4.746  0.00  0.00     0.034 C 
ENDBRANCH  25  26
ENDBRANCH  23  25
ENDBRANCH  22  23
ENDBRANCH  11  22
TORSDOF 4
