REMARK  4 active torsions:
REMARK  status: ('A' for Active; 'I' for Inactive)
REMARK    1  A    between atoms: N_7  and  C_1 
REMARK    2  A    between atoms: O_12  and  C_2 
REMARK    3  A    between atoms: C_13  and  N_9 
REMARK    4  A    between atoms: C_14  and  C_11 
ROOT
ATOM      1  N   UNL d   1       0.446  -2.857  -0.944  0.00  0.00    -0.294 N 
ATOM      2  HN  UNL d   1       0.329  -3.299  -1.856  1.00  0.00     0.187 HD
ATOM      3  N   UNL d   1       0.402  -3.482   0.137  0.00  0.00    -0.300 N 
ATOM      4  HN  UNL d   1       0.451  -3.032   1.051  1.00  0.00     0.187 HD
ENDROOT
BRANCH   3   5
ATOM      5  C   UNL d   1       0.277  -4.871  -0.040  0.00  0.00     0.048 A 
ATOM      6  C   UNL d   1       1.075  -5.707   0.743  0.00  0.00     0.032 A 
ATOM      7  C   UNL d   1       0.946  -7.100   0.676  0.00  0.00     0.014 A 
ATOM      8  C   UNL d   1      -0.004  -7.712  -0.162  0.00  0.00    -0.026 A 
ATOM      9  C   UNL d   1      -0.798  -6.858  -0.949  0.00  0.00     0.014 A 
ATOM     10  C   UNL d   1      -0.660  -5.461  -0.892  0.00  0.00     0.032 A 
BRANCH   8  11
ATOM     11  C   UNL d   1      -0.167  -9.187  -0.194  0.00  0.00    -0.026 A 
ATOM     12  C   UNL d   1      -0.534  -9.867  -1.370  0.00  0.00     0.012 A 
ATOM     13  C   UNL d   1      -0.692 -11.257  -1.395  0.00  0.00     0.001 A 
ATOM     14  C   UNL d   1      -0.476 -12.006  -0.242  0.00  0.00     0.000 A 
ATOM     15  C   UNL d   1      -0.110 -11.364   0.935  0.00  0.00     0.001 A 
ATOM     16  C   UNL d   1       0.035  -9.973   0.958  0.00  0.00     0.012 A 
ENDBRANCH   8  11
ENDBRANCH   3   5
BRANCH   1  17
ATOM     17  C   UNL d   1       0.675  -1.483  -0.769  0.00  0.00     0.124 A 
ATOM     18  C   UNL d   1       0.598  -0.731   0.384  0.00  0.00     0.187 A 
ATOM     19  N   UNL d   1       0.974   0.533   0.011  0.00  0.00    -0.274 N 
ATOM     20  C   UNL d   1       1.140   1.680   0.868  0.00  0.00     0.180 C 
ATOM     21  N   UNL d   1       1.236   0.655  -1.311  0.00  0.00    -0.299 N 
ATOM     22  C   UNL d   1       1.052  -0.585  -1.792  0.00  0.00     0.054 A 
ATOM     23  HN  UNL d   1       1.509   1.493  -1.823  1.00  0.00     0.187 HD
ATOM     24  C   UNL d   1       1.258  -0.870  -3.231  0.00  0.00     0.072 C 
BRANCH  18  25
ATOM     25  O   UNL d   1       0.270  -1.039   1.636  0.00  0.00    -0.343 OA
ATOM     26  H   UNL d   1       0.046  -1.992   1.618  0.00  0.00     0.219 HD
ENDBRANCH  18  25
ENDBRANCH   1  17
TORSDOF 4
