REMARK  3 active torsions:
REMARK  status: ('A' for Active; 'I' for Inactive)
REMARK    1  A    between atoms: C_6  and  C_1 
REMARK    2  A    between atoms: C_7  and  C_2 
REMARK    3  A    between atoms: C_9  and  C_4 
REMARK       I    between atoms: N_8  and  C_7 
ROOT
ATOM      1  C   UNL d   1       0.148   1.303   0.001  0.00  0.00     0.100 A 
ATOM      2  C   UNL d   1       0.066  -1.194  -0.118  0.00  0.00     0.074 A 
ATOM      3  S   UNL d   1      -1.051   0.065   0.117  0.00  0.00    -0.079 SA
ATOM      4  C   UNL d   1       1.425   0.756  -0.079  0.00  0.00    -0.003 A 
ATOM      5  C   UNL d   1       1.349  -0.678  -0.154  0.00  0.00     0.038 A 
ENDROOT
BRANCH   4   6
ATOM      6  C   UNL d   1       2.683   1.518  -0.024  0.00  0.00    -0.025 A 
ATOM      7  C   UNL d   1       3.761   1.005   0.720  0.00  0.00     0.012 A 
ATOM      8  C   UNL d   1       4.981   1.686   0.793  0.00  0.00     0.001 A 
ATOM      9  C   UNL d   1       5.139   2.901   0.136  0.00  0.00     0.000 A 
ATOM     10  C   UNL d   1       4.086   3.421  -0.612  0.00  0.00     0.001 A 
ATOM     11  C   UNL d   1       2.874   2.725  -0.707  0.00  0.00     0.012 A 
ENDBRANCH   4   6
BRANCH   1  12
ATOM     12  C   UNL d   1      -0.307   2.731   0.055  0.00  0.00     0.424 C 
ATOM     13  F   UNL d   1      -1.638   2.865   0.304  0.00  0.00    -0.166 F 
ATOM     14  F   UNL d   1       0.333   3.444   1.015  0.00  0.00    -0.166 F 
ATOM     15  F   UNL d   1      -0.090   3.371  -1.127  0.00  0.00    -0.166 F 
ENDBRANCH   1  12
BRANCH   2  16
ATOM     16  C   UNL d   1      -0.248  -2.624  -0.078  0.00  0.00     0.260 C 
ATOM     17  N   UNL d   1      -1.431  -3.164  -0.603  0.00  0.00    -0.356 N 
ATOM     18  C   UNL d   1      -1.645  -4.599  -0.467  0.00  0.00     0.152 C 
ATOM     19  C   UNL d   1      -2.438  -2.484  -1.407  0.00  0.00     0.152 C 
ATOM     20  O   UNL d   1       0.593  -3.392   0.410  0.00  0.00    -0.267 OA
ENDBRANCH   2  16
TORSDOF 3
