REMARK  6 active torsions:
REMARK  status: ('A' for Active; 'I' for Inactive)
REMARK    1  A    between atoms: N_4  and  C_1 
REMARK    2  A    between atoms: S_6  and  C_1 
REMARK    3  A    between atoms: C_3  and  C_7 
REMARK    4  A    between atoms: O_8  and  C_3 
REMARK    5  A    between atoms: C_7  and  N_4 
REMARK    6  A    between atoms: C_10  and  O_8 
ROOT
ATOM      1  N   UNL d   1       0.182  -1.073   0.427  0.00  0.00    -0.366 N 
ATOM      2  H   UNL d   1       0.784  -1.800   0.795  0.00  0.00     0.161 HD
ENDROOT
BRANCH   1   3
ATOM      3  C   UNL d   1       0.814   0.045  -0.053  0.00  0.00     0.134 C 
ATOM      4  S   UNL d   1       0.056   1.411  -0.642  0.00  0.00    -0.053 SA
BRANCH   3   5
ATOM      5  S   UNL d   1       2.541  -0.187   0.129  0.00  0.00    -0.105 SA
ATOM      6  C   UNL d   1       3.201   0.701  -1.298  0.00  0.00     0.098 C 
ENDBRANCH   3   5
ENDBRANCH   1   3
BRANCH   1   7
ATOM      7  C   UNL d   1      -1.255  -1.217   0.575  0.00  0.00     0.232 C 
BRANCH   7   8
ATOM      8  C   UNL d   1      -1.685  -2.523   1.226  0.00  0.00     0.276 C 
ATOM      9  O   UNL d   1      -1.733  -3.604   0.661  0.00  0.00    -0.263 OA
BRANCH   8  10
ATOM     10  O   UNL d   1      -1.988  -2.290   2.534  0.00  0.00    -0.321 OA
BRANCH  10  11
ATOM     11  C   UNL d   1      -2.811  -3.272   3.174  0.00  0.00     0.174 C 
ATOM     12  C   UNL d   1      -4.245  -2.792   3.045  0.00  0.00     0.034 C 
ENDBRANCH  10  11
ENDBRANCH   8  10
ENDBRANCH   7   8
ENDBRANCH   1   7
TORSDOF 6
