REMARK  3 active torsions:
REMARK  status: ('A' for Active; 'I' for Inactive)
REMARK    1  A    between atoms: N_15  and  N_4 
REMARK    2  A    between atoms: C_21  and  C_20 
REMARK    3  A    between atoms: O_28  and  C_22 
ROOT
ATOM      1  C   UNL d   1       1.236   0.942   0.034  0.00  0.00     0.107 A 
ATOM      2  C   UNL d   1       0.795  -0.342   0.015  0.00  0.00     0.086 A 
ATOM      3  C   UNL d   1       2.625   1.272   0.066  0.00  0.00     0.302 A 
ATOM      4  N   UNL d   1       3.445   0.122   0.079  0.00  0.00    -0.141 N 
ATOM      5  C   UNL d   1      -0.634  -0.465   0.002  0.00  0.00     0.033 A 
ATOM      6  S   UNL d   1      -0.022   2.067   0.022  0.00  0.00    -0.064 SA
ATOM      7  N   UNL d   1       1.708  -1.403   0.016  0.00  0.00    -0.282 N 
ATOM      8  HN  UNL d   1       1.372  -2.366  -0.009  1.00  0.00     0.188 HD
ATOM      9  N   UNL d   1       2.946  -1.168   0.048  0.00  0.00    -0.218 N 
ATOM     10  HN  UNL d   1       3.598  -1.951   0.051  1.00  0.00     0.210 HD
ATOM     11  C   UNL d   1      -1.190   0.818   0.004  0.00  0.00     0.088 A 
ATOM     12  N   UNL d   1      -2.498   1.140  -0.003  0.00  0.00    -0.354 N 
ATOM     13  HN  UNL d   1      -2.826   2.106  -0.004  1.00  0.00     0.166 HD
ATOM     14  C   UNL d   1      -1.549  -1.552  -0.008  0.00  0.00    -0.045 A 
ATOM     15  O   UNL d   1       3.051   2.426   0.085  0.00  0.00    -0.263 OA
ATOM     16  C   UNL d   1      -2.920  -1.233  -0.013  0.00  0.00     0.032 A 
ATOM     17  C   UNL d   1      -3.340   0.092  -0.009  0.00  0.00     0.006 A 
ATOM     18  C   UNL d   1      -1.174  -3.009  -0.008  0.00  0.00     0.049 C 
ATOM     19  C   UNL d   1      -4.810   0.402  -0.010  0.00  0.00     0.068 C 
ENDROOT
BRANCH   4  20
ATOM     20  N   UNL d   1       4.805   0.347   0.115  0.00  0.00    -0.286 N 
ATOM     21  C   UNL d   1       5.626  -0.652   0.128  0.00  0.00     0.120 C 
ATOM     22  HN  UNL d   1       5.163   1.302   0.133  1.00  0.00     0.188 HD
BRANCH  21  23
ATOM     23  C   UNL d   1       7.091  -0.419   0.153  0.00  0.00    -0.019 A 
ATOM     24  C   UNL d   1       7.609   0.881   0.187  0.00  0.00     0.015 A 
ATOM     25  C   UNL d   1       8.993   1.092   0.182  0.00  0.00     0.037 A 
ATOM     26  C   UNL d   1       9.864   0.003   0.143  0.00  0.00     0.068 A 
ATOM     27  C   UNL d   1       9.343  -1.294   0.138  0.00  0.00     0.037 A 
ATOM     28  C   UNL d   1       7.960  -1.511   0.135  0.00  0.00     0.015 A 
BRANCH  26  29
ATOM     29  O   UNL d   1      11.230   0.083   0.161  0.00  0.00    -0.356 OA
ATOM     30  C   UNL d   1      11.794   1.246  -0.438  0.00  0.00     0.210 C 
ENDBRANCH  26  29
ENDBRANCH  21  23
ENDBRANCH   4  20
TORSDOF 3
