REMARK  5 active torsions:
REMARK  status: ('A' for Active; 'I' for Inactive)
REMARK    1  A    between atoms: N_2  and  C_1 
REMARK    2  A    between atoms: C_6  and  N_2 
REMARK    3  A    between atoms: C_14  and  N_8 
REMARK    4  A    between atoms: O_12  and  C_15 
REMARK    5  A    between atoms: C_15  and  C_14 
ROOT
ATOM      1  N   UNL d   1       0.431   1.306  -0.103  0.00  0.00    -0.333 N 
ATOM      2  H   UNL d   1      -0.532   1.195   0.217  0.00  0.00     0.168 HD
ENDROOT
BRANCH   1   3
ATOM      3  C   UNL d   1       1.056   0.112  -0.368  0.00  0.00     0.172 C 
ATOM      4  S   UNL d   1       2.633  -0.315  -0.009  0.00  0.00    -0.041 SA
ATOM      5  N   UNL d   1       0.275  -0.840  -0.958  0.00  0.00    -0.365 N 
ATOM      6  H   UNL d   1       0.760  -1.713  -1.130  0.00  0.00     0.161 HD
BRANCH   5   7
ATOM      7  C   UNL d   1      -0.996  -0.627  -1.639  0.00  0.00     0.148 C 
BRANCH   7   8
ATOM      8  C   UNL d   1      -2.198  -0.738  -0.702  0.00  0.00     0.183 C 
BRANCH   8   9
ATOM      9  O   UNL d   1      -2.243   0.373   0.195  0.00  0.00    -0.399 OA
ATOM     10  H   UNL d   1      -3.042   0.248   0.739  0.00  0.00     0.209 HD
ENDBRANCH   8   9
ENDBRANCH   7   8
ENDBRANCH   5   7
ENDBRANCH   1   3
BRANCH   1  11
ATOM     11  C   UNL d   1       1.032   2.565   0.090  0.00  0.00     0.035 A 
ATOM     12  C   UNL d   1       2.130   2.975  -0.678  0.00  0.00     0.039 A 
ATOM     13  C   UNL d   1       2.687   4.252  -0.515  0.00  0.00    -0.021 A 
ATOM     14  C   UNL d   1       3.840   4.703  -1.356  0.00  0.00     0.051 C 
ATOM     15  C   UNL d   1       2.140   5.097   0.449  0.00  0.00     0.122 A 
ATOM     16  C   UNL d   1       1.035   4.712   1.204  0.00  0.00     0.045 A 
ATOM     17  F   UNL d   1       2.668   6.313   0.647  0.00  0.00    -0.206 F 
ATOM     18  C   UNL d   1       0.462   3.453   1.005  0.00  0.00     0.032 A 
ENDBRANCH   1  11
TORSDOF 5
