REMARK  2 active torsions:
REMARK  status: ('A' for Active; 'I' for Inactive)
REMARK    1  A    between atoms: C_7  and  N_1 
REMARK    2  A    between atoms: O_19  and  C_15 
ROOT
ATOM      1  N   UNL d   1       2.460  -0.577  -0.034  0.00  0.00    -0.254 N 
ATOM      2  C   UNL d   1       2.420   0.826  -0.009  0.00  0.00     0.186 A 
ATOM      3  C   UNL d   1       1.305  -1.387  -0.009  0.00  0.00     0.267 A 
ATOM      4  C   UNL d   1       0.002  -0.696   0.021  0.00  0.00     0.060 A 
ATOM      5  N   UNL d   1       1.174   1.402   0.037  0.00  0.00    -0.332 N 
ATOM      6  C   UNL d   1      -0.021   0.690   0.028  0.00  0.00     0.050 A 
ATOM      7  S   UNL d   1       3.705   1.907  -0.100  0.00  0.00    -0.040 SA
ATOM      8  O   UNL d   1       1.298  -2.616   0.013  0.00  0.00    -0.267 OA
ATOM      9  C   UNL d   1      -1.199  -1.419   0.033  0.00  0.00     0.026 A 
ATOM     10  C   UNL d   1      -1.236   1.373   0.014  0.00  0.00     0.031 A 
ATOM     11  C   UNL d   1      -2.427  -0.746   0.029  0.00  0.00    -0.061 A 
ATOM     12  C   UNL d   1      -2.435   0.655   0.005  0.00  0.00     0.009 A 
ATOM     13  C   UNL d   1      -3.722  -1.504   0.015  0.00  0.00     0.048 C 
ATOM     14  H   UNL d   1       1.152   2.417   0.030  0.00  0.00     0.168 HD
ENDROOT
BRANCH   1  15
ATOM     15  C   UNL d   1       3.708  -1.280  -0.093  0.00  0.00     0.045 A 
ATOM     16  C   UNL d   1       3.971  -2.139  -1.166  0.00  0.00     0.033 A 
ATOM     17  C   UNL d   1       5.152  -2.884  -1.200  0.00  0.00     0.039 A 
ATOM     18  C   UNL d   1       6.074  -2.801  -0.156  0.00  0.00     0.068 A 
ATOM     19  C   UNL d   1       5.824  -1.934   0.909  0.00  0.00     0.039 A 
ATOM     20  C   UNL d   1       4.646  -1.176   0.941  0.00  0.00     0.033 A 
BRANCH  18  21
ATOM     21  O   UNL d   1       7.160  -3.622  -0.289  0.00  0.00    -0.356 OA
ATOM     22  C   UNL d   1       8.083  -3.648   0.792  0.00  0.00     0.210 C 
ENDBRANCH  18  21
ENDBRANCH   1  15
TORSDOF 2
