REMARK  8 active torsions:
REMARK  status: ('A' for Active; 'I' for Inactive)
REMARK    1  A    between atoms: C_8  and  C_3 
REMARK    2  A    between atoms: N_9  and  C_16 
REMARK    3  A    between atoms: C_10  and  N_9 
REMARK    4  A    between atoms: O_13  and  C_15 
REMARK    5  A    between atoms: C_17  and  O_13 
REMARK    6  A    between atoms: C_14  and  C_17 
REMARK    7  A    between atoms: C_16  and  C_14 
REMARK    8  A    between atoms: O_20  and  C_14 
ROOT
ATOM      1  C   UNL d   1       2.357  -1.696  -0.642  0.00  0.00    -0.007 A 
ATOM      2  C   UNL d   1       3.235  -1.529   0.435  0.00  0.00     0.016 A 
ATOM      3  C   UNL d   1       2.658  -2.654  -1.615  0.00  0.00     0.016 A 
ATOM      4  C   UNL d   1       4.676  -3.289  -0.435  0.00  0.00     0.068 A 
ATOM      5  C   UNL d   1       3.805  -3.442  -1.512  0.00  0.00     0.037 A 
ATOM      6  C   UNL d   1       4.392  -2.326   0.535  0.00  0.00     0.037 A 
ENDROOT
BRANCH   4   7
ATOM      7  O   UNL d   1       5.824  -4.019  -0.241  0.00  0.00    -0.349 OA
BRANCH   7   8
ATOM      8  C   UNL d   1       6.077  -5.015  -1.236  0.00  0.00     0.209 C 
BRANCH   8   9
ATOM      9  C   UNL d   1       7.345  -5.816  -0.934  0.00  0.00     0.170 C 
BRANCH   9  10
ATOM     10  C   UNL d   1       7.235  -6.541   0.426  0.00  0.00     0.304 C 
BRANCH  10  11
ATOM     11  N   UNL d   1       8.413  -7.385   0.682  0.00  0.00     0.094 N 
ATOM     12  H   UNL d   1       9.256  -6.822   0.556  0.00  0.00     0.317 HD
BRANCH  11  13
ATOM     13  C   UNL d   1       8.451  -8.049   2.000  0.00  0.00     0.147 C 
ATOM     14  C   UNL d   1       7.346  -9.113   2.107  0.00  0.00     0.048 C 
ATOM     15  C   UNL d   1       9.815  -8.760   2.104  0.00  0.00     0.048 C 
ATOM     16  C   UNL d   1       8.340  -7.054   3.168  0.00  0.00     0.048 C 
ENDBRANCH  11  13
ENDBRANCH  10  11
ENDBRANCH   9  10
BRANCH   9  17
ATOM     17  O   UNL d   1       7.535  -6.746  -2.010  0.00  0.00    -0.392 OA
ATOM     18  H   UNL d   1       7.147  -7.595  -1.729  0.00  0.00     0.210 HD
ENDBRANCH   9  17
ENDBRANCH   8   9
ENDBRANCH   7   8
ENDBRANCH   4   7
BRANCH   1  19
ATOM     19  C   UNL d   1       1.140  -0.915  -0.796  0.00  0.00     0.066 A 
ATOM     20  N   UNL d   1       0.610  -0.658  -2.058  0.00  0.00    -0.293 N 
ATOM     21  N   UNL d   1      -0.521   0.018  -2.002  0.00  0.00    -0.270 N 
ATOM     22  HN  UNL d   1       1.048  -0.960  -2.928  1.00  0.00     0.187 HD
ATOM     23  S   UNL d   1      -0.987   0.352  -0.430  0.00  0.00    -0.008 SA
ATOM     24  HN  UNL d   1      -1.052   0.305  -2.824  1.00  0.00     0.195 HD
ATOM     25  C   UNL d   1       0.381  -0.427   0.251  0.00  0.00     0.101 A 
ENDBRANCH   1  19
TORSDOF 8
