REMARK  1 active torsions:
REMARK  status: ('A' for Active; 'I' for Inactive)
REMARK    1  A    between atoms: C_6  and  C_4 
ROOT
ATOM      1  C   UNL d   1      -2.421   0.563  -0.404  0.00  0.00     0.018 C 
ATOM      2  C   UNL d   1      -1.252   1.451  -0.194  0.00  0.00     0.193 C 
ATOM      3  C   UNL d   1       0.028   0.734  -0.025  0.00  0.00     0.050 A 
ATOM      4  C   UNL d   1      -3.394   0.993  -1.222  0.00  0.00     0.026 C 
ATOM      5  O   UNL d   1      -1.099  -1.433  -0.084  0.00  0.00    -0.346 OA
ATOM      6  C   UNL d   1       0.034  -0.665  -0.024  0.00  0.00     0.083 A 
ATOM      7  C   UNL d   1      -2.292  -0.744   0.304  0.00  0.00     0.218 C 
ATOM      8  C   UNL d   1       1.228   1.450   0.038  0.00  0.00     0.042 A 
ATOM      9  O   UNL d   1      -1.328   2.672  -0.190  0.00  0.00    -0.287 OA
ATOM     10  C   UNL d   1       1.245  -1.354  -0.008  0.00  0.00     0.039 A 
ATOM     11  C   UNL d   1       2.432   0.751   0.071  0.00  0.00     0.035 A 
ATOM     12  C   UNL d   1       2.447  -0.645   0.039  0.00  0.00     0.026 A 
ATOM     13 CL   UNL d   1       3.920   1.614   0.127  0.00  0.00    -0.084 Cl
ENDROOT
BRANCH   4  14
ATOM     14  C   UNL d   1      -4.546   0.186  -1.639  0.00  0.00    -0.014 A 
ATOM     15  C   UNL d   1      -4.502  -0.678  -2.749  0.00  0.00     0.045 A 
ATOM     16  C   UNL d   1      -5.640  -1.385  -3.144  0.00  0.00     0.048 A 
ATOM     17 CL   UNL d   1      -3.056  -0.899  -3.673  0.00  0.00    -0.083 Cl
ATOM     18  C   UNL d   1      -6.823  -1.237  -2.427  0.00  0.00     0.035 A 
ATOM     19  C   UNL d   1      -6.875  -0.406  -1.308  0.00  0.00     0.024 A 
ATOM     20 CL   UNL d   1      -8.237  -2.078  -2.929  0.00  0.00    -0.084 Cl
ATOM     21  C   UNL d   1      -5.738   0.303  -0.913  0.00  0.00     0.015 A 
ENDBRANCH   4  14
TORSDOF 1
