REMARK  4 active torsions:
REMARK  status: ('A' for Active; 'I' for Inactive)
REMARK    1  A    between atoms: C_9  and  N_1 
REMARK    2  A    between atoms: C_7  and  C_2 
REMARK    3  A    between atoms: N_10  and  C_8 
REMARK    4  A    between atoms: C_16  and  C_11 
ROOT
ATOM      1  N   UNL d   1      -0.113  -1.313  -0.055  0.00  0.00    -0.225 N 
ATOM      2  C   UNL d   1       1.103  -0.668   0.174  0.00  0.00     0.139 C 
ATOM      3  N   UNL d   1      -0.437   0.796  -0.192  0.00  0.00    -0.007 NA
ATOM      4  N   UNL d   1      -1.024  -0.371  -0.400  0.00  0.00     0.001 NA
ATOM      5  N   UNL d   1       0.871   0.633   0.175  0.00  0.00    -0.270 N 
ATOM      6  HN  UNL d   1       1.537   1.371   0.404  1.00  0.00     0.185 HD
ENDROOT
BRANCH   1   7
ATOM      7  C   UNL d   1      -0.466  -2.687   0.011  0.00  0.00     0.056 A 
ATOM      8  C   UNL d   1       0.227  -3.575   0.839  0.00  0.00     0.032 A 
ATOM      9  C   UNL d   1      -0.073  -4.942   0.811  0.00  0.00     0.014 A 
ATOM     10  C   UNL d   1      -1.072  -5.461  -0.030  0.00  0.00    -0.026 A 
ATOM     11  C   UNL d   1      -1.810  -4.536  -0.792  0.00  0.00     0.014 A 
ATOM     12  C   UNL d   1      -1.522  -3.165  -0.769  0.00  0.00     0.032 A 
BRANCH  10  13
ATOM     13  C   UNL d   1      -1.310  -6.922  -0.138  0.00  0.00    -0.026 A 
ATOM     14  C   UNL d   1      -1.680  -7.510  -1.361  0.00  0.00     0.012 A 
ATOM     15  C   UNL d   1      -1.866  -8.889  -1.486  0.00  0.00     0.001 A 
ATOM     16  C   UNL d   1      -1.674  -9.721  -0.388  0.00  0.00     0.000 A 
ATOM     17  C   UNL d   1      -1.308  -9.170   0.835  0.00  0.00     0.001 A 
ATOM     18  C   UNL d   1      -1.135  -7.787   0.960  0.00  0.00     0.012 A 
ENDBRANCH  10  13
ENDBRANCH   1   7
BRANCH   2  19
ATOM     19  C   UNL d   1       2.328  -1.379   0.206  0.00  0.00     0.068 C 
ATOM     20  C   UNL d   1       3.420  -0.892   0.806  0.00  0.00     0.089 C 
BRANCH  20  21
ATOM     21  N   UNL d   1       4.688  -1.458   0.895  0.00  0.00    -0.390 N 
ATOM     22  C   UNL d   1       5.758  -0.835   1.692  0.00  0.00     0.122 C 
ATOM     23  C   UNL d   1       6.994  -0.596   0.824  0.00  0.00     0.020 C 
ATOM     24  C   UNL d   1       7.442  -1.875   0.119  0.00  0.00     0.003 C 
ATOM     25  C   UNL d   1       6.282  -2.499  -0.649  0.00  0.00     0.020 C 
ATOM     26  C   UNL d   1       5.082  -2.728   0.268  0.00  0.00     0.122 C 
ENDBRANCH  20  21
ENDBRANCH   2  19
TORSDOF 4
