REMARK  5 active torsions:
REMARK  status: ('A' for Active; 'I' for Inactive)
REMARK    1  A    between atoms: N_2  and  C_14 
REMARK    2  A    between atoms: C_16  and  C_5 
REMARK    3  A    between atoms: C_10  and  C_29 
REMARK    4  A    between atoms: O_25  and  C_21 
REMARK    5  A    between atoms: C_29  and  O_25 
ROOT
ATOM      1  N   UNL d   1       7.667   3.070   0.476  0.00  0.00    -0.277 N 
ATOM      2  HN  UNL d   1       8.496   3.456   0.930  1.00  0.00     0.189 HD
ATOM      3  C   UNL d   1       7.124   3.484  -0.651  0.00  0.00     0.174 A 
ATOM      4  O   UNL d   1       6.018   2.748  -1.001  0.00  0.00    -0.275 OA
ATOM      5  N   UNL d   1       6.900   2.017   0.924  0.00  0.00    -0.279 N 
ATOM      6  HN  UNL d   1       7.050   1.468   1.770  1.00  0.00     0.189 HD
ATOM      7  C   UNL d   1       5.934   1.859   0.042  0.00  0.00     0.165 A 
ENDROOT
BRANCH   7   8
ATOM      8  C   UNL d   1       4.871   0.825  -0.000  0.00  0.00     0.261 C 
BRANCH   8   9
ATOM      9  O   UNL d   1       3.602   1.484   0.033  0.00  0.00    -0.343 OA
BRANCH   9  10
ATOM     10  C   UNL d   1       2.481   0.690   0.017  0.00  0.00     0.078 A 
ATOM     11  C   UNL d   1       1.240   1.370   0.046  0.00  0.00     0.006 A 
ATOM     12  C   UNL d   1       0.042   0.630   0.011  0.00  0.00     0.092 A 
ATOM     13  C   UNL d   1       1.228   2.877   0.116  0.00  0.00     0.054 C 
ATOM     14  C   UNL d   1       0.092  -0.766   0.012  0.00  0.00     0.044 A 
ATOM     15  O   UNL d   1      -1.142   1.327  -0.014  0.00  0.00    -0.339 OA
ATOM     16  C   UNL d   1      -1.163  -1.535   0.083  0.00  0.00     0.165 C 
ATOM     17  C   UNL d   1       1.315  -1.437  -0.021  0.00  0.00     0.021 A 
ATOM     18  O   UNL d   1      -1.163  -2.761   0.013  0.00  0.00    -0.292 OA
ATOM     19  C   UNL d   1      -2.409  -0.739   0.323  0.00  0.00     0.121 C 
ATOM     20  C   UNL d   1      -2.309   0.588  -0.426  0.00  0.00     0.067 C 
ATOM     21  C   UNL d   1      -2.316   0.408  -1.955  0.00  0.00     0.046 C 
ATOM     22  C   UNL d   1      -3.521   1.454  -0.046  0.00  0.00     0.046 C 
ATOM     23  C   UNL d   1       2.505  -0.710  -0.026  0.00  0.00     0.038 A 
ENDBRANCH   9  10
ENDBRANCH   8   9
ENDBRANCH   7   8
BRANCH   3  24
ATOM     24  C   UNL d   1       7.527   4.575  -1.532  0.00  0.00     0.017 A 
ATOM     25  C   UNL d   1       6.828   4.888  -2.709  0.00  0.00     0.025 A 
ATOM     26  C   UNL d   1       7.205   5.965  -3.546  0.00  0.00    -0.028 A 
ATOM     27  C   UNL d   1       6.350   6.231  -4.757  0.00  0.00     0.050 C 
ATOM     28  C   UNL d   1       8.336   6.729  -3.184  0.00  0.00     0.108 A 
ATOM     29  C   UNL d   1       9.045   6.417  -2.009  0.00  0.00     0.037 A 
ATOM     30  C   UNL d   1       8.640   5.355  -1.195  0.00  0.00     0.018 A 
BRANCH  28  31
ATOM     31  N   UNL d   1       8.830   7.872  -3.987  0.00  0.00    -0.115 N 
ATOM     32  O   UNL d   1       8.249   8.158  -5.041  0.00  0.00    -0.532 OA
ATOM     33  O   UNL d   1       9.816   8.488  -3.557  0.00  0.00    -0.532 OA
ENDBRANCH  28  31
ENDBRANCH   3  24
TORSDOF 5
