REMARK  6 active torsions:
REMARK  status: ('A' for Active; 'I' for Inactive)
REMARK    1  A    between atoms: N_7  and  C_2 
REMARK    2  A    between atoms: C_6  and  C_5 
REMARK    3  A    between atoms: C_9  and  C_6 
REMARK    4  A    between atoms: N_10  and  N_7 
REMARK    5  A    between atoms: O_18  and  C_9 
REMARK    6  A    between atoms: C_12  and  C_16 
ROOT
ATOM      1  N   UNL d   1      -0.280   1.137   0.054  0.00  0.00    -0.305 N 
ATOM      2  C   UNL d   1       0.995   0.688   0.044  0.00  0.00     0.162 A 
ATOM      3  C   UNL d   1      -1.292   0.230  -0.052  0.00  0.00     0.238 A 
ATOM      4  S   UNL d   1       1.032  -1.051   0.006  0.00  0.00    -0.077 SA
ATOM      5  C   UNL d   1      -0.782  -1.197  -0.124  0.00  0.00     0.157 A 
ATOM      6  O   UNL d   1      -2.470   0.548  -0.136  0.00  0.00    -0.272 OA
ATOM      7  H   UNL d   1      -0.469   2.127   0.074  0.00  0.00     0.171 HD
ENDROOT
BRANCH   2   8
ATOM      8  N   UNL d   1       1.990   1.511   0.033  0.00  0.00    -0.280 N 
ATOM      9  HN  UNL d   1       1.881   2.525   0.041  1.00  0.00     0.189 HD
BRANCH   8  10
ATOM     10  N   UNL d   1       3.225   0.871   0.011  0.00  0.00    -0.309 N 
ATOM     11  C   UNL d   1       4.160   1.616  -0.485  0.00  0.00     0.120 C 
ATOM     12  HN  UNL d   1       3.377  -0.080   0.348  1.00  0.00     0.186 HD
BRANCH  11  13
ATOM     13  C   UNL d   1       5.536   1.099  -0.647  0.00  0.00     0.002 A 
ATOM     14  C   UNL d   1       6.550   1.866  -1.231  0.00  0.00     0.045 A 
ATOM     15 CL   UNL d   1       6.307   3.486  -1.780  0.00  0.00    -0.083 Cl
ATOM     16  C   UNL d   1       7.828   1.318  -1.397  0.00  0.00     0.024 A 
ATOM     17  C   UNL d   1       8.099   0.014  -0.979  0.00  0.00     0.002 A 
ATOM     18  C   UNL d   1       7.095  -0.750  -0.391  0.00  0.00     0.001 A 
ATOM     19  C   UNL d   1       5.818  -0.211  -0.225  0.00  0.00     0.014 A 
ENDBRANCH  11  13
ENDBRANCH   8  10
ENDBRANCH   2   8
BRANCH   5  20
ATOM     20  C   UNL d   1      -1.196  -1.824  -1.450  0.00  0.00     0.135 C 
BRANCH  20  21
ATOM     21  C   UNL d   1      -0.788  -3.272  -1.527  0.00  0.00     0.141 C 
ATOM     22  O   UNL d   1      -0.774  -4.034  -0.573  0.00  0.00    -0.650 OA
BRANCH  21  23
ATOM     23  O   UNL d   1      -0.483  -3.677  -2.779  0.00  0.00    -0.776 OA
ATOM     24  H   UNL d   1      -0.542  -2.986  -3.465  0.00  0.00     0.167 HD
ENDBRANCH  21  23
ENDBRANCH  20  21
ENDBRANCH   5  20
TORSDOF 6
