REMARK  6 active torsions:
REMARK  status: ('A' for Active; 'I' for Inactive)
REMARK    1  A    between atoms: C_3  and  C_1 
REMARK    2  A    between atoms: N_4  and  C_2 
REMARK    3  A    between atoms: O_16  and  C_3 
REMARK    4  A    between atoms: N_5  and  C_13 
REMARK    5  A    between atoms: C_10  and  C_7 
REMARK    6  A    between atoms: O_17  and  C_12 
ROOT
ATOM      1  C   UNL d   1       1.408  -0.201   0.123  0.00  0.00     0.068 A 
ATOM      2  C   UNL d   1       0.627  -1.376  -0.024  0.00  0.00     0.046 A 
ATOM      3  C   UNL d   1       0.793   1.071   0.151  0.00  0.00     0.049 A 
ATOM      4  C   UNL d   1      -0.763  -1.192  -0.157  0.00  0.00     0.032 A 
ATOM      5  C   UNL d   1      -0.587   1.222   0.037  0.00  0.00     0.033 A 
ATOM      6  C   UNL d   1      -1.357   0.076  -0.145  0.00  0.00     0.032 A 
ENDROOT
BRANCH   5   7
ATOM      7  N   UNL d   1      -1.118   2.525   0.058  0.00  0.00    -0.365 N 
ATOM      8  C   UNL d   1      -2.257   2.722   0.645  0.00  0.00     0.102 C 
ATOM      9  HN  UNL d   1      -0.617   3.299  -0.379  1.00  0.00     0.165 HD
BRANCH   8  10
ATOM     10  C   UNL d   1      -2.872   4.060   0.735  0.00  0.00     0.012 A 
ATOM     11  C   UNL d   1      -2.205   5.220   0.328  0.00  0.00     0.077 A 
ATOM     12  C   UNL d   1      -2.816   6.465   0.470  0.00  0.00     0.037 A 
ATOM     13  C   UNL d   1      -4.099   6.552   1.012  0.00  0.00     0.003 A 
ATOM     14  C   UNL d   1      -4.774   5.396   1.407  0.00  0.00     0.001 A 
ATOM     15  C   UNL d   1      -4.161   4.149   1.271  0.00  0.00     0.015 A 
BRANCH  11  16
ATOM     16  O   UNL d   1      -0.947   5.206  -0.208  0.00  0.00    -0.360 OA
ATOM     17  H   UNL d   1      -0.673   4.263  -0.274  0.00  0.00     0.217 HD
ENDBRANCH  11  16
ENDBRANCH   8  10
ENDBRANCH   5   7
BRANCH   1  18
ATOM     18  C   UNL d   1       2.906  -0.239   0.141  0.00  0.00     0.295 C 
ATOM     19  O   UNL d   1       3.611  -1.079  -0.390  0.00  0.00    -0.259 OA
BRANCH  18  20
ATOM     20  O   UNL d   1       3.368   0.808   0.880  0.00  0.00    -0.322 OA
ATOM     21  C   UNL d   1       4.792   0.910   0.965  0.00  0.00     0.213 C 
ENDBRANCH  18  20
ENDBRANCH   1  18
BRANCH   2  22
ATOM     22  N   UNL d   1       1.168  -2.656  -0.087  0.00  0.00    -0.376 N 
ATOM     23  C   UNL d   1       0.467  -3.741  -0.797  0.00  0.00     0.149 C 
ATOM     24  C   UNL d   1       1.488  -4.817  -1.204  0.00  0.00     0.187 C 
ATOM     25  O   UNL d   1       2.200  -5.325  -0.062  0.00  0.00    -0.388 OA
ATOM     26  C   UNL d   1       2.904  -4.253   0.595  0.00  0.00     0.187 C 
ATOM     27  C   UNL d   1       1.932  -3.159   1.075  0.00  0.00     0.149 C 
ENDBRANCH   2  22
TORSDOF 6
