REMARK  7 active torsions:
REMARK  status: ('A' for Active; 'I' for Inactive)
REMARK    1  A    between atoms: C_4  and  N_1 
REMARK    2  A    between atoms: C_2  and  C_6 
REMARK    3  A    between atoms: N_3  and  C_2 
REMARK    4  A    between atoms: C_14  and  C_2 
REMARK       I    between atoms: C3_19  and  N_3 
REMARK    5  A    between atoms: C_6  and  C_8 
REMARK    6  A    between atoms: O_13  and  C_6 
REMARK    7  A    between atoms: O_15  and  C_14 
ROOT
ATOM      1  C   UNK d   1      -2.186   4.592   1.331  0.00  0.00     0.176 C 
ENDROOT
BRANCH   1   2
ATOM      2  C   UNK d   1      -2.166   4.960   2.851  0.00  0.00     0.141 C 
BRANCH   2   3
ATOM      3  N   UNK d   1      -0.811   5.154   3.400  0.00  0.00    -0.352 N 
ATOM      4  C3  <1> d   1       0.022   6.180   3.037  0.00  0.00     0.214 C 
ATOM      5  O3  <1> d   1      -0.255   6.982   2.151  0.00  0.00    -0.274 OA
ATOM      6  C11 <1> d   1       1.314   6.244   3.804  0.00  0.00     0.117 C 
ATOM      7  H   UNK d   1      -0.503   4.515   4.121  0.00  0.00     0.163 HD
ENDBRANCH   2   3
BRANCH   2   8
ATOM      8  C   UNK d   1      -3.096   6.148   3.170  0.00  0.00     0.192 C 
BRANCH   8   9
ATOM      9  O   UNK d   1      -3.203   6.330   4.587  0.00  0.00    -0.399 OA
ATOM     10  H   UNK d   1      -3.736   5.600   4.943  0.00  0.00     0.209 HD
ENDBRANCH   8   9
ENDBRANCH   2   8
ENDBRANCH   1   2
BRANCH   1  11
ATOM     11  C   UNK d   1      -1.315   3.396   0.942  0.00  0.00    -0.028 A 
ATOM     12  C   UNK d   1      -1.204   2.273   1.784  0.00  0.00     0.012 A 
ATOM     13  C   UNK d   1      -0.403   1.182   1.439  0.00  0.00     0.037 A 
ATOM     14  C   UNK d   1       0.280   1.186   0.219  0.00  0.00     0.102 A 
ATOM     15  C   UNK d   1       0.151   2.266  -0.658  0.00  0.00     0.037 A 
ATOM     16  C   UNK d   1      -0.646   3.358  -0.296  0.00  0.00     0.012 A 
BRANCH  14  17
ATOM     17  N   UNK d   1       1.131   0.044  -0.135  0.00  0.00    -0.116 N 
ATOM     18  O   UNK d   1       1.681   0.053  -1.248  0.00  0.00    -0.532 OA
ATOM     19  O   UNK d   1       1.254  -0.865   0.700  0.00  0.00    -0.532 OA
ENDBRANCH  14  17
ENDBRANCH   1  11
BRANCH   1  20
ATOM     20  O   UNK d   1      -1.897   5.719   0.502  0.00  0.00    -0.389 OA
ATOM     21  H   UNK d   1      -1.240   6.279   0.972  0.00  0.00     0.210 HD
ENDBRANCH   1  20
TORSDOF 7
