REMARK  7 active torsions:
REMARK  status: ('A' for Active; 'I' for Inactive)
REMARK    1  A    between atoms: C_4  and  S_1 
REMARK    2  A    between atoms: N_8  and  S_1 
REMARK    3  A    between atoms: S_2  and  C_3 
REMARK    4  A    between atoms: C_26  and  S_2 
REMARK    5  A    between atoms: C_6  and  O_12 
REMARK    6  A    between atoms: C_28  and  N_8 
REMARK    7  A    between atoms: O_12  and  C_19 
ROOT
ATOM      1  N   UNL d   1       2.088  -0.772  -4.524  0.00  0.00    -0.345 N 
ATOM      2  HN  UNL d   1       2.918  -1.225  -4.908  1.00  0.00     0.167 HD
ATOM      3  C   UNL d   1       1.333   0.074  -5.261  0.00  0.00     0.149 A 
ATOM      4  C   UNL d   1       0.576  -0.371  -2.671  0.00  0.00     0.038 A 
ATOM      5  C   UNL d   1       1.685  -0.987  -3.246  0.00  0.00     0.114 A 
ATOM      6  C   UNL d   1       0.269   0.800  -4.742  0.00  0.00     0.058 A 
ATOM      7  C   UNL d   1      -0.114   0.572  -3.423  0.00  0.00     0.030 A 
ENDROOT
BRANCH   4   8
ATOM      8  N   UNL d   1       0.096  -0.683  -1.360  0.00  0.00    -0.180 NA
ATOM      9  H   UNL d   1       0.067  -1.687  -1.175  0.00  0.00     0.146 HD
BRANCH   8  10
ATOM     10  S   UNL d   1       0.871   0.057  -0.050  0.00  0.00     0.252 S 
ATOM     11  O   UNL d   1       0.131  -0.345   1.127  0.00  0.00    -0.205 OA
ATOM     12  O   UNL d   1       2.293  -0.195  -0.156  0.00  0.00    -0.205 OA
BRANCH  10  13
ATOM     13  C   UNL d   1       0.612   1.816  -0.157  0.00  0.00     0.116 A 
ATOM     14  S   UNL d   1       1.866   2.749  -0.850  0.00  0.00    -0.065 SA
ATOM     15  C   UNL d   1       1.000   4.209  -0.643  0.00  0.00     0.106 A 
ATOM     16  C   UNL d   1      -0.233   3.988  -0.060  0.00  0.00     0.033 A 
ATOM     17  C   UNL d   1      -0.454   2.610   0.227  0.00  0.00     0.034 A 
BRANCH  15  18
ATOM     18  S   UNL d   1       1.823   5.712  -1.138  0.00  0.00     0.213 S 
ATOM     19  O   UNL d   1       2.651   5.388  -2.283  0.00  0.00    -0.217 OA
ATOM     20  O   UNL d   1       0.762   6.698  -1.220  0.00  0.00    -0.217 OA
BRANCH  18  21
ATOM     21  C   UNL d   1       2.859   6.117   0.242  0.00  0.00     0.064 A 
ATOM     22  C   UNL d   1       4.171   5.639   0.289  0.00  0.00     0.024 A 
ATOM     23  C   UNL d   1       4.954   5.905   1.412  0.00  0.00     0.002 A 
ATOM     24  C   UNL d   1       4.432   6.655   2.467  0.00  0.00     0.000 A 
ATOM     25  C   UNL d   1       3.132   7.160   2.398  0.00  0.00     0.002 A 
ATOM     26  C   UNL d   1       2.341   6.897   1.281  0.00  0.00     0.024 A 
ENDBRANCH  18  21
ENDBRANCH  15  18
ENDBRANCH  10  13
ENDBRANCH   8  10
ENDBRANCH   4   8
BRANCH   3  27
ATOM     27  O   UNL d   1       1.672   0.352  -6.574  0.00  0.00    -0.276 OA
BRANCH  27  28
ATOM     28  C   UNL d   1       2.109  -0.699  -7.373  0.00  0.00     0.163 A 
ATOM     29  C   UNL d   1       2.930  -0.360  -8.454  0.00  0.00     0.042 A 
ATOM     30  C   UNL d   1       3.307  -1.435  -9.268  0.00  0.00     0.049 A 
ATOM     31  C   UNL d   1       3.371   0.951  -8.760  0.00  0.00     0.020 A 
ATOM     32  C   UNL d   1       4.128  -1.185 -10.360  0.00  0.00     0.054 A 
ATOM     33  N   UNL d   1       2.898  -2.688  -9.034  0.00  0.00    -0.351 N 
ATOM     34  C   UNL d   1       4.567   0.106 -10.657  0.00  0.00     0.036 A 
ATOM     35  C   UNL d   1       4.188   1.180  -9.863  0.00  0.00     0.025 A 
ATOM     36 CL   UNL d   1       5.585   0.371 -12.019  0.00  0.00    -0.084 Cl
ATOM     37  C   UNL d   1       2.083  -2.879  -7.985  0.00  0.00     0.182 A 
ATOM     38  HN  UNL d   1       3.193  -3.464  -9.627  1.00  0.00     0.166 HD
ATOM     39  N   UNL d   1       1.633  -1.940  -7.149  0.00  0.00    -0.332 N 
ATOM     40  HN  UNL d   1       0.977  -2.146  -6.396  1.00  0.00     0.168 HD
ENDBRANCH  27  28
ENDBRANCH   3  27
TORSDOF 7
