REMARK  9 active torsions:
REMARK  status: ('A' for Active; 'I' for Inactive)
REMARK    1  A    between atoms: O_13  and  C_7 
REMARK    2  A    between atoms: C_23  and  C_9 
REMARK    3  A    between atoms: C_17  and  O_13 
REMARK    4  A    between atoms: C_18  and  O_19 
REMARK    5  A    between atoms: O_19  and  C_20 
REMARK    6  A    between atoms: C_30  and  C_23 
REMARK    7  A    between atoms: C_27  and  C_30 
REMARK    8  A    between atoms: C_32  and  C_27 
REMARK    9  A    between atoms: C_33  and  C_32 
ROOT
ATOM      1  C   UNL d   1      -1.032   2.483   0.000  0.00  0.00    -0.011 C 
ATOM      2  C   UNL d   1       0.832  -2.487   0.543  0.00  0.00    -0.036 C 
ATOM      3  C   UNL d   1      -0.714  -0.518  -0.157  0.00  0.00    -0.003 C 
ATOM      4  C   UNL d   1      -0.604  -1.840   0.636  0.00  0.00    -0.002 C 
ATOM      5  C   UNL d   1       0.381   1.839  -0.178  0.00  0.00     0.001 C 
ATOM      6  C   UNL d   1       0.444   0.396   0.335  0.00  0.00    -0.005 C 
ATOM      7  C   UNL d   1      -2.043   1.556  -0.760  0.00  0.00     0.141 C 
ATOM      8  C   UNL d   1      -2.103   0.154  -0.096  0.00  0.00     0.038 C 
ATOM      9  C   UNL d   1       0.608  -3.980   0.066  0.00  0.00    -0.002 C 
ATOM     10  C   UNL d   1       1.747  -1.683  -0.369  0.00  0.00     0.010 C 
ATOM     11  C   UNL d   1       1.806  -0.204  -0.065  0.00  0.00     0.006 C 
ATOM     12  C   UNL d   1      -1.570  -2.948   0.231  0.00  0.00     0.006 C 
ATOM     13  C   UNL d   1      -0.818  -4.212   0.628  0.00  0.00     0.006 C 
ATOM     14  C   UNL d   1       1.561   2.678   0.356  0.00  0.00     0.008 C 
ATOM     15  C   UNL d   1      -0.941   3.933  -0.571  0.00  0.00     0.044 C 
ATOM     16  C   UNL d   1       0.199   4.703   0.134  0.00  0.00     0.132 C 
ATOM     17  C   UNL d   1       1.535   4.080  -0.237  0.00  0.00     0.033 C 
ATOM     18  C   UNL d   1      -1.524   2.628   1.472  0.00  0.00     0.018 C 
ATOM     19  C   UNL d   1       1.450  -2.477   1.970  0.00  0.00     0.016 C 
ENDROOT
BRANCH   9  20
ATOM     20  C   UNL d   1       0.693  -4.345  -1.485  0.00  0.00    -0.014 C 
ATOM     21  C   UNL d   1       0.281  -5.819  -1.694  0.00  0.00     0.010 C 
BRANCH  20  22
ATOM     22  C   UNL d   1       2.086  -4.183  -2.174  0.00  0.00     0.005 C 
BRANCH  22  23
ATOM     23  C   UNL d   1       2.063  -4.313  -3.718  0.00  0.00     0.001 C 
BRANCH  23  24
ATOM     24  C   UNL d   1       3.375  -3.783  -4.328  0.00  0.00     0.004 C 
BRANCH  24  25
ATOM     25  C   UNL d   1       3.532  -3.999  -5.848  0.00  0.00    -0.023 C 
ATOM     26  C   UNL d   1       2.490  -3.249  -6.678  0.00  0.00     0.009 C 
ATOM     27  C   UNL d   1       4.934  -3.551  -6.284  0.00  0.00     0.009 C 
ENDBRANCH  24  25
ENDBRANCH  23  24
ENDBRANCH  22  23
ENDBRANCH  20  22
ENDBRANCH   9  20
BRANCH   7  28
ATOM     28  O   UNL d   1      -1.542   1.240  -2.084  0.00  0.00    -0.316 OA
BRANCH  28  29
ATOM     29  C   UNL d   1      -1.918   1.907  -3.190  0.00  0.00     0.255 C 
ATOM     30  O   UNL d   1      -2.692   2.855  -3.233  0.00  0.00    -0.266 OA
ATOM     31  C   UNL d   1      -1.184   1.312  -4.357  0.00  0.00     0.126 C 
ENDBRANCH  28  29
ENDBRANCH   7  28
BRANCH  16  32
ATOM     32  O   UNL d   1       0.211   6.100  -0.136  0.00  0.00    -0.316 OA
BRANCH  32  33
ATOM     33  C   UNL d   1      -0.463   6.810   0.818  0.00  0.00     0.255 C 
ATOM     34  O   UNL d   1      -1.261   6.343   1.622  0.00  0.00    -0.266 OA
ATOM     35  C   UNL d   1       0.017   8.222   0.875  0.00  0.00     0.126 C 
ENDBRANCH  32  33
ENDBRANCH  16  32
TORSDOF 9
