REMARK  6 active torsions:
REMARK  status: ('A' for Active; 'I' for Inactive)
REMARK    1  A    between atoms: C_2  and  S_1 
REMARK    2  A    between atoms: N_3  and  S_1 
REMARK    3  A    between atoms: C_11  and  N_3 
REMARK    4  A    between atoms: O_18  and  C_9 
REMARK    5  A    between atoms: O_19  and  C_10 
REMARK    6  A    between atoms: O_20  and  C_12 
ROOT
ATOM      1  S   UNL d   1       1.040   0.049   0.005  0.00  0.00     0.263 S 
ATOM      2  O   UNL d   1       2.324   0.035  -0.657  0.00  0.00    -0.200 OA
ATOM      3  O   UNL d   1      -0.005  -0.891  -0.345  0.00  0.00    -0.200 OA
ENDROOT
BRANCH   1   4
ATOM      4  C   UNL d   1       0.377   1.692  -0.137  0.00  0.00     0.082 A 
ATOM      5  C   UNL d   1      -1.009   1.882  -0.086  0.00  0.00     0.065 A 
ATOM      6  C   UNL d   1      -1.551   3.175  -0.106  0.00  0.00     0.102 A 
ATOM      7  C   UNL d   1      -0.681   4.276  -0.226  0.00  0.00     0.101 A 
ATOM      8  C   UNL d   1       0.705   4.059  -0.321  0.00  0.00     0.041 A 
ATOM      9  C   UNL d   1       1.242   2.774  -0.277  0.00  0.00     0.028 A 
BRANCH   6  10
ATOM     10  O   UNL d   1      -2.895   3.412   0.003  0.00  0.00    -0.353 OA
ATOM     11  C   UNL d   1      -3.771   2.300   0.145  0.00  0.00     0.210 C 
ENDBRANCH   6  10
BRANCH   7  12
ATOM     12  O   UNL d   1      -0.988   5.612  -0.266  0.00  0.00    -0.353 OA
ATOM     13  C   UNL d   1      -2.345   6.013  -0.155  0.00  0.00     0.210 C 
ENDBRANCH   7  12
ENDBRANCH   1   4
BRANCH   1  14
ATOM     14  N   UNL d   1       1.354  -0.081   1.651  0.00  0.00    -0.279 N 
ATOM     15  H   UNL d   1       2.303   0.157   1.936  0.00  0.00     0.179 HD
BRANCH  14  16
ATOM     16  C   UNL d   1       0.292   0.013   2.585  0.00  0.00     0.058 A 
ATOM     17  C   UNL d   1      -0.442  -1.114   2.938  0.00  0.00     0.120 A 
ATOM     18  N   UNL d   1      -1.457  -1.103   3.832  0.00  0.00    -0.345 N 
ATOM     19  C   UNL d   1      -1.767   0.090   4.383  0.00  0.00     0.141 A 
ATOM     20  HN  UNL d   1      -1.963  -1.954   4.078  1.00  0.00     0.167 HD
ATOM     21  C   UNL d   1      -1.111   1.272   4.072  0.00  0.00     0.058 A 
ATOM     22  C   UNL d   1      -0.054   1.230   3.164  0.00  0.00     0.036 A 
BRANCH  19  23
ATOM     23  O   UNL d   1      -2.790   0.177   5.305  0.00  0.00    -0.341 OA
ATOM     24  C   UNL d   1      -3.354  -1.092   5.624  0.00  0.00     0.211 C 
ENDBRANCH  19  23
ENDBRANCH  14  16
ENDBRANCH   1  14
TORSDOF 6
