REMARK  4 active torsions:
REMARK  status: ('A' for Active; 'I' for Inactive)
REMARK    1  A    between atoms: C_18  and  N_4 
REMARK       I    between atoms: C_11  and  N_10 
REMARK    2  A    between atoms: O_21  and  C_11 
REMARK    3  A    between atoms: C_19  and  C_18 
REMARK    4  A    between atoms: C_22  and  O_21 
ROOT
ATOM      1  C   UNL d   1       0.685   0.360  -0.015  0.00  0.00     0.073 A 
ATOM      2  C   UNL d   1       1.145  -0.920  -0.065  0.00  0.00     0.093 A 
ATOM      3  C   UNL d   1       1.652   1.443   0.029  0.00  0.00     0.263 A 
ATOM      4  N   UNL d   1       3.009   1.033   0.015  0.00  0.00    -0.287 N 
ATOM      5  N   UNL d   1       2.456  -1.276  -0.093  0.00  0.00    -0.326 N 
ATOM      6  C   UNL d   1       3.432  -0.309  -0.054  0.00  0.00     0.182 A 
ATOM      7  C   UNL d   1      -0.747   0.369   0.001  0.00  0.00    -0.023 A 
ATOM      8  C   UNL d   1      -1.262  -0.924  -0.020  0.00  0.00     0.010 A 
ATOM      9  S   UNL d   1      -0.034  -2.113  -0.081  0.00  0.00    -0.074 SA
ATOM     10  N   UNL d   1      -3.499  -0.091   0.322  0.00  0.00    -0.323 N 
ATOM     11  C   UNL d   1      -4.351  -0.037   1.408  0.00  0.00     0.363 C 
ATOM     12  C   UNL d   1      -2.722  -1.289  -0.015  0.00  0.00     0.174 C 
ATOM     13  C   UNL d   1      -1.664   1.560   0.070  0.00  0.00     0.061 C 
ATOM     14  S   UNL d   1       5.017  -0.868  -0.087  0.00  0.00    -0.040 SA
ATOM     15  O   UNL d   1       1.286   2.612   0.090  0.00  0.00    -0.267 OA
ATOM     16  C   UNL d   1      -3.096   1.158  -0.335  0.00  0.00     0.133 C 
ATOM     17  O   UNL d   1      -4.851   0.997   1.833  0.00  0.00    -0.238 OA
ATOM     18  H   UNL d   1       2.716  -2.255  -0.127  0.00  0.00     0.169 HD
ENDROOT
BRANCH  11  19
ATOM     19  O   UNL d   1      -4.535  -1.256   1.980  0.00  0.00    -0.304 OA
BRANCH  19  20
ATOM     20  C   UNL d   1      -5.083  -1.248   3.305  0.00  0.00     0.176 C 
ATOM     21  C   UNL d   1      -3.936  -1.098   4.288  0.00  0.00     0.034 C 
ENDBRANCH  19  20
ENDBRANCH  11  19
BRANCH   4  22
ATOM     22  C   UNL d   1       3.974   2.126   0.155  0.00  0.00     0.161 C 
BRANCH  22  23
ATOM     23  C   UNL d   1       4.407   2.726  -1.159  0.00  0.00    -0.017 C 
ATOM     24  C   UNL d   1       4.084   2.360  -2.406  0.00  0.00     0.008 C 
ENDBRANCH  22  23
ENDBRANCH   4  22
TORSDOF 4
