REMARK  4 active torsions:
REMARK  status: ('A' for Active; 'I' for Inactive)
REMARK       I    between atoms: N_2  and  C_1 
REMARK       I    between atoms: N_4  and  C_1 
REMARK    1  A    between atoms: C_8  and  N_4 
REMARK    2  A    between atoms: O_9  and  C_11 
REMARK    3  A    between atoms: C_12  and  O_9 
REMARK    4  A    between atoms: C_17  and  C_12 
ROOT
ATOM      1  C   UNL d   1       0.902   0.660   0.192  0.00  0.00     0.327 C 
ATOM      2  N   UNL d   1       2.159  -0.013   0.089  0.00  0.00    -0.299 N 
ATOM      3  C   UNL d   1       3.033  -0.239   1.238  0.00  0.00     0.051 C 
ATOM      4  N   UNL d   1       0.197   0.702  -1.010  0.00  0.00    -0.309 N 
ATOM      5  O   UNL d   1       0.447   1.172   1.207  0.00  0.00    -0.246 OA
ATOM      6  C   UNL d   1       4.429  -0.398   1.011  0.00  0.00    -0.030 C 
ATOM      7  C   UNL d   1       2.601  -0.352   2.582  0.00  0.00    -0.034 C 
ATOM      8  C   UNL d   1       2.749  -0.218  -1.244  0.00  0.00     0.134 C 
ATOM      9  C   UNL d   1       3.952  -1.131  -1.291  0.00  0.00     0.025 C 
ATOM     10  C   UNL d   1       4.912  -0.336   3.384  0.00  0.00     0.001 C 
ATOM     11  C   UNL d   1       5.007  -0.577  -0.367  0.00  0.00     0.042 C 
ATOM     12  C   UNL d   1       5.351  -0.407   2.075  0.00  0.00     0.009 C 
ATOM     13  C   UNL d   1       3.549  -0.339   3.633  0.00  0.00     0.009 C 
ATOM     14  C   UNL d   1       1.184  -0.608   3.028  0.00  0.00     0.050 C 
ATOM     15  H   UNL d   1       0.739   0.805  -1.849  0.00  0.00     0.170 HD
ENDROOT
BRANCH   4  16
ATOM     16  C   UNL d   1      -1.199   0.706  -1.199  0.00  0.00     0.036 A 
ATOM     17  C   UNL d   1      -2.136   0.602  -0.172  0.00  0.00     0.032 A 
ATOM     18  C   UNL d   1      -3.493   0.422  -0.472  0.00  0.00     0.039 A 
ATOM     19  C   UNL d   1      -3.917   0.317  -1.797  0.00  0.00     0.069 A 
ATOM     20  C   UNL d   1      -3.001   0.519  -2.826  0.00  0.00     0.039 A 
ATOM     21  C   UNL d   1      -1.648   0.704  -2.528  0.00  0.00     0.032 A 
BRANCH  19  22
ATOM     22  O   UNL d   1      -5.236   0.000  -1.992  0.00  0.00    -0.347 OA
BRANCH  22  23
ATOM     23  C   UNL d   1      -5.470  -0.849  -3.122  0.00  0.00     0.214 C 
BRANCH  23  24
ATOM     24  C   UNL d   1      -6.663  -1.740  -2.869  0.00  0.00    -0.034 A 
ATOM     25  C   UNL d   1      -7.953  -1.202  -2.778  0.00  0.00     0.009 A 
ATOM     26  C   UNL d   1      -9.056  -2.038  -2.586  0.00  0.00     0.001 A 
ATOM     27  C   UNL d   1      -8.880  -3.417  -2.478  0.00  0.00     0.000 A 
ATOM     28  C   UNL d   1      -7.600  -3.962  -2.555  0.00  0.00     0.001 A 
ATOM     29  C   UNL d   1      -6.497  -3.129  -2.747  0.00  0.00     0.009 A 
ENDBRANCH  23  24
ENDBRANCH  22  23
ENDBRANCH  19  22
ENDBRANCH   4  16
TORSDOF 4
