REMARK  5 active torsions:
REMARK  status: ('A' for Active; 'I' for Inactive)
REMARK    1  A    between atoms: C_6  and  N_1 
REMARK    2  A    between atoms: C_8  and  C_3 
REMARK    3  A    between atoms: O_16  and  C_8 
REMARK    4  A    between atoms: C_15  and  C_10 
REMARK    5  A    between atoms: C_19  and  O_16 
ROOT
ATOM      1  N   UNL d   1       0.882   0.664   0.047  0.00  0.00    -0.262 N 
ATOM      2  C   UNL d   1      -0.297   1.386   0.176  0.00  0.00     0.153 A 
ATOM      3  C   UNL d   1      -0.650  -1.107   0.303  0.00  0.00     0.098 A 
ATOM      4  C   UNL d   1       0.765  -0.724   0.053  0.00  0.00     0.273 A 
ATOM      5  S   UNL d   1      -1.647   0.282   0.425  0.00  0.00    -0.053 SA
ATOM      6  S   UNL d   1      -0.565   3.032   0.031  0.00  0.00    -0.052 SA
ATOM      7  O   UNL d   1       1.651  -1.558  -0.077  0.00  0.00    -0.266 OA
ENDROOT
BRANCH   1   8
ATOM      8  C   UNL d   1       2.171   1.262  -0.061  0.00  0.00     0.044 A 
ATOM      9  C   UNL d   1       3.049   0.882  -1.082  0.00  0.00     0.031 A 
ATOM     10  C   UNL d   1       4.324   1.453  -1.173  0.00  0.00     0.010 A 
ATOM     11  C   UNL d   1       4.767   2.380  -0.218  0.00  0.00    -0.055 A 
ATOM     12  C   UNL d   1       3.887   2.752   0.806  0.00  0.00     0.010 A 
ATOM     13  C   UNL d   1       2.602   2.205   0.880  0.00  0.00     0.031 A 
BRANCH  11  14
ATOM     14  C   UNL d   1       6.173   2.952  -0.251  0.00  0.00     0.010 C 
ATOM     15  C   UNL d   1       7.227   1.844  -0.169  0.00  0.00     0.015 C 
ATOM     16  C   UNL d   1       6.405   3.836  -1.477  0.00  0.00     0.015 C 
ENDBRANCH  11  14
ENDBRANCH   1   8
BRANCH   3  17
ATOM     17  C   UNL d   1      -1.049  -2.374   0.443  0.00  0.00     0.159 C 
BRANCH  17  18
ATOM     18  O   UNL d   1      -2.345  -2.720   0.730  0.00  0.00    -0.362 OA
BRANCH  18  19
ATOM     19  C   UNL d   1      -2.704  -4.009   0.230  0.00  0.00     0.170 C 
ATOM     20  C   UNL d   1      -4.182  -4.215   0.502  0.00  0.00     0.034 C 
ENDBRANCH  18  19
ENDBRANCH  17  18
ENDBRANCH   3  17
TORSDOF 5
