REMARK  4 active torsions:
REMARK  status: ('A' for Active; 'I' for Inactive)
REMARK    1  A    between atoms: C_10  and  C_2 
REMARK    2  A    between atoms: C_5  and  O_8 
REMARK    3  A    between atoms: C_9  and  C_5 
REMARK    4  A    between atoms: O_8  and  C_14 
ROOT
ATOM      1  C   UNL d   1       2.472  -1.455   0.236  0.00  0.00    -0.008 A 
ATOM      2  C   UNL d   1       2.813  -1.891  -1.057  0.00  0.00     0.016 A 
ATOM      3  C   UNL d   1       3.352  -1.767   1.284  0.00  0.00     0.016 A 
ATOM      4  C   UNL d   1       4.771  -3.040  -0.217  0.00  0.00     0.079 A 
ATOM      5  C   UNL d   1       4.498  -2.553   1.060  0.00  0.00     0.038 A 
ATOM      6  C   UNL d   1       3.950  -2.675  -1.282  0.00  0.00     0.038 A 
ENDROOT
BRANCH   4   7
ATOM      7  O   UNL d   1       5.832  -3.926  -0.552  0.00  0.00    -0.278 OA
BRANCH   7   8
ATOM      8  C   UNL d   1       6.532  -4.718   0.368  0.00  0.00     0.271 C 
ATOM      9  O   UNL d   1       6.422  -4.648   1.581  0.00  0.00    -0.264 OA
BRANCH   8  10
ATOM     10  C   UNL d   1       7.500  -5.686  -0.341  0.00  0.00     0.037 C 
ATOM     11  C   UNL d   1       8.773  -4.932  -0.736  0.00  0.00     0.025 C 
ATOM     12  C   UNL d   1       7.861  -6.811   0.649  0.00  0.00     0.025 C 
ATOM     13  C   UNL d   1       6.876  -6.337  -1.585  0.00  0.00     0.025 C 
ENDBRANCH   8  10
ENDBRANCH   7   8
ENDBRANCH   4   7
BRANCH   1  14
ATOM     14  C   UNL d   1       1.202  -0.751   0.438  0.00  0.00     0.063 A 
ATOM     15  N   UNL d   1       0.404  -0.393  -0.652  0.00  0.00    -0.292 N 
ATOM     16  N   UNL d   1      -0.736   0.164  -0.281  0.00  0.00    -0.061 NA
ATOM     17  HN  UNL d   1       0.671  -0.544  -1.624  1.00  0.00     0.183 HD
ATOM     18  S   UNL d   1      -0.890   0.281   1.376  0.00  0.00    -0.010 SA
ATOM     19  C   UNL d   1       0.645  -0.434   1.667  0.00  0.00     0.096 A 
ENDBRANCH   1  14
TORSDOF 4
