REMARK  4 active torsions:
REMARK  status: ('A' for Active; 'I' for Inactive)
REMARK       I    between atoms: N_2  and  C_1 
REMARK       I    between atoms: N_3  and  C_1 
REMARK    1  A    between atoms: C_6  and  N_2 
REMARK    2  A    between atoms: C_12  and  N_2 
REMARK    3  A    between atoms: C_4  and  N_3 
REMARK    4  A    between atoms: C_15  and  C_6 
ROOT
ATOM      1  C   UNL d   1       0.736   0.174   0.303  0.00  0.00     0.323 C 
ATOM      2  N   UNL d   1       0.342  -1.041  -0.260  0.00  0.00    -0.326 N 
ATOM      3  N   UNL d   1       2.072   0.292   0.620  0.00  0.00    -0.309 N 
ATOM      4  O   UNL d   1      -0.067   1.084   0.494  0.00  0.00    -0.247 OA
ATOM      5  H   UNL d   1       2.713  -0.159  -0.014  0.00  0.00     0.170 HD
ENDROOT
BRANCH   2   6
ATOM      6  C   UNL d   1      -1.093  -1.141  -0.575  0.00  0.00     0.166 C 
BRANCH   6   7
ATOM      7  C   UNL d   1      -1.450  -0.788  -2.007  0.00  0.00    -0.040 A 
ATOM      8  C   UNL d   1      -2.386  -1.570  -2.703  0.00  0.00     0.009 A 
ATOM      9  C   UNL d   1      -2.830  -1.194  -3.974  0.00  0.00     0.001 A 
ATOM     10  C   UNL d   1      -2.347  -0.031  -4.569  0.00  0.00     0.000 A 
ATOM     11  C   UNL d   1      -1.416   0.754  -3.896  0.00  0.00     0.001 A 
ATOM     12  C   UNL d   1      -0.975   0.382  -2.623  0.00  0.00     0.009 A 
ENDBRANCH   6   7
ENDBRANCH   2   6
BRANCH   2  13
ATOM     13  C   UNL d   1       1.173  -2.271  -0.249  0.00  0.00     0.081 C 
ATOM     14  C   UNL d   1       1.370  -2.784   1.184  0.00  0.00     0.032 C 
ATOM     15  C   UNL d   1       0.654  -3.421  -1.124  0.00  0.00     0.032 C 
ENDBRANCH   2  13
BRANCH   3  16
ATOM     16  C   UNL d   1       2.589   1.325   1.439  0.00  0.00     0.039 A 
ATOM     17  C   UNL d   1       1.807   1.961   2.412  0.00  0.00     0.053 A 
ATOM     18  C   UNL d   1       2.335   2.998   3.178  0.00  0.00     0.037 A 
ATOM     19 CL   UNL d   1       1.349   3.777   4.355  0.00  0.00    -0.084 Cl
ATOM     20  C   UNL d   1       3.650   3.408   2.999  0.00  0.00     0.048 A 
ATOM     21  C   UNL d   1       4.439   2.753   2.057  0.00  0.00     0.037 A 
ATOM     22  C   UNL d   1       3.924   1.704   1.288  0.00  0.00     0.053 A 
ATOM     23 CL   UNL d   1       6.071   3.253   1.829  0.00  0.00    -0.084 Cl
ENDBRANCH   3  16
TORSDOF 4
