REMARK  4 active torsions:
REMARK  status: ('A' for Active; 'I' for Inactive)
REMARK    1  A    between atoms: C_4  and  C_1 
REMARK       I    between atoms: N_7  and  C_4 
REMARK    2  A    between atoms: C_12  and  N_7 
REMARK    3  A    between atoms: C_13  and  C_12 
REMARK    4  A    between atoms: C_14  and  C_13 
ROOT
ATOM      1  C   UNL d   1       3.851  -0.049   0.017  0.00  0.00     0.262 C 
ATOM      2  N   UNL d   1       4.647  -1.206   0.015  0.00  0.00    -0.351 N 
ATOM      3  O   UNL d   1       4.400   1.057   0.052  0.00  0.00    -0.267 OA
ATOM      4  C   UNL d   1       4.171  -2.553  -0.276  0.00  0.00     0.152 C 
ENDROOT
BRANCH   1   5
ATOM      5  C   UNL d   1       2.401  -0.141  -0.079  0.00  0.00     0.096 A 
ATOM      6  S   UNL d   1       1.650   0.915  -1.205  0.00  0.00    -0.082 SA
ATOM      7  C   UNL d   1       0.071   0.404  -0.782  0.00  0.00     0.017 A 
ATOM      8  C   UNL d   1      -1.138   0.898  -1.312  0.00  0.00     0.020 A 
ATOM      9  C   UNL d   1       0.099  -0.599   0.190  0.00  0.00     0.004 A 
ATOM     10  C   UNL d   1      -2.344   0.350  -0.878  0.00  0.00     0.001 A 
ATOM     11  C   UNL d   1      -2.351  -0.675   0.055  0.00  0.00     0.001 A 
ATOM     12  C   UNL d   1      -1.148  -1.147   0.595  0.00  0.00     0.014 A 
ATOM     13  C   UNL d   1       1.454  -0.856   0.629  0.00  0.00     0.068 A 
ATOM     14 CL   UNL d   1       1.778  -1.916   1.947  0.00  0.00    -0.082 Cl
ENDBRANCH   1   5
BRANCH   2  15
ATOM     15  C   UNL d   1       6.109  -1.033  -0.038  0.00  0.00     0.131 C 
BRANCH  15  16
ATOM     16  C   UNL d   1       6.742  -0.369   1.191  0.00  0.00     0.077 C 
BRANCH  16  17
ATOM     17  C   UNL d   1       8.245  -0.315   1.037  0.00  0.00     0.010 A 
ATOM     18  N   UNL d   1       8.905  -1.502   1.056  0.00  0.00    -0.369 N 
ATOM     19  C   UNL d   1      10.247  -1.468   0.900  0.00  0.00     0.088 A 
ATOM     20  HN  UNL d   1       8.408  -2.384   1.183  1.00  0.00     0.165 HD
ATOM     21  C   UNL d   1      10.978  -0.306   0.730  0.00  0.00     0.017 A 
ATOM     22  C   UNL d   1      10.292   0.901   0.716  0.00  0.00     0.003 A 
ATOM     23  C   UNL d   1       8.905   0.901   0.870  0.00  0.00     0.025 A 
ENDBRANCH  16  17
ENDBRANCH  15  16
ENDBRANCH   2  15
TORSDOF 4
