REMARK  2 active torsions:
REMARK  status: ('A' for Active; 'I' for Inactive)
REMARK    1  A    between atoms: C_2  and  N_1 
REMARK    2  A    between atoms: C_4  and  C_3 
ROOT
ATOM      1  C   UNL d   1      -1.777   0.106   0.096  0.00  0.00    -0.023 A 
ATOM      2  C   UNL d   1      -2.820  -0.297   0.974  0.00  0.00    -0.016 A 
ATOM      3  C   UNL d   1      -3.429   0.685   1.795  0.00  0.00    -0.025 A 
ATOM      4  C   UNL d   1      -1.407   1.456   0.009  0.00  0.00     0.012 A 
ATOM      5  C   UNL d   1      -2.026   2.410   0.810  0.00  0.00     0.002 A 
ATOM      6  C   UNL d   1      -3.285  -1.629   1.087  0.00  0.00     0.013 A 
ATOM      7  C   UNL d   1      -3.017   2.024   1.708  0.00  0.00     0.012 A 
ATOM      8  C   UNL d   1      -4.440   0.317   2.698  0.00  0.00     0.012 A 
ATOM      9  C   UNL d   1      -4.305  -1.975   1.976  0.00  0.00     0.001 A 
ATOM     10  C   UNL d   1      -4.878  -1.003   2.787  0.00  0.00     0.001 A 
ENDROOT
BRANCH   1  11
ATOM     11  C   UNL d   1      -0.976  -0.858  -0.677  0.00  0.00     0.043 C 
ATOM     12  C   UNL d   1      -1.190  -1.347  -1.909  0.00  0.00     0.077 C 
ATOM     13  C   UNL d   1      -0.337  -2.348  -2.608  0.00  0.00     0.075 C 
BRANCH  12  14
ATOM     14  N   UNL d   1      -2.355  -0.922  -2.653  0.00  0.00    -0.120 N 
ATOM     15  O   UNL d   1      -2.439   0.274  -2.955  0.00  0.00    -0.532 OA
ATOM     16  O   UNL d   1      -3.148  -1.812  -2.991  0.00  0.00    -0.532 OA
ENDBRANCH  12  14
ENDBRANCH   1  11
TORSDOF 2
