REMARK  4 active torsions:
REMARK  status: ('A' for Active; 'I' for Inactive)
REMARK    1  A    between atoms: C_11  and  N_3 
REMARK    2  A    between atoms: C_12  and  C_4 
REMARK    3  A    between atoms: O_20  and  C_13 
REMARK    4  A    between atoms: O_21  and  C_15 
ROOT
ATOM      1  N   UNL d   1      -2.733   0.895  -0.309  0.00  0.00    -0.242 NA
ATOM      2  C   UNL d   1      -1.555   1.768  -0.459  0.00  0.00     0.199 C 
ATOM      3  N   UNL d   1      -1.794   2.372  -1.803  0.00  0.00    -0.172 NA
ATOM      4  C   UNL d   1      -3.324   0.854  -1.558  0.00  0.00     0.141 C 
ATOM      5  N   UNL d   1      -2.816   1.658  -2.454  0.00  0.00    -0.300 N 
ATOM      6  HN  UNL d   1      -3.103   1.750  -3.428  1.00  0.00     0.182 HD
ATOM      7  C   UNL d   1      -0.240   0.976  -0.411  0.00  0.00    -0.015 A 
ATOM      8  C   UNL d   1      -0.222  -0.431  -0.263  0.00  0.00    -0.045 A 
ATOM      9  C   UNL d   1       0.995   1.647  -0.433  0.00  0.00     0.050 A 
ATOM     10  C   UNL d   1      -2.568  -0.299   0.497  0.00  0.00     0.104 C 
ATOM     11  C   UNL d   1       2.204   0.944  -0.298  0.00  0.00     0.102 A 
ATOM     12  C   UNL d   1       0.991  -1.137  -0.215  0.00  0.00     0.047 A 
ATOM     13  C   UNL d   1       2.210  -0.459  -0.223  0.00  0.00     0.102 A 
ATOM     14  C   UNL d   1      -1.517  -1.199  -0.149  0.00  0.00     0.054 C 
ENDROOT
BRANCH   3  15
ATOM     15  C   UNL d   1      -1.931   3.777  -1.944  0.00  0.00     0.032 A 
ATOM     16  C   UNL d   1      -1.409   4.714  -1.044  0.00  0.00     0.026 A 
ATOM     17  C   UNL d   1      -1.690   6.088  -1.174  0.00  0.00     0.008 A 
ATOM     18  C   UNL d   1      -2.479   6.565  -2.225  0.00  0.00    -0.062 A 
ATOM     19  C   UNL d   1      -2.930   5.661  -3.179  0.00  0.00     0.008 A 
ATOM     20  C   UNL d   1      -2.845   8.017  -2.309  0.00  0.00     0.048 C 
ATOM     21  C   UNL d   1      -2.647   4.299  -3.045  0.00  0.00     0.026 A 
ENDBRANCH   3  15
BRANCH   4  22
ATOM     22  C   UNL d   1      -4.508  -0.016  -1.930  0.00  0.00     0.184 C 
ATOM     23  O   UNL d   1      -4.539  -1.188  -1.570  0.00  0.00    -0.290 OA
ATOM     24  C   UNL d   1      -5.605   0.640  -2.716  0.00  0.00     0.099 C 
ENDBRANCH   4  22
BRANCH  11  25
ATOM     25  O   UNL d   1       3.424   1.578  -0.274  0.00  0.00    -0.353 OA
ATOM     26  C   UNL d   1       3.452   2.775   0.497  0.00  0.00     0.210 C 
ENDBRANCH  11  25
BRANCH  13  27
ATOM     27  O   UNL d   1       3.437  -1.067  -0.127  0.00  0.00    -0.353 OA
ATOM     28  C   UNL d   1       3.463  -2.488  -0.072  0.00  0.00     0.210 C 
ENDBRANCH  13  27
TORSDOF 4
