REMARK  4 active torsions:
REMARK  status: ('A' for Active; 'I' for Inactive)
REMARK    1  A    between atoms: C_7  and  C_4 
REMARK    2  A    between atoms: O_15  and  C_6 
REMARK    3  A    between atoms: O_17  and  C_8 
REMARK    4  A    between atoms: O_16  and  C_9 
ROOT
ATOM      1  S   UNL d   1      -0.727  -1.934   0.746  0.00  0.00    -0.118 SA
ATOM      2  N   UNL d   1      -0.396   1.200   0.681  0.00  0.00    -0.326 N 
ATOM      3  C   UNL d   1      -1.568   0.992  -0.003  0.00  0.00     0.223 C 
ATOM      4  C   UNL d   1      -1.634  -1.441  -0.771  0.00  0.00     0.094 C 
ATOM      5  C   UNL d   1      -1.526   0.027  -1.168  0.00  0.00     0.123 C 
ATOM      6  C   UNL d   1       0.768  -0.981   0.534  0.00  0.00     0.028 A 
ATOM      7  C   UNL d   1       0.778   0.425   0.628  0.00  0.00     0.051 A 
ATOM      8  O   UNL d   1      -2.564   1.665   0.241  0.00  0.00    -0.273 OA
ATOM      9  C   UNL d   1       1.978  -1.675   0.447  0.00  0.00     0.021 A 
ATOM     10  C   UNL d   1       2.001   1.096   0.717  0.00  0.00     0.031 A 
ATOM     11  C   UNL d   1       3.191  -0.995   0.466  0.00  0.00     0.002 A 
ATOM     12  C   UNL d   1       3.201   0.391   0.617  0.00  0.00     0.002 A 
ATOM     13  H   UNL d   1      -0.375   2.071   1.201  0.00  0.00     0.169 HD
ENDROOT
BRANCH   4  14
ATOM     14  C   UNL d   1      -1.260  -2.410  -1.885  0.00  0.00    -0.038 A 
ATOM     15  C   UNL d   1      -1.989  -3.595  -2.039  0.00  0.00     0.048 A 
ATOM     16  C   UNL d   1      -1.623  -4.578  -2.977  0.00  0.00     0.104 A 
ATOM     17  C   UNL d   1      -0.476  -4.395  -3.781  0.00  0.00     0.135 A 
ATOM     18  C   UNL d   1       0.265  -3.205  -3.619  0.00  0.00     0.104 A 
ATOM     19  C   UNL d   1      -0.136  -2.232  -2.694  0.00  0.00     0.048 A 
BRANCH  16  20
ATOM     20  O   UNL d   1      -2.342  -5.748  -3.049  0.00  0.00    -0.353 OA
ATOM     21  C   UNL d   1      -3.755  -5.600  -2.890  0.00  0.00     0.210 C 
ENDBRANCH  16  20
BRANCH  17  22
ATOM     22  O   UNL d   1      -0.001  -5.244  -4.746  0.00  0.00    -0.351 OA
ATOM     23  C   UNL d   1      -0.744  -6.390  -5.125  0.00  0.00     0.210 C 
ENDBRANCH  17  22
BRANCH  18  24
ATOM     24  O   UNL d   1       1.360  -2.801  -4.343  0.00  0.00    -0.353 OA
ATOM     25  C   UNL d   1       2.337  -3.781  -4.666  0.00  0.00     0.210 C 
ENDBRANCH  18  24
ENDBRANCH   4  14
TORSDOF 4
