REMARK  3 active torsions:
REMARK  status: ('A' for Active; 'I' for Inactive)
REMARK    1  A    between atoms: C_6  and  C_2 
REMARK    2  A    between atoms: C_7  and  C_3 
REMARK       I    between atoms: N_4  and  C_6 
REMARK    3  A    between atoms: N_16  and  C_10 
ROOT
ATOM      1  S   UNL d   1      -0.970   0.001  -0.299  0.00  0.00    -0.084 SA
ATOM      2  C   UNL d   1       0.155   1.276  -0.108  0.00  0.00     0.073 A 
ATOM      3  C   UNL d   1       0.230  -1.215  -0.087  0.00  0.00     0.022 A 
ATOM      4  C   UNL d   1       1.433   0.780   0.075  0.00  0.00     0.026 A 
ATOM      5  C   UNL d   1       1.478  -0.641   0.069  0.00  0.00     0.022 A 
ENDROOT
BRANCH   2   6
ATOM      6  C   UNL d   1      -0.206   2.689  -0.099  0.00  0.00     0.263 C 
ATOM      7  N   UNL d   1      -1.415   2.953  -0.704  0.00  0.00    -0.319 N 
ATOM      8  C   UNL d   1      -1.768   4.194  -0.714  0.00  0.00     0.180 C 
ATOM      9  HN  UNL d   1      -1.991   2.218  -1.114  1.00  0.00     0.169 HD
ATOM     10  O   UNL d   1       0.545   3.544   0.363  0.00  0.00    -0.267 OA
BRANCH   8  11
ATOM     11  N   UNL d   1      -2.905   4.725  -1.280  0.00  0.00    -0.386 N 
ATOM     12  C   UNL d   1      -3.171   6.155  -1.259  0.00  0.00     0.149 C 
ATOM     13  C   UNL d   1      -3.830   3.919  -2.057  0.00  0.00     0.149 C 
ENDBRANCH   8  11
ENDBRANCH   2   6
BRANCH   3  14
ATOM     14  C   UNL d   1      -0.090  -2.628  -0.070  0.00  0.00     0.021 A 
ATOM     15  S   UNL d   1       0.927  -3.761   0.739  0.00  0.00    -0.101 SA
ATOM     16  C   UNL d   1      -0.075  -5.079   0.325  0.00  0.00     0.050 A 
ATOM     17  C   UNL d   1      -1.164  -4.683  -0.414  0.00  0.00     0.008 A 
ATOM     18  C   UNL d   1      -1.175  -3.273  -0.637  0.00  0.00     0.021 A 
ENDBRANCH   3  14
TORSDOF 3
