REMARK  6 active torsions:
REMARK  status: ('A' for Active; 'I' for Inactive)
REMARK    1  A    between atoms: C_9  and  N_1 
REMARK    2  A    between atoms: C_7  and  C_2 
REMARK    3  A    between atoms: C_8  and  O_11 
REMARK    4  A    between atoms: N_14  and  C_10 
REMARK    5  A    between atoms: O_11  and  C_18 
REMARK    6  A    between atoms: C_19  and  N_14 
ROOT
ATOM      1  C   UNL d   1       2.465  -1.353  -0.265  0.00  0.00     0.063 C 
ATOM      2  C   UNL d   1       2.276  -2.624   0.123  0.00  0.00     0.066 C 
ENDROOT
BRANCH   1   3
ATOM      3  C   UNL d   1       3.659  -0.651  -0.007  0.00  0.00     0.139 C 
ATOM      4  N   UNL d   1       4.757  -0.644  -0.867  0.00  0.00    -0.225 N 
ATOM      5  N   UNL d   1       5.779  -0.029  -0.212  0.00  0.00     0.001 NA
ATOM      6  N   UNL d   1       5.274   0.437   0.917  0.00  0.00    -0.007 NA
ATOM      7  N   UNL d   1       3.967   0.071   1.056  0.00  0.00    -0.270 N 
ATOM      8  HN  UNL d   1       3.347   0.309   1.831  1.00  0.00     0.185 HD
BRANCH   4   9
ATOM      9  C   UNL d   1       4.936  -1.052  -2.221  0.00  0.00     0.056 A 
ATOM     10  C   UNL d   1       3.856  -1.224  -3.099  0.00  0.00     0.034 A 
ATOM     11  C   UNL d   1       4.088  -1.557  -4.441  0.00  0.00     0.044 A 
ATOM     12  C   UNL d   1       5.388  -1.730  -4.900  0.00  0.00     0.116 A 
ATOM     13  C   UNL d   1       6.469  -1.567  -4.046  0.00  0.00     0.044 A 
ATOM     14  F   UNL d   1       5.598  -2.047  -6.183  0.00  0.00    -0.206 F 
ATOM     15  C   UNL d   1       6.248  -1.217  -2.712  0.00  0.00     0.034 A 
ENDBRANCH   4   9
ENDBRANCH   1   3
BRANCH   2  16
ATOM     16  N   UNL d   1       3.130  -3.496   0.771  0.00  0.00    -0.270 NA
ATOM     17  H   UNL d   1       3.116  -4.405   0.302  0.00  0.00     0.133 HD
BRANCH  16  18
ATOM     18  C   UNL d   1       2.975  -3.768   2.167  0.00  0.00     0.012 A 
ATOM     19  C   UNL d   1       3.277  -5.046   2.658  0.00  0.00     0.026 A 
ATOM     20  C   UNL d   1       3.188  -5.330   4.024  0.00  0.00     0.039 A 
ATOM     21  C   UNL d   1       2.849  -4.333   4.941  0.00  0.00     0.078 A 
ATOM     22  C   UNL d   1       2.545  -3.059   4.468  0.00  0.00     0.039 A 
ATOM     23  C   UNL d   1       2.632  -2.775   3.095  0.00  0.00     0.026 A 
BRANCH  21  24
ATOM     24  O   UNL d   1       2.796  -4.743   6.237  0.00  0.00    -0.255 OA
BRANCH  24  25
ATOM     25  C   UNL d   1       3.167  -3.841   7.270  0.00  0.00     0.530 C 
ATOM     26  F   UNL d   1       3.693  -2.678   6.833  0.00  0.00    -0.144 F 
ATOM     27  F   UNL d   1       2.086  -3.571   8.033  0.00  0.00    -0.144 F 
ATOM     28  F   UNL d   1       4.090  -4.446   8.053  0.00  0.00    -0.144 F 
ENDBRANCH  24  25
ENDBRANCH  21  24
ENDBRANCH  16  18
ENDBRANCH   2  16
TORSDOF 6
