REMARK  9 active torsions:
REMARK  status: ('A' for Active; 'I' for Inactive)
REMARK    1  A    between atoms: N_14  and  C_1 
REMARK    2  A    between atoms: C_2  and  N_5 
REMARK    3  A    between atoms: N_13  and  C_2 
REMARK    4  A    between atoms: C_3  and  C_11 
REMARK    5  A    between atoms: C_4  and  C_12 
REMARK    6  A    between atoms: N_5  and  C_10 
REMARK    7  A    between atoms: C_9  and  N_6 
REMARK    8  A    between atoms: C_19  and  N_13 
REMARK    9  A    between atoms: C_20  and  N_14 
ROOT
ATOM      1  N   UNL d   1       0.806   3.117   1.723  0.00  0.00    -0.329 N 
ATOM      2  HN  UNL d   1      -0.210   3.189   1.768  1.00  0.00     0.169 HD
ATOM      3  C   UNL d   1       1.402   2.193   0.931  0.00  0.00     0.108 A 
ATOM      4  C   UNL d   1       1.591   3.940   2.451  0.00  0.00     0.108 A 
ATOM      5  C   UNL d   1       2.778   2.120   0.799  0.00  0.00     0.049 A 
ATOM      6  C   UNL d   1       2.977   3.896   2.401  0.00  0.00     0.049 A 
ATOM      7  C   UNL d   1       3.574   2.981   1.549  0.00  0.00     0.007 A 
ENDROOT
BRANCH   3   8
ATOM      8  N   UNL d   1       0.474   1.346   0.310  0.00  0.00    -0.319 N 
ATOM      9  C   UNL d   1       0.550   0.341  -0.612  0.00  0.00     0.177 C 
ATOM     10  S   UNL d   1       1.903  -0.308  -1.353  0.00  0.00    -0.040 SA
ATOM     11  H   UNL d   1      -0.426   1.482   0.742  0.00  0.00     0.169 HD
BRANCH   9  12
ATOM     12  N   UNL d   1      -0.629  -0.277  -0.952  0.00  0.00    -0.333 N 
ATOM     13  H   UNL d   1      -0.466  -1.161  -1.427  0.00  0.00     0.168 HD
BRANCH  12  14
ATOM     14  C   UNL d   1      -1.982   0.089  -0.815  0.00  0.00     0.035 A 
ATOM     15  C   UNL d   1      -2.424   1.397  -0.603  0.00  0.00     0.045 A 
ATOM     16  C   UNL d   1      -3.794   1.680  -0.458  0.00  0.00     0.050 A 
ATOM     17  C   UNL d   1      -4.724   0.636  -0.570  0.00  0.00     0.016 A 
ATOM     18  C   UNL d   1      -4.294  -0.661  -0.835  0.00  0.00     0.003 A 
ATOM     19  C   UNL d   1      -2.930  -0.930  -0.963  0.00  0.00     0.029 A 
BRANCH  16  20
ATOM     20  C   UNL d   1      -4.269   3.085  -0.179  0.00  0.00     0.417 C 
ATOM     21  F   UNL d   1      -3.272   4.012  -0.195  0.00  0.00    -0.166 F 
ATOM     22  F   UNL d   1      -5.193   3.514  -1.081  0.00  0.00    -0.166 F 
ATOM     23  F   UNL d   1      -4.859   3.196   1.044  0.00  0.00    -0.166 F 
ENDBRANCH  16  20
ENDBRANCH  12  14
ENDBRANCH   9  12
ENDBRANCH   3   8
BRANCH   4  24
ATOM     24  N   UNL d   1       0.934   4.968   3.135  0.00  0.00    -0.319 N 
ATOM     25  H   UNL d   1      -0.036   5.074   2.868  0.00  0.00     0.169 HD
BRANCH  24  26
ATOM     26  C   UNL d   1       1.295   5.582   4.305  0.00  0.00     0.177 C 
ATOM     27  S   UNL d   1       2.047   4.850   5.609  0.00  0.00    -0.040 SA
BRANCH  26  28
ATOM     28  N   UNL d   1       0.857   6.874   4.455  0.00  0.00    -0.333 N 
ATOM     29  H   UNL d   1       0.794   7.178   5.422  0.00  0.00     0.168 HD
BRANCH  28  30
ATOM     30  C   UNL d   1       0.946   7.925   3.512  0.00  0.00     0.035 A 
ATOM     31  C   UNL d   1       1.634   7.812   2.300  0.00  0.00     0.045 A 
ATOM     32  C   UNL d   1       1.825   8.931   1.469  0.00  0.00     0.050 A 
ATOM     33  C   UNL d   1       1.280  10.164   1.852  0.00  0.00     0.016 A 
ATOM     34  C   UNL d   1       0.579  10.280   3.051  0.00  0.00     0.003 A 
ATOM     35  C   UNL d   1       0.426   9.169   3.882  0.00  0.00     0.029 A 
BRANCH  32  36
ATOM     36  C   UNL d   1       2.641   8.828   0.203  0.00  0.00     0.417 C 
ATOM     37  F   UNL d   1       3.172   7.591  -0.007  0.00  0.00    -0.166 F 
ATOM     38  F   UNL d   1       1.916   9.120  -0.911  0.00  0.00    -0.166 F 
ATOM     39  F   UNL d   1       3.698   9.688   0.198  0.00  0.00    -0.166 F 
ENDBRANCH  32  36
ENDBRANCH  28  30
ENDBRANCH  26  28
ENDBRANCH  24  26
ENDBRANCH   4  24
TORSDOF 9
