REMARK  2 active torsions:
REMARK  status: ('A' for Active; 'I' for Inactive)
REMARK    1  A    between atoms: C_7  and  C_4 
REMARK    2  A    between atoms: C_13  and  N_8 
ROOT
ATOM      1  N   UNL d   1       1.455  -0.520  -0.077  0.00  0.00    -0.335 N 
ATOM      2  HN  UNL d   1       2.366  -0.972  -0.161  1.00  0.00     0.168 HD
ATOM      3  C   UNL d   1       0.311  -1.162  -0.045  0.00  0.00     0.149 A 
ATOM      4  C   UNL d   1       1.270   0.847   0.019  0.00  0.00     0.051 A 
ATOM      5  S   UNL d   1      -1.064  -0.138   0.178  0.00  0.00    -0.064 SA
ATOM      6  C   UNL d   1      -0.044   1.241   0.156  0.00  0.00     0.083 A 
ATOM      7  N   UNL d   1       0.138  -2.500  -0.149  0.00  0.00    -0.335 N 
ATOM      8  H   UNL d   1      -0.806  -2.849  -0.045  0.00  0.00     0.168 HD
ENDROOT
BRANCH   7   9
ATOM      9  C   UNL d   1       1.046  -3.436  -0.676  0.00  0.00     0.049 A 
ATOM     10  C   UNL d   1       2.275  -3.124  -1.262  0.00  0.00     0.117 A 
ATOM     11  N   UNL d   1       3.161  -4.032  -1.752  0.00  0.00    -0.373 N 
ATOM     12  C   UNL d   1       2.823  -5.329  -1.633  0.00  0.00     0.088 A 
ATOM     13  HN  UNL d   1       4.037  -3.744  -2.188  1.00  0.00     0.164 HD
ATOM     14  C   UNL d   1       1.649  -5.761  -1.044  0.00  0.00     0.019 A 
ATOM     15  C   UNL d   1       0.760  -4.802  -0.557  0.00  0.00     0.032 A 
ENDBRANCH   7   9
BRANCH   4  16
ATOM     16  C   UNL d   1       2.414   1.747  -0.009  0.00  0.00    -0.007 A 
ATOM     17  C   UNL d   1       2.336   3.027  -0.571  0.00  0.00     0.037 A 
ATOM     18  C   UNL d   1       3.467   3.844  -0.601  0.00  0.00     0.035 A 
ATOM     19 CL   UNL d   1       3.367   5.410  -1.309  0.00  0.00    -0.084 Cl
ATOM     20  C   UNL d   1       4.681   3.402  -0.074  0.00  0.00     0.024 A 
ATOM     21  C   UNL d   1       4.768   2.130   0.483  0.00  0.00     0.003 A 
ATOM     22  C   UNL d   1       3.642   1.306   0.511  0.00  0.00     0.014 A 
ENDBRANCH   4  16
TORSDOF 2
