REMARK  4 active torsions:
REMARK  status: ('A' for Active; 'I' for Inactive)
REMARK       I    between atoms: N_2  and  C_1 
REMARK    1  A    between atoms: C_3  and  C_1 
REMARK       I    between atoms: C_5  and  N_2 
REMARK    2  A    between atoms: C_4  and  C_6 
REMARK    3  A    between atoms: C_7  and  C_5 
REMARK    4  A    between atoms: O_18  and  C_8 
ROOT
ATOM      1  C   UNL d   1      -1.030   0.670   0.629  0.00  0.00     0.261 C 
ATOM      2  N   UNL d   1       0.330   0.881   0.773  0.00  0.00    -0.289 N 
ATOM      3  C   UNL d   1       0.881   1.499   1.880  0.00  0.00     0.258 C 
ATOM      4  O   UNL d   1      -1.899   1.022   1.424  0.00  0.00    -0.267 OA
ATOM      5  O   UNL d   1       0.254   1.952   2.831  0.00  0.00    -0.267 OA
ATOM      6  H   UNL d   1       0.931   0.686  -0.011  0.00  0.00     0.172 HD
ENDROOT
BRANCH   1   7
ATOM      7  C   UNL d   1      -1.496   0.001  -0.616  0.00  0.00     0.065 A 
ATOM      8  C   UNL d   1      -2.797   0.261  -1.080  0.00  0.00     0.081 A 
ATOM      9  C   UNL d   1      -3.283  -0.354  -2.231  0.00  0.00     0.037 A 
ATOM     10  C   UNL d   1      -2.482  -1.262  -2.920  0.00  0.00     0.003 A 
ATOM     11  C   UNL d   1      -1.196  -1.549  -2.459  0.00  0.00     0.001 A 
ATOM     12  C   UNL d   1      -0.699  -0.921  -1.310  0.00  0.00     0.020 A 
BRANCH   8  13
ATOM     13  O   UNL d   1      -3.664   1.111  -0.444  0.00  0.00    -0.360 OA
ATOM     14  H   UNL d   1      -3.301   1.298   0.453  0.00  0.00     0.217 HD
ENDBRANCH   8  13
ENDBRANCH   1   7
BRANCH   3  15
ATOM     15  C   UNL d   1       2.365   1.643   1.911  0.00  0.00     0.032 A 
ATOM     16  C   UNL d   1       2.898   2.708   2.653  0.00  0.00     0.018 A 
ATOM     17  C   UNL d   1       4.279   2.849   2.809  0.00  0.00     0.017 A 
ATOM     18  C   UNL d   1       5.154   1.921   2.231  0.00  0.00     0.048 A 
ATOM     19  C   UNL d   1       4.618   0.863   1.475  0.00  0.00     0.017 A 
ATOM     20  C   UNL d   1       3.233   0.720   1.317  0.00  0.00     0.018 A 
BRANCH  18  21
ATOM     21  C   UNL d   1       6.647   2.027   2.442  0.00  0.00     0.417 C 
ATOM     22  F   UNL d   1       7.020   3.106   3.184  0.00  0.00    -0.166 F 
ATOM     23  F   UNL d   1       7.156   0.939   3.082  0.00  0.00    -0.166 F 
ATOM     24  F   UNL d   1       7.331   2.124   1.269  0.00  0.00    -0.166 F 
ENDBRANCH  18  21
ENDBRANCH   3  15
TORSDOF 4
