REMARK  3 active torsions:
REMARK  status: ('A' for Active; 'I' for Inactive)
REMARK    1  A    between atoms: C_6  and  C_1 
REMARK    2  A    between atoms: O_13  and  C_6 
REMARK    3  A    between atoms: C_16  and  O_13 
ROOT
ATOM      1  C   UNL d   1       3.411   1.379   0.056  0.00  0.00     0.115 A 
ATOM      2  C   UNL d   1       3.858  -0.028   0.145  0.00  0.00     0.304 A 
ATOM      3  C   UNL d   1       2.104   1.697   0.037  0.00  0.00     0.038 A 
ATOM      4  O   UNL d   1       2.861  -1.003   0.070  0.00  0.00    -0.274 OA
ATOM      5  C   UNL d   1       1.090   0.659   0.045  0.00  0.00     0.000 A 
ATOM      6  C   UNL d   1       1.495  -0.671   0.033  0.00  0.00     0.089 A 
ATOM      7  O   UNL d   1       5.028  -0.357   0.295  0.00  0.00    -0.259 OA
ATOM      8  C   UNL d   1      -0.275   0.953   0.022  0.00  0.00     0.033 A 
ATOM      9  C   UNL d   1       0.578  -1.718  -0.007  0.00  0.00     0.039 A 
ATOM     10  C   UNL d   1      -1.204  -0.090  -0.014  0.00  0.00     0.011 A 
ATOM     11  C   UNL d   1      -0.785  -1.423  -0.031  0.00  0.00     0.022 A 
ATOM     12 BR   UNL d   1      -3.052   0.308  -0.047  0.00  0.00    -0.051 Br
ENDROOT
BRANCH   1  13
ATOM     13  C   UNL d   1       4.348   2.517  -0.072  0.00  0.00     0.299 C 
ATOM     14  O   UNL d   1       4.046   3.677   0.176  0.00  0.00    -0.259 OA
BRANCH  13  15
ATOM     15  O   UNL d   1       5.513   2.114  -0.629  0.00  0.00    -0.318 OA
BRANCH  15  16
ATOM     16  C   UNL d   1       6.402   3.148  -1.074  0.00  0.00     0.174 C 
ATOM     17  C   UNL d   1       6.101   3.435  -2.533  0.00  0.00     0.034 C 
ENDBRANCH  15  16
ENDBRANCH  13  15
ENDBRANCH   1  13
TORSDOF 3
