REMARK  3 active torsions:
REMARK  status: ('A' for Active; 'I' for Inactive)
REMARK    1  A    between atoms: N_7  and  C_2 
REMARK    2  A    between atoms: N_11  and  N_8 
REMARK    3  A    between atoms: C_9  and  C_10 
REMARK       I    between atoms: C_10  and  N_11 
ROOT
ATOM      1  C   UNL d   1       0.570  -1.405  -0.161  0.00  0.00     0.172 A 
ATOM      2  C   UNL d   1      -0.541  -1.183   0.638  0.00  0.00     0.173 A 
ATOM      3  N   UNL d   1       0.667  -0.268  -0.934  0.00  0.00    -0.278 N 
ATOM      4  N   UNL d   1      -0.328   0.624  -0.722  0.00  0.00    -0.299 N 
ATOM      5  HN  UNL d   1      -0.478   1.517  -1.191  1.00  0.00     0.187 HD
ATOM      6  C   UNL d   1      -1.071   0.065   0.243  0.00  0.00     0.059 A 
ATOM      7  N   UNL d   1       1.437  -2.442  -0.311  0.00  0.00    -0.279 N 
ATOM      8  C   UNL d   1      -2.295   0.759   0.715  0.00  0.00     0.072 C 
ATOM      9  C   UNL d   1       1.612   0.020  -1.990  0.00  0.00     0.179 C 
ATOM     10  H   UNL d   1       2.453  -2.281  -0.253  0.00  0.00     0.189 HD
ENDROOT
BRANCH   7  11
ATOM     11  N   UNL d   1       1.089  -3.726   0.096  0.00  0.00    -0.264 N 
ATOM     12  C   UNL d   1       2.080  -4.598   0.493  0.00  0.00     0.271 C 
ATOM     13  O   UNL d   1       3.247  -4.245   0.654  0.00  0.00    -0.266 OA
ATOM     14  H   UNL d   1       0.153  -4.048  -0.151  0.00  0.00     0.190 HD
BRANCH  12  15
ATOM     15  C   UNL d   1       1.655  -6.001   0.785  0.00  0.00     0.055 A 
ATOM     16  C   UNL d   1       0.584  -6.665   0.165  0.00  0.00     0.049 A 
ATOM     17 CL   UNL d   1      -0.343  -5.995  -1.133  0.00  0.00    -0.083 Cl
ATOM     18  C   UNL d   1       0.241  -7.966   0.558  0.00  0.00     0.025 A 
ATOM     19  C   UNL d   1       0.967  -8.620   1.553  0.00  0.00     0.002 A 
ATOM     20  C   UNL d   1       2.050  -7.983   2.150  0.00  0.00     0.001 A 
ATOM     21  C   UNL d   1       2.394  -6.684   1.768  0.00  0.00     0.019 A 
ENDBRANCH  12  15
ENDBRANCH   7  11
BRANCH   2  22
ATOM     22  N   UNL d   1      -1.036  -2.023   1.675  0.00  0.00    -0.110 N 
ATOM     23  O   UNL d   1      -1.357  -3.179   1.362  0.00  0.00    -0.532 OA
ATOM     24  O   UNL d   1      -1.152  -1.513   2.795  0.00  0.00    -0.532 OA
ENDBRANCH   2  22
TORSDOF 3
