REMARK  3 active torsions:
REMARK  status: ('A' for Active; 'I' for Inactive)
REMARK    1  A    between atoms: C_7  and  C_6 
REMARK    2  A    between atoms: O_12  and  C_8 
REMARK    3  A    between atoms: O_13  and  C_11 
ROOT
ATOM      1  C   UNL d   1      -3.768   0.400   0.028  0.00  0.00     0.002 A 
ATOM      2  C   UNL d   1      -3.961  -0.468   1.133  0.00  0.00     0.111 A 
ATOM      3  C   UNL d   1      -5.172  -1.180   1.240  0.00  0.00     0.102 A 
ATOM      4  C   UNL d   1      -4.773   0.538  -0.944  0.00  0.00     0.014 A 
ATOM      5  C   UNL d   1      -5.963  -0.172  -0.833  0.00  0.00     0.004 A 
ATOM      6  C   UNL d   1      -6.159  -1.016   0.255  0.00  0.00     0.040 A 
ENDROOT
BRANCH   1   7
ATOM      7  C   UNL d   1      -2.537   1.166  -0.193  0.00  0.00     0.039 C 
ATOM      8  C   UNL d   1      -1.407   0.672  -0.710  0.00  0.00     0.076 A 
ATOM      9  C   UNL d   1      -0.138   1.442  -0.665  0.00  0.00     0.264 A 
ATOM     10  S   UNL d   1      -1.115  -0.913  -1.324  0.00  0.00    -0.055 SA
ATOM     11  N   UNL d   1       0.898   0.635  -1.037  0.00  0.00    -0.307 N 
ATOM     12  O   UNL d   1      -0.021   2.595  -0.286  0.00  0.00    -0.267 OA
ATOM     13  C   UNL d   1       0.612  -0.658  -1.373  0.00  0.00     0.146 A 
ATOM     14  H   UNL d   1       1.844   0.969  -0.989  0.00  0.00     0.170 HD
ATOM     15  S   UNL d   1       1.765  -1.782  -1.750  0.00  0.00    -0.052 SA
ENDBRANCH   1   7
BRANCH   2  16
ATOM     16  O   UNL d   1      -2.965  -0.753   2.036  0.00  0.00    -0.352 OA
ATOM     17  C   UNL d   1      -2.285   0.347   2.631  0.00  0.00     0.210 C 
ENDBRANCH   2  16
BRANCH   3  18
ATOM     18  O   UNL d   1      -5.568  -2.068   2.206  0.00  0.00    -0.353 OA
ATOM     19  C   UNL d   1      -4.737  -2.286   3.334  0.00  0.00     0.210 C 
ENDBRANCH   3  18
TORSDOF 3
