REMARK  3 active torsions:
REMARK  status: ('A' for Active; 'I' for Inactive)
REMARK    1  A    between atoms: N_15  and  C_8 
REMARK    2  A    between atoms: N_13  and  N_15 
REMARK    3  A    between atoms: C_18  and  C_16 
ROOT
ATOM      1  C   UNL d   1       1.284  -0.795  -0.020  0.00  0.00     0.150 A 
ATOM      2  C   UNL d   1       0.836   0.511   0.025  0.00  0.00     0.105 A 
ATOM      3  N   UNL d   1       2.568  -1.195  -0.043  0.00  0.00    -0.172 N 
ATOM      4  HN  UNL d   1       2.867  -2.169  -0.087  1.00  0.00     0.186 HD
ATOM      5  N   UNL d   1       0.185  -1.608  -0.037  0.00  0.00    -0.339 N 
ATOM      6  N   UNL d   1       1.726   1.527   0.065  0.00  0.00    -0.282 N 
ATOM      7  HN  UNL d   1       1.433   2.504   0.099  1.00  0.00     0.187 HD
ATOM      8  C   UNL d   1       3.412  -0.137   0.001  0.00  0.00     0.713 A 
ATOM      9  C   UNL d   1      -0.583   0.494   0.013  0.00  0.00     0.022 A 
ATOM     10  C   UNL d   1      -0.970  -0.852  -0.017  0.00  0.00     0.046 A 
ATOM     11  N   UNL d   1       3.018   1.171   0.056  0.00  0.00    -0.130 N 
ATOM     12  HN  UNL d   1       3.731   1.900   0.091  1.00  0.00     0.205 HD
ATOM     13  C   UNL d   1      -1.581   1.489   0.024  0.00  0.00     0.016 A 
ATOM     14  C   UNL d   1      -2.315  -1.246  -0.025  0.00  0.00     0.030 A 
ATOM     15  C   UNL d   1      -2.926   1.109   0.009  0.00  0.00     0.001 A 
ATOM     16  C   UNL d   1      -3.284  -0.238  -0.012  0.00  0.00     0.002 A 
ATOM     17  H   UNL d   1       0.226  -2.615  -0.064  0.00  0.00     0.167 HD
ENDROOT
BRANCH   8  18
ATOM     18  N   UNL d   1       4.787  -0.457  -0.025  0.00  0.00    -0.131 N 
ATOM     19  H   UNL d   1       4.893  -1.456   0.112  0.00  0.00     0.205 HD
BRANCH  18  20
ATOM     20  N   UNL d   1       5.654   0.422   0.549  0.00  0.00    -0.297 N 
ATOM     21  C   UNL d   1       6.889   0.047   0.596  0.00  0.00     0.119 C 
ATOM     22  HN  UNL d   1       5.347   1.322   0.919  1.00  0.00     0.186 HD
BRANCH  21  23
ATOM     23  C   UNL d   1       7.929   0.928   1.169  0.00  0.00    -0.019 A 
ATOM     24  C   UNL d   1       7.576   2.146   1.760  0.00  0.00     0.013 A 
ATOM     25  C   UNL d   1       8.570   2.996   2.247  0.00  0.00     0.001 A 
ATOM     26  C   UNL d   1       9.911   2.629   2.145  0.00  0.00     0.000 A 
ATOM     27  C   UNL d   1      10.262   1.406   1.569  0.00  0.00     0.001 A 
ATOM     28  C   UNL d   1       9.271   0.549   1.083  0.00  0.00     0.013 A 
ENDBRANCH  21  23
ENDBRANCH  18  20
ENDBRANCH   8  18
TORSDOF 3
