REMARK  6 active torsions:
REMARK  status: ('A' for Active; 'I' for Inactive)
REMARK    1  A    between atoms: N_3  and  S_1 
REMARK    2  A    between atoms: C_9  and  S_1 
REMARK    3  A    between atoms: S_2  and  C_4 
REMARK    4  A    between atoms: N_10  and  S_2 
REMARK    5  A    between atoms: C_13  and  N_3 
REMARK    6  A    between atoms: C_14  and  C_13 
ROOT
ATOM      1  C   UNL d   1      -0.313  -2.232  -6.009  0.00  0.00     0.074 A 
ATOM      2  C   UNL d   1      -0.766  -0.922  -5.833  0.00  0.00     0.025 A 
ATOM      3  C   UNL d   1       0.550  -2.821  -5.083  0.00  0.00     0.025 A 
ATOM      4  C   UNL d   1       0.531  -0.764  -3.787  0.00  0.00    -0.040 A 
ATOM      5  C   UNL d   1      -0.339  -0.189  -4.726  0.00  0.00     0.010 A 
ATOM      6  C   UNL d   1       0.975  -2.083  -3.979  0.00  0.00     0.010 A 
ENDROOT
BRANCH   4   7
ATOM      7  C   UNL d   1       0.982   0.021  -2.578  0.00  0.00     0.170 C 
BRANCH   7   8
ATOM      8  N   UNL d   1       0.609  -0.667  -1.343  0.00  0.00    -0.311 N 
ATOM      9  H   UNL d   1      -0.329  -1.065  -1.318  0.00  0.00     0.172 HD
BRANCH   8  10
ATOM     10  S   UNL d   1       1.064   0.032   0.113  0.00  0.00     0.259 S 
ATOM     11  O   UNL d   1       2.422   0.508  -0.016  0.00  0.00    -0.201 OA
ATOM     12  O   UNL d   1       0.670  -0.889   1.156  0.00  0.00    -0.201 OA
BRANCH  10  13
ATOM     13  C   UNL d   1      -0.011   1.444   0.213  0.00  0.00     0.079 A 
ATOM     14  C   UNL d   1      -1.256   1.314   0.837  0.00  0.00     0.025 A 
ATOM     15  C   UNL d   1      -2.083   2.430   0.959  0.00  0.00     0.002 A 
ATOM     16  C   UNL d   1      -1.666   3.666   0.462  0.00  0.00     0.000 A 
ATOM     17  C   UNL d   1      -0.419   3.793  -0.153  0.00  0.00     0.002 A 
ATOM     18  C   UNL d   1       0.418   2.683  -0.271  0.00  0.00     0.025 A 
ENDBRANCH  10  13
ENDBRANCH   8  10
ENDBRANCH   7   8
ENDBRANCH   4   7
BRANCH   1  19
ATOM     19  S   UNL d   1      -0.865  -3.160  -7.408  0.00  0.00     0.239 S 
ATOM     20  O   UNL d   1      -0.719  -4.572  -7.133  0.00  0.00    -0.206 OA
ATOM     21  O   UNL d   1      -2.095  -2.589  -7.903  0.00  0.00    -0.206 OA
BRANCH  19  22
ATOM     22  N   UNL d   1       0.313  -2.783  -8.541  0.00  0.00    -0.225 NA
ATOM     23  H   UNL d   1       0.821  -3.625  -8.810  0.00  0.00     0.136 HD
ATOM     24  H   UNL d   1      -0.103  -2.278  -9.323  0.00  0.00     0.136 HD
ENDBRANCH  19  22
ENDBRANCH   1  19
TORSDOF 6
