REMARK  6 active torsions:
REMARK  status: ('A' for Active; 'I' for Inactive)
REMARK    1  A    between atoms: C_17  and  N_1 
REMARK    2  A    between atoms: C_3  and  N_13 
REMARK    3  A    between atoms: C_22  and  N_4 
REMARK    4  A    between atoms: S_19  and  C_7 
REMARK       I    between atoms: N_13  and  C_20 
REMARK    5  A    between atoms: C_27  and  S_19 
REMARK    6  A    between atoms: C_20  and  C_27 
ROOT
ATOM      1  C   UNL d   1      -7.245  -2.718  -0.497  0.00  0.00     0.152 C 
ATOM      2  N   UNL d   1      -8.038  -3.808  -0.125  0.00  0.00    -0.239 N 
ATOM      3  N   UNL d   1      -9.356  -3.575  -0.366  0.00  0.00    -0.302 N 
ATOM      4  HN  UNL d   1     -10.131  -4.235  -0.294  1.00  0.00     0.186 HD
ATOM      5  C   UNL d   1      -8.132  -1.716  -0.843  0.00  0.00     0.107 C 
ATOM      6  C   UNL d   1      -9.406  -2.290  -0.717  0.00  0.00     0.134 C 
ATOM      7  C   UNL d   1      -7.856  -0.420  -1.381  0.00  0.00     0.105 C 
ATOM      8  N   UNL d   1      -7.677   0.607  -1.880  0.00  0.00    -0.191 NA
ENDROOT
BRANCH   1   9
ATOM      9  N   UNL d   1      -5.845  -2.766  -0.544  0.00  0.00    -0.310 N 
ATOM     10  C   UNL d   1      -5.101  -1.736   0.027  0.00  0.00     0.233 C 
ATOM     11  O   UNL d   1      -5.613  -0.737   0.528  0.00  0.00    -0.272 OA
ATOM     12  H   UNL d   1      -5.405  -3.680  -0.609  0.00  0.00     0.170 HD
BRANCH  10  13
ATOM     13  C   UNL d   1      -3.591  -2.008   0.012  0.00  0.00     0.185 C 
BRANCH  13  14
ATOM     14  S   UNL d   1      -2.762  -1.004   1.272  0.00  0.00    -0.083 SA
BRANCH  14  15
ATOM     15  C   UNL d   1      -1.104  -0.947   0.757  0.00  0.00     0.168 C 
ATOM     16  N   UNL d   1      -0.079  -0.241   1.393  0.00  0.00    -0.273 N 
ATOM     17  C   UNL d   1       1.030  -0.500   0.582  0.00  0.00     0.163 C 
ATOM     18  N   UNL d   1       0.720  -1.415  -0.321  0.00  0.00    -0.281 N 
ATOM     19  C   UNL d   1       2.301   0.166   0.619  0.00  0.00     0.120 A 
ATOM     20  N   UNL d   1      -0.620  -1.678  -0.220  0.00  0.00    -0.278 N 
ATOM     21  HN  UNL d   1       1.367  -1.851  -0.978  1.00  0.00     0.188 HD
ATOM     22  HN  UNL d   1      -1.150  -2.327  -0.802  1.00  0.00     0.189 HD
ATOM     23  O   UNL d   1       2.450   1.464   1.044  0.00  0.00    -0.319 OA
ATOM     24  C   UNL d   1       3.554  -0.319   0.273  0.00  0.00     0.043 A 
ATOM     25  C   UNL d   1       3.770   1.766   1.032  0.00  0.00     0.142 A 
ATOM     26  C   UNL d   1       4.498   0.700   0.567  0.00  0.00     0.027 A 
BRANCH  16  27
ATOM     27  C   UNL d   1      -0.102   0.525   2.613  0.00  0.00     0.043 A 
ATOM     28  C   UNL d   1      -1.247   1.219   3.032  0.00  0.00     0.033 A 
ATOM     29  C   UNL d   1      -1.235   1.971   4.212  0.00  0.00     0.044 A 
ATOM     30  C   UNL d   1      -0.073   2.066   4.962  0.00  0.00     0.116 A 
ATOM     31  C   UNL d   1       1.071   1.388   4.574  0.00  0.00     0.044 A 
ATOM     32  F   UNL d   1      -0.054   2.821   6.066  0.00  0.00    -0.206 F 
ATOM     33  C   UNL d   1       1.049   0.599   3.420  0.00  0.00     0.033 A 
ENDBRANCH  16  27
ENDBRANCH  14  15
ENDBRANCH  13  14
ENDBRANCH  10  13
ENDBRANCH   1   9
BRANCH   2  34
ATOM     34  C   UNL d   1      -7.638  -5.033   0.482  0.00  0.00     0.058 A 
ATOM     35  C   UNL d   1      -6.475  -5.109   1.264  0.00  0.00     0.031 A 
ATOM     36  C   UNL d   1      -6.082  -6.327   1.821  0.00  0.00     0.002 A 
ATOM     37  C   UNL d   1      -6.854  -7.467   1.614  0.00  0.00     0.000 A 
ATOM     38  C   UNL d   1      -8.035  -7.388   0.875  0.00  0.00     0.002 A 
ATOM     39  C   UNL d   1      -8.437  -6.172   0.321  0.00  0.00     0.031 A 
ENDBRANCH   2  34
TORSDOF 6
