REMARK  3 active torsions:
REMARK  status: ('A' for Active; 'I' for Inactive)
REMARK    1  A    between atoms: C_4  and  C_1 
REMARK       I    between atoms: C_2  and  N_3 
REMARK       I    between atoms: N_8  and  C_2 
REMARK    2  A    between atoms: N_3  and  C_7 
REMARK    3  A    between atoms: C_16  and  N_8 
ROOT
ATOM      1  C   UNL d   1      -0.304  -5.918  -2.351  0.00  0.00     0.326 C 
ATOM      2  N   UNL d   1      -0.605  -4.647  -2.740  0.00  0.00    -0.294 N 
ATOM      3  N   UNL d   1       0.589  -6.055  -1.326  0.00  0.00    -0.309 N 
ATOM      4  O   UNL d   1      -0.868  -6.833  -2.950  0.00  0.00    -0.247 OA
ATOM      5  H   UNL d   1      -1.267  -4.638  -3.503  0.00  0.00     0.172 HD
ATOM      6  H   UNL d   1       0.880  -5.174  -0.911  0.00  0.00     0.170 HD
ENDROOT
BRANCH   2   7
ATOM      7  C   UNL d   1      -0.077  -3.429  -2.315  0.00  0.00     0.108 A 
ATOM      8  C   UNL d   1      -0.488  -2.285  -2.990  0.00  0.00     0.049 A 
ATOM      9  C   UNL d   1       0.106  -1.065  -2.676  0.00  0.00     0.021 A 
ATOM     10  C   UNL d   1       1.090  -1.010  -1.687  0.00  0.00     0.063 A 
ATOM     11  C   UNL d   1       1.392  -2.190  -1.024  0.00  0.00     0.106 A 
ATOM     12  N   UNL d   1       0.832  -3.391  -1.315  0.00  0.00    -0.351 N 
ATOM     13  HN  UNL d   1       1.087  -4.233  -0.800  1.00  0.00     0.166 HD
BRANCH  10  14
ATOM     14  C   UNL d   1       1.825   0.259  -1.382  0.00  0.00     0.418 C 
ATOM     15  F   UNL d   1       2.756   0.127  -0.398  0.00  0.00    -0.166 F 
ATOM     16  F   UNL d   1       0.998   1.263  -0.985  0.00  0.00    -0.166 F 
ATOM     17  F   UNL d   1       2.496   0.735  -2.467  0.00  0.00    -0.166 F 
ENDBRANCH  10  14
ENDBRANCH   2   7
BRANCH   3  18
ATOM     18  C   UNL d   1       1.064  -7.243  -0.740  0.00  0.00     0.036 A 
ATOM     19  C   UNL d   1       0.819  -8.517  -1.260  0.00  0.00     0.029 A 
ATOM     20  C   UNL d   1       1.295  -9.656  -0.603  0.00  0.00     0.002 A 
ATOM     21  C   UNL d   1       2.022  -9.532   0.578  0.00  0.00     0.000 A 
ATOM     22  C   UNL d   1       2.290  -8.266   1.093  0.00  0.00     0.002 A 
ATOM     23  C   UNL d   1       1.821  -7.127   0.432  0.00  0.00     0.029 A 
ENDBRANCH   3  18
TORSDOF 3
