REMARK  3 active torsions:
REMARK  status: ('A' for Active; 'I' for Inactive)
REMARK    1  A    between atoms: C_10  and  N_4 
REMARK    2  A    between atoms: C_11  and  C_6 
REMARK    3  A    between atoms: O_13  and  C_11 
ROOT
ATOM      1  C   UNL d   1      -0.510  -1.021  -0.079  0.00  0.00     0.141 C 
ATOM      2  N   UNL d   1      -0.975   0.151   0.453  0.00  0.00    -0.359 N 
ATOM      3  S   UNL d   1       1.236  -1.076   0.064  0.00  0.00    -0.092 SA
ATOM      4  N   UNL d   1      -1.308  -1.923  -0.544  0.00  0.00    -0.336 N 
ATOM      5  HN  UNL d   1      -2.311  -1.733  -0.542  1.00  0.00     0.168 HD
ATOM      6  C   UNL d   1      -0.061   0.886   1.336  0.00  0.00     0.058 C 
ATOM      7  C   UNL d   1       1.173  -0.016   1.545  0.00  0.00     0.115 C 
ATOM      8  C   UNL d   1      -0.774   1.152   2.667  0.00  0.00     0.041 C 
ATOM      9  H   UNL d   1      -1.968   0.156   0.660  0.00  0.00     0.162 HD
ENDROOT
BRANCH   4  10
ATOM     10  C   UNL d   1      -0.860  -3.153  -1.051  0.00  0.00     0.049 A 
ATOM     11  C   UNL d   1      -1.276  -3.575  -2.312  0.00  0.00     0.117 A 
ATOM     12  N   UNL d   1      -0.958  -4.766  -2.883  0.00  0.00    -0.373 N 
ATOM     13  C   UNL d   1      -0.184  -5.591  -2.148  0.00  0.00     0.088 A 
ATOM     14  HN  UNL d   1      -1.285  -5.022  -3.814  1.00  0.00     0.164 HD
ATOM     15  C   UNL d   1       0.266  -5.288  -0.873  0.00  0.00     0.019 A 
ATOM     16  C   UNL d   1      -0.099  -4.063  -0.315  0.00  0.00     0.032 A 
ENDBRANCH   4  10
BRANCH   6  17
ATOM     17  C   UNL d   1       0.357   2.213   0.663  0.00  0.00     0.195 C 
BRANCH  17  18
ATOM     18  O   UNL d   1      -0.773   3.048   0.417  0.00  0.00    -0.398 OA
ATOM     19  H   UNL d   1      -1.338   2.551  -0.202  0.00  0.00     0.209 HD
ENDBRANCH  17  18
ENDBRANCH   6  17
TORSDOF 3
