REMARK  2 active torsions:
REMARK  status: ('A' for Active; 'I' for Inactive)
REMARK    1  A    between atoms: C_17  and  N_9 
REMARK    2  A    between atoms: C_18  and  C_17 
ROOT
ATOM      1  C   UNL d   1       1.482  -1.194   0.059  0.00  0.00     0.153 A 
ATOM      2  C   UNL d   1       1.221   0.314   0.057  0.00  0.00     0.106 A 
ATOM      3  N   UNL d   1       2.679  -1.676   0.008  0.00  0.00    -0.171 N 
ATOM      4  HN  UNL d   1       2.873  -2.677  -0.001  1.00  0.00     0.186 HD
ATOM      5  C   UNL d   1       3.662  -0.728  -0.032  0.00  0.00     0.720 A 
ATOM      6  N   UNL d   1       3.376   0.638  -0.009  0.00  0.00    -0.079 N 
ATOM      7  N   UNL d   1       2.137   1.229   0.033  0.00  0.00    -0.274 N 
ATOM      8  HN  UNL d   1       1.964   2.234   0.043  1.00  0.00     0.188 HD
ATOM      9  N   UNL d   1       0.251  -1.816   0.108  0.00  0.00    -0.327 N 
ATOM     10  C   UNL d   1      -0.228   0.460   0.073  0.00  0.00     0.023 A 
ATOM     11  C   UNL d   1      -0.755  -0.849   0.086  0.00  0.00     0.049 A 
ATOM     12  N   UNL d   1       4.973  -0.870  -0.094  0.00  0.00    -0.129 N 
ATOM     13  HN  UNL d   1       5.475  -1.757  -0.130  1.00  0.00     0.205 HD
ATOM     14  N   UNL d   1       5.554   0.383  -0.103  0.00  0.00    -0.279 N 
ATOM     15  HN  UNL d   1       6.553   0.585  -0.146  1.00  0.00     0.188 HD
ATOM     16  C   UNL d   1       4.585   1.267  -0.048  0.00  0.00     0.242 A 
ATOM     17  C   UNL d   1      -0.999   1.604   0.045  0.00  0.00     0.016 A 
ATOM     18  C   UNL d   1      -2.129  -1.008   0.071  0.00  0.00     0.030 A 
ATOM     19  C   UNL d   1      -2.382   1.429   0.028  0.00  0.00     0.001 A 
ATOM     20  C   UNL d   1      -2.940   0.136   0.040  0.00  0.00     0.002 A 
ENDROOT
BRANCH   9  21
ATOM     21  C   UNL d   1       0.038  -3.241  -0.003  0.00  0.00     0.157 C 
BRANCH  21  22
ATOM     22  C   UNL d   1      -0.121  -3.606  -1.451  0.00  0.00    -0.017 C 
ATOM     23  C   UNL d   1      -1.211  -4.174  -1.986  0.00  0.00     0.008 C 
ENDBRANCH  21  22
ENDBRANCH   9  21
TORSDOF 2
