REMARK  8 active torsions:
REMARK  status: ('A' for Active; 'I' for Inactive)
REMARK    1  A    between atoms: C_3  and  N_1 
REMARK    2  A    between atoms: C_2  and  C_6 
REMARK    3  A    between atoms: C_4  and  O_20 
REMARK    4  A    between atoms: C_8  and  C_4 
REMARK    5  A    between atoms: C_10  and  C_5 
REMARK    6  A    between atoms: C_22  and  C_19 
REMARK    7  A    between atoms: O_20  and  C_21 
REMARK    8  A    between atoms: C_21  and  C_22 
ROOT
ATOM      1  O   UNL d   1      -0.688   2.433  -1.361  0.00  0.00    -0.317 OA
ENDROOT
BRANCH   1   2
ATOM      2  C   UNL d   1      -1.637   2.193  -0.430  0.00  0.00     0.293 C 
ATOM      3  O   UNL d   1      -2.177   1.117  -0.223  0.00  0.00    -0.259 OA
BRANCH   2   4
ATOM      4  C   UNL d   1      -1.983   3.438   0.314  0.00  0.00     0.039 A 
ATOM      5  C   UNL d   1      -3.083   3.402   1.181  0.00  0.00     0.018 A 
ATOM      6  C   UNL d   1      -3.440   4.530   1.926  0.00  0.00     0.017 A 
ATOM      7  C   UNL d   1      -2.702   5.718   1.819  0.00  0.00     0.048 A 
ATOM      8  C   UNL d   1      -1.609   5.757   0.937  0.00  0.00     0.017 A 
ATOM      9  C   UNL d   1      -1.252   4.627   0.188  0.00  0.00     0.018 A 
BRANCH   7  10
ATOM     10  C   UNL d   1      -3.058   6.933   2.645  0.00  0.00     0.417 C 
ATOM     11  F   UNL d   1      -4.162   6.757   3.424  0.00  0.00    -0.166 F 
ATOM     12  F   UNL d   1      -2.057   7.293   3.494  0.00  0.00    -0.166 F 
ATOM     13  F   UNL d   1      -3.313   8.030   1.880  0.00  0.00    -0.166 F 
ENDBRANCH   7  10
ENDBRANCH   2   4
ENDBRANCH   1   2
BRANCH   1  14
ATOM     14  C   UNL d   1      -0.322   1.330  -2.214  0.00  0.00     0.183 C 
BRANCH  14  15
ATOM     15  C   UNL d   1      -1.400   0.940  -3.246  0.00  0.00     0.066 C 
BRANCH  15  16
ATOM     16  C   UNL d   1      -1.709   1.944  -4.349  0.00  0.00    -0.046 A 
ATOM     17  C   UNL d   1      -2.109   1.530  -5.640  0.00  0.00    -0.028 A 
ATOM     18  C   UNL d   1      -2.430   2.489  -6.619  0.00  0.00     0.012 A 
ATOM     19  C   UNL d   1      -2.382   3.850  -6.329  0.00  0.00     0.001 A 
ATOM     20  C   UNL d   1      -2.022   4.267  -5.057  0.00  0.00     0.001 A 
ATOM     21  C   UNL d   1      -1.694   3.325  -4.081  0.00  0.00     0.008 A 
BRANCH  17  22
ATOM     22  C   UNL d   1      -2.284   0.120  -6.016  0.00  0.00     0.035 C 
ATOM     23  C   UNL d   1      -1.476  -0.699  -6.701  0.00  0.00     0.168 C 
BRANCH  23  24
ATOM     24  N   UNL d   1      -0.156  -0.349  -7.172  0.00  0.00    -0.127 N 
ATOM     25  O   UNL d   1       0.393  -1.205  -7.875  0.00  0.00    -0.532 OA
ATOM     26  O   UNL d   1       0.354   0.726  -6.843  0.00  0.00    -0.532 OA
ENDBRANCH  23  24
ENDBRANCH  17  22
ENDBRANCH  15  16
ENDBRANCH  14  15
ENDBRANCH   1  14
TORSDOF 8
