REMARK  7 active torsions:
REMARK  status: ('A' for Active; 'I' for Inactive)
REMARK    1  A    between atoms: O_3  and  S_1 
REMARK    2  A    between atoms: C_6  and  S_1 
REMARK    3  A    between atoms: C_5  and  C_2 
REMARK    4  A    between atoms: C_4  and  O_3 
REMARK    5  A    between atoms: O_19  and  C_5 
REMARK       I    between atoms: C_10  and  N_11 
REMARK    6  A    between atoms: N_11  and  C_17 
REMARK    7  A    between atoms: C_25  and  O_19 
ROOT
ATOM      1  S   UNL d   1       1.138   0.058  -0.024  0.00  0.00     0.303 S 
ATOM      2  O   UNL d   1       0.462   1.303   0.284  0.00  0.00    -0.193 OA
ATOM      3  O   UNL d   1       2.584  -0.051   0.068  0.00  0.00    -0.193 OA
ENDROOT
BRANCH   1   4
ATOM      4  O   UNL d   1       0.674  -0.447  -1.512  0.00  0.00    -0.228 OA
BRANCH   4   5
ATOM      5  C   UNL d   1       0.923   0.322  -2.629  0.00  0.00     0.106 A 
ATOM      6  C   UNL d   1       0.026   0.283  -3.711  0.00  0.00     0.075 A 
ATOM      7  C   UNL d   1       0.303   1.005  -4.887  0.00  0.00     0.044 A 
ATOM      8  C   UNL d   1       1.459   1.769  -4.985  0.00  0.00     0.035 A 
ATOM      9  C   UNL d   1       2.353   1.814  -3.924  0.00  0.00     0.026 A 
ATOM     10 CL   UNL d   1       1.784   2.660  -6.418  0.00  0.00    -0.084 Cl
ATOM     11  C   UNL d   1       2.092   1.087  -2.758  0.00  0.00     0.041 A 
BRANCH   6  12
ATOM     12  C   UNL d   1      -1.263  -0.448  -3.715  0.00  0.00     0.296 C 
ATOM     13  O   UNL d   1      -1.775  -0.877  -4.736  0.00  0.00    -0.259 OA
BRANCH  12  14
ATOM     14  O   UNL d   1      -1.849  -0.372  -2.495  0.00  0.00    -0.318 OA
BRANCH  14  15
ATOM     15  C   UNL d   1      -3.270  -0.577  -2.495  0.00  0.00     0.174 C 
ATOM     16  C   UNL d   1      -3.938   0.779  -2.650  0.00  0.00     0.034 C 
ENDBRANCH  14  15
ENDBRANCH  12  14
ENDBRANCH   6  12
ENDBRANCH   4   5
ENDBRANCH   1   4
BRANCH   1  17
ATOM     17  C   UNL d   1       0.496  -1.148   1.115  0.00  0.00     0.086 A 
ATOM     18  C   UNL d   1       1.220  -1.442   2.276  0.00  0.00     0.028 A 
ATOM     19  C   UNL d   1       0.712  -2.366   3.194  0.00  0.00     0.031 A 
ATOM     20  C   UNL d   1      -0.516  -3.002   2.962  0.00  0.00     0.034 A 
ATOM     21  C   UNL d   1      -1.211  -2.714   1.782  0.00  0.00     0.031 A 
ATOM     22  C   UNL d   1      -0.711  -1.790   0.855  0.00  0.00     0.028 A 
BRANCH  20  23
ATOM     23  N   UNL d   1      -0.986  -3.889   3.955  0.00  0.00    -0.328 N 
ATOM     24  C   UNL d   1      -2.179  -4.588   3.952  0.00  0.00     0.218 C 
ATOM     25  O   UNL d   1      -3.027  -4.586   3.065  0.00  0.00    -0.274 OA
ATOM     26  C   UNL d   1      -2.400  -5.410   5.198  0.00  0.00     0.117 C 
ATOM     27  H   UNL d   1      -0.393  -3.997   4.769  0.00  0.00     0.169 HD
ENDBRANCH  20  23
ENDBRANCH   1  17
TORSDOF 7
