REMARK  4 active torsions:
REMARK  status: ('A' for Active; 'I' for Inactive)
REMARK    1  A    between atoms: C_6  and  N_1 
REMARK    2  A    between atoms: C_4  and  C_3 
REMARK    3  A    between atoms: O_8  and  C_5 
REMARK    4  A    between atoms: C_7  and  C_6 
ROOT
ATOM      1  N   UNL d   1       0.907   0.024  -0.150  0.00  0.00    -0.390 N 
ATOM      2  HN  UNL d   1       0.350  -0.808   0.046  1.00  0.00     0.159 HD
ATOM      3  C   UNL d   1       0.360   1.151  -0.465  0.00  0.00     0.097 C 
ENDROOT
BRANCH   1   4
ATOM      4  C   UNL d   1       2.379   0.005  -0.090  0.00  0.00     0.110 C 
ATOM      5  C   UNL d   1       2.873  -1.043  -1.091  0.00  0.00     0.037 C 
BRANCH   4   6
ATOM      6  C   UNL d   1       2.855  -0.338   1.312  0.00  0.00    -0.036 A 
ATOM      7  C   UNL d   1       2.390  -1.487   1.972  0.00  0.00     0.009 A 
ATOM      8  C   UNL d   1       2.860  -1.821   3.244  0.00  0.00     0.001 A 
ATOM      9  C   UNL d   1       3.797  -1.008   3.876  0.00  0.00     0.000 A 
ATOM     10  C   UNL d   1       4.259   0.143   3.240  0.00  0.00     0.001 A 
ATOM     11  C   UNL d   1       3.791   0.477   1.966  0.00  0.00     0.009 A 
ENDBRANCH   4   6
ENDBRANCH   1   4
BRANCH   3  12
ATOM     12  C   UNL d   1      -1.115   1.278  -0.502  0.00  0.00     0.012 A 
ATOM     13  C   UNL d   1      -1.950   0.217  -0.122  0.00  0.00     0.077 A 
ATOM     14  C   UNL d   1      -3.332   0.363  -0.144  0.00  0.00     0.037 A 
ATOM     15  C   UNL d   1      -3.894   1.565  -0.570  0.00  0.00     0.003 A 
ATOM     16  C   UNL d   1      -3.071   2.624  -0.960  0.00  0.00     0.001 A 
ATOM     17  C   UNL d   1      -1.680   2.488  -0.918  0.00  0.00     0.015 A 
BRANCH  13  18
ATOM     18  O   UNL d   1      -1.465  -1.000   0.275  0.00  0.00    -0.360 OA
ATOM     19  H   UNL d   1      -0.483  -0.949   0.196  0.00  0.00     0.217 HD
ENDBRANCH  13  18
ENDBRANCH   3  12
TORSDOF 4
