REMARK  2 active torsions:
REMARK  status: ('A' for Active; 'I' for Inactive)
REMARK    1  A    between atoms: C_9  and  C_1 
REMARK    2  A    between atoms: N_7  and  C_2 
ROOT
ATOM      1  C   UNL d   1       1.196   1.761   0.037  0.00  0.00     0.019 A 
ATOM      2  C   UNL d   1       2.532   1.507   0.020  0.00  0.00     0.111 A 
ATOM      3  C   UNL d   1       3.010   0.060  -0.006  0.00  0.00     0.273 A 
ATOM      4  C   UNL d   1       0.226   0.636   0.026  0.00  0.00     0.006 A 
ATOM      5  N   UNL d   1       2.062  -0.927   0.023  0.00  0.00    -0.321 N 
ATOM      6  C   UNL d   1       0.689  -0.681   0.029  0.00  0.00     0.046 A 
ATOM      7  C   UNL d   1      -1.160   0.858  -0.007  0.00  0.00     0.038 A 
ATOM      8  O   UNL d   1       4.204  -0.240  -0.041  0.00  0.00    -0.266 OA
ATOM      9  C   UNL d   1      -0.199  -1.761   0.024  0.00  0.00     0.032 A 
ATOM     10  C   UNL d   1      -2.048  -0.216  -0.019  0.00  0.00     0.035 A 
ATOM     11  C   UNL d   1      -1.573  -1.525   0.002  0.00  0.00     0.026 A 
ATOM     12 CL   UNL d   1      -3.743   0.079  -0.063  0.00  0.00    -0.084 Cl
ATOM     13  H   UNL d   1       2.419  -1.869   0.009  0.00  0.00     0.169 HD
ENDROOT
BRANCH   1  14
ATOM     14  C   UNL d   1       0.757   3.179  -0.003  0.00  0.00    -0.023 A 
ATOM     15  C   UNL d   1       0.594   3.834  -1.231  0.00  0.00     0.012 A 
ATOM     16  C   UNL d   1       0.136   5.151  -1.268  0.00  0.00     0.001 A 
ATOM     17  C   UNL d   1      -0.156   5.822  -0.081  0.00  0.00     0.000 A 
ATOM     18  C   UNL d   1       0.006   5.178   1.145  0.00  0.00     0.001 A 
ATOM     19  C   UNL d   1       0.455   3.858   1.185  0.00  0.00     0.012 A 
ENDBRANCH   1  14
BRANCH   2  20
ATOM     20  N   UNL d   1       3.517   2.503  -0.028  0.00  0.00    -0.372 N 
ATOM     21  C   UNL d   1       4.529   2.563  -1.092  0.00  0.00     0.149 C 
ATOM     22  C   UNL d   1       4.695   4.040  -1.493  0.00  0.00     0.187 C 
ATOM     23  O   UNL d   1       5.106   4.844  -0.369  0.00  0.00    -0.388 OA
ATOM     24  C   UNL d   1       4.137   4.759   0.694  0.00  0.00     0.187 C 
ATOM     25  C   UNL d   1       3.907   3.304   1.142  0.00  0.00     0.149 C 
ENDBRANCH   2  20
TORSDOF 2
