REMARK  6 active torsions:
REMARK  status: ('A' for Active; 'I' for Inactive)
REMARK    1  A    between atoms: S_8  and  C_1 
REMARK    2  A    between atoms: C_7  and  N_2 
REMARK    3  A    between atoms: C_10  and  C_5 
REMARK    4  A    between atoms: C_15  and  S_8 
REMARK    5  A    between atoms: C_14  and  C_15 
REMARK    6  A    between atoms: O_22  and  C_16 
ROOT
ATOM      1  C   UNL d   1       0.988  -0.644   0.088  0.00  0.00     0.152 A 
ATOM      2  N   UNL d   1      -0.321  -1.120   0.090  0.00  0.00    -0.300 N 
ATOM      3  N   UNL d   1       1.045   0.673   0.097  0.00  0.00    -0.335 N 
ATOM      4  HN  UNL d   1       1.882   1.256   0.122  1.00  0.00     0.168 HD
ATOM      5  C   UNL d   1      -0.259   1.093   0.067  0.00  0.00     0.060 A 
ATOM      6  C   UNL d   1      -1.109   0.014   0.001  0.00  0.00     0.130 A 
ENDROOT
BRANCH   2   7
ATOM      7  C   UNL d   1      -0.847  -2.443   0.207  0.00  0.00     0.043 A 
ATOM      8  C   UNL d   1      -0.144  -3.446   0.889  0.00  0.00     0.066 A 
ATOM      9  C   UNL d   1      -0.702  -4.719   1.049  0.00  0.00     0.070 A 
ATOM     10  C   UNL d   1      -1.975  -4.984   0.541  0.00  0.00     0.037 A 
ATOM     11  C   UNL d   1      -2.687  -3.994  -0.131  0.00  0.00     0.005 A 
ATOM     12  C   UNL d   1      -2.127  -2.728  -0.298  0.00  0.00     0.030 A 
BRANCH   9  13
ATOM     13  O   UNL d   1      -0.119  -5.770   1.702  0.00  0.00    -0.356 OA
ATOM     14  C   UNL d   1       1.210  -5.578   2.172  0.00  0.00     0.210 C 
ENDBRANCH   9  13
ENDBRANCH   2   7
BRANCH   1  15
ATOM     15  S   UNL d   1       2.406  -1.629  -0.129  0.00  0.00    -0.086 SA
BRANCH  15  16
ATOM     16  C   UNL d   1       3.659  -0.605   0.685  0.00  0.00     0.160 C 
BRANCH  16  17
ATOM     17  C   UNL d   1       3.406  -0.440   2.174  0.00  0.00     0.132 C 
ATOM     18  O   UNL d   1       2.789  -1.259   2.857  0.00  0.00    -0.298 OA
ATOM     19  C   UNL d   1       4.051   0.764   2.813  0.00  0.00     0.091 C 
ENDBRANCH  16  17
ENDBRANCH  15  16
ENDBRANCH   1  15
BRANCH   5  20
ATOM     20  C   UNL d   1      -0.675   2.482   0.071  0.00  0.00    -0.008 A 
ATOM     21  C   UNL d   1       0.164   3.465  -0.475  0.00  0.00     0.017 A 
ATOM     22  C   UNL d   1      -0.241   4.802  -0.503  0.00  0.00     0.043 A 
ATOM     23  C   UNL d   1      -1.476   5.159   0.025  0.00  0.00     0.116 A 
ATOM     24  C   UNL d   1      -2.317   4.204   0.583  0.00  0.00     0.043 A 
ATOM     25  F   UNL d   1      -1.863   6.440  -0.005  0.00  0.00    -0.206 F 
ATOM     26  C   UNL d   1      -1.916   2.867   0.607  0.00  0.00     0.017 A 
ENDBRANCH   5  20
TORSDOF 6
