REMARK  7 active torsions:
REMARK  status: ('A' for Active; 'I' for Inactive)
REMARK    1  A    between atoms: C_15  and  N_1 
REMARK    2  A    between atoms: N_3  and  C_2 
REMARK    3  A    between atoms: C_18  and  C_8 
REMARK    4  A    between atoms: N_9  and  C_13 
REMARK    5  A    between atoms: C_14  and  N_23 
REMARK    6  A    between atoms: C_28  and  C_18 
REMARK    7  A    between atoms: N_23  and  N_21 
ROOT
ATOM      1  N   UNL d   1      -4.642  -1.775   0.221  0.00  0.00    -0.315 N 
ATOM      2  HN  UNL d   1      -5.268  -0.975   0.127  1.00  0.00     0.185 HD
ATOM      3  C   UNL d   1      -3.353  -1.659   0.181  0.00  0.00     0.087 C 
ENDROOT
BRANCH   3   4
ATOM      4  C   UNL d   1      -2.712  -0.302   0.032  0.00  0.00     0.126 C 
BRANCH   4   5
ATOM      5  C   UNL d   1      -1.797  -0.283  -1.134  0.00  0.00     0.125 A 
ATOM      6  N   UNL d   1      -1.002   0.783  -1.559  0.00  0.00    -0.227 N 
ATOM      7  N   UNL d   1      -0.399   0.395  -2.713  0.00  0.00    -0.220 N 
ATOM      8  N   UNL d   1      -0.777  -0.847  -2.946  0.00  0.00    -0.226 N 
ATOM      9  HN  UNL d   1       0.227   0.957  -3.290  1.00  0.00     0.210 HD
ATOM     10  N   UNL d   1      -1.634  -1.282  -1.983  0.00  0.00    -0.271 N 
ATOM     11  HN  UNL d   1      -0.469  -1.407  -3.741  1.00  0.00     0.210 HD
ATOM     12  HN  UNL d   1      -2.068  -2.204  -1.927  1.00  0.00     0.190 HD
BRANCH   6  13
ATOM     13  C   UNL d   1      -0.748   2.086  -1.032  0.00  0.00     0.059 A 
ATOM     14  C   UNL d   1       0.025   2.985  -1.798  0.00  0.00     0.033 A 
ATOM     15  C   UNL d   1       0.282   4.284  -1.343  0.00  0.00     0.026 A 
ATOM     16  C   UNL d   1      -0.216   4.696  -0.114  0.00  0.00     0.034 A 
ATOM     17  C   UNL d   1      -0.957   3.814   0.667  0.00  0.00     0.026 A 
ATOM     18 CL   UNL d   1       0.076   6.296   0.443  0.00  0.00    -0.084 Cl
ATOM     19  C   UNL d   1      -1.225   2.515   0.211  0.00  0.00     0.033 A 
ENDBRANCH   6  13
ENDBRANCH   4   5
ENDBRANCH   3   4
BRANCH   1  20
ATOM     20  N   UNL d   1      -5.101  -3.047   0.398  0.00  0.00    -0.299 N 
ATOM     21  H   UNL d   1      -4.505  -3.839   0.121  0.00  0.00     0.187 HD
BRANCH  20  22
ATOM     22  C   UNL d   1      -6.487  -3.271   0.192  0.00  0.00     0.081 A 
ATOM     23  C   UNL d   1      -7.039  -4.531  -0.141  0.00  0.00     0.133 A 
ATOM     24  C   UNL d   1      -8.424  -4.682  -0.367  0.00  0.00     0.074 A 
ATOM     25  C   UNL d   1      -9.272  -3.579  -0.226  0.00  0.00     0.105 A 
ATOM     26  C   UNL d   1      -8.761  -2.341   0.170  0.00  0.00     0.038 A 
ATOM     27  C   UNL d   1      -7.386  -2.201   0.378  0.00  0.00     0.036 A 
BRANCH  23  28
ATOM     28  N   UNL d   1      -6.187  -5.724  -0.288  0.00  0.00    -0.113 N 
ATOM     29  O   UNL d   1      -6.743  -6.794  -0.579  0.00  0.00    -0.532 OA
ATOM     30  O   UNL d   1      -4.968  -5.601  -0.112  0.00  0.00    -0.532 OA
ENDBRANCH  23  28
BRANCH  25  31
ATOM     31  N   UNL d   1     -10.707  -3.712  -0.507  0.00  0.00    -0.116 N 
ATOM     32  O   UNL d   1     -11.110  -4.810  -0.918  0.00  0.00    -0.532 OA
ATOM     33  O   UNL d   1     -11.426  -2.721  -0.323  0.00  0.00    -0.532 OA
ENDBRANCH  25  31
ENDBRANCH  20  22
ENDBRANCH   1  20
TORSDOF 7
