REMARK  5 active torsions:
REMARK  status: ('A' for Active; 'I' for Inactive)
REMARK    1  A    between atoms: C_2  and  C_1 
REMARK    2  A    between atoms: C_6  and  C_2 
REMARK    3  A    between atoms: O_14  and  C_3 
REMARK    4  A    between atoms: C_4  and  C_6 
REMARK    5  A    between atoms: C_7  and  C_4 
ROOT
ATOM      1  C   UNL d   1       1.913  -2.234  -0.601  0.00  0.00     0.170 C 
ATOM      2  O   UNL d   1       1.969  -3.283  -1.239  0.00  0.00    -0.292 OA
ENDROOT
BRANCH   1   3
ATOM      3  C   UNL d   1       0.672  -1.388  -0.632  0.00  0.00     0.049 A 
ATOM      4  C   UNL d   1       0.765   0.014  -0.675  0.00  0.00     0.080 A 
ATOM      5  C   UNL d   1      -0.361   0.828  -0.575  0.00  0.00     0.044 A 
ATOM      6  C   UNL d   1      -1.631   0.264  -0.503  0.00  0.00    -0.059 A 
ATOM      7  C   UNL d   1      -1.748  -1.129  -0.514  0.00  0.00     0.014 A 
ATOM      8  C   UNL d   1      -2.842   1.137  -0.371  0.00  0.00     0.048 C 
ATOM      9  C   UNL d   1      -0.615  -1.973  -0.572  0.00  0.00    -0.045 A 
ATOM     10  C   UNL d   1      -0.891  -3.452  -0.604  0.00  0.00     0.049 C 
BRANCH   4  11
ATOM     11  O   UNL d   1       1.933   0.705  -0.848  0.00  0.00    -0.360 OA
ATOM     12  H   UNL d   1       2.454   0.262  -1.557  0.00  0.00     0.217 HD
ENDBRANCH   4  11
ENDBRANCH   1   3
BRANCH   1  13
ATOM     13  C   UNL d   1       3.096  -1.765   0.231  0.00  0.00     0.168 C 
BRANCH  13  14
ATOM     14  C   UNL d   1       4.151  -1.095  -0.620  0.00  0.00     0.168 C 
ATOM     15  O   UNL d   1       3.875  -0.724  -1.769  0.00  0.00    -0.292 OA
BRANCH  14  16
ATOM     16  C   UNL d   1       5.519  -0.787  -0.120  0.00  0.00     0.032 A 
ATOM     17  C   UNL d   1       5.878  -0.479   1.201  0.00  0.00     0.048 A 
ATOM     18 CL   UNL d   1       4.793  -0.490   2.540  0.00  0.00    -0.083 Cl
ATOM     19  C   UNL d   1       7.192  -0.076   1.490  0.00  0.00     0.025 A 
ATOM     20  C   UNL d   1       8.153   0.021   0.483  0.00  0.00     0.002 A 
ATOM     21  C   UNL d   1       7.814  -0.298  -0.824  0.00  0.00     0.001 A 
ATOM     22  C   UNL d   1       6.510  -0.698  -1.120  0.00  0.00     0.017 A 
ENDBRANCH  14  16
ENDBRANCH  13  14
ENDBRANCH   1  13
TORSDOF 5
