REMARK  7 active torsions:
REMARK  status: ('A' for Active; 'I' for Inactive)
REMARK    1  A    between atoms: C_2  and  S_1 
REMARK    2  A    between atoms: C_4  and  S_1 
REMARK    3  A    between atoms: C_3  and  C_2 
REMARK    4  A    between atoms: C_5  and  C_3 
REMARK    5  A    between atoms: O_13  and  C_5 
REMARK    6  A    between atoms: N_8  and  O_13 
REMARK    7  A    between atoms: C_16  and  C_14 
ROOT
ATOM      1  C   UNL d   1      -1.162   0.388   1.611  0.00  0.00     0.133 C 
ENDROOT
BRANCH   1   2
ATOM      2  C   UNL d   1       0.354   0.431   1.476  0.00  0.00     0.118 C 
ATOM      3  C   UNL d   1       0.933   1.707   2.096  0.00  0.00     0.027 C 
BRANCH   2   4
ATOM      4  S   UNL d   1       1.090  -0.994   2.288  0.00  0.00     0.179 S 
ATOM      5  O   UNL d   1       0.585  -1.031   3.648  0.00  0.00    -0.222 OA
ATOM      6  O   UNL d   1       2.518  -0.984   2.028  0.00  0.00    -0.222 OA
BRANCH   4   7
ATOM      7  C   UNL d   1       0.455  -2.433   1.452  0.00  0.00     0.059 A 
ATOM      8  C   UNL d   1       0.755  -2.631   0.101  0.00  0.00     0.025 A 
ATOM      9  C   UNL d   1       0.319  -3.796  -0.535  0.00  0.00     0.025 A 
ATOM     10  C   UNL d   1      -0.400  -4.755   0.182  0.00  0.00     0.034 A 
ATOM     11  C   UNL d   1      -0.697  -4.556   1.530  0.00  0.00     0.025 A 
ATOM     12 CL   UNL d   1      -0.907  -6.202  -0.597  0.00  0.00    -0.084 Cl
ATOM     13  C   UNL d   1      -0.269  -3.391   2.171  0.00  0.00     0.025 A 
ENDBRANCH   4   7
ENDBRANCH   2   4
ENDBRANCH   1   2
BRANCH   1  14
ATOM     14  C   UNL d   1      -1.833   1.495   0.846  0.00  0.00     0.282 C 
ATOM     15  O   UNL d   1      -1.713   1.647  -0.364  0.00  0.00    -0.263 OA
BRANCH  14  16
ATOM     16  O   UNL d   1      -2.599   2.241   1.703  0.00  0.00    -0.200 OA
BRANCH  16  17
ATOM     17  N   UNL d   1      -3.799   2.588   1.063  0.00  0.00    -0.268 N 
ATOM     18  C   UNL d   1      -4.517   3.312   1.859  0.00  0.00     0.126 C 
ATOM     19  HN  UNL d   1      -4.064   2.311   0.118  1.00  0.00     0.194 HD
BRANCH  18  20
ATOM     20  C   UNL d   1      -5.906   3.672   1.521  0.00  0.00    -0.019 A 
ATOM     21  C   UNL d   1      -6.524   3.114   0.395  0.00  0.00     0.014 A 
ATOM     22  C   UNL d   1      -7.865   3.392   0.127  0.00  0.00     0.024 A 
ATOM     23  C   UNL d   1      -8.580   4.231   0.981  0.00  0.00     0.034 A 
ATOM     24  C   UNL d   1      -7.965   4.795   2.100  0.00  0.00     0.024 A 
ATOM     25 CL   UNL d   1     -10.236   4.564   0.656  0.00  0.00    -0.084 Cl
ATOM     26  C   UNL d   1      -6.624   4.513   2.376  0.00  0.00     0.014 A 
ENDBRANCH  18  20
ENDBRANCH  16  17
ENDBRANCH  14  16
ENDBRANCH   1  14
TORSDOF 7
