REMARK  4 active torsions:
REMARK  status: ('A' for Active; 'I' for Inactive)
REMARK    1  A    between atoms: N_4  and  C_1 
REMARK    2  A    between atoms: N_5  and  C_1 
REMARK    3  A    between atoms: C_2  and  C_3 
REMARK    4  A    between atoms: C_6  and  N_4 
ROOT
ATOM      1  C   UNL d   1       0.235   2.927   1.775  0.00  0.00     0.074 A 
ATOM      2  C   UNL d   1       0.996   1.946   1.116  0.00  0.00     0.049 A 
ATOM      3  C   UNL d   1       0.884   4.081   2.268  0.00  0.00     0.018 A 
ATOM      4  C   UNL d   1       2.372   2.165   0.929  0.00  0.00     0.030 A 
ATOM      5  C   UNL d   1       2.253   4.273   2.092  0.00  0.00     0.001 A 
ATOM      6  C   UNL d   1       2.996   3.314   1.416  0.00  0.00     0.002 A 
ENDROOT
BRANCH   2   7
ATOM      7  N   UNL d   1       0.391   0.793   0.556  0.00  0.00    -0.333 N 
ATOM      8  H   UNL d   1      -0.623   0.771   0.513  0.00  0.00     0.168 HD
BRANCH   7   9
ATOM      9  C   UNL d   1       0.970  -0.459   0.389  0.00  0.00     0.174 C 
ATOM     10  S   UNL d   1       1.986  -1.159   1.534  0.00  0.00    -0.041 SA
BRANCH   9  11
ATOM     11  N   UNL d   1       0.566  -1.098  -0.782  0.00  0.00    -0.358 N 
ATOM     12  C   UNL d   1       1.064  -2.398  -1.234  0.00  0.00     0.125 C 
ATOM     13  C   UNL d   1       0.996  -2.317  -2.750  0.00  0.00     0.021 C 
ATOM     14  C   UNL d   1      -0.250  -1.478  -2.984  0.00  0.00     0.021 C 
ATOM     15  C   UNL d   1      -0.211  -0.464  -1.846  0.00  0.00     0.125 C 
ENDBRANCH   9  11
ENDBRANCH   7   9
ENDBRANCH   2   7
BRANCH   1  16
ATOM     16  C   UNL d   1      -1.243   2.804   2.037  0.00  0.00     0.419 C 
ATOM     17  F   UNL d   1      -1.821   1.693   1.491  0.00  0.00    -0.166 F 
ATOM     18  F   UNL d   1      -1.541   2.765   3.365  0.00  0.00    -0.166 F 
ATOM     19  F   UNL d   1      -1.947   3.858   1.532  0.00  0.00    -0.166 F 
ENDBRANCH   1  16
TORSDOF 4
