REMARK  7 active torsions:
REMARK  status: ('A' for Active; 'I' for Inactive)
REMARK    1  A    between atoms: C_8  and  C_1 
REMARK    2  A    between atoms: C_2  and  C_5 
REMARK    3  A    between atoms: C_3  and  C_6 
REMARK    4  A    between atoms: C_4  and  C_14 
REMARK    5  A    between atoms: C_18  and  C_10 
REMARK    6  A    between atoms: N_29  and  N_15 
REMARK    7  A    between atoms: C_30  and  N_29 
ROOT
ATOM      1  C   UNL d   1      -0.092   1.034  -0.035  0.00  0.00     0.086 A 
ATOM      2  O   UNL d   1      -0.955  -0.032  -0.001  0.00  0.00    -0.309 OA
ATOM      3  C   UNL d   1       1.209   0.574   0.027  0.00  0.00     0.041 A 
ATOM      4  C   UNL d   1      -0.198  -1.169   0.056  0.00  0.00     0.092 A 
ATOM      5  C   UNL d   1       1.140  -0.832   0.076  0.00  0.00     0.041 A 
ENDROOT
BRANCH   4   6
ATOM      6  C   UNL d   1      -0.828  -2.458   0.048  0.00  0.00     0.139 C 
ATOM      7  N   UNL d   1      -0.069  -3.504   0.092  0.00  0.00    -0.325 N 
ATOM      8  HN  UNL d   1       0.944  -3.417   0.174  1.00  0.00     0.180 HD
BRANCH   7   9
ATOM      9  N   UNL d   1      -0.668  -4.728   0.026  0.00  0.00    -0.206 NA
ATOM     10  H   UNL d   1      -1.423  -4.846  -0.648  0.00  0.00     0.153 HD
BRANCH   9  11
ATOM     11  C   UNL d   1       0.240  -5.819   0.017  0.00  0.00     0.028 A 
ATOM     12  C   UNL d   1       1.471  -5.737   0.688  0.00  0.00     0.041 A 
ATOM     13  C   UNL d   1       2.377  -6.809   0.700  0.00  0.00     0.049 A 
ATOM     14  C   UNL d   1       2.027  -7.994   0.039  0.00  0.00     0.016 A 
ATOM     15  C   UNL d   1       0.792  -8.103  -0.603  0.00  0.00     0.003 A 
ATOM     16  C   UNL d   1      -0.102  -7.027  -0.600  0.00  0.00     0.025 A 
BRANCH  13  17
ATOM     17  C   UNL d   1       3.702  -6.689   1.408  0.00  0.00     0.417 C 
ATOM     18  F   UNL d   1       3.912  -5.476   1.990  0.00  0.00    -0.166 F 
ATOM     19  F   UNL d   1       3.843  -7.609   2.405  0.00  0.00    -0.166 F 
ATOM     20  F   UNL d   1       4.759  -6.888   0.571  0.00  0.00    -0.166 F 
ENDBRANCH  13  17
ENDBRANCH   9  11
ENDBRANCH   7   9
ENDBRANCH   4   6
BRANCH   1  21
ATOM     21  C   UNL d   1      -0.677   2.366  -0.192  0.00  0.00    -0.001 A 
ATOM     22  C   UNL d   1      -2.062   2.575  -0.144  0.00  0.00     0.030 A 
ATOM     23  C   UNL d   1      -2.620   3.843  -0.396  0.00  0.00     0.049 A 
ATOM     24  C   UNL d   1      -1.767   4.920  -0.685  0.00  0.00     0.032 A 
ATOM     25  C   UNL d   1      -0.379   4.741  -0.735  0.00  0.00     0.049 A 
ATOM     26  C   UNL d   1       0.150   3.466  -0.469  0.00  0.00     0.030 A 
BRANCH  23  27
ATOM     27  C   UNL d   1      -4.121   4.017  -0.410  0.00  0.00     0.417 C 
ATOM     28  F   UNL d   1      -4.516   5.280  -0.735  0.00  0.00    -0.166 F 
ATOM     29  F   UNL d   1      -4.727   3.195  -1.310  0.00  0.00    -0.166 F 
ATOM     30  F   UNL d   1      -4.691   3.744   0.794  0.00  0.00    -0.166 F 
ENDBRANCH  23  27
BRANCH  25  31
ATOM     31  C   UNL d   1       0.545   5.872  -1.122  0.00  0.00     0.417 C 
ATOM     32  F   UNL d   1      -0.109   7.017  -1.459  0.00  0.00    -0.166 F 
ATOM     33  F   UNL d   1       1.403   6.210  -0.121  0.00  0.00    -0.166 F 
ATOM     34  F   UNL d   1       1.329   5.561  -2.194  0.00  0.00    -0.166 F 
ENDBRANCH  25  31
ENDBRANCH   1  21
TORSDOF 7
