REMARK  2 active torsions:
REMARK  status: ('A' for Active; 'I' for Inactive)
REMARK    1  A    between atoms: C_11  and  C_3 
REMARK    2  A    between atoms: C_8  and  C_7 
ROOT
ATOM      1  N   UNL d   1      -0.776   0.031   0.070  0.00  0.00    -0.331 N 
ATOM      2  HN  UNL d   1      -1.759  -0.232   0.140  1.00  0.00     0.168 HD
ATOM      3  C   UNL d   1      -0.258   1.214  -0.002  0.00  0.00     0.162 A 
ATOM      4  C   UNL d   1       0.327  -0.781   0.026  0.00  0.00     0.111 A 
ATOM      5  O   UNL d   1       1.092   1.307  -0.080  0.00  0.00    -0.256 OA
ATOM      6  C   UNL d   1       1.569   0.030  -0.053  0.00  0.00     0.316 A 
ATOM      7  C   UNL d   1       0.334  -2.118   0.011  0.00  0.00     0.049 C 
ATOM      8  O   UNL d   1       2.727  -0.330  -0.090  0.00  0.00    -0.257 OA
ENDROOT
BRANCH   7   9
ATOM      9  C   UNL d   1      -0.919  -2.880  -0.011  0.00  0.00    -0.012 A 
ATOM     10  C   UNL d   1      -1.582  -3.187  -1.213  0.00  0.00     0.045 A 
ATOM     11  C   UNL d   1      -2.814  -3.842  -1.196  0.00  0.00     0.048 A 
ATOM     12 CL   UNL d   1      -0.912  -2.769  -2.753  0.00  0.00    -0.083 Cl
ATOM     13  C   UNL d   1      -3.388  -4.195   0.022  0.00  0.00     0.035 A 
ATOM     14  C   UNL d   1      -2.742  -3.905   1.222  0.00  0.00     0.024 A 
ATOM     15 CL   UNL d   1      -4.914  -4.990   0.045  0.00  0.00    -0.084 Cl
ATOM     16  C   UNL d   1      -1.510  -3.247   1.207  0.00  0.00     0.015 A 
ENDBRANCH   7   9
BRANCH   3  17
ATOM     17  C   UNL d   1      -0.989   2.489   0.014  0.00  0.00     0.015 A 
ATOM     18  C   UNL d   1      -2.382   2.464   0.168  0.00  0.00     0.016 A 
ATOM     19  C   UNL d   1      -3.100   3.659   0.231  0.00  0.00     0.001 A 
ATOM     20  C   UNL d   1      -2.431   4.878   0.134  0.00  0.00     0.000 A 
ATOM     21  C   UNL d   1      -1.047   4.907  -0.037  0.00  0.00     0.001 A 
ATOM     22  C   UNL d   1      -0.324   3.714  -0.100  0.00  0.00     0.016 A 
ENDBRANCH   3  17
TORSDOF 2
