REMARK  2 active torsions:
REMARK  status: ('A' for Active; 'I' for Inactive)
REMARK    1  A    between atoms: C_5  and  C_1 
REMARK       I    between atoms: C_9  and  N_2 
REMARK    2  A    between atoms: C_14  and  C_9 
ROOT
ATOM      1  N   UNL d   1      -1.110  -4.677  -0.488  0.00  0.00    -0.231 N 
ATOM      2  N   UNL d   1      -1.312  -3.370  -0.817  0.00  0.00    -0.289 N 
ATOM      3  HN  UNL d   1      -1.958  -2.992  -1.509  1.00  0.00     0.188 HD
ATOM      4  C   UNL d   1      -0.469  -2.693  -0.023  0.00  0.00     0.086 A 
ATOM      5  C   UNL d   1      -1.735  -5.713  -1.212  0.00  0.00     0.276 C 
ATOM      6  C   UNL d   1       0.186  -3.540   0.897  0.00  0.00     0.053 A 
ATOM      7  C   UNL d   1      -0.224  -4.806   0.561  0.00  0.00     0.122 A 
ATOM      8  O   UNL d   1      -1.281  -6.849  -1.069  0.00  0.00    -0.265 OA
ENDROOT
BRANCH   5   9
ATOM      9  C   UNL d   1      -2.911  -5.531  -2.100  0.00  0.00     0.034 A 
ATOM     10  C   UNL d   1      -3.034  -6.329  -3.246  0.00  0.00     0.019 A 
ATOM     11  C   UNL d   1      -4.189  -6.255  -4.030  0.00  0.00     0.025 A 
ATOM     12  C   UNL d   1      -5.225  -5.399  -3.658  0.00  0.00     0.034 A 
ATOM     13  C   UNL d   1      -5.110  -4.603  -2.519  0.00  0.00     0.025 A 
ATOM     14 CL   UNL d   1      -6.665  -5.339  -4.596  0.00  0.00    -0.084 Cl
ATOM     15  C   UNL d   1      -3.953  -4.667  -1.738  0.00  0.00     0.019 A 
ENDBRANCH   5   9
BRANCH   4  16
ATOM     16  C   UNL d   1      -0.234  -1.227  -0.132  0.00  0.00     0.127 A 
ATOM     17  C   UNL d   1      -0.803  -0.325  -1.017  0.00  0.00     0.043 A 
ATOM     18  N   UNL d   1      -0.270   0.930  -0.816  0.00  0.00    -0.342 N 
ATOM     19  C   UNL d   1      -1.811  -0.548  -2.078  0.00  0.00     0.071 C 
ATOM     20  C   UNL d   1       0.595   0.757   0.160  0.00  0.00     0.120 A 
ATOM     21  HN  UNL d   1      -0.493   1.794  -1.310  1.00  0.00     0.167 HD
ATOM     22  O   UNL d   1       0.662  -0.521   0.637  0.00  0.00    -0.294 OA
ATOM     23  C   UNL d   1       1.499   1.749   0.774  0.00  0.00     0.098 C 
ENDBRANCH   4  16
TORSDOF 2
