REMARK  6 active torsions:
REMARK  status: ('A' for Active; 'I' for Inactive)
REMARK    1  A    between atoms: N_11  and  S_1 
REMARK    2  A    between atoms: O_15  and  S_1 
REMARK    3  A    between atoms: C_6  and  C_2 
REMARK    4  A    between atoms: C_3  and  N_14 
REMARK       I    between atoms: C_13  and  N_11 
REMARK    5  A    between atoms: O_33  and  C_12 
REMARK       I    between atoms: N_14  and  C_13 
REMARK    6  A    between atoms: C_16  and  O_15 
ROOT
ATOM      1  C   UNL d   1       3.183   0.957   1.341  0.00  0.00     0.109 A 
ATOM      2  C   UNL d   1       2.212   2.372  -0.128  0.00  0.00     0.690 A 
ATOM      3  N   UNL d   1       2.591   1.121   0.147  0.00  0.00    -0.179 N 
ATOM      4  HN  UNL d   1       2.443   0.348  -0.503  1.00  0.00     0.185 HD
ATOM      5  N   UNL d   1       3.337   1.936   2.235  0.00  0.00    -0.310 N 
ATOM      6  HN  UNL d   1       3.779   1.780   3.141  1.00  0.00     0.170 HD
ATOM      7  N   UNL d   1       2.348   3.408   0.689  0.00  0.00    -0.154 N 
ATOM      8  HN  UNL d   1       2.064   4.352   0.428  1.00  0.00     0.188 HD
ATOM      9  C   UNL d   1       2.879   3.126   1.867  0.00  0.00     0.238 A 
ENDROOT
BRANCH   2  10
ATOM     10  N   UNL d   1       1.655   2.708  -1.340  0.00  0.00    -0.140 N 
ATOM     11  C   UNL d   1       1.193   1.958  -2.369  0.00  0.00     0.349 C 
ATOM     12  N   UNL d   1       1.081   0.581  -2.208  0.00  0.00    -0.212 N 
ATOM     13  O   UNL d   1       0.842   2.548  -3.384  0.00  0.00    -0.245 OA
ATOM     14  H   UNL d   1       1.616   0.151  -1.460  0.00  0.00     0.185 HD
ATOM     15  H   UNL d   1       1.553   3.702  -1.480  0.00  0.00     0.189 HD
BRANCH  12  16
ATOM     16  S   UNL d   1       0.646  -0.451  -3.448  0.00  0.00     0.370 S 
ATOM     17  O   UNL d   1       1.890  -1.047  -3.887  0.00  0.00    -0.175 OA
ATOM     18  O   UNL d   1      -0.246   0.235  -4.355  0.00  0.00    -0.175 OA
BRANCH  16  19
ATOM     19  O   UNL d   1      -0.202  -1.612  -2.676  0.00  0.00    -0.215 OA
BRANCH  19  20
ATOM     20  C   UNL d   1      -1.268  -2.278  -3.240  0.00  0.00     0.112 A 
ATOM     21  C   UNL d   1      -1.387  -2.755  -4.555  0.00  0.00     0.070 A 
ATOM     22  C   UNL d   1      -2.521  -3.489  -4.936  0.00  0.00     0.050 A 
ATOM     23 CL   UNL d   1      -0.165  -2.602  -5.761  0.00  0.00    -0.081 Cl
ATOM     24  C   UNL d   1      -3.518  -3.779  -4.008  0.00  0.00     0.035 A 
ATOM     25  C   UNL d   1      -3.403  -3.326  -2.699  0.00  0.00     0.026 A 
ATOM     26 CL   UNL d   1      -4.872  -4.733  -4.471  0.00  0.00    -0.084 Cl
ATOM     27  C   UNL d   1      -2.287  -2.578  -2.320  0.00  0.00     0.041 A 
ENDBRANCH  19  20
ENDBRANCH  16  19
ENDBRANCH  12  16
ENDBRANCH   2  10
BRANCH   1  28
ATOM     28  C   UNL d   1       3.750  -0.407   1.723  0.00  0.00     0.020 C 
ATOM     29  C   UNL d   1       5.298  -0.404   1.602  0.00  0.00     0.022 C 
ATOM     30  C   UNL d   1       5.880  -1.770   2.019  0.00  0.00    -0.013 C 
ATOM     31  C   UNL d   1       5.489  -2.070   3.476  0.00  0.00     0.009 C 
ATOM     32  C   UNL d   1       5.304  -2.870   1.112  0.00  0.00     0.009 C 
ATOM     33  C   UNL d   1       3.958  -2.104   3.614  0.00  0.00    -0.013 C 
ATOM     34  C   UNL d   1       3.384  -0.740   3.198  0.00  0.00     0.022 C 
ATOM     35  C   UNL d   1       3.383  -3.191   2.695  0.00  0.00     0.009 C 
ATOM     36  C   UNL d   1       3.772  -2.905   1.236  0.00  0.00    -0.013 C 
ATOM     37  C   UNL d   1       3.199  -1.541   0.817  0.00  0.00     0.022 C 
ENDBRANCH   1  28
BRANCH   9  38
ATOM     38  O   UNL d   1       2.934   4.189   2.737  0.00  0.00    -0.327 OA
ATOM     39  C   UNL d   1       3.223   3.800   4.074  0.00  0.00     0.213 C 
ENDBRANCH   9  38
TORSDOF 6
