REMARK  3 active torsions:
REMARK  status: ('A' for Active; 'I' for Inactive)
REMARK    1  A    between atoms: C_8  and  C_13 
REMARK    2  A    between atoms: O_15  and  C_8 
REMARK    3  A    between atoms: C_13  and  C_10 
ROOT
ATOM      1  C   UNL d   1       0.073   1.270  -0.021  0.00  0.00     0.198 A 
ATOM      2  C   UNL d   1      -1.190   0.523  -0.007  0.00  0.00     0.049 A 
ATOM      3  C   UNL d   1       1.309   0.477  -0.001  0.00  0.00     0.049 A 
ATOM      4  O   UNL d   1       0.020  -1.597  -0.035  0.00  0.00    -0.309 OA
ATOM      5  C   UNL d   1      -1.145  -0.868  -0.010  0.00  0.00     0.090 A 
ATOM      6  C   UNL d   1       1.212  -0.913  -0.013  0.00  0.00     0.090 A 
ATOM      7  C   UNL d   1      -2.413   1.204   0.018  0.00  0.00     0.026 A 
ATOM      8  O   UNL d   1       0.095   2.494  -0.046  0.00  0.00    -0.286 OA
ATOM      9  C   UNL d   1      -3.617   0.489   0.050  0.00  0.00    -0.048 A 
ATOM     10  C   UNL d   1      -2.340  -1.588   0.012  0.00  0.00     0.039 A 
ATOM     11  C   UNL d   1      -3.567  -0.914   0.039  0.00  0.00     0.010 A 
ATOM     12  C   UNL d   1       2.556   1.109   0.034  0.00  0.00     0.018 A 
ATOM     13  C   UNL d   1       2.379  -1.680  -0.001  0.00  0.00     0.038 A 
ATOM     14  C   UNL d   1       3.717   0.339   0.053  0.00  0.00     0.001 A 
ATOM     15  C   UNL d   1       3.629  -1.054   0.033  0.00  0.00     0.003 A 
ENDROOT
BRANCH   9  16
ATOM     16  C   UNL d   1      -4.938   1.226   0.075  0.00  0.00     0.149 C 
BRANCH  16  17
ATOM     17  C   UNL d   1      -5.790   0.958   1.299  0.00  0.00     0.262 C 
ATOM     18  O   UNL d   1      -5.516   0.203   2.219  0.00  0.00    -0.265 OA
BRANCH  17  19
ATOM     19  O   UNL d   1      -6.943   1.688   1.217  0.00  0.00    -0.326 OA
ATOM     20  C   UNL d   1      -7.826   1.495   2.324  0.00  0.00     0.213 C 
ENDBRANCH  17  19
ENDBRANCH  16  17
ENDBRANCH   9  16
TORSDOF 3
