REMARK  5 active torsions:
REMARK  status: ('A' for Active; 'I' for Inactive)
REMARK    1  A    between atoms: C_12  and  N_5 
REMARK    2  A    between atoms: S_14  and  C_10 
REMARK    3  A    between atoms: C_22  and  S_14 
REMARK    4  A    between atoms: O_21  and  C_23 
REMARK    5  A    between atoms: C_23  and  C_22 
ROOT
ATOM      1  C   UNL d   1      -0.135  -0.701   0.033  0.00  0.00     0.146 A 
ATOM      2  C   UNL d   1      -0.180   0.672  -0.006  0.00  0.00     0.095 A 
ATOM      3  N   UNL d   1       0.994  -1.458   0.079  0.00  0.00    -0.321 N 
ATOM      4  HN  UNL d   1       0.979  -2.478   0.110  1.00  0.00     0.169 HD
ATOM      5  N   UNL d   1      -1.452  -1.145  -0.026  0.00  0.00    -0.239 N 
ATOM      6  N   UNL d   1       2.161   0.606   0.070  0.00  0.00    -0.303 N 
ATOM      7  C   UNL d   1       1.047   1.417   0.027  0.00  0.00     0.262 A 
ATOM      8  N   UNL d   1      -2.312  -0.081  -0.127  0.00  0.00    -0.302 N 
ATOM      9  HN  UNL d   1      -3.329  -0.111  -0.206  1.00  0.00     0.186 HD
ATOM     10  C   UNL d   1       2.088  -0.766   0.081  0.00  0.00     0.148 A 
ATOM     11  C   UNL d   1      -1.530   1.003  -0.101  0.00  0.00     0.128 A 
ATOM     12  O   UNL d   1       1.109   2.640   0.004  0.00  0.00    -0.267 OA
ATOM     13  H   UNL d   1       3.066   1.048   0.075  0.00  0.00     0.171 HD
ENDROOT
BRANCH   5  14
ATOM     14  C   UNL d   1      -1.949  -2.484  -0.022  0.00  0.00     0.058 A 
ATOM     15  C   UNL d   1      -1.097  -3.585   0.164  0.00  0.00     0.034 A 
ATOM     16  C   UNL d   1      -1.602  -4.887   0.136  0.00  0.00     0.044 A 
ATOM     17  C   UNL d   1      -2.958  -5.092  -0.070  0.00  0.00     0.116 A 
ATOM     18  C   UNL d   1      -3.823  -4.019  -0.241  0.00  0.00     0.044 A 
ATOM     19  F   UNL d   1      -3.436  -6.342  -0.102  0.00  0.00    -0.206 F 
ATOM     20  C   UNL d   1      -3.323  -2.713  -0.214  0.00  0.00     0.034 A 
ENDBRANCH   5  14
BRANCH  10  21
ATOM     21  S   UNL d   1       3.647  -1.524   0.096  0.00  0.00    -0.092 SA
BRANCH  21  22
ATOM     22  C   UNL d   1       3.254  -3.104  -0.742  0.00  0.00     0.108 C 
BRANCH  22  23
ATOM     23  C   UNL d   1       2.767  -2.936  -2.183  0.00  0.00     0.174 C 
BRANCH  23  24
ATOM     24  O   UNL d   1       3.752  -2.288  -2.979  0.00  0.00    -0.400 OA
ATOM     25  H   UNL d   1       3.380  -2.188  -3.873  0.00  0.00     0.209 HD
ENDBRANCH  23  24
ENDBRANCH  22  23
ENDBRANCH  21  22
ENDBRANCH  10  21
TORSDOF 5
