REMARK  2 active torsions:
REMARK  status: ('A' for Active; 'I' for Inactive)
REMARK    1  A    between atoms: C_16  and  C_7 
REMARK    2  A    between atoms: O_26  and  C_21 
ROOT
ATOM      1  C   UNL d   1      -0.024  -1.315  -0.085  0.00  0.00     0.066 C 
ATOM      2  C   UNL d   1      -2.054   0.643  -0.068  0.00  0.00     0.162 C 
ATOM      3  C   UNL d   1      -2.421  -0.649  -0.087  0.00  0.00     0.074 C 
ATOM      4  C   UNL d   1       0.275  -0.004  -0.067  0.00  0.00     0.104 C 
ATOM      5  C   UNL d   1       1.020  -2.349  -0.199  0.00  0.00     0.298 C 
ATOM      6  C   UNL d   1      -3.858  -0.954  -0.177  0.00  0.00     0.258 C 
ATOM      7  C   UNL d   1      -1.450  -1.793   0.019  0.00  0.00     0.103 C 
ATOM      8  O   UNL d   1      -0.696   0.990  -0.002  0.00  0.00    -0.291 OA
ATOM      9  N   UNL d   1      -2.950   1.687  -0.074  0.00  0.00    -0.326 N 
ATOM     10  HN  UNL d   1      -2.632   2.656  -0.101  1.00  0.00     0.169 HD
ATOM     11  N   UNL d   1      -4.685   0.117  -0.043  0.00  0.00    -0.313 N 
ATOM     12  C   UNL d   1       1.673   0.424  -0.062  0.00  0.00     0.033 A 
ATOM     13  O   UNL d   1       2.334  -1.925  -0.095  0.00  0.00    -0.274 OA
ATOM     14  C   UNL d   1      -4.211   1.395  -0.043  0.00  0.00     0.081 C 
ATOM     15  C   UNL d   1       2.662  -0.559  -0.051  0.00  0.00     0.092 A 
ATOM     16  O   UNL d   1       0.748  -3.529  -0.375  0.00  0.00    -0.259 OA
ATOM     17  O   UNL d   1      -4.291  -2.080  -0.381  0.00  0.00    -0.267 OA
ATOM     18  C   UNL d   1       2.084   1.762  -0.040  0.00  0.00     0.017 A 
ATOM     19  C   UNL d   1      -5.256   2.474  -0.011  0.00  0.00     0.089 C 
ATOM     20  C   UNL d   1       4.021  -0.255  -0.010  0.00  0.00     0.038 A 
ATOM     21  C   UNL d   1       3.448   2.086  -0.007  0.00  0.00     0.001 A 
ATOM     22  C   UNL d   1       4.415   1.079   0.011  0.00  0.00     0.003 A 
ATOM     23  H   UNL d   1      -5.674  -0.084  -0.085  0.00  0.00     0.170 HD
ENDROOT
BRANCH   7  24
ATOM     24  C   UNL d   1      -1.665  -2.542   1.335  0.00  0.00    -0.044 A 
ATOM     25  C   UNL d   1      -2.037  -3.893   1.322  0.00  0.00     0.011 A 
ATOM     26  C   UNL d   1      -2.280  -4.569   2.518  0.00  0.00     0.037 A 
ATOM     27  C   UNL d   1      -2.136  -3.918   3.744  0.00  0.00     0.068 A 
ATOM     28  C   UNL d   1      -1.753  -2.578   3.768  0.00  0.00     0.037 A 
ATOM     29  C   UNL d   1      -1.518  -1.895   2.574  0.00  0.00     0.011 A 
BRANCH  27  30
ATOM     30  O   UNL d   1      -2.454  -4.663   4.844  0.00  0.00    -0.356 OA
ATOM     31  C   UNL d   1      -1.777  -4.314   6.045  0.00  0.00     0.210 C 
ENDBRANCH  27  30
ENDBRANCH   7  24
TORSDOF 2
