REMARK  7 active torsions:
REMARK  status: ('A' for Active; 'I' for Inactive)
REMARK    1  A    between atoms: N_2  and  S_1 
REMARK    2  A    between atoms: C_5  and  S_1 
REMARK    3  A    between atoms: C_3  and  N_2 
REMARK    4  A    between atoms: C_8  and  C_3 
REMARK    5  A    between atoms: C_9  and  C_3 
REMARK    6  A    between atoms: C_4  and  C_9 
REMARK    7  A    between atoms: O_20  and  C_8 
ROOT
ATOM      1  C   UNL d   1       1.077   1.569  -2.237  0.00  0.00     0.197 C 
ENDROOT
BRANCH   1   2
ATOM      2  N   UNL d   1       0.499   0.411  -1.517  0.00  0.00    -0.301 N 
ATOM      3  H   UNL d   1      -0.497   0.225  -1.611  0.00  0.00     0.173 HD
BRANCH   2   4
ATOM      4  S   UNL d   1       1.113  -0.024  -0.017  0.00  0.00     0.259 S 
ATOM      5  O   UNL d   1       2.530  -0.272  -0.143  0.00  0.00    -0.201 OA
ATOM      6  O   UNL d   1       0.211  -1.028   0.503  0.00  0.00    -0.201 OA
BRANCH   4   7
ATOM      7  C   UNL d   1       0.886   1.444   0.957  0.00  0.00     0.082 A 
ATOM      8  C   UNL d   1      -0.341   1.653   1.593  0.00  0.00     0.049 A 
ATOM      9  C   UNL d   1      -0.492   2.756   2.430  0.00  0.00     0.037 A 
ATOM     10 CL   UNL d   1      -1.986   3.004   3.246  0.00  0.00    -0.084 Cl
ATOM     11  C   UNL d   1       0.558   3.651   2.628  0.00  0.00     0.047 A 
ATOM     12  C   UNL d   1       1.773   3.434   1.981  0.00  0.00     0.037 A 
ATOM     13  C   UNL d   1       1.951   2.328   1.153  0.00  0.00     0.049 A 
ATOM     14 CL   UNL d   1       3.071   4.537   2.224  0.00  0.00    -0.084 Cl
ENDBRANCH   4   7
ENDBRANCH   2   4
ENDBRANCH   1   2
BRANCH   1  15
ATOM     15  C   UNL d   1       2.593   1.552  -2.366  0.00  0.00     0.282 C 
ATOM     16  O   UNL d   1       3.322   2.348  -1.780  0.00  0.00    -0.263 OA
BRANCH  15  17
ATOM     17  O   UNL d   1       3.019   0.552  -3.185  0.00  0.00    -0.325 OA
ATOM     18  C   UNL d   1       4.433   0.497  -3.382  0.00  0.00     0.213 C 
ENDBRANCH  15  17
ENDBRANCH   1  15
BRANCH   1  19
ATOM     19  C   UNL d   1       0.435   1.707  -3.630  0.00  0.00     0.077 C 
BRANCH  19  20
ATOM     20  C   UNL d   1       0.904   2.942  -4.343  0.00  0.00    -0.028 A 
ATOM     21  C   UNL d   1       0.748   4.244  -3.905  0.00  0.00     0.096 A 
ATOM     22  N   UNL d   1       1.385   5.074  -4.787  0.00  0.00    -0.365 N 
ATOM     23  C   UNL d   1       1.934   4.344  -5.814  0.00  0.00     0.042 A 
ATOM     24  H   UNL d   1       1.458   6.077  -4.697  0.00  0.00     0.165 HD
ATOM     25  C   UNL d   1       1.649   3.001  -5.565  0.00  0.00    -0.002 A 
ATOM     26  C   UNL d   1       2.664   4.771  -6.930  0.00  0.00     0.030 A 
ATOM     27  C   UNL d   1       2.127   2.035  -6.475  0.00  0.00     0.014 A 
ATOM     28  C   UNL d   1       2.851   2.446  -7.601  0.00  0.00     0.001 A 
ATOM     29  C   UNL d   1       3.113   3.796  -7.823  0.00  0.00     0.002 A 
ENDBRANCH  19  20
ENDBRANCH   1  19
TORSDOF 7
