REMARK  6 active torsions:
REMARK  status: ('A' for Active; 'I' for Inactive)
REMARK    1  A    between atoms: S_14  and  C_1 
REMARK    2  A    between atoms: C_22  and  N_2 
REMARK    3  A    between atoms: C_18  and  N_3 
REMARK    4  A    between atoms: C_24  and  C_7 
REMARK    5  A    between atoms: C_15  and  S_14 
REMARK    6  A    between atoms: C_21  and  C_18 
ROOT
ATOM      1  N   UNL d   1      -1.990  -6.070   1.752  0.00  0.00    -0.254 N 
ATOM      2  C   UNL d   1      -0.494  -4.996   0.624  0.00  0.00     0.125 C 
ATOM      3  C   UNL d   1      -0.920  -6.288   0.916  0.00  0.00     0.153 C 
ATOM      4  N   UNL d   1      -1.902  -4.815   2.272  0.00  0.00    -0.018 NA
ATOM      5  N   UNL d   1      -1.101  -4.119   1.476  0.00  0.00    -0.278 N 
ATOM      6  HN  UNL d   1      -0.963  -3.109   1.497  1.00  0.00     0.184 HD
ATOM      7  C   UNL d   1       0.345  -4.870  -0.479  0.00  0.00     0.110 C 
ATOM      8  N   UNL d   1      -0.484  -7.434   0.364  0.00  0.00    -0.336 N 
ATOM      9  HN  UNL d   1      -0.824  -8.362   0.616  1.00  0.00     0.168 HD
ATOM     10  N   UNL d   1       0.867  -6.001  -1.037  0.00  0.00    -0.345 N 
ATOM     11  HN  UNL d   1       1.549  -5.943  -1.793  1.00  0.00     0.167 HD
ATOM     12  C   UNL d   1       0.459  -7.196  -0.565  0.00  0.00     0.183 C 
ENDROOT
BRANCH   7  13
ATOM     13  S   UNL d   1       0.404  -3.416  -1.476  0.00  0.00    -0.032 SA
BRANCH  13  14
ATOM     14  C   UNL d   1       0.564  -2.103  -0.373  0.00  0.00     0.174 C 
ATOM     15  N   UNL d   1       1.746  -1.450  -0.039  0.00  0.00    -0.275 N 
ATOM     16  C   UNL d   1       1.317  -0.159   0.283  0.00  0.00     0.139 C 
ATOM     17  N   UNL d   1       0.013  -0.189   0.494  0.00  0.00    -0.282 N 
ATOM     18  N   UNL d   1      -0.464  -1.392   0.041  0.00  0.00    -0.277 N 
ATOM     19  HN  UNL d   1      -0.543   0.554   0.920  1.00  0.00     0.188 HD
ATOM     20  HN  UNL d   1      -1.441  -1.684   0.027  1.00  0.00     0.189 HD
BRANCH  15  21
ATOM     21  C   UNL d   1       3.082  -1.938   0.013  0.00  0.00     0.043 A 
ATOM     22  C   UNL d   1       3.584  -2.878  -0.891  0.00  0.00     0.030 A 
ATOM     23  C   UNL d   1       4.913  -3.301  -0.804  0.00  0.00     0.002 A 
ATOM     24  C   UNL d   1       5.751  -2.795   0.186  0.00  0.00     0.000 A 
ATOM     25  C   UNL d   1       5.262  -1.866   1.097  0.00  0.00     0.002 A 
ATOM     26  C   UNL d   1       3.936  -1.441   1.016  0.00  0.00     0.030 A 
ENDBRANCH  15  21
BRANCH  16  27
ATOM     27  C   UNL d   1       2.130   1.066   0.251  0.00  0.00     0.010 A 
ATOM     28  C   UNL d   1       3.146   1.244  -0.707  0.00  0.00     0.015 A 
ATOM     29  C   UNL d   1       3.913   2.411  -0.735  0.00  0.00     0.001 A 
ATOM     30  C   UNL d   1       3.657   3.431   0.177  0.00  0.00     0.000 A 
ATOM     31  C   UNL d   1       2.629   3.288   1.108  0.00  0.00     0.001 A 
ATOM     32  C   UNL d   1       1.870   2.113   1.141  0.00  0.00     0.015 A 
ENDBRANCH  16  27
ENDBRANCH  13  14
ENDBRANCH   7  13
BRANCH   1  33
ATOM     33  C   UNL d   1      -3.351  -6.587   1.650  0.00  0.00     0.189 C 
BRANCH  33  34
ATOM     34  C   UNL d   1      -3.592  -8.000   1.187  0.00  0.00    -0.017 A 
ATOM     35  C   UNL d   1      -3.753  -8.338  -0.169  0.00  0.00     0.042 A 
ATOM     36 CL   UNL d   1      -3.464  -7.203  -1.440  0.00  0.00    -0.084 Cl
ATOM     37  C   UNL d   1      -4.219  -9.606  -0.538  0.00  0.00     0.024 A 
ATOM     38  C   UNL d   1      -4.525 -10.553   0.439  0.00  0.00     0.002 A 
ATOM     39  C   UNL d   1      -4.330 -10.248   1.782  0.00  0.00     0.001 A 
ATOM     40  C   UNL d   1      -3.857  -8.987   2.154  0.00  0.00     0.010 A 
ENDBRANCH  33  34
ENDBRANCH   1  33
TORSDOF 6
