REMARK  2 active torsions:
REMARK  status: ('A' for Active; 'I' for Inactive)
REMARK    1  A    between atoms: C_8  and  C_3 
REMARK    2  A    between atoms: C_9  and  N_5 
ROOT
ATOM      1  N   UNL d   1      -4.537   0.217   0.064  0.00  0.00    -0.365 N 
ATOM      2  HN  UNL d   1      -4.121   0.498  -0.824  1.00  0.00     0.165 HD
ATOM      3  C   UNL d   1      -3.853   0.294   1.159  0.00  0.00     0.107 C 
ENDROOT
BRANCH   1   4
ATOM      4  C   UNL d   1      -5.859  -0.259   0.109  0.00  0.00     0.032 A 
ATOM      5  C   UNL d   1      -6.790   0.330  -0.753  0.00  0.00     0.031 A 
ATOM      6  C   UNL d   1      -8.121  -0.099  -0.779  0.00  0.00     0.026 A 
ATOM      7  C   UNL d   1      -8.529  -1.129   0.063  0.00  0.00     0.034 A 
ATOM      8  C   UNL d   1      -7.614  -1.741   0.916  0.00  0.00     0.026 A 
ATOM      9 CL   UNL d   1     -10.165  -1.657   0.044  0.00  0.00    -0.084 Cl
ATOM     10  C   UNL d   1      -6.281  -1.316   0.927  0.00  0.00     0.031 A 
ENDBRANCH   1   4
BRANCH   3  11
ATOM     11  C   UNL d   1      -2.505   0.806   1.149  0.00  0.00     0.021 A 
ATOM     12  S   UNL d   1      -1.581   0.753   2.591  0.00  0.00    -0.077 SA
ATOM     13  C   UNL d   1      -0.262   1.492   1.831  0.00  0.00     0.075 A 
ATOM     14  C   UNL d   1      -0.486   1.785   0.511  0.00  0.00     0.033 A 
ATOM     15 CL   UNL d   1       1.170   1.805   2.724  0.00  0.00    -0.076 Cl
ATOM     16  C   UNL d   1      -1.793   1.375   0.109  0.00  0.00     0.022 A 
ENDBRANCH   3  11
TORSDOF 2
