REMARK  6 active torsions:
REMARK  status: ('A' for Active; 'I' for Inactive)
REMARK    1  A    between atoms: N_2  and  C_1 
REMARK       I    between atoms: C_3  and  N_5 
REMARK    2  A    between atoms: C_4  and  C_3 
REMARK    3  A    between atoms: N_5  and  C_6 
REMARK    4  A    between atoms: O_16  and  C_11 
REMARK    5  A    between atoms: O_17  and  C_12 
REMARK    6  A    between atoms: O_18  and  C_14 
ROOT
ATOM      1  C   UNL d   1       2.254  -2.840   0.219  0.00  0.00     0.261 C 
ATOM      2  N   UNL d   1       1.327  -2.530  -0.763  0.00  0.00    -0.321 N 
ATOM      3  O   UNL d   1       2.152  -3.720   1.065  0.00  0.00    -0.267 OA
ATOM      4  H   UNL d   1       1.635  -1.892  -1.495  0.00  0.00     0.169 HD
ENDROOT
BRANCH   2   5
ATOM      5  C   UNL d   1      -0.020  -2.978  -0.831  0.00  0.00     0.068 A 
ATOM      6  C   UNL d   1      -0.761  -2.902  -2.019  0.00  0.00     0.132 A 
ATOM      7  C   UNL d   1      -2.115  -3.269  -2.091  0.00  0.00     0.075 A 
ATOM      8  C   UNL d   1      -2.779  -3.691  -0.940  0.00  0.00     0.070 A 
ATOM      9  C   UNL d   1      -2.062  -3.796   0.250  0.00  0.00     0.039 A 
ATOM     10  C   UNL d   1      -0.694  -3.454   0.301  0.00  0.00     0.035 A 
BRANCH   6  11
ATOM     11  N   UNL d   1      -0.127  -2.482  -3.257  0.00  0.00    -0.113 N 
ATOM     12  O   UNL d   1       0.520  -1.424  -3.231  0.00  0.00    -0.532 OA
ATOM     13  O   UNL d   1      -0.273  -3.208  -4.249  0.00  0.00    -0.532 OA
ENDBRANCH   6  11
BRANCH   8  14
ATOM     14  O   UNL d   1      -4.101  -3.968  -1.121  0.00  0.00    -0.356 OA
ATOM     15  C   UNL d   1      -4.896  -4.110   0.052  0.00  0.00     0.210 C 
ENDBRANCH   8  14
ENDBRANCH   2   5
BRANCH   1  16
ATOM     16  C   UNL d   1       3.471  -1.980   0.211  0.00  0.00     0.098 A 
ATOM     17  C   UNL d   1       3.330  -0.618   0.536  0.00  0.00     0.086 A 
ATOM     18  C   UNL d   1       4.458   0.208   0.565  0.00  0.00     0.038 A 
ATOM     19  C   UNL d   1       5.721  -0.324   0.317  0.00  0.00     0.005 A 
ATOM     20  C   UNL d   1       5.866  -1.682   0.033  0.00  0.00     0.038 A 
ATOM     21  C   UNL d   1       4.748  -2.527  -0.011  0.00  0.00     0.086 A 
BRANCH  17  22
ATOM     22  O   UNL d   1       2.067  -0.142   0.788  0.00  0.00    -0.355 OA
ATOM     23  C   UNL d   1       1.994   0.863   1.796  0.00  0.00     0.210 C 
ENDBRANCH  17  22
BRANCH  21  24
ATOM     24  O   UNL d   1       4.846  -3.857  -0.331  0.00  0.00    -0.355 OA
ATOM     25  C   UNL d   1       6.043  -4.505   0.098  0.00  0.00     0.210 C 
ENDBRANCH  21  24
ENDBRANCH   1  16
TORSDOF 6
