REMARK  5 active torsions:
REMARK  status: ('A' for Active; 'I' for Inactive)
REMARK    1  A    between atoms: N_3  and  C_1 
REMARK       I    between atoms: C_2  and  N_3 
REMARK       I    between atoms: N_7  and  C_2 
REMARK    2  A    between atoms: C_11  and  N_7 
REMARK    3  A    between atoms: C_8  and  C_11 
REMARK    4  A    between atoms: C_14  and  C_8 
REMARK    5  A    between atoms: O_9  and  C_14 
ROOT
ATOM      1  C   UNL d   1       1.310   3.237  -0.505  0.00  0.00     0.320 C 
ATOM      2  N   UNL d   1       0.207   2.502  -0.133  0.00  0.00    -0.308 N 
ATOM      3  O   UNL d   1       2.379   2.785  -0.893  0.00  0.00    -0.247 OA
ATOM      4  N   UNL d   1       1.065   4.591  -0.405  0.00  0.00    -0.343 N 
ATOM      5  H   UNL d   1      -0.657   2.931  -0.424  0.00  0.00     0.170 HD
ATOM      6  H   UNL d   1       0.249   4.891   0.105  0.00  0.00     0.164 HD
ENDROOT
BRANCH   2   7
ATOM      7  C   UNL d   1       0.216   1.086  -0.077  0.00  0.00     0.048 A 
ATOM      8  C   UNL d   1       1.153   0.378   0.710  0.00  0.00    -0.035 A 
ATOM      9  C   UNL d   1       1.069  -1.026   0.779  0.00  0.00     0.009 A 
ATOM     10  C   UNL d   1       2.236   1.013   1.542  0.00  0.00     0.050 C 
ATOM     11  C   UNL d   1       0.065  -1.721   0.109  0.00  0.00     0.001 A 
ATOM     12  C   UNL d   1      -0.860  -1.022  -0.656  0.00  0.00     0.009 A 
ATOM     13  C   UNL d   1      -0.787   0.377  -0.777  0.00  0.00    -0.035 A 
ATOM     14  C   UNL d   1      -1.787   1.042  -1.687  0.00  0.00     0.050 C 
ENDBRANCH   2   7
BRANCH   4  15
ATOM     15  C   UNL d   1       2.108   5.568  -0.649  0.00  0.00     0.126 C 
BRANCH  15  16
ATOM     16  C   UNL d   1       2.067   6.105  -2.077  0.00  0.00     0.046 C 
BRANCH  16  17
ATOM     17  C   UNL d   1       0.795   6.887  -2.376  0.00  0.00     0.165 C 
BRANCH  17  18
ATOM     18  O   UNL d   1       0.669   7.979  -1.476  0.00  0.00    -0.401 OA
ATOM     19  H   UNL d   1      -0.126   8.474  -1.735  0.00  0.00     0.209 HD
ENDBRANCH  17  18
ENDBRANCH  16  17
ENDBRANCH  15  16
ENDBRANCH   4  15
TORSDOF 5
