REMARK  5 active torsions:
REMARK  status: ('A' for Active; 'I' for Inactive)
REMARK    1  A    between atoms: C_12  and  C_5 
REMARK    2  A    between atoms: N_13  and  C_7 
REMARK    3  A    between atoms: O_16  and  C_12 
REMARK    4  A    between atoms: C_15  and  N_13 
REMARK    5  A    between atoms: C_25  and  O_16 
ROOT
ATOM      1  C   UNL d   1       1.560  -0.835   0.021  0.00  0.00     0.162 A 
ATOM      2  N   UNL d   1       0.901   0.367   0.041  0.00  0.00    -0.221 N 
ATOM      3  N   UNL d   1       0.908  -2.021  -0.008  0.00  0.00    -0.325 N 
ATOM      4  HN  UNL d   1       1.435  -2.894  -0.027  1.00  0.00     0.169 HD
ATOM      5  C   UNL d   1       2.897  -0.481  -0.024  0.00  0.00     0.167 A 
ATOM      6  N   UNL d   1       1.758   1.403   0.034  0.00  0.00    -0.013 NA
ATOM      7  C   UNL d   1      -0.402  -2.045  -0.014  0.00  0.00     0.120 A 
ATOM      8  N   UNL d   1       2.988   0.899   0.003  0.00  0.00    -0.275 N 
ATOM      9  HN  UNL d   1       3.853   1.439  -0.001  1.00  0.00     0.184 HD
ATOM     10  C   UNL d   1      -1.197  -0.763   0.108  0.00  0.00     0.036 A 
ATOM     11  C   UNL d   1      -0.495   0.455   0.070  0.00  0.00     0.070 A 
ATOM     12  C   UNL d   1      -2.590  -0.733   0.211  0.00  0.00     0.017 A 
ATOM     13  C   UNL d   1      -1.154   1.685   0.070  0.00  0.00     0.032 A 
ATOM     14  C   UNL d   1      -3.257   0.499   0.237  0.00  0.00     0.001 A 
ATOM     15  C   UNL d   1      -2.545   1.699   0.147  0.00  0.00     0.002 A 
ENDROOT
BRANCH   7  16
ATOM     16  N   UNL d   1      -1.051  -3.260  -0.155  0.00  0.00    -0.342 N 
ATOM     17  H   UNL d   1      -1.997  -3.379   0.173  0.00  0.00     0.167 HD
BRANCH  16  18
ATOM     18  C   UNL d   1      -0.455  -4.423  -0.694  0.00  0.00     0.033 A 
ATOM     19  C   UNL d   1      -0.800  -5.684  -0.193  0.00  0.00     0.031 A 
ATOM     20  C   UNL d   1      -0.115  -6.831  -0.610  0.00  0.00     0.026 A 
ATOM     21  C   UNL d   1       0.926  -6.727  -1.534  0.00  0.00     0.034 A 
ATOM     22  C   UNL d   1       1.269  -5.492  -2.064  0.00  0.00     0.026 A 
ATOM     23 CL   UNL d   1       1.805  -8.129  -2.002  0.00  0.00    -0.084 Cl
ATOM     24  C   UNL d   1       0.579  -4.353  -1.645  0.00  0.00     0.031 A 
ENDBRANCH  16  18
ENDBRANCH   7  16
BRANCH   5  25
ATOM     25  C   UNL d   1       4.052  -1.359  -0.134  0.00  0.00     0.315 C 
ATOM     26  O   UNL d   1       5.208  -0.956  -0.144  0.00  0.00    -0.257 OA
BRANCH  25  27
ATOM     27  O   UNL d   1       3.708  -2.676  -0.279  0.00  0.00    -0.317 OA
BRANCH  27  28
ATOM     28  C   UNL d   1       4.740  -3.603  -0.637  0.00  0.00     0.175 C 
ATOM     29  C   UNL d   1       5.076  -4.498   0.540  0.00  0.00     0.034 C 
ENDBRANCH  27  28
ENDBRANCH  25  27
ENDBRANCH   5  25
TORSDOF 5
