REMARK  4 active torsions:
REMARK  status: ('A' for Active; 'I' for Inactive)
REMARK    1  A    between atoms: N_2  and  C_1 
REMARK    2  A    between atoms: N_3  and  C_5 
REMARK    3  A    between atoms: N_13  and  C_6 
REMARK    4  A    between atoms: C_14  and  N_13 
ROOT
ATOM      1  C   UNL d   1       1.390  -0.313   0.099  0.00  0.00     0.131 A 
ATOM      2  C   UNL d   1       0.474  -1.378   0.166  0.00  0.00     0.074 A 
ATOM      3  C   UNL d   1      -0.887  -1.090   0.074  0.00  0.00     0.105 A 
ATOM      4  C   UNL d   1       0.996   1.031  -0.074  0.00  0.00     0.061 A 
ATOM      5  C   UNL d   1      -1.324   0.232  -0.049  0.00  0.00     0.038 A 
ATOM      6  C   UNL d   1      -0.387   1.272  -0.125  0.00  0.00     0.034 A 
ENDROOT
BRANCH   4   7
ATOM      7  N   UNL d   1       1.922   2.064  -0.220  0.00  0.00    -0.388 N 
ATOM      8  H   UNL d   1       2.569   2.161   0.562  0.00  0.00     0.159 HD
BRANCH   7   9
ATOM      9  C   UNL d   1       1.531   3.334  -0.826  0.00  0.00     0.115 C 
ATOM     10  C   UNL d   1       2.765   4.084  -1.299  0.00  0.00     0.026 C 
ENDBRANCH   7   9
ENDBRANCH   4   7
BRANCH   1  11
ATOM     11  N   UNL d   1       2.794  -0.663   0.209  0.00  0.00    -0.113 N 
ATOM     12  O   UNL d   1       3.158  -1.147   1.289  0.00  0.00    -0.532 OA
ATOM     13  O   UNL d   1       3.510  -0.505  -0.789  0.00  0.00    -0.532 OA
ENDBRANCH   1  11
BRANCH   3  14
ATOM     14  N   UNL d   1      -1.872  -2.179   0.094  0.00  0.00    -0.116 N 
ATOM     15  O   UNL d   1      -1.440  -3.340   0.147  0.00  0.00    -0.532 OA
ATOM     16  O   UNL d   1      -3.071  -1.873   0.051  0.00  0.00    -0.532 OA
ENDBRANCH   3  14
TORSDOF 4
