REMARK  4 active torsions:
REMARK  status: ('A' for Active; 'I' for Inactive)
REMARK    1  A    between atoms: N_14  and  C_6 
REMARK    2  A    between atoms: N_12  and  N_14 
REMARK    3  A    between atoms: C_16  and  C_15 
REMARK    4  A    between atoms: O_24  and  C_17 
ROOT
ATOM      1  C   UNL d   1       1.177   0.543   0.054  0.00  0.00     0.090 A 
ATOM      2  C   UNL d   1       0.581  -0.715   0.036  0.00  0.00     0.051 A 
ATOM      3  S   UNL d   1       0.060   1.829   0.085  0.00  0.00    -0.075 SA
ATOM      4  C   UNL d   1      -0.866  -0.569   0.005  0.00  0.00    -0.028 A 
ATOM      5  C   UNL d   1      -1.255   0.760   0.059  0.00  0.00    -0.008 A 
ATOM      6  C   UNL d   1       1.477  -1.818   0.070  0.00  0.00     0.134 A 
ATOM      7  N   UNL d   1       2.489   0.819   0.061  0.00  0.00    -0.346 N 
ATOM      8  HN  UNL d   1       2.871   1.765   0.069  1.00  0.00     0.167 HD
ATOM      9  N   UNL d   1       2.811  -1.548   0.063  0.00  0.00    -0.337 N 
ATOM     10  HN  UNL d   1       3.486  -2.313   0.064  1.00  0.00     0.168 HD
ATOM     11  C   UNL d   1       3.236  -0.281   0.055  0.00  0.00     0.182 A 
ATOM     12  C   UNL d   1      -1.885  -1.671  -0.043  0.00  0.00     0.041 C 
ATOM     13  C   UNL d   1      -2.667   1.256   0.065  0.00  0.00     0.047 C 
ATOM     14  C   UNL d   1      -3.322  -1.164  -0.248  0.00  0.00     0.005 C 
ATOM     15  C   UNL d   1      -3.612   0.135   0.513  0.00  0.00     0.005 C 
ENDROOT
BRANCH   6  16
ATOM     16  N   UNL d   1       1.057  -3.164   0.142  0.00  0.00    -0.285 N 
ATOM     17  H   UNL d   1       0.065  -3.331   0.208  0.00  0.00     0.188 HD
BRANCH  16  18
ATOM     18  N   UNL d   1       1.973  -4.106   0.494  0.00  0.00    -0.309 N 
ATOM     19  C   UNL d   1       1.519  -5.212   1.005  0.00  0.00     0.118 C 
ATOM     20  HN  UNL d   1       2.973  -3.952   0.363  1.00  0.00     0.186 HD
BRANCH  19  21
ATOM     21  C   UNL d   1       2.438  -6.317   1.369  0.00  0.00    -0.019 A 
ATOM     22  C   UNL d   1       3.817  -6.189   1.183  0.00  0.00     0.015 A 
ATOM     23  C   UNL d   1       4.669  -7.276   1.413  0.00  0.00     0.037 A 
ATOM     24  C   UNL d   1       4.144  -8.492   1.852  0.00  0.00     0.068 A 
ATOM     25  C   UNL d   1       2.773  -8.596   2.103  0.00  0.00     0.037 A 
ATOM     26  C   UNL d   1       1.914  -7.517   1.859  0.00  0.00     0.015 A 
BRANCH  24  27
ATOM     27  O   UNL d   1       4.877  -9.618   2.114  0.00  0.00    -0.356 OA
ATOM     28  C   UNL d   1       6.035  -9.809   1.308  0.00  0.00     0.210 C 
ENDBRANCH  24  27
ENDBRANCH  19  21
ENDBRANCH  16  18
ENDBRANCH   6  16
TORSDOF 4
