REMARK  5 active torsions:
REMARK  status: ('A' for Active; 'I' for Inactive)
REMARK    1  A    between atoms: C_3  and  C_1 
REMARK    2  A    between atoms: O_11  and  C_3 
REMARK    3  A    between atoms: N_6  and  O_11 
REMARK    4  A    between atoms: C_12  and  C_8 
REMARK    5  A    between atoms: N_16  and  C_8 
ROOT
ATOM      1  N   UNL d   1       3.913   0.149  -0.143  0.00  0.00    -0.246 N 
ATOM      2  HN  UNL d   1       3.804  -0.847  -0.333  1.00  0.00     0.196 HD
ATOM      3  C   UNL d   1       5.058   0.724   0.068  0.00  0.00     0.109 C 
ENDROOT
BRANCH   1   4
ATOM      4  O   UNL d   1       2.833   1.060  -0.079  0.00  0.00    -0.192 OA
BRANCH   4   5
ATOM      5  C   UNL d   1       1.649   0.373  -0.263  0.00  0.00     0.333 C 
ATOM      6  O   UNL d   1       1.545  -0.831  -0.478  0.00  0.00    -0.256 OA
BRANCH   5   7
ATOM      7  C   UNL d   1       0.479   1.240  -0.189  0.00  0.00     0.130 A 
ATOM      8  N   UNL d   1       0.570   2.610   0.048  0.00  0.00    -0.287 N 
ATOM      9  N   UNL d   1      -0.621   3.188   0.068  0.00  0.00    -0.061 NA
ATOM     10  HN  UNL d   1       1.448   3.108   0.189  1.00  0.00     0.183 HD
ATOM     11  S   UNL d   1      -1.875   2.113  -0.193  0.00  0.00    -0.010 SA
ATOM     12  C   UNL d   1      -0.821   0.775  -0.350  0.00  0.00     0.102 A 
ENDBRANCH   5   7
ENDBRANCH   4   5
ENDBRANCH   1   4
BRANCH   3  13
ATOM     13  C   UNL d   1       6.280  -0.146   0.044  0.00  0.00     0.004 A 
ATOM     14  C   UNL d   1       6.283  -1.327  -0.711  0.00  0.00     0.016 A 
ATOM     15  C   UNL d   1       7.424  -2.134  -0.749  0.00  0.00     0.024 A 
ATOM     16  C   UNL d   1       8.556  -1.768  -0.022  0.00  0.00     0.034 A 
ATOM     17  C   UNL d   1       8.556  -0.604   0.745  0.00  0.00     0.024 A 
ATOM     18 CL   UNL d   1       9.960  -2.760  -0.069  0.00  0.00    -0.084 Cl
ATOM     19  C   UNL d   1       7.419   0.210   0.779  0.00  0.00     0.016 A 
ENDBRANCH   3  13
BRANCH   3  20
ATOM     20  N   UNL d   1       5.213   2.071   0.294  0.00  0.00    -0.286 NA
ATOM     21  H   UNL d   1       4.391   2.611   0.044  0.00  0.00     0.125 HD
ATOM     22  H   UNL d   1       6.065   2.483  -0.071  0.00  0.00     0.125 HD
ENDBRANCH   3  20
TORSDOF 5
