REMARK  2 active torsions:
REMARK  status: ('A' for Active; 'I' for Inactive)
REMARK    1  A    between atoms: O_17  and  C_11 
REMARK    2  A    between atoms: O_18  and  C_13 
ROOT
ATOM      1  N   UNL d   1       1.851   0.742  -1.504  0.00  0.00     0.111 N 
ATOM      2  C   UNL d   1       0.423   1.082  -1.674  0.00  0.00     0.292 C 
ATOM      3  C   UNL d   1       0.227   1.570  -3.119  0.00  0.00    -0.011 C 
ATOM      4  C   UNL d   1      -0.654   0.147  -1.113  0.00  0.00     0.006 A 
ATOM      5  N   UNL d   1       0.683  -1.927  -0.773  0.00  0.00    -0.325 N 
ATOM      6  C   UNL d   1       1.160   2.507  -3.619  0.00  0.00    -0.045 C 
ATOM      7  C   UNL d   1       1.937  -1.459  -0.512  0.00  0.00     0.250 C 
ATOM      8  C   UNL d   1      -0.519  -1.212  -0.793  0.00  0.00     0.043 A 
ATOM      9  C   UNL d   1      -0.833   1.185  -3.953  0.00  0.00     0.049 C 
ATOM     10  C   UNL d   1       2.134   0.027  -0.265  0.00  0.00     0.376 C 
ATOM     11  C   UNL d   1      -1.019   1.798  -5.198  0.00  0.00     0.102 C 
ATOM     12  C   UNL d   1       0.919   3.174  -4.830  0.00  0.00     0.047 C 
ATOM     13  C   UNL d   1      -0.207   2.865  -5.589  0.00  0.00     0.102 C 
ATOM     14  C   UNL d   1       2.631   1.992  -1.574  0.00  0.00     0.279 C 
ATOM     15  C   UNL d   1       2.491   2.701  -2.931  0.00  0.00     0.069 C 
ATOM     16  O   UNL d   1       2.866  -2.268  -0.402  0.00  0.00    -0.271 OA
ATOM     17  C   UNL d   1      -1.935   0.735  -0.915  0.00  0.00     0.012 A 
ATOM     18  C   UNL d   1      -1.647  -1.954  -0.387  0.00  0.00     0.030 A 
ATOM     19  C   UNL d   1      -3.032   0.003  -0.462  0.00  0.00     0.001 A 
ATOM     20  C   UNL d   1      -2.889  -1.350  -0.208  0.00  0.00     0.002 A 
ATOM     21  H   UNL d   1       0.643  -2.938  -0.738  0.00  0.00     0.169 HD
ENDROOT
BRANCH  11  22
ATOM     22  O   UNL d   1      -2.057   1.408  -6.003  0.00  0.00    -0.353 OA
ATOM     23  C   UNL d   1      -1.845   0.093  -6.523  0.00  0.00     0.210 C 
ENDBRANCH  11  22
BRANCH  13  24
ATOM     24  O   UNL d   1      -0.485   3.530  -6.754  0.00  0.00    -0.353 OA
ATOM     25  C   UNL d   1      -0.607   4.939  -6.536  0.00  0.00     0.210 C 
ENDBRANCH  13  24
TORSDOF 2
