REMARK  6 active torsions:
REMARK  status: ('A' for Active; 'I' for Inactive)
REMARK    1  A    between atoms: C_9  and  C_1 
REMARK    2  A    between atoms: N_7  and  C_2 
REMARK    3  A    between atoms: C_18  and  C_3 
REMARK       I    between atoms: C_8  and  N_7 
REMARK    4  A    between atoms: C_10  and  C_8 
REMARK    5  A    between atoms: C_16  and  C_13 
REMARK    6  A    between atoms: O_24  and  C_16 
ROOT
ATOM      1  C   UNL d   1       1.781   0.855   0.354  0.00  0.00     0.147 C 
ATOM      2  C   UNL d   1       0.383  -0.881   0.603  0.00  0.00     0.138 C 
ATOM      3  C   UNL d   1       1.733  -0.577   0.443  0.00  0.00     0.053 C 
ATOM      4  N   UNL d   1       0.538   1.371   0.389  0.00  0.00    -0.292 N 
ATOM      5  HN  UNL d   1       0.276   2.357   0.402  1.00  0.00     0.187 HD
ATOM      6  N   UNL d   1      -0.281   0.309   0.402  0.00  0.00    -0.280 N 
ATOM      7  C   UNL d   1      -1.642   0.550  -0.012  0.00  0.00     0.179 C 
ENDROOT
BRANCH   2   8
ATOM      8  N   UNL d   1      -0.113  -2.160   0.851  0.00  0.00    -0.311 N 
ATOM      9  C   UNL d   1      -1.495  -2.446   1.035  0.00  0.00     0.229 C 
ATOM     10  O   UNL d   1      -2.155  -2.606   0.020  0.00  0.00    -0.273 OA
ATOM     11  H   UNL d   1       0.494  -2.943   0.629  0.00  0.00     0.170 HD
BRANCH   9  12
ATOM     12  C   UNL d   1      -1.956  -2.748   2.444  0.00  0.00     0.101 C 
ATOM     13  C   UNL d   1      -1.973  -1.564   3.448  0.00  0.00     0.022 C 
ATOM     14  C   UNL d   1      -2.865  -0.451   2.958  0.00  0.00    -0.025 C 
ATOM     15  C   UNL d   1      -2.926  -2.122   4.517  0.00  0.00     0.018 C 
ATOM     16  C   UNL d   1      -4.126  -0.909   2.969  0.00  0.00    -0.025 C 
ATOM     17  C   UNL d   1      -4.087  -2.312   3.531  0.00  0.00     0.023 C 
ATOM     18  C   UNL d   1      -3.454  -3.229   2.463  0.00  0.00     0.105 C 
BRANCH  18  19
ATOM     19  C   UNL d   1      -3.562  -4.687   2.845  0.00  0.00     0.145 C 
ATOM     20  O   UNL d   1      -2.605  -5.394   3.119  0.00  0.00    -0.650 OA
BRANCH  19  21
ATOM     21  O   UNL d   1      -4.824  -5.160   2.819  0.00  0.00    -0.776 OA
ATOM     22  H   UNL d   1      -5.510  -4.529   2.529  0.00  0.00     0.167 HD
ENDBRANCH  19  21
ENDBRANCH  18  19
ENDBRANCH   9  12
ENDBRANCH   2   8
BRANCH   3  23
ATOM     23  C   UNL d   1       2.822  -1.546   0.353  0.00  0.00    -0.020 A 
ATOM     24  C   UNL d   1       3.771  -1.429  -0.679  0.00  0.00     0.012 A 
ATOM     25  C   UNL d   1       4.832  -2.332  -0.780  0.00  0.00     0.001 A 
ATOM     26  C   UNL d   1       4.938  -3.383   0.121  0.00  0.00     0.000 A 
ATOM     27  C   UNL d   1       3.997  -3.527   1.137  0.00  0.00     0.001 A 
ATOM     28  C   UNL d   1       2.958  -2.602   1.266  0.00  0.00     0.012 A 
ENDBRANCH   3  23
BRANCH   1  29
ATOM     29  C   UNL d   1       2.982   1.762   0.208  0.00  0.00     0.434 C 
ATOM     30  F   UNL d   1       4.156   1.143   0.495  0.00  0.00    -0.165 F 
ATOM     31  F   UNL d   1       3.093   2.230  -1.064  0.00  0.00    -0.165 F 
ATOM     32  F   UNL d   1       2.915   2.845   1.027  0.00  0.00    -0.165 F 
ENDBRANCH   1  29
TORSDOF 6
