REMARK  1 active torsions:
REMARK  status: ('A' for Active; 'I' for Inactive)
REMARK    1  A    between atoms: C_10  and  N_1 
ROOT
ATOM      1  N   UNL d   1       3.035   1.203   0.014  0.00  0.00    -0.229 N 
ATOM      2  C   UNL d   1       0.754   0.440  -0.013  0.00  0.00     0.074 A 
ATOM      3  C   UNL d   1       1.258  -0.821  -0.103  0.00  0.00     0.094 A 
ATOM      4  C   UNL d   1       1.672   1.558   0.091  0.00  0.00     0.270 A 
ATOM      5  C   UNL d   1       3.513  -0.114  -0.141  0.00  0.00     0.335 A 
ATOM      6  N   UNL d   1       2.579  -1.123  -0.164  0.00  0.00    -0.301 N 
ATOM      7  C   UNL d   1      -0.675   0.409  -0.053  0.00  0.00    -0.026 A 
ATOM      8  C   UNL d   1      -1.144  -0.898  -0.053  0.00  0.00    -0.008 A 
ATOM      9  S   UNL d   1       0.117  -2.050  -0.133  0.00  0.00    -0.075 SA
ATOM     10  C   UNL d   1      -1.599   1.593  -0.037  0.00  0.00     0.041 C 
ATOM     11  O   UNL d   1       4.704  -0.423  -0.215  0.00  0.00    -0.246 OA
ATOM     12  O   UNL d   1       1.253   2.706   0.207  0.00  0.00    -0.266 OA
ATOM     13  C   UNL d   1      -2.589  -1.295  -0.013  0.00  0.00     0.051 C 
ATOM     14  C   UNL d   1      -3.056   1.181  -0.306  0.00  0.00     0.009 C 
ATOM     15  C   UNL d   1      -3.466  -0.105   0.444  0.00  0.00    -0.014 C 
ATOM     16  C   UNL d   1      -3.406   0.088   1.964  0.00  0.00     0.010 C 
ATOM     17  H   UNL d   1       2.897  -2.080  -0.233  0.00  0.00     0.171 HD
ENDROOT
BRANCH   1  18
ATOM     18  C   UNL d   1       3.994   2.259   0.106  0.00  0.00     0.049 A 
ATOM     19  C   UNL d   1       3.985   3.131   1.204  0.00  0.00     0.056 A 
ATOM     20  C   UNL d   1       4.939   4.149   1.308  0.00  0.00     0.058 A 
ATOM     21 CL   UNL d   1       4.912   5.133   2.728  0.00  0.00    -0.082 Cl
ATOM     22  C   UNL d   1       5.883   4.327   0.291  0.00  0.00     0.055 A 
ATOM     23  C   UNL d   1       5.880   3.475  -0.816  0.00  0.00     0.028 A 
ATOM     24 CL   UNL d   1       7.078   5.574   0.342  0.00  0.00    -0.083 Cl
ATOM     25  C   UNL d   1       4.952   2.433  -0.900  0.00  0.00     0.032 A 
ENDBRANCH   1  18
TORSDOF 1
