REMARK  4 active torsions:
REMARK  status: ('A' for Active; 'I' for Inactive)
REMARK    1  A    between atoms: C_10  and  N_1 
REMARK    2  A    between atoms: N_9  and  N_2 
REMARK    3  A    between atoms: C_7  and  C_11 
REMARK       I    between atoms: C_8  and  N_9 
REMARK       I    between atoms: N_13  and  C_8 
REMARK    4  A    between atoms: C_20  and  N_13 
ROOT
ATOM      1  N   UNL d   1      -1.008  -0.978   0.482  0.00  0.00    -0.308 N 
ATOM      2  N   UNL d   1       0.389   1.404   0.487  0.00  0.00    -0.264 N 
ATOM      3  C   UNL d   1      -1.720   0.172   0.076  0.00  0.00     0.244 C 
ATOM      4  C   UNL d   1       1.111   0.250   0.749  0.00  0.00     0.253 C 
ATOM      5  C   UNL d   1      -0.826   1.366  -0.324  0.00  0.00     0.250 C 
ATOM      6  C   UNL d   1       0.438  -0.995   0.206  0.00  0.00     0.236 C 
ATOM      7  O   UNL d   1       2.231   0.258   1.255  0.00  0.00    -0.270 OA
ATOM      8  O   UNL d   1      -2.945   0.248  -0.041  0.00  0.00    -0.271 OA
ENDROOT
BRANCH   2   9
ATOM      9  N   UNL d   1       1.136   2.631   0.495  0.00  0.00    -0.149 NA
ATOM     10  C   UNL d   1       1.569   3.184  -0.722  0.00  0.00     0.317 C 
ATOM     11  N   UNL d   1       2.441   4.237  -0.504  0.00  0.00    -0.312 N 
ATOM     12  O   UNL d   1       1.170   2.785  -1.809  0.00  0.00    -0.252 OA
ATOM     13  H   UNL d   1       2.728   4.395   0.452  0.00  0.00     0.170 HD
ATOM     14  H   UNL d   1       1.867   2.599   1.206  0.00  0.00     0.158 HD
BRANCH  11  15
ATOM     15  C   UNL d   1       3.000   5.116  -1.464  0.00  0.00     0.035 A 
ATOM     16  C   UNL d   1       2.659   5.111  -2.817  0.00  0.00     0.029 A 
ATOM     17  C   UNL d   1       3.236   6.030  -3.703  0.00  0.00     0.002 A 
ATOM     18  C   UNL d   1       4.165   6.962  -3.246  0.00  0.00     0.000 A 
ATOM     19  C   UNL d   1       4.513   6.979  -1.899  0.00  0.00     0.002 A 
ATOM     20  C   UNL d   1       3.932   6.064  -1.013  0.00  0.00     0.029 A 
ENDBRANCH  11  15
ENDBRANCH   2   9
BRANCH   1  21
ATOM     21  C   UNL d   1      -1.627  -2.239   0.786  0.00  0.00     0.038 A 
ATOM     22  C   UNL d   1      -2.868  -2.631   0.259  0.00  0.00     0.046 A 
ATOM     23  C   UNL d   1      -3.380  -3.929   0.476  0.00  0.00     0.050 A 
ATOM     24  C   UNL d   1      -2.649  -4.833   1.259  0.00  0.00     0.016 A 
ATOM     25  C   UNL d   1      -1.449  -4.443   1.839  0.00  0.00     0.003 A 
ATOM     26  C   UNL d   1      -0.953  -3.158   1.609  0.00  0.00     0.030 A 
BRANCH  23  27
ATOM     27  C   UNL d   1      -4.674  -4.386  -0.152  0.00  0.00     0.417 C 
ATOM     28  F   UNL d   1      -5.350  -3.409  -0.813  0.00  0.00    -0.166 F 
ATOM     29  F   UNL d   1      -4.476  -5.384  -1.060  0.00  0.00    -0.166 F 
ATOM     30  F   UNL d   1      -5.547  -4.893   0.764  0.00  0.00    -0.166 F 
ENDBRANCH  23  27
ENDBRANCH   1  21
TORSDOF 4
