REMARK  1 active torsions:
REMARK  status: ('A' for Active; 'I' for Inactive)
REMARK    1  A    between atoms: N_9  and  C_3 
ROOT
ATOM      1  N   UNL d   1       0.201   0.267   0.002  0.00  0.00    -0.279 N 
ATOM      2  C   UNL d   1      -0.045  -1.120  -0.089  0.00  0.00     0.136 A 
ATOM      3  C   UNL d   1      -0.853   1.240  -0.044  0.00  0.00     0.119 A 
ATOM      4  C   UNL d   1      -1.396  -1.583  -0.105  0.00  0.00     0.096 A 
ATOM      5  C   UNL d   1      -2.114   0.758  -0.132  0.00  0.00    -0.006 A 
ATOM      6  N   UNL d   1       1.067  -1.818  -0.170  0.00  0.00    -0.339 N 
ATOM      7  HN  UNL d   1       1.155  -2.827  -0.291  1.00  0.00     0.167 HD
ATOM      8  C   UNL d   1      -2.383  -0.671  -0.133  0.00  0.00    -0.024 A 
ATOM      9  C   UNL d   1       1.588   0.384   0.128  0.00  0.00     0.069 A 
ATOM     10  C   UNL d   1       2.076  -0.911  -0.057  0.00  0.00     0.061 A 
ATOM     11  C   UNL d   1      -1.683  -2.982  -0.090  0.00  0.00     0.104 C 
ATOM     12  N   UNL d   1      -1.979  -4.102  -0.072  0.00  0.00    -0.191 NA
ATOM     13  C   UNL d   1      -3.419   1.490  -0.215  0.00  0.00     0.043 C 
ATOM     14  C   UNL d   1      -3.867  -0.893  -0.140  0.00  0.00     0.041 C 
ATOM     15  C   UNL d   1       2.470   1.446   0.380  0.00  0.00     0.032 A 
ATOM     16  C   UNL d   1       3.459  -1.152  -0.085  0.00  0.00     0.032 A 
ATOM     17  C   UNL d   1      -4.422   0.460   0.295  0.00  0.00     0.009 C 
ATOM     18  C   UNL d   1       3.848   1.197   0.317  0.00  0.00     0.002 A 
ATOM     19  C   UNL d   1       4.339  -0.082   0.076  0.00  0.00     0.002 A 
ENDROOT
BRANCH   3  20
ATOM     20  N   UNL d   1      -0.625   2.621  -0.006  0.00  0.00    -0.363 N 
ATOM     21  C   UNL d   1       0.090   3.358  -1.071  0.00  0.00     0.154 C 
ATOM     22  C   UNL d   1      -0.403   4.820  -1.205  0.00  0.00     0.291 C 
ATOM     23  N   UNL d   1      -0.420   5.532   0.092  0.00  0.00     0.087 N 
ATOM     24  C   UNL d   1      -1.310   4.797   1.011  0.00  0.00     0.291 C 
ATOM     25  C   UNL d   1      -0.848   6.918  -0.067  0.00  0.00     0.310 C 
ATOM     26  C   UNL d   1      -0.792   3.366   1.260  0.00  0.00     0.154 C 
ENDBRANCH   3  20
TORSDOF 1
