REMARK  4 active torsions:
REMARK  status: ('A' for Active; 'I' for Inactive)
REMARK    1  A    between atoms: C_2  and  S_1 
REMARK    2  A    between atoms: N_5  and  S_1 
REMARK    3  A    between atoms: C_3  and  N_5 
REMARK    4  A    between atoms: C_20  and  C_10 
ROOT
ATOM      1  N   UNL d   1       0.262  -0.738  -1.562  0.00  0.00    -0.264 N 
ATOM      2  H   UNL d   1      -0.369  -1.529  -1.602  0.00  0.00     0.180 HD
ENDROOT
BRANCH   1   3
ATOM      3  C   UNL d   1       0.684  -0.172  -2.750  0.00  0.00     0.133 C 
ATOM      4  C   UNL d   1      -0.108  -0.064  -3.864  0.00  0.00     0.082 C 
ATOM      5  C   UNL d   1       0.616   0.763  -4.766  0.00  0.00     0.062 C 
ATOM      6  N   UNL d   1       1.834   1.039  -4.269  0.00  0.00    -0.296 N 
ATOM      7  N   UNL d   1       1.871   0.429  -3.070  0.00  0.00    -0.280 N 
ATOM      8  HN  UNL d   1       2.571   1.592  -4.707  1.00  0.00     0.187 HD
ATOM      9  C   UNL d   1       3.132   0.319  -2.372  0.00  0.00     0.179 C 
BRANCH   5  10
ATOM     10  C   UNL d   1       0.156   1.304  -6.049  0.00  0.00    -0.008 A 
ATOM     11  C   UNL d   1      -1.204   1.269  -6.400  0.00  0.00     0.015 A 
ATOM     12  C   UNL d   1      -1.642   1.792  -7.621  0.00  0.00     0.024 A 
ATOM     13  C   UNL d   1      -0.723   2.355  -8.502  0.00  0.00     0.034 A 
ATOM     14  C   UNL d   1       0.628   2.405  -8.171  0.00  0.00     0.024 A 
ATOM     15 CL   UNL d   1      -1.264   2.994 -10.003  0.00  0.00    -0.084 Cl
ATOM     16  C   UNL d   1       1.065   1.883  -6.948  0.00  0.00     0.015 A 
ENDBRANCH   5  10
ENDBRANCH   1   3
BRANCH   1  17
ATOM     17  S   UNL d   1      -0.026   0.207  -0.249  0.00  0.00     0.266 S 
ATOM     18  O   UNL d   1      -0.417  -0.618   0.876  0.00  0.00    -0.200 OA
ATOM     19  O   UNL d   1       1.022   1.198  -0.096  0.00  0.00    -0.200 OA
BRANCH  17  20
ATOM     20  C   UNL d   1      -1.478   1.075  -0.739  0.00  0.00     0.110 A 
ATOM     21  C   UNL d   1      -2.580   0.393  -1.279  0.00  0.00     0.108 A 
ATOM     22  C   UNL d   1      -3.752   1.104  -1.773  0.00  0.00     0.086 A 
ATOM     23  N   UNL d   1      -2.763  -0.917  -1.494  0.00  0.00    -0.238 N 
ATOM     24  N   UNL d   1      -4.617   0.201  -2.244  0.00  0.00    -0.239 N 
ATOM     25  C   UNL d   1      -3.852   2.507  -1.744  0.00  0.00     0.034 A 
ATOM     26  O   UNL d   1      -4.029  -1.034  -2.048  0.00  0.00    -0.156 OA
ATOM     27  HN  UNL d   1      -5.528   0.386  -2.664  1.00  0.00     0.197 HD
ATOM     28  C   UNL d   1      -2.726   3.165  -1.209  0.00  0.00     0.004 A 
ATOM     29  C   UNL d   1      -1.578   2.480  -0.724  0.00  0.00     0.028 A 
ATOM     30  HN  UNL d   1      -2.107  -1.672  -1.292  1.00  0.00     0.197 HD
ENDBRANCH  17  20
ENDBRANCH   1  17
TORSDOF 4
