REMARK  4 active torsions:
REMARK  status: ('A' for Active; 'I' for Inactive)
REMARK    1  A    between atoms: C_10  and  C_1 
REMARK    2  A    between atoms: S_8  and  C_3 
REMARK    3  A    between atoms: C_11  and  S_8 
REMARK    4  A    between atoms: N_9  and  C_12 
ROOT
ATOM      1  C   UNL d   1      -0.290   1.048  -0.444  0.00  0.00     0.209 A 
ATOM      2  N   UNL d   1       0.021  -0.131  -1.091  0.00  0.00    -0.312 N 
ATOM      3  C   UNL d   1       0.120  -1.075  -0.104  0.00  0.00     0.169 A 
ATOM      4  N   UNL d   1      -0.379   0.800   0.854  0.00  0.00    -0.279 N 
ATOM      5  HN  UNL d   1      -0.602   1.485   1.577  1.00  0.00     0.188 HD
ATOM      6  N   UNL d   1      -0.120  -0.529   1.064  0.00  0.00    -0.278 N 
ATOM      7  HN  UNL d   1      -0.115  -1.007   1.965  1.00  0.00     0.189 HD
ATOM      8  C   UNL d   1       0.238  -0.324  -2.502  0.00  0.00     0.160 C 
ENDROOT
BRANCH   3   9
ATOM      9  S   UNL d   1       0.465  -2.746  -0.365  0.00  0.00    -0.032 SA
BRANCH   9  10
ATOM     10  C   UNL d   1       2.224  -2.679  -0.083  0.00  0.00     0.110 A 
ATOM     11  C   UNL d   1       2.883  -3.315   0.963  0.00  0.00     0.136 A 
ATOM     12  C   UNL d   1       4.275  -3.218   1.087  0.00  0.00     0.040 A 
ATOM     13  C   UNL d   1       4.978  -2.485   0.140  0.00  0.00     0.020 A 
ATOM     14  C   UNL d   1       4.262  -1.882  -0.882  0.00  0.00     0.089 A 
ATOM     15  N   UNL d   1       2.917  -1.960  -1.013  0.00  0.00    -0.358 N 
ATOM     16  HN  UNL d   1       2.436  -1.497  -1.784  1.00  0.00     0.166 HD
BRANCH  11  17
ATOM     17  N   UNL d   1       2.171  -4.115   1.925  0.00  0.00    -0.113 N 
ATOM     18  O   UNL d   1       1.552  -5.100   1.500  0.00  0.00    -0.532 OA
ATOM     19  O   UNL d   1       2.305  -3.810   3.116  0.00  0.00    -0.532 OA
ENDBRANCH  11  17
ENDBRANCH   9  10
ENDBRANCH   3   9
BRANCH   1  20
ATOM     20  C   UNL d   1      -0.495   2.371  -1.092  0.00  0.00     0.450 C 
ATOM     21  F   UNL d   1      -0.117   2.390  -2.400  0.00  0.00    -0.163 F 
ATOM     22  F   UNL d   1      -1.798   2.752  -1.069  0.00  0.00    -0.163 F 
ATOM     23  F   UNL d   1       0.218   3.357  -0.487  0.00  0.00    -0.163 F 
ENDBRANCH   1  20
TORSDOF 4
