REMARK  2 active torsions:
REMARK  status: ('A' for Active; 'I' for Inactive)
REMARK       I    between atoms: C_5  and  N_1 
REMARK    1  A    between atoms: C_7  and  C_3 
REMARK    2  A    between atoms: C_10  and  C_5 
ROOT
ATOM      1  N   UNL d   1       3.390  -0.103  -0.241  0.00  0.00    -0.329 N 
ATOM      2  C   UNL d   1       1.046  -0.787  -0.177  0.00  0.00     0.049 A 
ATOM      3  C   UNL d   1       2.474  -1.289  -0.127  0.00  0.00     0.245 C 
ATOM      4  C   UNL d   1       0.623   0.528  -0.214  0.00  0.00    -0.019 A 
ATOM      5  C   UNL d   1       4.702  -0.417  -0.641  0.00  0.00     0.255 C 
ATOM      6  N   UNL d   1      -0.068  -1.586  -0.155  0.00  0.00    -0.356 N 
ATOM      7  C   UNL d   1      -0.798   0.530  -0.176  0.00  0.00    -0.001 A 
ATOM      8  C   UNL d   1      -1.203  -0.805  -0.114  0.00  0.00     0.043 A 
ATOM      9  C   UNL d   1       2.929   1.149   0.401  0.00  0.00     0.132 C 
ATOM     10  C   UNL d   1       1.610   1.644  -0.234  0.00  0.00     0.061 C 
ATOM     11  O   UNL d   1       4.974  -1.570  -0.984  0.00  0.00    -0.267 OA
ATOM     12  C   UNL d   1      -1.787   1.534  -0.161  0.00  0.00     0.014 A 
ATOM     13  C   UNL d   1      -2.549  -1.185  -0.018  0.00  0.00     0.030 A 
ATOM     14  C   UNL d   1      -3.136   1.171  -0.064  0.00  0.00     0.001 A 
ATOM     15  C   UNL d   1      -3.509  -0.170   0.012  0.00  0.00     0.002 A 
ATOM     16  H   UNL d   1      -0.077  -2.597  -0.116  0.00  0.00     0.166 HD
ENDROOT
BRANCH   3  17
ATOM     17  C   UNL d   1       2.776  -2.201   1.104  0.00  0.00     0.413 C 
ATOM     18  F   UNL d   1       3.837  -1.778   1.832  0.00  0.00    -0.168 F 
ATOM     19  F   UNL d   1       1.727  -2.269   1.965  0.00  0.00    -0.168 F 
ATOM     20  F   UNL d   1       3.026  -3.477   0.717  0.00  0.00    -0.168 F 
ENDBRANCH   3  17
BRANCH   5  21
ATOM     21  C   UNL d   1       5.784   0.610  -0.696  0.00  0.00     0.038 A 
ATOM     22  C   UNL d   1       7.107   0.338  -0.277  0.00  0.00    -0.046 A 
ATOM     23  C   UNL d   1       7.582  -0.971   0.298  0.00  0.00     0.049 C 
ATOM     24  C   UNL d   1       8.071   1.367  -0.355  0.00  0.00     0.007 A 
ATOM     25  C   UNL d   1       7.752   2.618  -0.877  0.00  0.00     0.001 A 
ATOM     26  C   UNL d   1       6.470   2.857  -1.357  0.00  0.00     0.001 A 
ATOM     27  C   UNL d   1       5.504   1.852  -1.290  0.00  0.00     0.017 A 
ENDBRANCH   5  21
TORSDOF 2
