REMARK  5 active torsions:
REMARK  status: ('A' for Active; 'I' for Inactive)
REMARK    1  A    between atoms: N_2  and  C_1 
REMARK    2  A    between atoms: N_3  and  C_1 
REMARK    3  A    between atoms: C_5  and  N_2 
REMARK    4  A    between atoms: C_7  and  N_3 
REMARK    5  A    between atoms: S_10  and  C_8 
ROOT
ATOM      1  C   UNL d   1       1.107  -0.155  -0.022  0.00  0.00     0.176 C 
ATOM      2  S   UNL d   1       2.643  -0.743  -0.356  0.00  0.00    -0.041 SA
ENDROOT
BRANCH   1   3
ATOM      3  N   UNL d   1       0.539  -0.055   1.219  0.00  0.00    -0.333 N 
ATOM      4  H   UNL d   1      -0.405  -0.420   1.270  0.00  0.00     0.168 HD
BRANCH   3   5
ATOM      5  C   UNL d   1       1.163   0.268   2.441  0.00  0.00     0.035 A 
ATOM      6  C   UNL d   1       2.286   1.102   2.498  0.00  0.00     0.048 A 
ATOM      7  C   UNL d   1       2.859   1.456   3.723  0.00  0.00     0.002 A 
ATOM      8  C   UNL d   1       2.275   0.977   4.901  0.00  0.00     0.018 A 
ATOM      9  C   UNL d   1       1.137   0.170   4.855  0.00  0.00     0.004 A 
ATOM     10  C   UNL d   1       0.571  -0.171   3.626  0.00  0.00     0.029 A 
BRANCH   7  11
ATOM     11  S   UNL d   1       4.255   2.563   3.874  0.00  0.00    -0.134 SA
ATOM     12  C   UNL d   1       5.161   2.254   2.332  0.00  0.00     0.095 C 
ENDBRANCH   7  11
ENDBRANCH   3   5
ENDBRANCH   1   3
BRANCH   1  13
ATOM     13  N   UNL d   1       0.307   0.137  -1.094  0.00  0.00    -0.333 N 
ATOM     14  H   UNL d   1       0.699  -0.191  -1.972  0.00  0.00     0.168 HD
BRANCH  13  15
ATOM     15  C   UNL d   1      -0.816   0.983  -1.204  0.00  0.00     0.034 A 
ATOM     16  C   UNL d   1      -1.281   1.817  -0.181  0.00  0.00     0.032 A 
ATOM     17  C   UNL d   1      -2.372   2.665  -0.395  0.00  0.00     0.044 A 
ATOM     18  C   UNL d   1      -2.988   2.692  -1.639  0.00  0.00     0.116 A 
ATOM     19  C   UNL d   1      -2.531   1.890  -2.674  0.00  0.00     0.044 A 
ATOM     20  F   UNL d   1      -4.024   3.514  -1.845  0.00  0.00    -0.206 F 
ATOM     21  C   UNL d   1      -1.445   1.037  -2.458  0.00  0.00     0.032 A 
ENDBRANCH  13  15
ENDBRANCH   1  13
TORSDOF 5
