REMARK  4 active torsions:
REMARK  status: ('A' for Active; 'I' for Inactive)
REMARK       I    between atoms: N_2  and  C_1 
REMARK       I    between atoms: N_3  and  C_1 
REMARK    1  A    between atoms: C_5  and  N_2 
REMARK    2  A    between atoms: C_9  and  N_3 
REMARK    3  A    between atoms: C_10  and  C_9 
REMARK    4  A    between atoms: C_11  and  C_10 
ROOT
ATOM      1  C   UNL d   1       1.076  -0.048  -0.065  0.00  0.00     0.322 C 
ATOM      2  N   UNL d   1       0.420   0.246  -1.239  0.00  0.00    -0.309 N 
ATOM      3  N   UNL d   1       0.338   0.207   1.087  0.00  0.00    -0.338 N 
ATOM      4  O   UNL d   1       2.247  -0.427  -0.005  0.00  0.00    -0.247 OA
ATOM      5  C   UNL d   1      -1.116   0.168   1.151  0.00  0.00     0.154 C 
ATOM      6  H   UNL d   1      -0.231   1.013  -1.154  0.00  0.00     0.170 HD
ENDROOT
BRANCH   2   7
ATOM      7  C   UNL d   1       0.968   0.027  -2.521  0.00  0.00     0.037 A 
ATOM      8  C   UNL d   1       0.683   0.950  -3.530  0.00  0.00     0.053 A 
ATOM      9  C   UNL d   1       1.260   0.797  -4.792  0.00  0.00     0.036 A 
ATOM     10 CL   UNL d   1       0.983   1.988  -6.004  0.00  0.00    -0.084 Cl
ATOM     11  C   UNL d   1       2.077  -0.296  -5.073  0.00  0.00     0.024 A 
ATOM     12  C   UNL d   1       2.322  -1.245  -4.082  0.00  0.00     0.004 A 
ATOM     13  C   UNL d   1       1.774  -1.079  -2.807  0.00  0.00     0.029 A 
ENDBRANCH   2   7
BRANCH   3  14
ATOM     14  C   UNL d   1       1.045   0.175   2.371  0.00  0.00     0.133 C 
BRANCH  14  15
ATOM     15  C   UNL d   1       1.982   1.373   2.562  0.00  0.00     0.077 C 
BRANCH  15  16
ATOM     16  C   UNL d   1       2.634   1.315   3.918  0.00  0.00     0.010 A 
ATOM     17  N   UNL d   1       1.991   1.940   4.937  0.00  0.00    -0.369 N 
ATOM     18  C   UNL d   1       2.549   1.858   6.164  0.00  0.00     0.088 A 
ATOM     19  HN  UNL d   1       1.122   2.451   4.782  1.00  0.00     0.165 HD
ATOM     20  C   UNL d   1       3.719   1.169   6.437  0.00  0.00     0.017 A 
ATOM     21  C   UNL d   1       4.360   0.527   5.384  0.00  0.00     0.003 A 
ATOM     22  C   UNL d   1       3.814   0.600   4.106  0.00  0.00     0.025 A 
ENDBRANCH  15  16
ENDBRANCH  14  15
ENDBRANCH   3  14
TORSDOF 4
