REMARK  3 active torsions:
REMARK  status: ('A' for Active; 'I' for Inactive)
REMARK    1  A    between atoms: C_4  and  N_1 
REMARK    2  A    between atoms: C_15  and  C_9 
REMARK    3  A    between atoms: C_14  and  C_10 
ROOT
ATOM      1  C   UNL d   1      -0.023   2.245  -0.036  0.00  0.00     0.058 A 
ATOM      2  C   UNL d   1      -0.594   2.948   1.050  0.00  0.00    -0.030 A 
ATOM      3  C   UNL d   1       0.597   2.945  -1.101  0.00  0.00    -0.030 A 
ATOM      4  C   UNL d   1       0.212   5.033   0.091  0.00  0.00     0.001 A 
ATOM      5  C   UNL d   1       0.705   4.343  -1.013  0.00  0.00     0.009 A 
ATOM      6  C   UNL d   1      -0.444   4.343   1.106  0.00  0.00     0.009 A 
ENDROOT
BRANCH   1   7
ATOM      7  N   UNL d   1      -0.026   0.839  -0.023  0.00  0.00    -0.244 N 
ATOM      8  C   UNL d   1      -1.041   0.057  -0.478  0.00  0.00     0.255 A 
ATOM      9  C   UNL d   1      -0.591  -1.336  -0.332  0.00  0.00     0.080 A 
ATOM     10  O   UNL d   1      -2.124   0.355  -0.948  0.00  0.00    -0.268 OA
ATOM     11  C   UNL d   1       0.652  -1.321   0.151  0.00  0.00     0.080 A 
ATOM     12  C   UNL d   1       1.051   0.082   0.326  0.00  0.00     0.255 A 
ATOM     13  O   UNL d   1       2.160   0.407   0.716  0.00  0.00    -0.268 OA
ENDBRANCH   1   7
BRANCH   2  14
ATOM     14  C   UNL d   1      -1.389   2.282   2.154  0.00  0.00     0.036 C 
ATOM     15  C   UNL d   1      -0.565   1.933   3.382  0.00  0.00     0.010 C 
ENDBRANCH   2  14
BRANCH   3  16
ATOM     16  C   UNL d   1       1.036   2.270  -2.386  0.00  0.00     0.036 C 
ATOM     17  C   UNL d   1       2.499   2.486  -2.748  0.00  0.00     0.010 C 
ENDBRANCH   3  16
TORSDOF 3
