REMARK  5 active torsions:
REMARK  status: ('A' for Active; 'I' for Inactive)
REMARK    1  A    between atoms: C_2  and  N_1 
REMARK       I    between atoms: C_3  and  N_1 
REMARK    2  A    between atoms: C_10  and  C_3 
REMARK    3  A    between atoms: C_12  and  C_8 
REMARK    4  A    between atoms: C_13  and  C_12 
REMARK    5  A    between atoms: C_14  and  C_13 
ROOT
ATOM      1  C   UNL d   1       0.459  -0.907  -0.729  0.00  0.00     0.040 A 
ATOM      2  C   UNL d   1       0.808  -2.262  -0.827  0.00  0.00    -0.035 A 
ATOM      3  C   UNL d   1       0.168  -3.061  -1.794  0.00  0.00     0.016 A 
ATOM      4  C   UNL d   1      -0.548  -0.391  -1.554  0.00  0.00     0.030 A 
ATOM      5  C   UNL d   1      -0.811  -2.537  -2.650  0.00  0.00    -0.058 A 
ATOM      6  C   UNL d   1      -1.178  -1.197  -2.505  0.00  0.00     0.009 A 
ATOM      7  C   UNL d   1       1.731  -2.956   0.136  0.00  0.00     0.050 C 
ENDROOT
BRANCH   1   8
ATOM      8  N   UNL d   1       1.160  -0.049   0.146  0.00  0.00    -0.327 N 
ATOM      9  C   UNL d   1       0.560   0.941   0.900  0.00  0.00     0.221 C 
ATOM     10  O   UNL d   1      -0.655   1.125   0.987  0.00  0.00    -0.273 OA
ATOM     11  H   UNL d   1       2.099  -0.319   0.404  0.00  0.00     0.169 HD
BRANCH   9  12
ATOM     12  C   UNL d   1       1.565   1.809   1.632  0.00  0.00     0.098 C 
ATOM     13  C   UNL d   1       0.904   2.653   2.709  0.00  0.00     0.014 C 
ENDBRANCH   9  12
ENDBRANCH   1   8
BRANCH   5  14
ATOM     14  C   UNL d   1      -1.465  -3.417  -3.687  0.00  0.00     0.038 C 
BRANCH  14  15
ATOM     15  C   UNL d   1      -1.271  -2.950  -5.135  0.00  0.00     0.004 C 
BRANCH  15  16
ATOM     16  C   UNL d   1       0.198  -2.889  -5.562  0.00  0.00    -0.004 C 
ATOM     17  C   UNL d   1       0.334  -2.461  -7.015  0.00  0.00     0.005 C 
ENDBRANCH  15  16
ENDBRANCH  14  15
ENDBRANCH   5  14
TORSDOF 5
