REMARK  4 active torsions:
REMARK  status: ('A' for Active; 'I' for Inactive)
REMARK    1  A    between atoms: CA_2  and  C_6 
REMARK    2  A    between atoms: C_7  and  C_4 
REMARK    3  A    between atoms: OXT_11  and  C_6 
REMARK    4  A    between atoms: S_13  and  C_12 
ROOT
ATOM      1  N   UNL d   1      -1.316   1.206   0.239  0.00  0.00     0.118 N 
ATOM      2  CA  UNL d   1      -0.024   1.367  -0.493  0.00  0.00     0.336 C 
ATOM      3  S   UNL d   1      -0.214  -1.195   0.022  0.00  0.00    -0.117 SA
ATOM      4  C   UNL d   1      -1.746  -0.187   0.007  0.00  0.00     0.317 C 
ATOM      5  C   UNL d   1       0.915   0.248  -0.009  0.00  0.00     0.044 C 
ATOM      6  C   UNL d   1       1.460   0.425   1.416  0.00  0.00     0.029 C 
ATOM      7  C   UNL d   1       2.057  -0.013  -0.988  0.00  0.00     0.029 C 
ATOM      8  H   UNL d   1      -2.025   1.841  -0.126  0.00  0.00     0.319 HD
ENDROOT
BRANCH   4   9
ATOM      9  C   UNL d   1      -2.569  -0.457  -1.256  0.00  0.00    -0.015 A 
ATOM     10  C   UNL d   1      -3.032  -1.767  -1.500  0.00  0.00     0.011 A 
ATOM     11  C   UNL d   1      -3.798  -2.088  -2.632  0.00  0.00     0.019 A 
ATOM     12  C   UNL d   1      -4.138  -1.103  -3.558  0.00  0.00    -0.000 A 
ATOM     13  C   UNL d   1      -3.709   0.206  -3.314  0.00  0.00     0.019 A 
ATOM     14  C   UNL d   1      -2.933   0.526  -2.189  0.00  0.00     0.011 A 
BRANCH  12  15
ATOM     15  S   UNL d   1      -5.154  -1.377  -5.002  0.00  0.00    -0.134 SA
ATOM     16  C   UNL d   1      -4.749  -3.080  -5.470  0.00  0.00     0.095 C 
ENDBRANCH  12  15
ENDBRANCH   4   9
BRANCH   2  17
ATOM     17  C   UNL d   1       0.545   2.764  -0.241  0.00  0.00     0.175 C 
ATOM     18  O   UNL d   1       1.274   3.361  -1.023  0.00  0.00    -0.648 OA
BRANCH  17  19
ATOM     19  OXT UNL d   1       0.163   3.279   0.951  0.00  0.00    -0.775 OA
ATOM     20  HXT UNL d   1      -0.441   2.638   1.391  0.00  0.00     0.167 HD
ENDBRANCH  17  19
ENDBRANCH   2  17
TORSDOF 4
