REMARK  12 active torsions:
REMARK  status: ('A' for Active; 'I' for Inactive)
REMARK    1  A    between atoms: C_2  and  C_1 
REMARK    2  A    between atoms: C_3  and  C_1 
REMARK    3  A    between atoms: O_12  and  C_2 
REMARK    4  A    between atoms: O_13  and  C_3 
REMARK    5  A    between atoms: N_6  and  C_4 
REMARK       I    between atoms: C_5  and  N_9 
REMARK    6  A    between atoms: C_11  and  C_5 
REMARK    7  A    between atoms: N_9  and  N_6 
REMARK    8  A    between atoms: C_16  and  C_11 
REMARK    9  A    between atoms: C_22  and  O_12 
REMARK   10  A    between atoms: C_23  and  O_13 
REMARK   11  A    between atoms: O_21  and  C_14 
REMARK   12  A    between atoms: C_15  and  C_16 
ROOT
ATOM      1  N   UNL d   1       3.088   0.887   0.843  0.00  0.00    -0.308 N 
ATOM      2  H   UNL d   1       2.634   1.690   1.309  0.00  0.00     0.186 HD
ENDROOT
BRANCH   1   3
ATOM      3  C   UNL d   1       2.262   0.053   0.132  0.00  0.00     0.131 C 
ATOM      4  C   UNL d   1       0.915  -0.009   0.136  0.00  0.00     0.131 C 
BRANCH   4   5
ATOM      5  C   UNL d   1       0.065   0.922   0.912  0.00  0.00     0.300 C 
ATOM      6  O   UNL d   1      -1.097   0.709   1.231  0.00  0.00    -0.259 OA
BRANCH   5   7
ATOM      7  O   UNL d   1       0.726   2.095   1.118  0.00  0.00    -0.318 OA
BRANCH   7   8
ATOM      8  C   UNL d   1      -0.088   3.245   1.373  0.00  0.00     0.174 C 
ATOM      9  C   UNL d   1      -0.421   3.866   0.028  0.00  0.00     0.034 C 
ENDBRANCH   7   8
ENDBRANCH   5   7
ENDBRANCH   4   5
BRANCH   4  10
ATOM     10  C   UNL d   1       0.311  -1.018  -0.770  0.00  0.00     0.300 C 
ATOM     11  O   UNL d   1       0.925  -1.955  -1.257  0.00  0.00    -0.259 OA
BRANCH  10  12
ATOM     12  O   UNL d   1      -0.955  -0.658  -1.095  0.00  0.00    -0.318 OA
BRANCH  12  13
ATOM     13  C   UNL d   1      -1.519  -1.282  -2.255  0.00  0.00     0.174 C 
ATOM     14  C   UNL d   1      -1.187  -0.406  -3.449  0.00  0.00     0.034 C 
ENDBRANCH  12  13
ENDBRANCH  10  12
ENDBRANCH   4  10
ENDBRANCH   1   3
BRANCH   1  15
ATOM     15  N   UNL d   1       4.448   1.074   0.609  0.00  0.00    -0.270 N 
ATOM     16  C   UNL d   1       5.064   1.983   1.463  0.00  0.00     0.236 C 
ATOM     17  O   UNL d   1       4.427   2.752   2.182  0.00  0.00    -0.272 OA
ATOM     18  H   UNL d   1       4.962   0.282   0.237  0.00  0.00     0.190 HD
BRANCH  16  19
ATOM     19  C   UNL d   1       6.576   1.982   1.384  0.00  0.00     0.109 C 
BRANCH  19  20
ATOM     20  C   UNL d   1       7.183   2.498   2.690  0.00  0.00     0.048 C 
BRANCH  20  21
ATOM     21  C   UNL d   1       8.691   2.541   2.651  0.00  0.00    -0.058 A 
ATOM     22  C   UNL d   1       9.355   3.702   2.232  0.00  0.00     0.010 A 
ATOM     23  C   UNL d   1      10.750   3.750   2.210  0.00  0.00     0.037 A 
ATOM     24  C   UNL d   1      11.485   2.638   2.601  0.00  0.00     0.065 A 
ATOM     25  C   UNL d   1      10.846   1.472   3.010  0.00  0.00     0.037 A 
ATOM     26  C   UNL d   1       9.449   1.424   3.033  0.00  0.00     0.010 A 
BRANCH  24  27
ATOM     27  O   UNL d   1      12.845   2.732   2.572  0.00  0.00    -0.361 OA
ATOM     28  H   UNL d   1      13.220   1.899   2.902  0.00  0.00     0.217 HD
ENDBRANCH  24  27
ENDBRANCH  20  21
ENDBRANCH  19  20
ENDBRANCH  16  19
ENDBRANCH   1  15
TORSDOF 12
