REMARK  3 active torsions:
REMARK  status: ('A' for Active; 'I' for Inactive)
REMARK    1  A    between atoms: C_11  and  C_5 
REMARK    2  A    between atoms: N_14  and  C_13 
REMARK    3  A    between atoms: O_21  and  C_19 
ROOT
ATOM      1  N   UNL d   1       0.914   0.525  -0.047  0.00  0.00    -0.322 N 
ATOM      2  C   UNL d   1       1.716  -0.592  -0.131  0.00  0.00     0.044 A 
ATOM      3  N   UNL d   1      -0.346  -1.991  -0.050  0.00  0.00    -0.374 N 
ATOM      4  C   UNL d   1      -1.087  -0.812   0.021  0.00  0.00     0.059 A 
ATOM      5  C   UNL d   1       1.076  -1.922  -0.370  0.00  0.00     0.165 C 
ATOM      6  C   UNL d   1      -0.499   0.461  -0.054  0.00  0.00     0.065 A 
ATOM      7  C   UNL d   1      -2.483  -0.890   0.086  0.00  0.00     0.068 A 
ATOM      8  C   UNL d   1       1.725   1.632   0.061  0.00  0.00     0.097 A 
ATOM      9  C   UNL d   1       3.035  -0.191  -0.051  0.00  0.00     0.029 A 
ATOM     10  C   UNL d   1      -1.284   1.618  -0.075  0.00  0.00     0.035 A 
ATOM     11  C   UNL d   1       3.041   1.213   0.077  0.00  0.00     0.020 A 
ATOM     12  C   UNL d   1      -3.283   0.259   0.057  0.00  0.00     0.070 A 
ATOM     13  C   UNL d   1      -2.677   1.512  -0.030  0.00  0.00     0.039 A 
ATOM     14  H   UNL d   1      -0.614  -2.708   0.617  0.00  0.00     0.160 HD
ENDROOT
BRANCH   5  15
ATOM     15  C   UNL d   1       1.798  -3.085   0.295  0.00  0.00    -0.030 A 
ATOM     16  C   UNL d   1       1.995  -3.146   1.680  0.00  0.00     0.012 A 
ATOM     17  C   UNL d   1       2.644  -4.247   2.264  0.00  0.00     0.030 A 
ATOM     18  C   UNL d   1       3.109  -5.338   1.511  0.00  0.00     0.029 A 
ATOM     19  C   UNL d   1       2.895  -5.254   0.126  0.00  0.00     0.030 A 
ATOM     20  C   UNL d   1       2.260  -4.158  -0.474  0.00  0.00     0.012 A 
BRANCH  18  21
ATOM     21  N   UNL d   1       3.697  -6.455   2.088  0.00  0.00    -0.390 N 
ATOM     22  C   UNL d   1       4.694  -7.252   1.376  0.00  0.00     0.149 C 
ATOM     23  C   UNL d   1       3.596  -6.743   3.515  0.00  0.00     0.149 C 
ENDBRANCH  18  21
ENDBRANCH   5  15
BRANCH  12  24
ATOM     24  O   UNL d   1      -4.630   0.023   0.108  0.00  0.00    -0.356 OA
ATOM     25  C   UNL d   1      -5.483   1.159   0.042  0.00  0.00     0.210 C 
ENDBRANCH  12  24
TORSDOF 3
