REMARK  5 active torsions:
REMARK  status: ('A' for Active; 'I' for Inactive)
REMARK    1  A    between atoms: C_3  and  C_1 
REMARK    2  A    between atoms: C_2  and  N_4 
REMARK       I    between atoms: N_4  and  C_3 
REMARK    3  A    between atoms: C_10  and  N_4 
REMARK    4  A    between atoms: C_12  and  C_16 
REMARK    5  A    between atoms: C_13  and  C_15 
ROOT
ATOM      1  C   UNL d   1       3.841  -0.060   0.009  0.00  0.00     0.273 C 
ATOM      2  N   UNL d   1       4.611  -1.250  -0.053  0.00  0.00    -0.257 N 
ATOM      3  O   UNL d   1       2.715   0.022  -0.489  0.00  0.00    -0.266 OA
ENDROOT
BRANCH   2   4
ATOM      4  C   UNL d   1       5.994  -1.134   0.019  0.00  0.00     0.160 A 
ATOM      5  N   UNL d   1       6.742  -1.433   1.052  0.00  0.00    -0.335 N 
ATOM      6  C   UNL d   1       8.073  -1.248   0.728  0.00  0.00     0.051 A 
ATOM      7  HN  UNL d   1       6.396  -1.754   1.956  1.00  0.00     0.168 HD
ATOM      8  C   UNL d   1       9.159  -1.381   1.616  0.00  0.00     0.031 A 
ATOM      9  C   UNL d   1       8.325  -0.927  -0.608  0.00  0.00     0.035 A 
ATOM     10  C   UNL d   1      10.464  -1.231   1.143  0.00  0.00     0.002 A 
ATOM     11  C   UNL d   1      10.698  -0.969  -0.203  0.00  0.00     0.002 A 
ATOM     12  C   UNL d   1       9.636  -0.809  -1.101  0.00  0.00     0.021 A 
ATOM     13  S   UNL d   1       6.816  -0.715  -1.422  0.00  0.00    -0.051 SA
ENDBRANCH   2   4
BRANCH   2  14
ATOM     14  C   UNL d   1       4.069  -2.586  -0.106  0.00  0.00     0.046 A 
ATOM     15  C   UNL d   1       2.699  -2.832  -0.301  0.00  0.00     0.046 A 
ATOM     16  C   UNL d   1       2.159  -4.133  -0.273  0.00  0.00     0.050 A 
ATOM     17  C   UNL d   1       3.007  -5.222  -0.036  0.00  0.00     0.032 A 
ATOM     18  C   UNL d   1       4.377  -5.024   0.156  0.00  0.00     0.050 A 
ATOM     19  C   UNL d   1       4.889  -3.716   0.093  0.00  0.00     0.046 A 
BRANCH  16  20
ATOM     20  C   UNL d   1       0.676  -4.365  -0.460  0.00  0.00     0.417 C 
ATOM     21  F   UNL d   1      -0.039  -3.229  -0.678  0.00  0.00    -0.166 F 
ATOM     22  F   UNL d   1       0.411  -5.185  -1.513  0.00  0.00    -0.166 F 
ATOM     23  F   UNL d   1       0.112  -4.960   0.627  0.00  0.00    -0.166 F 
ENDBRANCH  16  20
BRANCH  18  24
ATOM     24  C   UNL d   1       5.279  -6.194   0.479  0.00  0.00     0.417 C 
ATOM     25  F   UNL d   1       6.581  -5.847   0.666  0.00  0.00    -0.166 F 
ATOM     26  F   UNL d   1       4.896  -6.838   1.616  0.00  0.00    -0.166 F 
ATOM     27  F   UNL d   1       5.280  -7.136  -0.504  0.00  0.00    -0.166 F 
ENDBRANCH  18  24
ENDBRANCH   2  14
BRANCH   1  28
ATOM     28  C   UNL d   1       4.400   1.089   0.722  0.00  0.00     0.097 C 
ATOM     29  S   UNL d   1       5.030   0.907   2.305  0.00  0.00    -0.082 SA
ATOM     30  C   UNL d   1       5.624   2.514   2.344  0.00  0.00     0.017 A 
ATOM     31  C   UNL d   1       6.464   3.079   3.323  0.00  0.00     0.020 A 
ATOM     32  C   UNL d   1       5.144   3.254   1.260  0.00  0.00     0.004 A 
ATOM     33  C   UNL d   1       6.832   4.419   3.204  0.00  0.00     0.001 A 
ATOM     34  C   UNL d   1       6.352   5.189   2.154  0.00  0.00     0.001 A 
ATOM     35  C   UNL d   1       5.503   4.625   1.195  0.00  0.00     0.014 A 
ATOM     36  C   UNL d   1       4.360   2.427   0.375  0.00  0.00     0.068 C 
ATOM     37 CL   UNL d   1       3.583   3.066  -1.016  0.00  0.00    -0.082 Cl
ENDBRANCH   1  28
TORSDOF 5
