REMARK  6 active torsions:
REMARK  status: ('A' for Active; 'I' for Inactive)
REMARK    1  A    between atoms: C_10  and  C_1 
REMARK       I    between atoms: C_2  and  N_8 
REMARK       I    between atoms: N_4  and  C_2 
REMARK    2  A    between atoms: C_11  and  C_3 
REMARK    3  A    between atoms: C_6  and  N_4 
REMARK    4  A    between atoms: N_8  and  C_11 
REMARK    5  A    between atoms: S_13  and  C_10 
REMARK    6  A    between atoms: C_15  and  S_13 
ROOT
ATOM      1  C   UNL d   1       1.669   0.733  -0.180  0.00  0.00    -0.033 A 
ATOM      2  C   UNL d   1       0.382   1.251  -0.319  0.00  0.00     0.007 A 
ATOM      3  S   UNL d   1      -0.814   0.014  -0.354  0.00  0.00    -0.104 SA
ATOM      4  C   UNL d   1       0.346  -1.213  -0.155  0.00  0.00     0.051 A 
ATOM      5  C   UNL d   1       1.619  -0.703  -0.060  0.00  0.00     0.016 A 
ENDROOT
BRANCH   2   6
ATOM      6  C   UNL d   1      -0.071   2.683  -0.372  0.00  0.00     0.171 C 
BRANCH   6   7
ATOM      7  N   UNL d   1      -0.683   2.962  -1.647  0.00  0.00    -0.338 N 
ATOM      8  C   UNL d   1      -1.450   4.068  -1.812  0.00  0.00     0.321 C 
ATOM      9  N   UNL d   1      -2.132   4.213  -2.978  0.00  0.00    -0.306 N 
ATOM     10  O   UNL d   1      -1.666   4.863  -0.897  0.00  0.00    -0.247 OA
ATOM     11  H   UNL d   1      -2.895   4.870  -2.860  0.00  0.00     0.171 HD
ATOM     12  H   UNL d   1      -0.301   2.513  -2.466  0.00  0.00     0.164 HD
BRANCH   9  13
ATOM     13  C   UNL d   1      -2.006   3.619  -4.246  0.00  0.00     0.075 A 
ATOM     14  C   UNL d   1      -0.827   3.075  -4.764  0.00  0.00     0.143 A 
ATOM     15  F   UNL d   1       0.307   3.073  -4.049  0.00  0.00    -0.204 F 
ATOM     16  C   UNL d   1      -0.773   2.574  -6.065  0.00  0.00     0.044 A 
ATOM     17  C   UNL d   1      -1.913   2.594  -6.867  0.00  0.00     0.003 A 
ATOM     18  C   UNL d   1      -3.099   3.126  -6.366  0.00  0.00     0.002 A 
ATOM     19  C   UNL d   1      -3.139   3.652  -5.071  0.00  0.00     0.033 A 
ENDBRANCH   9  13
ENDBRANCH   6   7
ENDBRANCH   2   6
BRANCH   1  20
ATOM     20  C   UNL d   1       2.928   1.562  -0.068  0.00  0.00     0.119 C 
BRANCH  20  21
ATOM     21  S   UNL d   1       4.390   0.778  -0.833  0.00  0.00    -0.125 SA
BRANCH  21  22
ATOM     22  C   UNL d   1       5.757   1.699  -0.131  0.00  0.00     0.001 A 
ATOM     23  C   UNL d   1       5.644   2.993   0.389  0.00  0.00     0.020 A 
ATOM     24  C   UNL d   1       6.763   3.647   0.918  0.00  0.00     0.025 A 
ATOM     25  C   UNL d   1       8.005   3.016   0.919  0.00  0.00     0.034 A 
ATOM     26  C   UNL d   1       8.138   1.737   0.391  0.00  0.00     0.025 A 
ATOM     27 CL   UNL d   1       9.376   3.822   1.572  0.00  0.00    -0.084 Cl
ATOM     28  C   UNL d   1       7.016   1.082  -0.134  0.00  0.00     0.020 A 
ENDBRANCH  21  22
ENDBRANCH  20  21
ENDBRANCH   1  20
TORSDOF 6
