REMARK  6 active torsions:
REMARK  status: ('A' for Active; 'I' for Inactive)
REMARK    1  A    between atoms: C_8  and  N_1 
REMARK    2  A    between atoms: C_10  and  C_3 
REMARK    3  A    between atoms: C_7  and  O_11 
REMARK    4  A    between atoms: O_14  and  C_10 
REMARK    5  A    between atoms: O_11  and  C_18 
REMARK    6  A    between atoms: C_19  and  O_14 
ROOT
ATOM      1  N   UNL d   1       0.807  -0.459   0.716  0.00  0.00    -0.273 N 
ATOM      2  C   UNL d   1      -0.463  -0.939   0.411  0.00  0.00     0.199 A 
ATOM      3  C   UNL d   1       0.936   0.658  -0.052  0.00  0.00     0.130 A 
ATOM      4  N   UNL d   1      -0.105   0.930  -0.797  0.00  0.00    -0.284 N 
ATOM      5  HN  UNL d   1      -0.230   1.719  -1.431  1.00  0.00     0.188 HD
ATOM      6  N   UNL d   1      -0.981  -0.070  -0.539  0.00  0.00    -0.274 N 
ATOM      7  S   UNL d   1      -1.386  -2.183   1.015  0.00  0.00    -0.039 SA
ATOM      8  H   UNL d   1      -1.907  -0.105  -0.949  0.00  0.00     0.189 HD
ENDROOT
BRANCH   3   9
ATOM      9  C   UNL d   1       2.153   1.561  -0.141  0.00  0.00     0.254 C 
BRANCH   9  10
ATOM     10  O   UNL d   1       3.329   0.804  -0.373  0.00  0.00    -0.344 OA
BRANCH  10  11
ATOM     11  C   UNL d   1       4.505   1.500  -0.440  0.00  0.00     0.069 A 
ATOM     12  C   UNL d   1       5.646   0.728  -0.261  0.00  0.00     0.039 A 
ATOM     13  C   UNL d   1       6.912   1.317  -0.287  0.00  0.00     0.040 A 
ATOM     14  C   UNL d   1       7.054   2.692  -0.494  0.00  0.00     0.078 A 
ATOM     15  C   UNL d   1       5.916   3.459  -0.734  0.00  0.00     0.040 A 
ATOM     16  C   UNL d   1       4.641   2.867  -0.694  0.00  0.00     0.039 A 
BRANCH  14  17
ATOM     17  O   UNL d   1       8.343   3.134  -0.442  0.00  0.00    -0.255 OA
BRANCH  17  18
ATOM     18  C   UNL d   1       8.581   4.521  -0.281  0.00  0.00     0.530 C 
ATOM     19  F   UNL d   1       7.688   5.109   0.546  0.00  0.00    -0.144 F 
ATOM     20  F   UNL d   1       9.809   4.684   0.259  0.00  0.00    -0.144 F 
ATOM     21  F   UNL d   1       8.558   5.143  -1.478  0.00  0.00    -0.144 F 
ENDBRANCH  17  18
ENDBRANCH  14  17
ENDBRANCH  10  11
ENDBRANCH   9  10
ENDBRANCH   3   9
BRANCH   1  22
ATOM     22  C   UNL d   1       1.724  -1.012   1.652  0.00  0.00     0.043 A 
ATOM     23  C   UNL d   1       1.857  -2.404   1.796  0.00  0.00     0.032 A 
ATOM     24  C   UNL d   1       2.725  -2.964   2.742  0.00  0.00     0.026 A 
ATOM     25  C   UNL d   1       3.491  -2.135   3.551  0.00  0.00     0.034 A 
ATOM     26  C   UNL d   1       3.393  -0.755   3.419  0.00  0.00     0.026 A 
ATOM     27 CL   UNL d   1       4.555  -2.815   4.716  0.00  0.00    -0.084 Cl
ATOM     28  C   UNL d   1       2.511  -0.200   2.479  0.00  0.00     0.032 A 
ENDBRANCH   1  22
TORSDOF 6
