REMARK  7 active torsions:
REMARK  status: ('A' for Active; 'I' for Inactive)
REMARK       I    between atoms: N_3  and  C_1 
REMARK    1  A    between atoms: C_8  and  C_1 
REMARK       I    between atoms: C_2  and  N_5 
REMARK    2  A    between atoms: C_12  and  N_3 
REMARK    3  A    between atoms: C_4  and  C_11 
REMARK    4  A    between atoms: O_14  and  C_4 
REMARK    5  A    between atoms: N_5  and  C_13 
REMARK    6  A    between atoms: C_6  and  C_8 
REMARK    7  A    between atoms: C_11  and  C_6 
ROOT
ATOM      1  C   UNL d   1       0.749  -0.036   0.148  0.00  0.00     0.222 C 
ATOM      2  N   UNL d   1       0.080  -1.181   0.558  0.00  0.00    -0.327 N 
ATOM      3  O   UNL d   1       0.220   1.018  -0.188  0.00  0.00    -0.273 OA
ATOM      4  H   UNL d   1       0.638  -1.923   0.963  0.00  0.00     0.169 HD
ENDROOT
BRANCH   2   5
ATOM      5  C   UNL d   1      -1.323  -1.317   0.668  0.00  0.00     0.034 A 
ATOM      6  C   UNL d   1      -2.221  -0.407   0.115  0.00  0.00     0.032 A 
ATOM      7  C   UNL d   1      -3.591  -0.512   0.365  0.00  0.00     0.032 A 
ATOM      8  C   UNL d   1      -4.093  -1.537   1.170  0.00  0.00     0.034 A 
ATOM      9  C   UNL d   1      -3.210  -2.504   1.650  0.00  0.00     0.032 A 
ATOM     10  C   UNL d   1      -1.832  -2.399   1.394  0.00  0.00     0.032 A 
BRANCH   8  11
ATOM     11  N   UNL d   1      -5.466  -1.477   1.475  0.00  0.00    -0.328 N 
ATOM     12  C   UNL d   1      -6.178  -2.294   2.329  0.00  0.00     0.218 C 
ATOM     13  O   UNL d   1      -5.771  -3.312   2.879  0.00  0.00    -0.274 OA
ATOM     14  C   UNL d   1      -7.586  -1.802   2.567  0.00  0.00     0.117 C 
ATOM     15  H   UNL d   1      -5.963  -0.689   1.081  0.00  0.00     0.169 HD
ENDBRANCH   8  11
ENDBRANCH   2   5
BRANCH   1  16
ATOM     16  C   UNL d   1       2.265  -0.197   0.188  0.00  0.00     0.112 C 
BRANCH  16  17
ATOM     17  C   UNL d   1       3.091   1.025  -0.311  0.00  0.00    -0.030 C 
ATOM     18  C   UNL d   1       4.592   0.679  -0.183  0.00  0.00     0.016 C 
ATOM     19  C   UNL d   1       2.814   1.263  -1.815  0.00  0.00     0.016 C 
BRANCH  17  20
ATOM     20  C   UNL d   1       2.798   2.352   0.444  0.00  0.00     0.119 C 
BRANCH  20  21
ATOM     21  C   UNL d   1       2.935   2.321   1.952  0.00  0.00     0.140 C 
ATOM     22  O   UNL d   1       3.390   1.399   2.611  0.00  0.00    -0.650 OA
BRANCH  21  23
ATOM     23  O   UNL d   1       2.517   3.474   2.527  0.00  0.00    -0.776 OA
ATOM     24  H   UNL d   1       2.156   4.118   1.888  0.00  0.00     0.167 HD
ENDBRANCH  21  23
ENDBRANCH  20  21
ENDBRANCH  17  20
ENDBRANCH  16  17
ENDBRANCH   1  16
TORSDOF 7
