REMARK  3 active torsions:
REMARK  status: ('A' for Active; 'I' for Inactive)
REMARK    1  A    between atoms: C_5  and  C_1 
REMARK    2  A    between atoms: C_13  and  C_4 
REMARK    3  A    between atoms: O_14  and  C_5 
ROOT
ATOM      1  C   UNL d   1       0.553  -2.694   0.081  0.00  0.00     0.114 C 
ATOM      2  C   UNL d   1       0.786  -3.450  -1.024  0.00  0.00     0.158 C 
ATOM      3  C   UNL d   1       0.646  -2.892  -2.330  0.00  0.00     0.113 C 
ATOM      4  C   UNL d   1       1.188  -4.810  -0.991  0.00  0.00     0.113 C 
ATOM      5  N   UNL d   1       0.570  -2.447  -3.399  0.00  0.00    -0.191 NA
ATOM      6  N   UNL d   1       1.503  -5.928  -0.953  0.00  0.00    -0.191 NA
ENDROOT
BRANCH   1   7
ATOM      7  C   UNL d   1       0.061  -1.346  -0.001  0.00  0.00     0.060 A 
ATOM      8  C   UNL d   1      -1.293  -0.875  -0.018  0.00  0.00     0.080 A 
ATOM      9  N   UNL d   1      -1.301   0.466  -0.118  0.00  0.00    -0.259 N 
ATOM     10  O   UNL d   1       0.011   0.872  -0.157  0.00  0.00    -0.241 OA
ATOM     11  HN  UNL d   1      -2.124   1.067  -0.158  1.00  0.00     0.195 HD
ATOM     12  C   UNL d   1       0.831  -0.208  -0.091  0.00  0.00     0.088 A 
ATOM     13  C   UNL d   1       2.275   0.086  -0.144  0.00  0.00     0.080 C 
BRANCH   8  14
ATOM     14  C   UNL d   1      -2.558  -1.618   0.023  0.00  0.00    -0.007 A 
ATOM     15  C   UNL d   1      -3.696  -1.100  -0.617  0.00  0.00     0.014 A 
ATOM     16  C   UNL d   1      -4.909  -1.795  -0.600  0.00  0.00     0.001 A 
ATOM     17  C   UNL d   1      -5.000  -3.019   0.055  0.00  0.00     0.000 A 
ATOM     18  C   UNL d   1      -3.886  -3.542   0.704  0.00  0.00     0.001 A 
ATOM     19  C   UNL d   1      -2.676  -2.841   0.697  0.00  0.00     0.014 A 
ENDBRANCH   8  14
ENDBRANCH   1   7
BRANCH   1  20
ATOM     20  O   UNL d   1       0.687  -3.030   1.411  0.00  0.00    -0.353 OA
ATOM     21  C   UNL d   1       1.059  -4.325   1.861  0.00  0.00     0.210 C 
ENDBRANCH   1  20
TORSDOF 3
