REMARK  3 active torsions:
REMARK  status: ('A' for Active; 'I' for Inactive)
REMARK    1  A    between atoms: C_5  and  C_1 
REMARK    2  A    between atoms: N_2  and  C_8 
REMARK    3  A    between atoms: C_9  and  C_5 
ROOT
ATOM      1  C   UNL d   1      -2.326  -0.209  -0.062  0.00  0.00     0.127 A 
ATOM      2  O   UNL d   1      -1.541   0.912  -0.046  0.00  0.00    -0.306 OA
ATOM      3  C   UNL d   1      -1.524  -1.333   0.019  0.00  0.00     0.055 A 
ATOM      4  C   UNL d   1      -0.176  -0.881   0.020  0.00  0.00     0.003 A 
ATOM      5  C   UNL d   1      -0.247   0.506  -0.006  0.00  0.00     0.086 A 
ATOM      6  C   UNL d   1       2.228  -0.657   0.024  0.00  0.00     0.103 A 
ATOM      7  C   UNL d   1       1.091  -1.491   0.035  0.00  0.00     0.050 A 
ATOM      8  C   UNL d   1       0.857   1.355  -0.005  0.00  0.00     0.040 A 
ATOM      9  C   UNL d   1       2.115   0.744   0.009  0.00  0.00     0.039 A 
ENDROOT
BRANCH   1  10
ATOM     10  C   UNL d   1      -3.765  -0.066  -0.138  0.00  0.00     0.215 C 
ATOM     11  O   UNL d   1      -4.549  -0.926   0.255  0.00  0.00    -0.284 OA
BRANCH  10  12
ATOM     12  C   UNL d   1      -4.326   1.177  -0.745  0.00  0.00     0.018 A 
ATOM     13  C   UNL d   1      -3.686   1.810  -1.820  0.00  0.00     0.039 A 
ATOM     14  C   UNL d   1      -4.224   2.977  -2.355  0.00  0.00     0.035 A 
ATOM     15 CL   UNL d   1      -3.417   3.764  -3.654  0.00  0.00    -0.084 Cl
ATOM     16  C   UNL d   1      -5.406   3.510  -1.845  0.00  0.00     0.024 A 
ATOM     17  C   UNL d   1      -6.064   2.865  -0.796  0.00  0.00     0.003 A 
ATOM     18  C   UNL d   1      -5.529   1.696  -0.249  0.00  0.00     0.015 A 
ENDBRANCH  10  12
ENDBRANCH   1  10
BRANCH   6  19
ATOM     19  N   UNL d   1       3.565  -1.269   0.021  0.00  0.00    -0.116 N 
ATOM     20  O   UNL d   1       3.631  -2.506   0.021  0.00  0.00    -0.532 OA
ATOM     21  O   UNL d   1       4.545  -0.512   0.017  0.00  0.00    -0.532 OA
ENDBRANCH   6  19
TORSDOF 3
