REMARK  4 active torsions:
REMARK  status: ('A' for Active; 'I' for Inactive)
REMARK    1  A    between atoms: C_2  and  C_1 
REMARK    2  A    between atoms: C_15  and  N_3 
REMARK    3  A    between atoms: C_13  and  C_4 
REMARK    4  A    between atoms: C_14  and  N_5 
ROOT
ATOM      1  C   UNL d   1      -0.263   1.217  -0.012  0.00  0.00     0.057 C 
ATOM      2  C   UNL d   1       1.074   0.839  -0.061  0.00  0.00     0.082 C 
ATOM      3  N   UNL d   1       1.037  -0.567  -0.071  0.00  0.00    -0.255 N 
ATOM      4  N   UNL d   1      -0.230  -1.043  -0.196  0.00  0.00    -0.303 N 
ATOM      5  HN  UNL d   1      -0.521  -2.010  -0.345  1.00  0.00     0.186 HD
ATOM      6  C   UNL d   1      -1.007   0.029  -0.083  0.00  0.00     0.125 C 
ENDROOT
BRANCH   1   7
ATOM      7  C   UNL d   1      -0.822   2.595   0.014  0.00  0.00     0.152 C 
ATOM      8  N   UNL d   1      -2.005   3.013   0.601  0.00  0.00    -0.224 N 
ATOM      9  N   UNL d   1      -2.309   4.236   0.104  0.00  0.00     0.001 NA
ATOM     10  N   UNL d   1      -1.236   4.623  -0.572  0.00  0.00    -0.007 NA
ATOM     11  N   UNL d   1      -0.298   3.626  -0.620  0.00  0.00    -0.269 N 
ATOM     12  HN  UNL d   1       0.622   3.672  -1.058  1.00  0.00     0.185 HD
BRANCH   8  13
ATOM     13  C   UNL d   1      -2.747   2.443   1.660  0.00  0.00     0.056 A 
ATOM     14  C   UNL d   1      -2.123   1.610   2.603  0.00  0.00     0.031 A 
ATOM     15  C   UNL d   1      -2.862   1.070   3.654  0.00  0.00     0.002 A 
ATOM     16  C   UNL d   1      -4.221   1.351   3.768  0.00  0.00     0.000 A 
ATOM     17  C   UNL d   1      -4.840   2.195   2.844  0.00  0.00     0.002 A 
ATOM     18  C   UNL d   1      -4.103   2.757   1.801  0.00  0.00     0.031 A 
ENDBRANCH   8  13
ENDBRANCH   1   7
BRANCH   2  19
ATOM     19  C   UNL d   1       2.293   1.671  -0.089  0.00  0.00    -0.005 A 
ATOM     20  C   UNL d   1       3.390   1.340  -0.901  0.00  0.00     0.037 A 
ATOM     21  C   UNL d   1       4.566   2.090  -0.844  0.00  0.00     0.035 A 
ATOM     22 CL   UNL d   1       5.946   1.575  -1.735  0.00  0.00    -0.084 Cl
ATOM     23  C   UNL d   1       4.646   3.230  -0.050  0.00  0.00     0.024 A 
ATOM     24  C   UNL d   1       3.544   3.607   0.713  0.00  0.00     0.003 A 
ATOM     25  C   UNL d   1       2.391   2.819   0.712  0.00  0.00     0.014 A 
ENDBRANCH   2  19
BRANCH   3  26
ATOM     26  C   UNL d   1       2.101  -1.506   0.032  0.00  0.00     0.057 A 
ATOM     27  C   UNL d   1       3.240  -1.237   0.802  0.00  0.00     0.033 A 
ATOM     28  C   UNL d   1       4.322  -2.117   0.777  0.00  0.00     0.026 A 
ATOM     29  C   UNL d   1       4.261  -3.274   0.003  0.00  0.00     0.034 A 
ATOM     30  C   UNL d   1       3.106  -3.585  -0.711  0.00  0.00     0.026 A 
ATOM     31 CL   UNL d   1       5.624  -4.319  -0.078  0.00  0.00    -0.084 Cl
ATOM     32  C   UNL d   1       2.014  -2.711  -0.684  0.00  0.00     0.033 A 
ENDBRANCH   3  26
TORSDOF 4
