REMARK  5 active torsions:
REMARK  status: ('A' for Active; 'I' for Inactive)
REMARK    1  A    between atoms: C_18  and  N_1 
REMARK    2  A    between atoms: N_6  and  C_13 
REMARK    3  A    between atoms: N_20  and  C_8 
REMARK    4  A    between atoms: N_15  and  N_20 
REMARK    5  A    between atoms: C_24  and  C_23 
ROOT
ATOM      1  N   UNL d   1      -1.524  -1.104  -0.034  0.00  0.00    -0.239 N 
ATOM      2  C   UNL d   1      -0.207  -0.641   0.004  0.00  0.00     0.143 A 
ATOM      3  N   UNL d   1      -2.414  -0.067  -0.106  0.00  0.00    -0.302 N 
ATOM      4  HN  UNL d   1      -3.431  -0.118  -0.157  1.00  0.00     0.186 HD
ATOM      5  C   UNL d   1      -0.278   0.743  -0.033  0.00  0.00     0.072 A 
ATOM      6  C   UNL d   1      -1.651   1.022  -0.095  0.00  0.00     0.127 A 
ATOM      7  C   UNL d   1       0.920   1.472  -0.005  0.00  0.00     0.136 A 
ATOM      8  N   UNL d   1       0.938  -1.353   0.059  0.00  0.00    -0.336 N 
ATOM      9  HN  UNL d   1       0.972  -2.372   0.084  1.00  0.00     0.168 HD
ATOM     10  N   UNL d   1       2.083   0.775   0.049  0.00  0.00    -0.337 N 
ATOM     11  HN  UNL d   1       2.980   1.259   0.070  1.00  0.00     0.168 HD
ATOM     12  C   UNL d   1       2.025  -0.570   0.076  0.00  0.00     0.183 A 
ENDROOT
BRANCH   7  13
ATOM     13  N   UNL d   1       1.001   2.869  -0.032  0.00  0.00    -0.285 N 
ATOM     14  H   UNL d   1       1.948   3.232  -0.035  0.00  0.00     0.188 HD
BRANCH  13  15
ATOM     15  N   UNL d   1      -0.120   3.611  -0.124  0.00  0.00    -0.309 N 
ATOM     16  C   UNL d   1       0.036   4.893  -0.171  0.00  0.00     0.118 C 
ATOM     17  HN  UNL d   1      -1.045   3.182  -0.154  1.00  0.00     0.186 HD
BRANCH  16  18
ATOM     18  C   UNL d   1      -1.141   5.786  -0.261  0.00  0.00    -0.019 A 
ATOM     19  C   UNL d   1      -2.436   5.251  -0.309  0.00  0.00     0.015 A 
ATOM     20  C   UNL d   1      -3.547   6.091  -0.381  0.00  0.00     0.037 A 
ATOM     21  C   UNL d   1      -3.356   7.477  -0.406  0.00  0.00     0.102 A 
ATOM     22  C   UNL d   1      -2.062   8.020  -0.363  0.00  0.00     0.037 A 
ATOM     23  C   UNL d   1      -0.952   7.169  -0.291  0.00  0.00     0.015 A 
BRANCH  21  24
ATOM     24  N   UNL d   1      -4.522   8.367  -0.474  0.00  0.00    -0.116 N 
ATOM     25  O   UNL d   1      -5.646   7.847  -0.492  0.00  0.00    -0.532 OA
ATOM     26  O   UNL d   1      -4.310   9.589  -0.510  0.00  0.00    -0.532 OA
ENDBRANCH  21  24
ENDBRANCH  16  18
ENDBRANCH  13  15
ENDBRANCH   7  13
BRANCH   1  27
ATOM     27  C   UNL d   1      -2.020  -2.442  -0.009  0.00  0.00     0.058 A 
ATOM     28  C   UNL d   1      -1.167  -3.543   0.122  0.00  0.00     0.031 A 
ATOM     29  C   UNL d   1      -1.692  -4.839   0.144  0.00  0.00     0.002 A 
ATOM     30  C   UNL d   1      -3.065  -5.045   0.032  0.00  0.00     0.000 A 
ATOM     31  C   UNL d   1      -3.923  -3.957  -0.099  0.00  0.00     0.002 A 
ATOM     32  C   UNL d   1      -3.405  -2.660  -0.116  0.00  0.00     0.031 A 
ENDBRANCH   1  27
TORSDOF 5
