REMARK  2 active torsions:
REMARK  status: ('A' for Active; 'I' for Inactive)
REMARK    1  A    between atoms: C_5  and  N_1 
REMARK    2  A    between atoms: C_9  and  C_10 
ROOT
ATOM      1  C   UNL d   1      -0.636   2.443  -0.014  0.00  0.00     0.044 A 
ATOM      2  C   UNL d   1      -1.246   5.219  -0.039  0.00  0.00    -0.051 A 
ATOM      3  C   UNL d   1      -1.520   2.980   0.923  0.00  0.00     0.031 A 
ATOM      4  C   UNL d   1      -0.069   3.290  -0.970  0.00  0.00     0.031 A 
ATOM      5  C   UNL d   1      -1.798   4.352   0.925  0.00  0.00     0.010 A 
ATOM      6  C   UNL d   1      -0.381   4.654  -0.989  0.00  0.00     0.010 A 
ENDROOT
BRANCH   1   7
ATOM      7  N   UNL d   1      -0.315   1.064  -0.005  0.00  0.00    -0.262 N 
ATOM      8  C   UNL d   1       0.974   0.600  -0.002  0.00  0.00     0.147 A 
ATOM      9  S   UNL d   1       1.050  -1.127  -0.148  0.00  0.00    -0.084 SA
ATOM     10  N   UNL d   1       2.053   1.278   0.148  0.00  0.00    -0.379 N 
ATOM     11  C   UNL d   1      -0.740  -1.289  -0.209  0.00  0.00     0.186 A 
ATOM     12  C   UNL d   1      -1.310   0.102  -0.060  0.00  0.00     0.240 A 
ATOM     13  O   UNL d   1      -2.525   0.298  -0.051  0.00  0.00    -0.272 OA
ATOM     14  H   UNL d   1       1.843   2.268   0.295  0.00  0.00     0.158 HD
ATOM     15  HN  UNL d   1       2.993   0.883   0.123  1.00  0.00     0.158 HD
ENDBRANCH   1   7
BRANCH   2  16
ATOM     16  C   UNL d   1      -1.608   6.716  -0.037  0.00  0.00    -0.024 C 
ATOM     17  C   UNL d   1      -0.994   7.503  -1.217  0.00  0.00     0.019 C 
ATOM     18  C   UNL d   1      -3.141   6.884  -0.129  0.00  0.00     0.019 C 
ATOM     19  C   UNL d   1      -1.104   7.375   1.264  0.00  0.00     0.019 C 
ENDBRANCH   2  16
TORSDOF 2
