REMARK  0 active torsions:
REMARK  status: ('A' for Active; 'I' for Inactive)
ROOT
ATOM      1  C   UNL d   1      -0.281   0.271  -0.390  0.00  0.00     0.097 C 
ATOM      2  C   UNL d   1       1.371   0.820   1.566  0.00  0.00     0.006 C 
ATOM      3  C   UNL d   1       2.133  -0.170   1.106  0.00  0.00    -0.004 C 
ATOM      4  C   UNL d   1      -0.011   0.897   1.010  0.00  0.00     0.070 C 
ATOM      5  C   UNL d   1      -1.477  -0.697  -0.317  0.00  0.00     0.145 C 
ATOM      6  C   UNL d   1      -0.731   1.446  -1.260  0.00  0.00     0.145 C 
ATOM      7  C   UNL d   1       1.594   1.337   2.951  0.00  0.00     0.157 C 
ATOM      8  N   UNL d   1       2.149  -0.473  -0.244  0.00  0.00    -0.294 NA
ATOM      9  C   UNL d   1       0.898  -0.514  -1.018  0.00  0.00     0.117 C 
ATOM     10  C   UNL d   1       2.022  -1.018   3.549  0.00  0.00    -0.036 C 
ATOM     11  C   UNL d   1      -3.205   1.118  -0.653  0.00  0.00    -0.035 C 
ATOM     12  C   UNL d   1       2.540  -1.250   2.088  0.00  0.00     0.060 C 
ATOM     13  C   UNL d   1      -2.791  -0.120   0.157  0.00  0.00     0.088 C 
ATOM     14  C   UNL d   1      -2.050   2.116  -0.865  0.00  0.00     0.088 C 
ATOM     15  C   UNL d   1       2.344   0.444   3.912  0.00  0.00     0.092 C 
ATOM     16  O   UNL d   1      -0.033   1.918  -2.150  0.00  0.00    -0.297 OA
ATOM     17  O   UNL d   1      -1.424  -1.885  -0.599  0.00  0.00    -0.297 OA
ATOM     18  O   UNL d   1       1.183   2.459   3.257  0.00  0.00    -0.293 OA
ATOM     19  C   UNL d   1      -4.337   1.798   0.137  0.00  0.00     0.015 C 
ATOM     20  C   UNL d   1      -3.744   0.694  -2.028  0.00  0.00     0.015 C 
ATOM     21  C   UNL d   1       2.738  -2.008   4.474  0.00  0.00     0.015 C 
ATOM     22  C   UNL d   1       0.497  -1.261   3.754  0.00  0.00     0.015 C 
ATOM     23  H   UNL d   1       2.778   0.189  -0.716  0.00  0.00     0.127 HD
ENDROOT
TORSDOF 0
