REMARK  10 active torsions:
REMARK  status: ('A' for Active; 'I' for Inactive)
REMARK    1  A    between atoms: S_7  and  C_1 
REMARK    2  A    between atoms: C_2  and  S_7 
REMARK    3  A    between atoms: C_10  and  C_2 
REMARK    4  A    between atoms: C_11  and  C_2 
REMARK    5  A    between atoms: N_19  and  C_8 
REMARK    6  A    between atoms: S_18  and  C_9 
REMARK    7  A    between atoms: O_21  and  C_10 
REMARK    8  A    between atoms: O_22  and  C_11 
REMARK    9  A    between atoms: C_24  and  O_21 
REMARK   10  A    between atoms: C_25  and  O_22 
ROOT
ATOM      1  C   UNL d   1      -2.379   3.463  -1.979  0.00  0.00     0.095 A 
ATOM      2  C   UNL d   1      -1.383   3.473  -2.961  0.00  0.00     0.096 A 
ATOM      3  N   UNL d   1      -3.261   4.479  -1.851  0.00  0.00    -0.339 N 
ATOM      4  HN  UNL d   1      -3.936   4.478  -1.085  1.00  0.00     0.167 HD
ATOM      5  C   UNL d   1      -2.324   5.566  -3.773  0.00  0.00     0.101 A 
ATOM      6  C   UNL d   1      -3.249   5.493  -2.735  0.00  0.00     0.101 A 
ATOM      7  C   UNL d   1      -1.359   4.542  -3.889  0.00  0.00     0.047 A 
ATOM      8  C   UNL d   1      -0.377   2.456  -2.975  0.00  0.00     0.103 C 
ATOM      9  C   UNL d   1      -2.379   6.682  -4.674  0.00  0.00     0.104 C 
ATOM     10  N   UNL d   1       0.450   1.637  -3.004  0.00  0.00    -0.191 NA
ATOM     11  N   UNL d   1      -2.474   7.571  -5.411  0.00  0.00    -0.191 NA
ENDROOT
BRANCH   1  12
ATOM     12  S   UNL d   1      -2.476   2.254  -0.655  0.00  0.00    -0.080 SA
BRANCH  12  13
ATOM     13  C   UNL d   1      -4.231   1.571  -0.766  0.00  0.00     0.185 C 
ATOM     14  C   UNL d   1      -5.300   2.675  -0.889  0.00  0.00     0.050 C 
BRANCH  13  15
ATOM     15  C   UNL d   1      -4.325   0.712  -2.022  0.00  0.00     0.288 C 
ATOM     16  O   UNL d   1      -4.116   1.142  -3.155  0.00  0.00    -0.263 OA
BRANCH  15  17
ATOM     17  O   UNL d   1      -4.759  -0.551  -1.761  0.00  0.00    -0.320 OA
BRANCH  17  18
ATOM     18  C   UNL d   1      -5.371  -1.258  -2.852  0.00  0.00     0.174 C 
ATOM     19  C   UNL d   1      -4.446  -2.298  -3.452  0.00  0.00     0.034 C 
ENDBRANCH  17  18
ENDBRANCH  15  17
ENDBRANCH  13  15
BRANCH  13  20
ATOM     20  C   UNL d   1      -4.602   0.799   0.515  0.00  0.00     0.288 C 
ATOM     21  O   UNL d   1      -5.766   0.646   0.886  0.00  0.00    -0.263 OA
BRANCH  20  22
ATOM     22  O   UNL d   1      -3.545   0.292   1.207  0.00  0.00    -0.320 OA
BRANCH  22  23
ATOM     23  C   UNL d   1      -3.859  -0.304   2.482  0.00  0.00     0.174 C 
ATOM     24  C   UNL d   1      -4.327  -1.740   2.324  0.00  0.00     0.034 C 
ENDBRANCH  22  23
ENDBRANCH  20  22
ENDBRANCH  13  20
ENDBRANCH  12  13
ENDBRANCH   1  12
BRANCH   7  25
ATOM     25  S   UNL d   1      -0.004   4.761  -5.079  0.00  0.00    -0.131 SA
ATOM     26  C   UNL d   1      -0.280   3.404  -6.254  0.00  0.00     0.095 C 
ENDBRANCH   7  25
BRANCH   6  27
ATOM     27  N   UNL d   1      -4.162   6.502  -2.454  0.00  0.00    -0.287 NA
ATOM     28  H   UNL d   1      -4.702   6.832  -3.247  0.00  0.00     0.125 HD
ATOM     29  H   UNL d   1      -4.750   6.217  -1.675  0.00  0.00     0.125 HD
ENDBRANCH   6  27
TORSDOF 10
