REMARK  7 active torsions:
REMARK  status: ('A' for Active; 'I' for Inactive)
REMARK    1  A    between atoms: C_10  and  N_1 
REMARK    2  A    between atoms: C_8  and  C_2 
REMARK    3  A    between atoms: N_3  and  C_4 
REMARK    4  A    between atoms: C_14  and  C_6 
REMARK    5  A    between atoms: C_7  and  N_18 
REMARK    6  A    between atoms: O_22  and  C_8 
REMARK    7  A    between atoms: N_18  and  N_11 
ROOT
ATOM      1  N   UNL d   1       1.001  -0.760   0.086  0.00  0.00    -0.305 N 
ATOM      2  C   UNL d   1      -0.336  -1.175   0.083  0.00  0.00     0.116 A 
ATOM      3  C   UNL d   1      -1.132  -0.040   0.022  0.00  0.00     0.039 A 
ATOM      4  C   UNL d   1       1.018   0.644   0.062  0.00  0.00     0.056 A 
ATOM      5  C   UNL d   1      -0.295   1.084   0.072  0.00  0.00     0.034 A 
ENDROOT
BRANCH   4   6
ATOM      6  C   UNL d   1       2.159   1.524  -0.074  0.00  0.00     0.131 C 
ATOM      7  N   UNL d   1       3.228   1.126  -0.676  0.00  0.00    -0.324 N 
ATOM      8  HN  UNL d   1       3.311   0.189  -1.071  1.00  0.00     0.180 HD
BRANCH   7   9
ATOM      9  N   UNL d   1       4.245   2.039  -0.752  0.00  0.00    -0.189 NA
ATOM     10  H   UNL d   1       4.878   1.982   0.058  0.00  0.00     0.154 HD
BRANCH   9  11
ATOM     11  C   UNL d   1       5.018   1.901  -1.944  0.00  0.00     0.132 A 
ATOM     12  C   UNL d   1       6.378   2.227  -2.022  0.00  0.00     0.142 A 
ATOM     13  C   UNL d   1       7.049   2.135  -3.256  0.00  0.00     0.041 A 
ATOM     14  C   UNL d   1       6.349   1.722  -4.383  0.00  0.00     0.020 A 
ATOM     15  C   UNL d   1       5.012   1.425  -4.241  0.00  0.00     0.089 A 
ATOM     16  N   UNL d   1       4.350   1.522  -3.069  0.00  0.00    -0.354 N 
ATOM     17  HN  UNL d   1       3.352   1.313  -3.026  1.00  0.00     0.166 HD
BRANCH  12  18
ATOM     18  N   UNL d   1       7.151   2.592  -0.840  0.00  0.00    -0.112 N 
ATOM     19  O   UNL d   1       6.602   2.511   0.270  0.00  0.00    -0.532 OA
ATOM     20  O   UNL d   1       8.329   2.944  -1.005  0.00  0.00    -0.532 OA
ENDBRANCH  12  18
ENDBRANCH   9  11
ENDBRANCH   7   9
ENDBRANCH   4   6
BRANCH   1  21
ATOM     21  C   UNL d   1       2.144  -1.629   0.108  0.00  0.00     0.040 A 
ATOM     22  C   UNL d   1       2.142  -2.828  -0.623  0.00  0.00     0.033 A 
ATOM     23  C   UNL d   1       3.253  -3.675  -0.594  0.00  0.00     0.044 A 
ATOM     24  C   UNL d   1       4.377  -3.311   0.134  0.00  0.00     0.116 A 
ATOM     25  C   UNL d   1       4.405  -2.123   0.853  0.00  0.00     0.044 A 
ATOM     26  F   UNL d   1       5.449  -4.114   0.144  0.00  0.00    -0.206 F 
ATOM     27  C   UNL d   1       3.282  -1.292   0.858  0.00  0.00     0.033 A 
ENDBRANCH   1  21
BRANCH   2  28
ATOM     28  C   UNL d   1      -0.809  -2.535   0.221  0.00  0.00     0.310 C 
ATOM     29  O   UNL d   1      -0.282  -3.421   0.883  0.00  0.00    -0.258 OA
BRANCH  28  30
ATOM     30  O   UNL d   1      -1.944  -2.704  -0.515  0.00  0.00    -0.321 OA
ATOM     31  C   UNL d   1      -2.426  -4.049  -0.526  0.00  0.00     0.213 C 
ENDBRANCH  28  30
ENDBRANCH   2  28
TORSDOF 7
