REMARK  7 active torsions:
REMARK  status: ('A' for Active; 'I' for Inactive)
REMARK    1  A    between atoms: C_4  and  C_1 
REMARK    2  A    between atoms: C_3  and  C_2 
REMARK       I    between atoms: N_9  and  C_4 
REMARK    3  A    between atoms: C_6  and  C_12 
REMARK    4  A    between atoms: C_12  and  N_9 
REMARK    5  A    between atoms: O_22  and  C_10 
REMARK    6  A    between atoms: O_23  and  C_13 
REMARK    7  A    between atoms: O_24  and  C_20 
ROOT
ATOM      1  C   UNL d   1       1.494   3.537   0.947  0.00  0.00     0.254 C 
ATOM      2  N   UNL d   1       0.708   3.918  -0.115  0.00  0.00    -0.352 N 
ATOM      3  O   UNL d   1       1.058   3.281   2.061  0.00  0.00    -0.268 OA
ATOM      4  H   UNL d   1       1.107   4.155  -1.011  0.00  0.00     0.163 HD
ENDROOT
BRANCH   1   5
ATOM      5  C   UNL d   1       2.961   3.480   0.739  0.00  0.00     0.062 A 
ATOM      6  C   UNL d   1       3.637   2.868  -0.324  0.00  0.00     0.069 A 
ATOM      7  C   UNL d   1       5.048   2.895  -0.311  0.00  0.00     0.073 A 
ATOM      8  C   UNL d   1       5.720   3.487   0.746  0.00  0.00     0.142 A 
ATOM      9  N   UNL d   1       5.085   4.056   1.787  0.00  0.00    -0.346 N 
ATOM     10  C   UNL d   1       3.733   4.027   1.767  0.00  0.00     0.108 A 
ATOM     11  HN  UNL d   1       5.599   4.489   2.554  1.00  0.00     0.167 HD
BRANCH   6  12
ATOM     12  C   UNL d   1       2.986   2.146  -1.467  0.00  0.00     0.418 C 
ATOM     13  F   UNL d   1       1.653   1.930  -1.357  0.00  0.00    -0.166 F 
ATOM     14  F   UNL d   1       3.151   2.824  -2.638  0.00  0.00    -0.166 F 
ATOM     15  F   UNL d   1       3.533   0.915  -1.677  0.00  0.00    -0.166 F 
ENDBRANCH   6  12
BRANCH   8  16
ATOM     16  O   UNL d   1       7.095   3.465   0.697  0.00  0.00    -0.341 OA
ATOM     17  C   UNL d   1       7.703   4.095   1.823  0.00  0.00     0.211 C 
ENDBRANCH   8  16
ENDBRANCH   1   5
BRANCH   2  18
ATOM     18  C   UNL d   1      -0.746   3.855  -0.037  0.00  0.00     0.164 C 
BRANCH  18  19
ATOM     19  C   UNL d   1      -1.460   5.185   0.044  0.00  0.00    -0.004 A 
ATOM     20  C   UNL d   1      -2.861   5.291   0.147  0.00  0.00     0.076 A 
ATOM     21  C   UNL d   1      -3.459   6.553   0.299  0.00  0.00     0.040 A 
ATOM     22  C   UNL d   1      -2.696   7.719   0.362  0.00  0.00     0.039 A 
ATOM     23  C   UNL d   1      -1.314   7.630   0.286  0.00  0.00     0.069 A 
ATOM     24  C   UNL d   1      -0.712   6.382   0.099  0.00  0.00     0.048 A 
BRANCH  20  25
ATOM     25  O   UNL d   1      -3.774   4.274   0.249  0.00  0.00    -0.355 OA
ATOM     26  C   UNL d   1      -3.639   3.150  -0.605  0.00  0.00     0.210 C 
ENDBRANCH  20  25
BRANCH  23  27
ATOM     27  O   UNL d   1      -0.454   8.691   0.370  0.00  0.00    -0.356 OA
ATOM     28  C   UNL d   1      -0.895   9.756   1.209  0.00  0.00     0.210 C 
ENDBRANCH  23  27
ENDBRANCH  18  19
ENDBRANCH   2  18
TORSDOF 7
