REMARK  3 active torsions:
REMARK  status: ('A' for Active; 'I' for Inactive)
REMARK    1  A    between atoms: C_7  and  N_1 
REMARK    2  A    between atoms: N_5  and  C_2 
REMARK    3  A    between atoms: N_6  and  C_3 
ROOT
ATOM      1  C   UNL d   1       0.233   2.804   2.341  0.00  0.00     0.068 A 
ATOM      2  C   UNL d   1      -0.789   2.264   3.156  0.00  0.00     0.067 A 
ATOM      3  C   UNL d   1       0.762   2.030   1.288  0.00  0.00     0.068 A 
ATOM      4  C   UNL d   1       0.329   0.710   1.099  0.00  0.00     0.105 A 
ATOM      5  C   UNL d   1      -1.183   0.921   2.971  0.00  0.00     0.035 A 
ATOM      6  C   UNL d   1      -0.626   0.147   1.950  0.00  0.00     0.038 A 
ENDROOT
BRANCH   2   7
ATOM      7  N   UNL d   1      -1.562   3.040   4.070  0.00  0.00    -0.315 N 
ATOM      8  C   UNL d   1      -2.180   2.595   5.220  0.00  0.00     0.188 A 
ATOM      9  N   UNL d   1      -2.803   3.557   5.863  0.00  0.00    -0.360 N 
ATOM     10  C   UNL d   1      -2.632   4.670   5.089  0.00  0.00     0.106 A 
ATOM     11  HN  UNL d   1      -3.305   3.488   6.748  1.00  0.00     0.166 HD
ATOM     12  C   UNL d   1      -1.912   4.369   3.958  0.00  0.00     0.115 A 
ENDBRANCH   2   7
BRANCH   1  13
ATOM     13  N   UNL d   1       0.872   4.053   2.613  0.00  0.00    -0.331 N 
ATOM     14  C   UNL d   1       1.439   4.901   1.679  0.00  0.00     0.097 A 
ATOM     15  C   UNL d   1       1.897   6.031   2.322  0.00  0.00     0.019 A 
ATOM     16  C   UNL d   1       1.679   5.846   3.701  0.00  0.00     0.019 A 
ATOM     17  C   UNL d   1       1.105   4.604   3.857  0.00  0.00     0.097 A 
ENDBRANCH   1  13
BRANCH   4  18
ATOM     18  N   UNL d   1       0.900  -0.101   0.013  0.00  0.00    -0.116 N 
ATOM     19  O   UNL d   1       1.747   0.434  -0.717  0.00  0.00    -0.532 OA
ATOM     20  O   UNL d   1       0.499  -1.266  -0.109  0.00  0.00    -0.532 OA
ENDBRANCH   4  18
TORSDOF 3
