REMARK  3 active torsions:
REMARK  status: ('A' for Active; 'I' for Inactive)
REMARK    1  A    between atoms: C_3  and  C_1 
REMARK    2  A    between atoms: C_15  and  N_2 
REMARK    3  A    between atoms: C_14  and  C_13 
ROOT
ATOM      1  C   UNL d   1      -0.116  -1.406   0.069  0.00  0.00     0.065 C 
ATOM      2  N   UNL d   1       1.032   0.482   0.040  0.00  0.00    -0.260 N 
ATOM      3  N   UNL d   1      -0.272   0.853   0.150  0.00  0.00    -0.297 N 
ATOM      4  HN  UNL d   1      -0.640   1.798   0.266  1.00  0.00     0.187 HD
ATOM      5  C   UNL d   1       1.171  -0.899   0.086  0.00  0.00     0.047 C 
ATOM      6  C   UNL d   1      -0.969  -0.285   0.075  0.00  0.00     0.039 C 
ATOM      7  C   UNL d   1       2.464  -1.630   0.209  0.00  0.00     0.071 C 
ATOM      8  C   UNL d   1      -2.453  -0.247   0.056  0.00  0.00     0.071 C 
ENDROOT
BRANCH   1   9
ATOM      9  C   UNL d   1      -0.488  -2.845   0.073  0.00  0.00     0.178 A 
ATOM     10  O   UNL d   1      -1.776  -3.312  -0.027  0.00  0.00    -0.272 OA
ATOM     11  C   UNL d   1      -1.592  -4.669  -0.021  0.00  0.00     0.174 A 
ATOM     12  N   UNL d   1      -0.327  -5.009   0.112  0.00  0.00    -0.277 N 
ATOM     13  N   UNL d   1       0.384  -3.833   0.158  0.00  0.00    -0.277 N 
ATOM     14  HN  UNL d   1       0.050  -5.955   0.169  1.00  0.00     0.189 HD
ATOM     15  HN  UNL d   1       1.396  -3.741   0.242  1.00  0.00     0.189 HD
BRANCH  11  16
ATOM     16  C   UNL d   1      -2.761  -5.511  -0.216  0.00  0.00     0.017 A 
ATOM     17  C   UNL d   1      -4.033  -4.968  -0.466  0.00  0.00     0.017 A 
ATOM     18  C   UNL d   1      -5.126  -5.802  -0.719  0.00  0.00     0.025 A 
ATOM     19  C   UNL d   1      -4.958  -7.185  -0.726  0.00  0.00     0.034 A 
ATOM     20  C   UNL d   1      -3.709  -7.744  -0.461  0.00  0.00     0.025 A 
ATOM     21 CL   UNL d   1      -6.296  -8.207  -1.073  0.00  0.00    -0.084 Cl
ATOM     22  C   UNL d   1      -2.618  -6.909  -0.208  0.00  0.00     0.017 A 
ENDBRANCH  11  16
ENDBRANCH   1   9
BRANCH   2  23
ATOM     23  C   UNL d   1       2.039   1.480  -0.075  0.00  0.00     0.056 A 
ATOM     24  C   UNL d   1       3.220   1.241  -0.788  0.00  0.00     0.031 A 
ATOM     25  C   UNL d   1       4.224   2.208  -0.825  0.00  0.00     0.002 A 
ATOM     26  C   UNL d   1       4.052   3.420  -0.157  0.00  0.00     0.000 A 
ATOM     27  C   UNL d   1       2.859   3.681   0.517  0.00  0.00     0.002 A 
ATOM     28  C   UNL d   1       1.843   2.723   0.541  0.00  0.00     0.031 A 
ENDBRANCH   2  23
TORSDOF 3
