REMARK  6 active torsions:
REMARK  status: ('A' for Active; 'I' for Inactive)
REMARK    1  A    between atoms: C_2  and  C_1 
REMARK       I    between atoms: N_4  and  C_2 
REMARK       I    between atoms: C_3  and  N_5 
REMARK    2  A    between atoms: C_14  and  C_3 
REMARK    3  A    between atoms: N_5  and  N_4 
REMARK    4  A    between atoms: C_10  and  C_16 
REMARK    5  A    between atoms: S_11  and  C_14 
REMARK    6  A    between atoms: C_16  and  S_11 
ROOT
ATOM      1  C   UNL d   1       3.070  -5.201   0.022  0.00  0.00     0.245 C 
ATOM      2  N   UNL d   1       2.377  -5.309   1.208  0.00  0.00    -0.267 N 
ATOM      3  O   UNL d   1       2.510  -5.037  -1.065  0.00  0.00    -0.271 OA
ATOM      4  H   UNL d   1       2.815  -5.683   2.052  0.00  0.00     0.190 HD
ENDROOT
BRANCH   1   5
ATOM      5  C   UNL d   1       4.579  -5.186   0.158  0.00  0.00     0.178 C 
BRANCH   5   6
ATOM      6  S   UNL d   1       5.207  -6.601   1.107  0.00  0.00    -0.155 SA
BRANCH   6   7
ATOM      7  C   UNL d   1       4.822  -7.945  -0.071  0.00  0.00     0.113 C 
BRANCH   7   8
ATOM      8  C   UNL d   1       5.319  -9.277   0.453  0.00  0.00    -0.038 A 
ATOM      9  C   UNL d   1       4.571 -10.071   1.372  0.00  0.00    -0.019 A 
ATOM     10  C   UNL d   1       5.157 -11.263   1.875  0.00  0.00    -0.025 A 
ATOM     11  C   UNL d   1       3.272  -9.745   1.828  0.00  0.00     0.013 A 
ATOM     12  C   UNL d   1       4.466 -12.049   2.812  0.00  0.00     0.012 A 
ATOM     13  C   UNL d   1       6.431 -11.656   1.443  0.00  0.00     0.012 A 
ATOM     14  C   UNL d   1       3.192 -11.692   3.248  0.00  0.00     0.001 A 
ATOM     15  C   UNL d   1       2.591 -10.546   2.748  0.00  0.00     0.001 A 
ATOM     16  C   UNL d   1       7.144 -10.888   0.528  0.00  0.00     0.001 A 
ATOM     17  C   UNL d   1       6.598  -9.704   0.046  0.00  0.00     0.009 A 
ENDBRANCH   7   8
ENDBRANCH   6   7
ENDBRANCH   5   6
ENDBRANCH   1   5
BRANCH   2  18
ATOM     18  N   UNL d   1       0.980  -5.318   1.162  0.00  0.00    -0.263 N 
ATOM     19  C   UNL d   1       0.279  -5.766   2.261  0.00  0.00     0.271 C 
ATOM     20  O   UNL d   1       0.832  -6.301   3.221  0.00  0.00    -0.266 OA
ATOM     21  H   UNL d   1       0.546  -4.861   0.360  0.00  0.00     0.190 HD
BRANCH  19  22
ATOM     22  C   UNL d   1      -1.204  -5.638   2.219  0.00  0.00     0.051 A 
ATOM     23  C   UNL d   1      -1.911  -4.562   1.657  0.00  0.00     0.026 A 
ATOM     24 BR   UNL d   1      -1.092  -3.015   0.918  0.00  0.00    -0.050 Br
ATOM     25  C   UNL d   1      -3.314  -4.563   1.676  0.00  0.00     0.020 A 
ATOM     26  C   UNL d   1      -4.017  -5.616   2.260  0.00  0.00     0.001 A 
ATOM     27  C   UNL d   1      -3.323  -6.673   2.839  0.00  0.00     0.001 A 
ATOM     28  C   UNL d   1      -1.927  -6.682   2.823  0.00  0.00     0.018 A 
ENDBRANCH  19  22
ENDBRANCH   2  18
TORSDOF 6
