REMARK  6 active torsions:
REMARK  status: ('A' for Active; 'I' for Inactive)
REMARK    1  A    between atoms: C_6  and  C_2 
REMARK       I    between atoms: C_9  and  N_4 
REMARK    2  A    between atoms: C_19  and  C_9 
REMARK    3  A    between atoms: C_12  and  C_21 
REMARK    4  A    between atoms: O_20  and  C_12 
REMARK    5  A    between atoms: S_18  and  C_19 
REMARK    6  A    between atoms: C_21  and  S_18 
ROOT
ATOM      1  C   UNL d   1       1.088  -0.790  -0.075  0.00  0.00     0.049 A 
ATOM      2  C   UNL d   1       2.514  -1.286  -0.028  0.00  0.00     0.245 C 
ATOM      3  C   UNL d   1       0.658   0.521  -0.124  0.00  0.00    -0.019 A 
ATOM      4  N   UNL d   1       3.418  -0.105  -0.249  0.00  0.00    -0.333 N 
ATOM      5  N   UNL d   1      -0.024  -1.594  -0.044  0.00  0.00    -0.356 N 
ATOM      6  C   UNL d   1      -0.761   0.519  -0.081  0.00  0.00    -0.001 A 
ATOM      7  C   UNL d   1      -1.163  -0.817  -0.032  0.00  0.00     0.043 A 
ATOM      8  C   UNL d   1       4.713  -0.372  -0.672  0.00  0.00     0.230 C 
ATOM      9  C   UNL d   1       2.990   1.188   0.342  0.00  0.00     0.131 C 
ATOM     10  C   UNL d   1       1.622   1.649  -0.193  0.00  0.00     0.061 C 
ATOM     11  O   UNL d   1       5.111  -1.529  -0.866  0.00  0.00    -0.273 OA
ATOM     12  C   UNL d   1      -1.749   1.522  -0.069  0.00  0.00     0.014 A 
ATOM     13  C   UNL d   1      -2.508  -1.200   0.026  0.00  0.00     0.030 A 
ATOM     14  C   UNL d   1      -3.099   1.156  -0.011  0.00  0.00     0.001 A 
ATOM     15  C   UNL d   1      -3.470  -0.186   0.035  0.00  0.00     0.002 A 
ATOM     16  H   UNL d   1      -0.032  -2.604   0.015  0.00  0.00     0.166 HD
ENDROOT
BRANCH   2  17
ATOM     17  C   UNL d   1       2.834  -2.121   1.253  0.00  0.00     0.413 C 
ATOM     18  F   UNL d   1       1.767  -2.233   2.083  0.00  0.00    -0.168 F 
ATOM     19  F   UNL d   1       3.194  -3.386   0.924  0.00  0.00    -0.168 F 
ATOM     20  F   UNL d   1       3.843  -1.589   1.984  0.00  0.00    -0.168 F 
ENDBRANCH   2  17
BRANCH   8  21
ATOM     21  C   UNL d   1       5.686   0.778  -0.890  0.00  0.00     0.177 C 
BRANCH  21  22
ATOM     22  S   UNL d   1       6.644   1.112   0.624  0.00  0.00    -0.149 SA
BRANCH  22  23
ATOM     23  C   UNL d   1       7.508  -0.479   0.864  0.00  0.00     0.184 C 
BRANCH  23  24
ATOM     24  C   UNL d   1       8.416  -0.825  -0.295  0.00  0.00     0.149 C 
ATOM     25  O   UNL d   1       9.568  -0.435  -0.403  0.00  0.00    -0.649 OA
BRANCH  24  26
ATOM     26  O   UNL d   1       7.829  -1.600  -1.240  0.00  0.00    -0.776 OA
ATOM     27  H   UNL d   1       6.886  -1.834  -1.065  0.00  0.00     0.167 HD
ENDBRANCH  24  26
ENDBRANCH  23  24
ENDBRANCH  22  23
ENDBRANCH  21  22
ENDBRANCH   8  21
TORSDOF 6
