REMARK  1 active torsions:
REMARK  status: ('A' for Active; 'I' for Inactive)
REMARK    1  A    between atoms: N_17  and  N_19 
ROOT
ATOM      1  C   UNL d   1      -0.400   1.006  -0.087  0.00  0.00     0.160 A 
ATOM      2  C   UNL d   1      -0.847  -0.279  -0.128  0.00  0.00     0.164 A 
ATOM      3  N   UNL d   1      -1.423   1.899  -0.111  0.00  0.00    -0.172 N 
ATOM      4  HN  UNL d   1      -1.356   2.917  -0.097  1.00  0.00     0.186 HD
ATOM      5  N   UNL d   1       0.939   1.307  -0.017  0.00  0.00    -0.287 N 
ATOM      6  N   UNL d   1       1.378  -1.043  -0.020  0.00  0.00    -0.269 N 
ATOM      7  C   UNL d   1       1.877   0.271   0.006  0.00  0.00     0.332 A 
ATOM      8  C   UNL d   1       0.026  -1.401  -0.066  0.00  0.00     0.282 A 
ATOM      9  C   UNL d   1      -2.521   1.169  -0.155  0.00  0.00     0.701 A 
ATOM     10  N   UNL d   1      -2.211  -0.177  -0.241  0.00  0.00    -0.177 N 
ATOM     11  N   UNL d   1      -3.779   1.670  -0.107  0.00  0.00    -0.131 N 
ATOM     12  O   UNL d   1       3.086   0.509   0.052  0.00  0.00    -0.246 OA
ATOM     13  O   UNL d   1      -0.364  -2.565  -0.040  0.00  0.00    -0.265 OA
ATOM     14  C   UNL d   1       1.416   2.675   0.004  0.00  0.00     0.163 C 
ATOM     15  C   UNL d   1       2.326  -2.140   0.027  0.00  0.00     0.164 C 
ATOM     16  C   UNL d   1      -3.123  -1.271  -0.469  0.00  0.00     0.176 C 
ATOM     17  H   UNL d   1      -3.818   2.699  -0.087  0.00  0.00     0.205 HD
ENDROOT
BRANCH  11  18
ATOM     18  N   UNL d   1      -4.920   0.946   0.061  0.00  0.00    -0.277 N 
ATOM     19  C   UNL d   1      -6.022   1.576   0.368  0.00  0.00     0.185 C 
ATOM     20  C   UNL d   1      -7.275   0.748   0.561  0.00  0.00     0.283 C 
ATOM     21  C   UNL d   1      -6.121   3.064   0.620  0.00  0.00     0.283 C 
ATOM     22  N   UNL d   1      -8.274   1.382   1.255  0.00  0.00    -0.273 N 
ATOM     23  O   UNL d   1      -7.377  -0.391   0.135  0.00  0.00    -0.265 OA
ATOM     24  C   UNL d   1      -8.276   2.671   1.696  0.00  0.00     0.330 C 
ATOM     25  H   UNL d   1      -9.105   0.839   1.447  0.00  0.00     0.173 HD
ATOM     26  N   UNL d   1      -7.205   3.444   1.367  0.00  0.00    -0.273 N 
ATOM     27  O   UNL d   1      -9.214   3.123   2.343  0.00  0.00    -0.246 OA
ATOM     28  H   UNL d   1      -7.268   4.423   1.615  0.00  0.00     0.173 HD
ATOM     29  O   UNL d   1      -5.290   3.849   0.190  0.00  0.00    -0.265 OA
ATOM     30  HN  UNL d   1      -4.914  -0.068  -0.051  1.00  0.00     0.188 HD
ENDBRANCH  11  18
TORSDOF 1
