REMARK  4 active torsions:
REMARK  status: ('A' for Active; 'I' for Inactive)
REMARK    1  A    between atoms: N_5  and  C_9 
REMARK    2  A    between atoms: C_8  and  C_7 
REMARK    3  A    between atoms: S_12  and  C_10 
REMARK    4  A    between atoms: C_19  and  S_12 
ROOT
ATOM      1  C   UNL d   1      -3.804   0.335  -0.009  0.00  0.00    -0.015 A 
ATOM      2  C   UNL d   1      -6.080  -0.128  -0.730  0.00  0.00     0.103 A 
ATOM      3  C   UNL d   1      -4.021  -0.423   1.161  0.00  0.00     0.016 A 
ATOM      4  C   UNL d   1      -4.846   0.495  -0.941  0.00  0.00     0.048 A 
ATOM      5  C   UNL d   1      -6.282  -0.936   0.391  0.00  0.00     0.037 A 
ATOM      6  C   UNL d   1      -5.253  -1.081   1.327  0.00  0.00     0.022 A 
ENDROOT
BRANCH   1   7
ATOM      7  C   UNL d   1      -2.517   0.953  -0.362  0.00  0.00     0.037 C 
ATOM      8  C   UNL d   1      -2.191   2.237  -0.171  0.00  0.00     0.076 A 
ATOM      9  C   UNL d   1      -2.995   3.283   0.520  0.00  0.00     0.264 A 
ATOM     10  S   UNL d   1      -0.754   2.950  -0.832  0.00  0.00    -0.055 SA
ATOM     11  N   UNL d   1      -2.404   4.506   0.338  0.00  0.00    -0.307 N 
ATOM     12  O   UNL d   1      -4.025   3.109   1.144  0.00  0.00    -0.267 OA
ATOM     13  C   UNL d   1      -1.253   4.565  -0.384  0.00  0.00     0.146 A 
ATOM     14  H   UNL d   1      -2.837   5.334   0.714  0.00  0.00     0.170 HD
ATOM     15  S   UNL d   1      -0.481   5.978  -0.765  0.00  0.00    -0.052 SA
ENDBRANCH   1   7
BRANCH   3  16
ATOM     16  S   UNL d   1      -2.770  -0.590   2.438  0.00  0.00    -0.090 SA
BRANCH  16  17
ATOM     17  C   UNL d   1      -3.619  -0.045   3.920  0.00  0.00     0.005 A 
ATOM     18  C   UNL d   1      -3.360  -0.700   5.132  0.00  0.00     0.020 A 
ATOM     19  C   UNL d   1      -4.004  -0.302   6.311  0.00  0.00     0.025 A 
ATOM     20  C   UNL d   1      -4.908   0.757   6.282  0.00  0.00     0.034 A 
ATOM     21  C   UNL d   1      -5.161   1.429   5.091  0.00  0.00     0.025 A 
ATOM     22 CL   UNL d   1      -5.715   1.238   7.723  0.00  0.00    -0.084 Cl
ATOM     23  C   UNL d   1      -4.512   1.033   3.917  0.00  0.00     0.020 A 
ENDBRANCH  16  17
ENDBRANCH   3  16
BRANCH   2  24
ATOM     24  N   UNL d   1      -7.165   0.064  -1.702  0.00  0.00    -0.116 N 
ATOM     25  O   UNL d   1      -6.946   0.805  -2.670  0.00  0.00    -0.532 OA
ATOM     26  O   UNL d   1      -8.234  -0.528  -1.496  0.00  0.00    -0.532 OA
ENDBRANCH   2  24
TORSDOF 4
