REMARK  6 active torsions:
REMARK  status: ('A' for Active; 'I' for Inactive)
REMARK       I    between atoms: C1_12  and  N_1 
REMARK    1  A    between atoms: CA_2  and  N_1 
REMARK    2  A    between atoms: CA_2  and  CB_5 
REMARK    3  A    between atoms: CA_2  and  C_3 
REMARK    4  A    between atoms: OXT_6  and  C_3 
REMARK    5  A    between atoms: CG1_7  and  CB_5 
REMARK    6  A    between atoms: C2_13  and  C1_12 
ROOT
ATOM      1  N   ILE d   1       2.495  -1.411  -0.591  0.00  0.00    -0.341 N 
ATOM      2  H   ILE d   1       3.236  -1.681  -1.232  0.00  0.00     0.163 HD
ATOM      3  C1  <1> d   1       2.174  -2.412   0.320  0.00  0.00     0.276 C 
ATOM      4  O2  <1> d   1       1.532  -2.176   1.336  0.00  0.00    -0.265 OA
ENDROOT
BRANCH   1   5
ATOM      5  CA  ILE d   1       2.358   0.011  -0.203  0.00  0.00     0.186 C 
BRANCH   5   6
ATOM      6  CB  ILE d   1       3.053   0.935  -1.245  0.00  0.00     0.014 C 
ATOM      7  CG2 ILE d   1       4.561   0.658  -1.349  0.00  0.00     0.012 C 
BRANCH   6   8
ATOM      8  CG1 ILE d   1       2.819   2.449  -1.022  0.00  0.00     0.002 C 
ATOM      9  CD1 ILE d   1       3.405   3.018   0.264  0.00  0.00     0.005 C 
ENDBRANCH   6   8
ENDBRANCH   5   6
BRANCH   5  10
ATOM     10  C   ILE d   1       0.849   0.351  -0.137  0.00  0.00     0.163 C 
ATOM     11  O   ILE d   1       0.374   1.296   0.476  0.00  0.00    -0.648 OA
BRANCH  10  12
ATOM     12  OXT ILE d   1       0.099  -0.419  -0.970  0.00  0.00    -0.775 OA
ATOM     13  HXT ILE d   1       0.664  -1.119  -1.354  0.00  0.00     0.167 HD
ENDBRANCH  10  12
ENDBRANCH   5  10
ENDBRANCH   1   5
BRANCH   3  14
ATOM     14  C2  <1> d   1       2.633  -3.731  -0.058  0.00  0.00     0.142 A 
ATOM     15  O1  <1> d   1       3.422  -3.877  -1.170  0.00  0.00    -0.317 OA
ATOM     16  C6  <1> d   1       3.703  -5.202  -1.288  0.00  0.00     0.143 A 
ATOM     17  C7  <1> d   1       3.108  -5.916  -0.276  0.00  0.00     0.027 A 
ATOM     18  C5  <1> d   1       2.417  -4.969   0.518  0.00  0.00     0.045 A 
ENDBRANCH   3  14
TORSDOF 6
