REMARK  5 active torsions:
REMARK  status: ('A' for Active; 'I' for Inactive)
REMARK    1  A    between atoms: C_6  and  C_2 
REMARK    2  A    between atoms: C_7  and  N_3 
REMARK    3  A    between atoms: N_13  and  C_7 
REMARK    4  A    between atoms: C_21  and  N_13 
REMARK    5  A    between atoms: C_17  and  C_21 
ROOT
ATOM      1  C   UNL d   1       1.079  -0.860   0.008  0.00  0.00     0.049 A 
ATOM      2  C   UNL d   1       2.496  -1.391   0.085  0.00  0.00     0.244 C 
ATOM      3  N   UNL d   1       3.380  -0.250  -0.321  0.00  0.00    -0.339 N 
ATOM      4  C   UNL d   1       0.676   0.460  -0.080  0.00  0.00    -0.019 A 
ATOM      5  N   UNL d   1      -0.049  -1.639   0.021  0.00  0.00    -0.356 N 
ATOM      6  C   UNL d   1      -0.744   0.487  -0.070  0.00  0.00    -0.001 A 
ATOM      7  C   UNL d   1      -1.172  -0.841  -0.004  0.00  0.00     0.043 A 
ATOM      8  C   UNL d   1       3.052   1.081   0.245  0.00  0.00     0.131 C 
ATOM      9  C   UNL d   1       1.657   1.576  -0.172  0.00  0.00     0.061 C 
ATOM     10  C   UNL d   1      -1.711   1.509  -0.106  0.00  0.00     0.014 A 
ATOM     11  C   UNL d   1      -2.526  -1.195   0.031  0.00  0.00     0.030 A 
ATOM     12  C   UNL d   1      -3.069   1.171  -0.060  0.00  0.00     0.001 A 
ATOM     13  C   UNL d   1      -3.467  -0.162   0.007  0.00  0.00     0.002 A 
ATOM     14  H   UNL d   1      -0.076  -2.649   0.083  0.00  0.00     0.166 HD
ENDROOT
BRANCH   3  15
ATOM     15  C   UNL d   1       4.629  -0.437  -0.878  0.00  0.00     0.171 C 
ATOM     16  S   UNL d   1       5.745  -1.591  -0.438  0.00  0.00    -0.041 SA
BRANCH  15  17
ATOM     17  N   UNL d   1       4.952   0.420  -1.899  0.00  0.00    -0.364 N 
ATOM     18  H   UNL d   1       5.904   0.294  -2.221  0.00  0.00     0.162 HD
BRANCH  17  19
ATOM     19  C   UNL d   1       4.011   0.688  -2.971  0.00  0.00     0.148 C 
BRANCH  19  20
ATOM     20  C   UNL d   1       4.100   2.132  -3.325  0.00  0.00    -0.018 C 
ATOM     21  C   UNL d   1       4.361   2.595  -4.550  0.00  0.00     0.008 C 
ENDBRANCH  19  20
ENDBRANCH  17  19
ENDBRANCH  15  17
ENDBRANCH   3  15
BRANCH   2  22
ATOM     22  C   UNL d   1       2.824  -2.082   1.444  0.00  0.00     0.413 C 
ATOM     23  F   UNL d   1       1.697  -2.411   2.128  0.00  0.00    -0.168 F 
ATOM     24  F   UNL d   1       3.483  -3.250   1.246  0.00  0.00    -0.168 F 
ATOM     25  F   UNL d   1       3.571  -1.314   2.266  0.00  0.00    -0.168 F 
ENDBRANCH   2  22
TORSDOF 5
