REMARK  1 active torsions:
REMARK  status: ('A' for Active; 'I' for Inactive)
REMARK    1  A    between atoms: O_10  and  C_4 
ROOT
ATOM      1  C   UNL d   1       2.381  -0.660  -0.090  0.00  0.00     0.146 A 
ATOM      2  C   UNL d   1       2.357   0.834  -0.058  0.00  0.00     0.271 A 
ATOM      3  N   UNL d   1       1.119   1.478  -0.007  0.00  0.00    -0.317 N 
ATOM      4  C   UNL d   1       1.224  -1.347  -0.042  0.00  0.00     0.104 A 
ATOM      5  C   UNL d   1      -0.077  -0.647  -0.006  0.00  0.00     0.026 A 
ATOM      6  C   UNL d   1      -0.113   0.757  -0.003  0.00  0.00     0.050 A 
ATOM      7  C   UNL d   1       3.650  -1.310  -0.169  0.00  0.00     0.108 C 
ATOM      8  N   UNL d   1       4.640  -1.921  -0.243  0.00  0.00    -0.191 NA
ATOM      9  O   UNL d   1       3.425   1.448  -0.074  0.00  0.00    -0.266 OA
ATOM     10  C   UNL d   1       1.096   2.938   0.047  0.00  0.00     0.159 C 
ATOM     11  C   UNL d   1      -1.292  -1.361  -0.000  0.00  0.00     0.016 A 
ATOM     12  C   UNL d   1      -1.361   1.411  -0.009  0.00  0.00     0.031 A 
ATOM     13  C   UNL d   1      -2.522  -0.701  -0.018  0.00  0.00     0.001 A 
ATOM     14  C   UNL d   1      -2.557   0.687  -0.028  0.00  0.00     0.002 A 
ENDROOT
BRANCH   4  15
ATOM     15  O   UNL d   1       1.129  -2.729  -0.042  0.00  0.00    -0.358 OA
ATOM     16  H   UNL d   1       2.010  -3.143  -0.053  0.00  0.00     0.217 HD
ENDBRANCH   4  15
TORSDOF 1
