REMARK  5 active torsions:
REMARK  status: ('A' for Active; 'I' for Inactive)
REMARK    1  A    between atoms: C_2  and  S_1 
REMARK    2  A    between atoms: N_6  and  S_1 
REMARK    3  A    between atoms: C_10  and  C_3 
REMARK    4  A    between atoms: C_8  and  N_9 
REMARK    5  A    between atoms: O_24  and  C_10 
ROOT
ATOM      1  N   UNL d   1       0.314   1.204  -0.607  0.00  0.00    -0.202 NA
ATOM      2  N   UNL d   1      -1.282   2.796   1.298  0.00  0.00    -0.376 N 
ATOM      3  C   UNL d   1       0.725   2.588  -0.229  0.00  0.00     0.127 C 
ATOM      4  C   UNL d   1      -1.179   1.123  -0.576  0.00  0.00     0.127 C 
ATOM      5  C   UNL d   1       0.192   3.013   1.168  0.00  0.00     0.138 C 
ATOM      6  C   UNL d   1      -1.721   1.459   0.821  0.00  0.00     0.138 C 
ENDROOT
BRANCH   1   7
ATOM      7  S   UNL d   1       1.115  -0.067   0.197  0.00  0.00     0.266 S 
ATOM      8  O   UNL d   1       1.327   0.282   1.583  0.00  0.00    -0.204 OA
ATOM      9  O   UNL d   1       0.451  -1.309  -0.162  0.00  0.00    -0.204 OA
BRANCH   7  10
ATOM     10  C   UNL d   1       2.764  -0.265  -0.470  0.00  0.00     0.186 A 
ATOM     11  C   UNL d   1       3.703  -1.248  -0.191  0.00  0.00     0.071 A 
ATOM     12  C   UNL d   1       4.793  -1.096  -1.089  0.00  0.00     0.072 A 
ATOM     13  C   UNL d   1       4.514   0.061  -1.797  0.00  0.00     0.067 A 
ATOM     14  O   UNL d   1       3.299   0.566  -1.432  0.00  0.00    -0.301 OA
ATOM     15  C   UNL d   1       5.236   0.799  -2.857  0.00  0.00     0.078 C 
BRANCH  12  16
ATOM     16  C   UNL d   1       5.937  -1.969  -1.273  0.00  0.00     0.295 C 
ATOM     17  O   UNL d   1       6.809  -1.785  -2.112  0.00  0.00    -0.259 OA
BRANCH  16  18
ATOM     18  O   UNL d   1       5.899  -3.033  -0.418  0.00  0.00    -0.322 OA
ATOM     19  C   UNL d   1       6.947  -3.985  -0.597  0.00  0.00     0.213 C 
ENDBRANCH  16  18
ENDBRANCH  12  16
ENDBRANCH   7  10
ENDBRANCH   1   7
BRANCH   2  20
ATOM     20  C   UNL d   1      -1.961   3.386   2.402  0.00  0.00     0.077 A 
ATOM     21  C   UNL d   1      -2.831   2.689   3.297  0.00  0.00     0.077 A 
ATOM     22 CL   UNL d   1      -3.014   0.968   3.440  0.00  0.00    -0.080 Cl
ATOM     23  C   UNL d   1      -3.603   3.392   4.234  0.00  0.00     0.113 A 
ATOM     24  N   UNL d   1      -3.562   4.721   4.426  0.00  0.00    -0.372 N 
ATOM     25  C   UNL d   1      -2.700   5.382   3.633  0.00  0.00     0.113 A 
ATOM     26  HN  UNL d   1      -4.141   5.193   5.120  1.00  0.00     0.164 HD
ATOM     27  C   UNL d   1      -1.915   4.794   2.632  0.00  0.00     0.077 A 
ATOM     28 CL   UNL d   1      -1.028   5.937   1.675  0.00  0.00    -0.080 Cl
ENDBRANCH   2  20
TORSDOF 5
