REMARK  4 active torsions:
REMARK  status: ('A' for Active; 'I' for Inactive)
REMARK    1  A    between atoms: C_6  and  C_3 
REMARK    2  A    between atoms: C_4  and  C_9 
REMARK    3  A    between atoms: N_13  and  N_10 
REMARK    4  A    between atoms: C_17  and  N_13 
ROOT
ATOM      1  C   UNL d   1      -3.416  -1.360  -0.200  0.00  0.00     0.144 C 
ATOM      2  N   UNL d   1      -4.448  -0.576  -0.166  0.00  0.00    -0.309 N 
ATOM      3  HN  UNL d   1      -4.348   0.437  -0.101  1.00  0.00     0.186 HD
ENDROOT
BRANCH   2   4
ATOM      4  N   UNL d   1      -5.670  -1.169  -0.223  0.00  0.00    -0.301 N 
ATOM      5  H   UNL d   1      -5.816  -2.071   0.229  0.00  0.00     0.187 HD
BRANCH   4   6
ATOM      6  C   UNL d   1      -6.796  -0.316  -0.169  0.00  0.00     0.048 A 
ATOM      7  C   UNL d   1      -8.085  -0.865  -0.170  0.00  0.00     0.047 A 
ATOM      8  C   UNL d   1      -9.228  -0.044  -0.203  0.00  0.00     0.050 A 
ATOM      9  C   UNL d   1      -9.068   1.349  -0.244  0.00  0.00     0.016 A 
ATOM     10  C   UNL d   1      -7.794   1.908  -0.273  0.00  0.00     0.003 A 
ATOM     11  C   UNL d   1      -6.672   1.079  -0.252  0.00  0.00     0.031 A 
BRANCH   8  12
ATOM     12  C   UNL d   1     -10.615  -0.635  -0.208  0.00  0.00     0.417 C 
ATOM     13  F   UNL d   1     -10.628  -1.997  -0.202  0.00  0.00    -0.166 F 
ATOM     14  F   UNL d   1     -11.350  -0.251   0.873  0.00  0.00    -0.166 F 
ATOM     15  F   UNL d   1     -11.338  -0.261  -1.301  0.00  0.00    -0.166 F 
ENDBRANCH   8  12
ENDBRANCH   4   6
ENDBRANCH   2   4
BRANCH   1  16
ATOM     16  C   UNL d   1      -2.069  -0.842  -0.178  0.00  0.00     0.092 A 
ATOM     17  N   UNL d   1      -1.017  -1.633  -0.208  0.00  0.00    -0.348 N 
ATOM     18  C   UNL d   1       0.137  -0.863  -0.201  0.00  0.00     0.050 A 
ATOM     19  HN  UNL d   1      -1.047  -2.652  -0.232  1.00  0.00     0.166 HD
ATOM     20  C   UNL d   1      -0.061   0.519  -0.160  0.00  0.00     0.033 A 
ATOM     21  C   UNL d   1       1.459  -1.353  -0.233  0.00  0.00     0.031 A 
ATOM     22  C   UNL d   1       1.010   1.427  -0.151  0.00  0.00     0.021 A 
ATOM     23  S   UNL d   1      -1.750   0.840  -0.129  0.00  0.00    -0.069 SA
ATOM     24  C   UNL d   1       2.310   0.915  -0.184  0.00  0.00     0.002 A 
ATOM     25  C   UNL d   1       2.534  -0.457  -0.225  0.00  0.00     0.002 A 
ENDBRANCH   1  16
TORSDOF 4
