REMARK  2 active torsions:
REMARK  status: ('A' for Active; 'I' for Inactive)
REMARK    1  A    between atoms: N_2  and  C_1 
REMARK    2  A    between atoms: C_3  and  N_2 
ROOT
ATOM      1  C   UNL d   1       1.259  -3.176   0.283  0.00  0.00     0.040 A 
ATOM      2  C   UNL d   1       2.123  -2.874   1.356  0.00  0.00    -0.035 A 
ATOM      3  C   UNL d   1       1.680  -4.145  -0.648  0.00  0.00     0.037 A 
ATOM      4  C   UNL d   1       3.378  -3.512   1.434  0.00  0.00     0.009 A 
ATOM      5  C   UNL d   1       2.919  -4.790  -0.559  0.00  0.00    -0.060 A 
ATOM      6  C   UNL d   1       3.775  -4.453   0.485  0.00  0.00     0.007 A 
ATOM      7  C   UNL d   1       1.820  -1.851   2.419  0.00  0.00     0.050 C 
ATOM      8  C   UNL d   1       3.327  -5.796  -1.592  0.00  0.00     0.048 C 
ENDROOT
BRANCH   1   9
ATOM      9  N   UNL d   1       0.063  -2.463   0.080  0.00  0.00    -0.337 N 
ATOM     10  H   UNL d   1      -0.376  -2.063   0.895  0.00  0.00     0.168 HD
BRANCH   9  11
ATOM     11  C   UNL d   1      -0.587  -2.250  -1.100  0.00  0.00     0.140 C 
ATOM     12  N   UNL d   1      -0.230  -2.559  -2.301  0.00  0.00    -0.370 N 
ATOM     13  C   UNL d   1      -1.209  -2.075  -3.283  0.00  0.00     0.132 C 
ATOM     14  HN  UNL d   1       0.619  -3.072  -2.537  1.00  0.00     0.161 HD
ATOM     15  C   UNL d   1      -2.567  -1.939  -2.624  0.00  0.00     0.102 C 
ATOM     16  S   UNL d   1      -2.137  -1.437  -0.947  0.00  0.00    -0.093 SA
ENDBRANCH   9  11
ENDBRANCH   1   9
TORSDOF 2
