REMARK  9 active torsions:
REMARK  status: ('A' for Active; 'I' for Inactive)
REMARK    1  A    between atoms: N_14  and  C_1 
REMARK    2  A    between atoms: C_15  and  C_2 
REMARK    3  A    between atoms: C_17  and  N_3 
REMARK    4  A    between atoms: C_19  and  C_9 
REMARK    5  A    between atoms: C_10  and  S_18 
REMARK       I    between atoms: C_16  and  N_14 
REMARK    6  A    between atoms: O_25  and  C_15 
REMARK    7  A    between atoms: C_24  and  C_16 
REMARK    8  A    between atoms: S_18  and  C_24 
REMARK    9  A    between atoms: C_32  and  O_25 
ROOT
ATOM      1  N   UNL d   1       2.222  -1.625   0.079  0.00  0.00    -0.310 N 
ATOM      2  C   UNL d   1       2.460  -2.729  -0.814  0.00  0.00     0.233 C 
ATOM      3  O   UNL d   1       1.690  -2.916  -1.748  0.00  0.00    -0.272 OA
ATOM      4  H   UNL d   1       2.985  -1.314   0.674  0.00  0.00     0.170 HD
ENDROOT
BRANCH   1   5
ATOM      5  C   UNL d   1       1.062  -0.851   0.045  0.00  0.00     0.147 A 
ATOM      6  C   UNL d   1      -0.251  -1.280   0.117  0.00  0.00     0.102 A 
ATOM      7  C   UNL d   1      -0.996  -0.083   0.214  0.00  0.00     0.129 A 
ATOM      8  N   UNL d   1      -0.232   1.005   0.284  0.00  0.00    -0.302 N 
ATOM      9  N   UNL d   1       1.026   0.541   0.103  0.00  0.00    -0.239 N 
ATOM     10  HN  UNL d   1      -0.527   1.969   0.438  1.00  0.00     0.186 HD
BRANCH   6  11
ATOM     11  C   UNL d   1      -0.770  -2.627   0.195  0.00  0.00     0.298 C 
ATOM     12  O   UNL d   1      -0.064  -3.618   0.328  0.00  0.00    -0.259 OA
BRANCH  11  13
ATOM     13  O   UNL d   1      -2.131  -2.639   0.127  0.00  0.00    -0.318 OA
BRANCH  13  14
ATOM     14  C   UNL d   1      -2.757  -3.921  -0.021  0.00  0.00     0.174 C 
ATOM     15  C   UNL d   1      -2.951  -4.180  -1.502  0.00  0.00     0.034 C 
ENDBRANCH  13  14
ENDBRANCH  11  13
ENDBRANCH   6  11
BRANCH   9  16
ATOM     16  C   UNL d   1       2.119   1.443  -0.008  0.00  0.00     0.058 A 
ATOM     17  C   UNL d   1       3.289   1.082  -0.692  0.00  0.00     0.031 A 
ATOM     18  C   UNL d   1       4.359   1.975  -0.763  0.00  0.00     0.002 A 
ATOM     19  C   UNL d   1       4.265   3.226  -0.157  0.00  0.00     0.000 A 
ATOM     20  C   UNL d   1       3.092   3.599   0.500  0.00  0.00     0.002 A 
ATOM     21  C   UNL d   1       2.013   2.717   0.562  0.00  0.00     0.031 A 
ENDBRANCH   9  16
ENDBRANCH   1   5
BRANCH   2  22
ATOM     22  C   UNL d   1       3.804  -3.420  -0.668  0.00  0.00     0.186 C 
BRANCH  22  23
ATOM     23  S   UNL d   1       4.429  -3.296   1.040  0.00  0.00    -0.075 SA
BRANCH  23  24
ATOM     24  C   UNL d   1       5.974  -4.074   0.884  0.00  0.00     0.204 A 
ATOM     25  O   UNL d   1       6.807  -4.277   1.952  0.00  0.00    -0.267 OA
ATOM     26  C   UNL d   1       7.876  -4.906   1.368  0.00  0.00     0.175 A 
ATOM     27  N   UNL d   1       7.716  -5.059   0.069  0.00  0.00    -0.277 N 
ATOM     28  N   UNL d   1       6.485  -4.515  -0.244  0.00  0.00    -0.272 N 
ATOM     29  HN  UNL d   1       8.373  -5.493  -0.580  1.00  0.00     0.189 HD
ATOM     30  HN  UNL d   1       6.057  -4.465  -1.169  1.00  0.00     0.189 HD
BRANCH  26  31
ATOM     31  C   UNL d   1       8.977  -5.306   2.235  0.00  0.00     0.019 A 
ATOM     32  C   UNL d   1       9.009  -4.974   3.594  0.00  0.00     0.033 A 
ATOM     33  C   UNL d   1      10.087  -5.394   4.356  0.00  0.00     0.088 A 
ATOM     34  N   UNL d   1      11.114  -6.114   3.865  0.00  0.00    -0.375 N 
ATOM     35  C   UNL d   1      11.071  -6.428   2.555  0.00  0.00     0.088 A 
ATOM     36  HN  UNL d   1      11.890  -6.408   4.459  1.00  0.00     0.164 HD
ATOM     37  C   UNL d   1      10.039  -6.051   1.711  0.00  0.00     0.033 A 
ENDBRANCH  26  31
ENDBRANCH  23  24
ENDBRANCH  22  23
ENDBRANCH   2  22
TORSDOF 9
