REMARK  5 active torsions:
REMARK  status: ('A' for Active; 'I' for Inactive)
REMARK    1  A    between atoms: N_2  and  C_1 
REMARK    2  A    between atoms: N_4  and  C_1 
REMARK    3  A    between atoms: C_3  and  N_2 
REMARK    4  A    between atoms: C_8  and  N_4 
REMARK    5  A    between atoms: O_14  and  C_9 
ROOT
ATOM      1  C   UNL d   1       1.079  -0.098   0.014  0.00  0.00     0.177 C 
ATOM      2  S   UNL d   1       1.027  -0.265  -1.655  0.00  0.00    -0.040 SA
ENDROOT
BRANCH   1   3
ATOM      3  N   UNL d   1       2.109   0.639   0.524  0.00  0.00    -0.319 N 
ATOM      4  H   UNL d   1       2.701   1.048  -0.185  0.00  0.00     0.169 HD
BRANCH   3   5
ATOM      5  C   UNL d   1       2.309   1.060   1.845  0.00  0.00     0.106 A 
ATOM      6  N   UNL d   1       1.581   0.526   2.849  0.00  0.00    -0.352 N 
ATOM      7  C   UNL d   1       1.763   1.039   4.087  0.00  0.00     0.089 A 
ATOM      8  HN  UNL d   1       0.920  -0.232   2.681  1.00  0.00     0.166 HD
ATOM      9  C   UNL d   1       2.652   2.059   4.377  0.00  0.00     0.017 A 
ATOM     10  C   UNL d   1       3.414   2.576   3.338  0.00  0.00     0.005 A 
ATOM     11  C   UNL d   1       3.249   2.064   2.054  0.00  0.00     0.048 A 
ENDBRANCH   3   5
ENDBRANCH   1   3
BRANCH   1  12
ATOM     12  N   UNL d   1       0.195  -0.644   0.904  0.00  0.00    -0.333 N 
ATOM     13  H   UNL d   1       0.575  -0.811   1.834  0.00  0.00     0.168 HD
BRANCH  12  14
ATOM     14  C   UNL d   1      -1.192  -0.817   0.757  0.00  0.00     0.034 A 
ATOM     15  C   UNL d   1      -1.828  -1.820   1.493  0.00  0.00     0.032 A 
ATOM     16  C   UNL d   1      -3.215  -1.992   1.397  0.00  0.00     0.039 A 
ATOM     17  C   UNL d   1      -3.973  -1.127   0.606  0.00  0.00     0.068 A 
ATOM     18  C   UNL d   1      -3.346  -0.083  -0.069  0.00  0.00     0.039 A 
ATOM     19  C   UNL d   1      -1.960   0.060  -0.012  0.00  0.00     0.032 A 
BRANCH  17  20
ATOM     20  O   UNL d   1      -5.333  -1.177   0.476  0.00  0.00    -0.356 OA
ATOM     21  C   UNL d   1      -5.874  -2.493   0.430  0.00  0.00     0.210 C 
ENDBRANCH  17  20
ENDBRANCH  12  14
ENDBRANCH   1  12
TORSDOF 5
