REMARK  7 active torsions:
REMARK  status: ('A' for Active; 'I' for Inactive)
REMARK    1  A    between atoms: C_7  and  C_1 
REMARK    2  A    between atoms: C_19  and  C_8 
REMARK    3  A    between atoms: O_20  and  C_9 
REMARK    4  A    between atoms: O_21  and  C_10 
REMARK    5  A    between atoms: O_22  and  C_11 
REMARK    6  A    between atoms: C_16  and  C_23 
REMARK    7  A    between atoms: C_23  and  C_19 
ROOT
ATOM      1  C   UNL d   1      -1.598   2.128  -1.266  0.00  0.00     0.090 C 
ENDROOT
BRANCH   1   2
ATOM      2  C   UNL d   1      -1.129   0.730  -1.161  0.00  0.00     0.141 A 
ATOM      3  O   UNL d   1      -1.970  -0.255  -1.594  0.00  0.00    -0.277 OA
ATOM      4  C   UNL d   1      -1.223  -1.392  -1.373  0.00  0.00     0.181 A 
ATOM      5  N   UNL d   1      -0.043  -1.101  -0.850  0.00  0.00    -0.277 N 
ATOM      6  N   UNL d   1       0.017   0.268  -0.713  0.00  0.00    -0.281 N 
ATOM      7  HN  UNL d   1       0.686  -1.768  -0.596  1.00  0.00     0.189 HD
ATOM      8  HN  UNL d   1       0.794   0.813  -0.339  1.00  0.00     0.189 HD
BRANCH   4   9
ATOM      9  C   UNL d   1      -1.661  -2.727  -1.662  0.00  0.00     0.057 A 
ATOM     10  S   UNL d   1      -3.197  -3.047  -2.349  0.00  0.00    -0.098 SA
ATOM     11  C   UNL d   1      -2.928  -4.737  -2.339  0.00  0.00     0.050 A 
ATOM     12  C   UNL d   1      -1.687  -5.056  -1.829  0.00  0.00     0.009 A 
ATOM     13  C   UNL d   1      -0.957  -3.896  -1.442  0.00  0.00     0.024 A 
ENDBRANCH   4   9
ENDBRANCH   1   2
BRANCH   1  14
ATOM     14  C   UNL d   1      -2.333   2.565   0.001  0.00  0.00     0.047 C 
BRANCH  14  15
ATOM     15  C   UNL d   1      -2.755   4.010  -0.093  0.00  0.00    -0.052 A 
ATOM     16  C   UNL d   1      -4.003   4.366  -0.599  0.00  0.00     0.047 A 
ATOM     17  C   UNL d   1      -4.375   5.709  -0.744  0.00  0.00     0.104 A 
ATOM     18  C   UNL d   1      -3.487   6.729  -0.358  0.00  0.00     0.135 A 
ATOM     19  C   UNL d   1      -2.264   6.371   0.252  0.00  0.00     0.104 A 
ATOM     20  C   UNL d   1      -1.884   5.023   0.321  0.00  0.00     0.047 A 
BRANCH  17  21
ATOM     21  O   UNL d   1      -5.663   5.843  -1.205  0.00  0.00    -0.353 OA
ATOM     22  C   UNL d   1      -5.952   6.963  -2.028  0.00  0.00     0.210 C 
ENDBRANCH  17  21
BRANCH  18  23
ATOM     23  O   UNL d   1      -3.910   8.035  -0.444  0.00  0.00    -0.351 OA
ATOM     24  C   UNL d   1      -2.991   8.945  -1.046  0.00  0.00     0.210 C 
ENDBRANCH  18  23
BRANCH  19  25
ATOM     25  O   UNL d   1      -1.497   7.377   0.800  0.00  0.00    -0.353 OA
ATOM     26  C   UNL d   1      -0.545   6.983   1.786  0.00  0.00     0.210 C 
ENDBRANCH  19  25
ENDBRANCH  14  15
ENDBRANCH   1  14
TORSDOF 7
