REMARK  9 active torsions:
REMARK  status: ('A' for Active; 'I' for Inactive)
REMARK    1  A    between atoms: N_2  and  C_1 
REMARK    2  A    between atoms: N_3  and  C_5 
REMARK    3  A    between atoms: N_13  and  C_6 
REMARK    4  A    between atoms: N_11  and  N_13 
REMARK    5  A    between atoms: C_21  and  C_16 
REMARK    6  A    between atoms: C_17  and  C_19 
REMARK    7  A    between atoms: C_18  and  C_17 
REMARK    8  A    between atoms: C_19  and  C_20 
REMARK    9  A    between atoms: C_20  and  C_21 
ROOT
ATOM      1  N   UNL d   1       3.308   2.411   0.167  0.00  0.00    -0.315 N 
ATOM      2  HN  UNL d   1       3.847   1.912   0.874  1.00  0.00     0.185 HD
ATOM      3  C   UNL d   1       3.877   2.934  -0.868  0.00  0.00     0.080 C 
ENDROOT
BRANCH   1   4
ATOM      4  N   UNL d   1       1.959   2.557   0.272  0.00  0.00    -0.299 N 
ATOM      5  H   UNL d   1       1.529   3.417  -0.091  0.00  0.00     0.187 HD
BRANCH   4   6
ATOM      6  C   UNL d   1       1.419   2.131   1.516  0.00  0.00     0.081 A 
ATOM      7  C   UNL d   1       0.256   2.671   2.108  0.00  0.00     0.133 A 
ATOM      8  C   UNL d   1      -0.159   2.260   3.393  0.00  0.00     0.074 A 
ATOM      9  C   UNL d   1       0.563   1.270   4.071  0.00  0.00     0.105 A 
ATOM     10  C   UNL d   1       1.654   0.650   3.463  0.00  0.00     0.038 A 
ATOM     11  C   UNL d   1       2.062   1.075   2.199  0.00  0.00     0.036 A 
BRANCH   7  12
ATOM     12  N   UNL d   1      -0.545   3.695   1.423  0.00  0.00    -0.113 N 
ATOM     13  O   UNL d   1      -1.626   4.019   1.941  0.00  0.00    -0.532 OA
ATOM     14  O   UNL d   1      -0.108   4.178   0.369  0.00  0.00    -0.532 OA
ENDBRANCH   7  12
BRANCH   9  15
ATOM     15  N   UNL d   1       0.193   0.895   5.442  0.00  0.00    -0.116 N 
ATOM     16  O   UNL d   1      -0.741   1.512   5.971  0.00  0.00    -0.532 OA
ATOM     17  O   UNL d   1       0.845  -0.004   5.989  0.00  0.00    -0.532 OA
ENDBRANCH   9  15
ENDBRANCH   4   6
ENDBRANCH   1   4
BRANCH   3  18
ATOM     18  C   UNL d   1       5.371   2.790  -1.015  0.00  0.00     0.050 C 
BRANCH  18  19
ATOM     19  C   UNL d   1       6.109   4.136  -1.115  0.00  0.00    -0.014 C 
ATOM     20  C   UNL d   1       7.603   3.849  -1.321  0.00  0.00     0.010 C 
BRANCH  19  21
ATOM     21  C   UNL d   1       5.870   5.021   0.129  0.00  0.00     0.009 C 
BRANCH  21  22
ATOM     22  C   UNL d   1       6.548   6.393   0.029  0.00  0.00     0.039 C 
BRANCH  22  23
ATOM     23  C   UNL d   1       6.308   7.246   1.249  0.00  0.00    -0.058 A 
ATOM     24  C   UNL d   1       7.162   7.148   2.356  0.00  0.00     0.007 A 
ATOM     25  C   UNL d   1       6.960   7.952   3.479  0.00  0.00     0.001 A 
ATOM     26  C   UNL d   1       5.899   8.854   3.509  0.00  0.00     0.000 A 
ATOM     27  C   UNL d   1       5.035   8.948   2.419  0.00  0.00     0.001 A 
ATOM     28  C   UNL d   1       5.236   8.146   1.294  0.00  0.00     0.007 A 
ENDBRANCH  22  23
ENDBRANCH  21  22
ENDBRANCH  19  21
ENDBRANCH  18  19
ENDBRANCH   3  18
TORSDOF 9
