REMARK  3 active torsions:
REMARK  status: ('A' for Active; 'I' for Inactive)
REMARK    1  A    between atoms: C_14  and  N_4 
REMARK    2  A    between atoms: C_17  and  C_7 
REMARK    3  A    between atoms: N_11  and  C_15 
ROOT
ATOM      1  N   UNL d   1       0.242   0.719   0.069  0.00  0.00    -0.125 N 
ATOM      2  C   UNL d   1       0.185  -0.673  -0.023  0.00  0.00     0.715 A 
ATOM      3  C   UNL d   1       1.584   1.116   0.122  0.00  0.00     0.178 A 
ATOM      4  N   UNL d   1       1.536  -1.038  -0.046  0.00  0.00    -0.084 N 
ATOM      5  N   UNL d   1       2.395   0.064   0.031  0.00  0.00    -0.261 N 
ATOM      6  HN  UNL d   1       3.415   0.061   0.021  1.00  0.00     0.190 HD
ATOM      7  C   UNL d   1      -0.970   1.393   0.014  0.00  0.00     0.074 A 
ATOM      8  N   UNL d   1      -0.886  -1.394  -0.078  0.00  0.00    -0.154 N 
ATOM      9  HN  UNL d   1      -0.826  -2.410  -0.150  1.00  0.00     0.187 HD
ATOM     10  C   UNL d   1      -2.128   0.716  -0.042  0.00  0.00     0.106 A 
ATOM     11  C   UNL d   1      -2.104  -0.768  -0.038  0.00  0.00     0.261 A 
ATOM     12  C   UNL d   1       2.203   2.411   0.281  0.00  0.00     0.121 A 
ATOM     13  O   UNL d   1       1.546   3.378   0.979  0.00  0.00    -0.319 OA
ATOM     14  C   UNL d   1       3.446   2.898  -0.086  0.00  0.00     0.043 A 
ATOM     15  O   UNL d   1      -3.170  -1.371  -0.026  0.00  0.00    -0.268 OA
ATOM     16  C   UNL d   1       2.317   4.492   0.987  0.00  0.00     0.142 A 
ATOM     17  C   UNL d   1       3.507   4.246   0.351  0.00  0.00     0.027 A 
ENDROOT
BRANCH   4  18
ATOM     18  C   UNL d   1       2.085  -2.348  -0.082  0.00  0.00     0.074 A 
ATOM     19  C   UNL d   1       1.280  -3.497  -0.200  0.00  0.00     0.034 A 
ATOM     20  C   UNL d   1       1.823  -4.787  -0.236  0.00  0.00     0.038 A 
ATOM     21  C   UNL d   1       3.205  -4.952  -0.151  0.00  0.00     0.103 A 
ATOM     22  C   UNL d   1       4.038  -3.836  -0.028  0.00  0.00     0.038 A 
ATOM     23  C   UNL d   1       3.477  -2.553   0.004  0.00  0.00     0.034 A 
BRANCH  21  24
ATOM     24  N   UNL d   1       3.779  -6.302  -0.193  0.00  0.00    -0.116 N 
ATOM     25  O   UNL d   1       5.011  -6.406  -0.107  0.00  0.00    -0.532 OA
ATOM     26  O   UNL d   1       2.999  -7.258  -0.314  0.00  0.00    -0.532 OA
ENDBRANCH  21  24
ENDBRANCH   4  18
BRANCH   7  27
ATOM     27  C   UNL d   1      -1.072   2.853  -0.028  0.00  0.00    -0.008 A 
ATOM     28  C   UNL d   1      -1.256   3.579   1.158  0.00  0.00     0.014 A 
ATOM     29  C   UNL d   1      -1.314   4.973   1.126  0.00  0.00     0.001 A 
ATOM     30  C   UNL d   1      -1.231   5.646  -0.092  0.00  0.00     0.000 A 
ATOM     31  C   UNL d   1      -1.104   4.928  -1.281  0.00  0.00     0.001 A 
ATOM     32  C   UNL d   1      -1.025   3.534  -1.252  0.00  0.00     0.014 A 
ENDBRANCH   7  27
TORSDOF 3
