REMARK  2 active torsions:
REMARK  status: ('A' for Active; 'I' for Inactive)
REMARK    1  A    between atoms: N_2  and  C_1 
REMARK    2  A    between atoms: C_7  and  N_2 
ROOT
ATOM      1  C   UNL d   1       3.608   3.393   1.330  0.00  0.00    -0.054 A 
ATOM      2  C   UNL d   1       2.929   1.274   0.300  0.00  0.00     0.034 A 
ATOM      3  C   UNL d   1       2.733   2.298   1.232  0.00  0.00     0.036 A 
ATOM      4  C   UNL d   1       4.639   3.534   0.389  0.00  0.00    -0.056 A 
ATOM      5  C   UNL d   1       4.786   2.557  -0.610  0.00  0.00     0.009 A 
ATOM      6  C   UNL d   1       3.947   1.435  -0.641  0.00  0.00     0.030 A 
ATOM      7  C   UNL d   1       3.414   4.370   2.458  0.00  0.00     0.049 C 
ATOM      8  C   UNL d   1       5.576   4.709   0.428  0.00  0.00     0.049 C 
ENDROOT
BRANCH   2   9
ATOM      9  N   UNL d   1       2.088   0.155   0.209  0.00  0.00    -0.337 N 
ATOM     10  HN  UNL d   1       1.769  -0.134  -0.716  1.00  0.00     0.168 HD
BRANCH   9  11
ATOM     11  C   UNL d   1       1.695  -0.533   1.234  0.00  0.00     0.140 C 
ATOM     12  N   UNL d   1       0.827  -1.581   1.123  0.00  0.00    -0.370 N 
ATOM     13  C   UNL d   1       0.616  -2.365   2.321  0.00  0.00     0.132 C 
ATOM     14  H   UNL d   1       0.781  -2.020   0.211  0.00  0.00     0.161 HD
ATOM     15  C   UNL d   1       0.770  -1.387   3.479  0.00  0.00     0.102 C 
ATOM     16  S   UNL d   1       2.149  -0.338   2.931  0.00  0.00    -0.093 SA
ENDBRANCH   9  11
ENDBRANCH   2   9
TORSDOF 2
