REMARK  8 active torsions:
REMARK  status: ('A' for Active; 'I' for Inactive)
REMARK    1  A    between atoms: C_7  and  C_1 
REMARK    2  A    between atoms: S_8  and  C_4 
REMARK    3  A    between atoms: O_13  and  C_7 
REMARK    4  A    between atoms: C_12  and  S_8 
REMARK    5  A    between atoms: C_9  and  C_12 
REMARK    6  A    between atoms: O_14  and  C_9 
REMARK    7  A    between atoms: C_15  and  O_13 
REMARK    8  A    between atoms: C_16  and  O_14 
ROOT
ATOM      1  C   UNL d   1      -0.457  -1.035   0.002  0.00  0.00     0.125 A 
ATOM      2  N   UNL d   1      -1.259   0.101  -0.014  0.00  0.00    -0.331 N 
ATOM      3  HN  UNL d   1      -2.278   0.140  -0.033  1.00  0.00     0.168 HD
ATOM      4  C   UNL d   1      -0.423   1.110   0.001  0.00  0.00     0.145 A 
ATOM      5  C   UNL d   1       0.877  -0.662   0.057  0.00  0.00     0.126 A 
ATOM      6  N   UNL d   1       0.875   0.703   0.056  0.00  0.00    -0.344 N 
ATOM      7  H   UNL d   1       1.675   1.318   0.079  0.00  0.00     0.167 HD
ENDROOT
BRANCH   4   8
ATOM      8  S   UNL d   1      -0.772   2.798  -0.062  0.00  0.00    -0.084 SA
BRANCH   8   9
ATOM      9  C   UNL d   1      -2.333   2.865   0.861  0.00  0.00     0.193 C 
BRANCH   9  10
ATOM     10  C   UNL d   1      -2.188   2.280   2.248  0.00  0.00     0.268 C 
ATOM     11  O   UNL d   1      -1.164   2.258   2.919  0.00  0.00    -0.264 OA
BRANCH  10  12
ATOM     12  O   UNL d   1      -3.393   1.775   2.647  0.00  0.00    -0.321 OA
BRANCH  12  13
ATOM     13  C   UNL d   1      -3.336   0.846   3.736  0.00  0.00     0.174 C 
ATOM     14  C   UNL d   1      -3.099  -0.540   3.163  0.00  0.00     0.034 C 
ENDBRANCH  12  13
ENDBRANCH  10  12
ENDBRANCH   9  10
ENDBRANCH   8   9
ENDBRANCH   4   8
BRANCH   1  15
ATOM     15  C   UNL d   1      -0.934  -2.415  -0.102  0.00  0.00     0.311 C 
ATOM     16  O   UNL d   1      -0.174  -3.379  -0.178  0.00  0.00    -0.258 OA
BRANCH  15  17
ATOM     17  O   UNL d   1      -2.292  -2.497  -0.186  0.00  0.00    -0.317 OA
BRANCH  17  18
ATOM     18  C   UNL d   1      -2.797  -3.745  -0.680  0.00  0.00     0.175 C 
ATOM     19  C   UNL d   1      -2.844  -3.674  -2.196  0.00  0.00     0.034 C 
ENDBRANCH  17  18
ENDBRANCH  15  17
ENDBRANCH   1  15
TORSDOF 8
