REMARK  6 active torsions:
REMARK  status: ('A' for Active; 'I' for Inactive)
REMARK    1  A    between atoms: N_2  and  S_1 
REMARK    2  A    between atoms: C_6  and  S_1 
REMARK       I    between atoms: C_4  and  N_2 
REMARK       I    between atoms: C_3  and  N_7 
REMARK    3  A    between atoms: C_5  and  C_3 
REMARK       I    between atoms: N_10  and  C_4 
REMARK    4  A    between atoms: N_7  and  C_16 
REMARK    5  A    between atoms: C_17  and  N_10 
REMARK    6  A    between atoms: O_21  and  C_11 
ROOT
ATOM      1  C   UNL d   1       3.002   2.920   0.465  0.00  0.00     0.035 A 
ATOM      2  C   UNL d   1       1.904   1.764  -1.886  0.00  0.00     0.036 A 
ATOM      3  C   UNL d   1       3.264   1.591   0.130  0.00  0.00     0.032 A 
ATOM      4  C   UNL d   1       2.282   3.695  -0.450  0.00  0.00     0.032 A 
ATOM      5  C   UNL d   1       1.739   3.123  -1.611  0.00  0.00     0.032 A 
ATOM      6  C   UNL d   1       2.733   1.022  -1.041  0.00  0.00     0.032 A 
ENDROOT
BRANCH   2   7
ATOM      7  N   UNL d   1       1.223   1.072  -2.918  0.00  0.00    -0.308 N 
ATOM      8  C   UNL d   1       0.143   1.536  -3.628  0.00  0.00     0.334 C 
ATOM      9  N   UNL d   1      -0.591   0.632  -4.392  0.00  0.00    -0.232 N 
ATOM     10  O   UNL d   1      -0.272   2.684  -3.623  0.00  0.00    -0.246 OA
ATOM     11  H   UNL d   1      -1.325   1.061  -4.946  0.00  0.00     0.183 HD
ATOM     12  H   UNL d   1       1.481   0.103  -3.070  0.00  0.00     0.170 HD
BRANCH   9  13
ATOM     13  S   UNL d   1      -0.359  -0.959  -4.736  0.00  0.00     0.266 S 
ATOM     14  O   UNL d   1       1.062  -1.209  -4.676  0.00  0.00    -0.200 OA
ATOM     15  O   UNL d   1      -1.147  -1.248  -5.913  0.00  0.00    -0.200 OA
BRANCH  13  16
ATOM     16  C   UNL d   1      -1.086  -1.858  -3.389  0.00  0.00     0.080 A 
ATOM     17  C   UNL d   1      -1.901  -1.241  -2.440  0.00  0.00     0.026 A 
ATOM     18  C   UNL d   1      -2.302  -1.963  -1.312  0.00  0.00     0.008 A 
ATOM     19  C   UNL d   1      -1.898  -3.295  -1.133  0.00  0.00    -0.062 A 
ATOM     20  C   UNL d   1      -1.141  -3.921  -2.129  0.00  0.00     0.008 A 
ATOM     21  C   UNL d   1      -2.246  -4.021   0.135  0.00  0.00     0.048 C 
ATOM     22  C   UNL d   1      -0.734  -3.205  -3.255  0.00  0.00     0.026 A 
ENDBRANCH  13  16
ENDBRANCH   9  13
ENDBRANCH   2   7
BRANCH   1  23
ATOM     23  N   UNL d   1       3.364   3.529   1.693  0.00  0.00    -0.323 N 
ATOM     24  C   UNL d   1       3.974   2.919   2.779  0.00  0.00     0.259 C 
ATOM     25  O   UNL d   1       4.401   1.764   2.792  0.00  0.00    -0.267 OA
ATOM     26  H   UNL d   1       3.041   4.478   1.798  0.00  0.00     0.169 HD
BRANCH  24  27
ATOM     27  C   UNL d   1       4.090   3.701   4.066  0.00  0.00     0.065 A 
ATOM     28  C   UNL d   1       4.567   3.051   5.223  0.00  0.00     0.081 A 
ATOM     29  C   UNL d   1       4.636   3.708   6.452  0.00  0.00     0.037 A 
ATOM     30  C   UNL d   1       4.236   5.036   6.553  0.00  0.00     0.003 A 
ATOM     31  C   UNL d   1       3.788   5.708   5.419  0.00  0.00     0.001 A 
ATOM     32  C   UNL d   1       3.718   5.050   4.181  0.00  0.00     0.020 A 
BRANCH  28  33
ATOM     33  O   UNL d   1       4.989   1.744   5.242  0.00  0.00    -0.360 OA
ATOM     34  H   UNL d   1       4.909   1.391   4.326  0.00  0.00     0.217 HD
ENDBRANCH  28  33
ENDBRANCH  24  27
ENDBRANCH   1  23
TORSDOF 6
