REMARK  4 active torsions:
REMARK  status: ('A' for Active; 'I' for Inactive)
REMARK    1  A    between atoms: C_3  and  C_1 
REMARK    2  A    between atoms: C_4  and  C_1 
REMARK    3  A    between atoms: N_5  and  C_2 
REMARK    4  A    between atoms: C_8  and  N_5 
ROOT
ATOM      1  N   UNL d   1       0.876  -1.925   1.441  0.00  0.00    -0.365 N 
ATOM      2  H   UNL d   1       1.852  -1.762   1.712  0.00  0.00     0.165 HD
ENDROOT
BRANCH   1   3
ATOM      3  C   UNL d   1       0.338  -0.943   0.637  0.00  0.00     0.107 C 
ATOM      4  C   UNL d   1       0.969   0.095   0.049  0.00  0.00     0.070 C 
BRANCH   4   5
ATOM      5  C   UNL d   1       0.165   1.114  -0.697  0.00  0.00     0.160 C 
ATOM      6  O   UNL d   1       0.674   1.799  -1.583  0.00  0.00    -0.293 OA
ATOM      7  C   UNL d   1      -1.290   1.336  -0.351  0.00  0.00     0.097 C 
ENDBRANCH   4   5
BRANCH   4   8
ATOM      8  C   UNL d   1       2.463   0.157   0.174  0.00  0.00     0.160 C 
ATOM      9  O   UNL d   1       3.021  -0.344   1.161  0.00  0.00    -0.293 OA
ATOM     10  C   UNL d   1       3.320   0.773  -0.905  0.00  0.00     0.097 C 
ENDBRANCH   4   8
ENDBRANCH   1   3
BRANCH   1  11
ATOM     11  C   UNL d   1       0.233  -3.004   2.066  0.00  0.00     0.032 A 
ATOM     12  C   UNL d   1      -1.002  -3.514   1.639  0.00  0.00     0.032 A 
ATOM     13  C   UNL d   1      -1.619  -4.572   2.318  0.00  0.00     0.044 A 
ATOM     14  C   UNL d   1      -1.008  -5.116   3.438  0.00  0.00     0.116 A 
ATOM     15  C   UNL d   1       0.207  -4.626   3.893  0.00  0.00     0.044 A 
ATOM     16  F   UNL d   1      -1.601  -6.125   4.089  0.00  0.00    -0.206 F 
ATOM     17  C   UNL d   1       0.824  -3.575   3.208  0.00  0.00     0.032 A 
ENDBRANCH   1  11
TORSDOF 4
