REMARK  5 active torsions:
REMARK  status: ('A' for Active; 'I' for Inactive)
REMARK    1  A    between atoms: C_6  and  N_13 
REMARK    2  A    between atoms: N_11  and  C_6 
REMARK    3  A    between atoms: N_9  and  C_8 
REMARK    4  A    between atoms: N_13  and  N_9 
REMARK    5  A    between atoms: C_15  and  N_11 
ROOT
ATOM      1  N   UNL d   1       0.838   4.133   0.067  0.00  0.00    -0.276 N 
ATOM      2  H   UNL d   1       0.543   3.215  -0.246  0.00  0.00     0.189 HD
ENDROOT
BRANCH   1   3
ATOM      3  C   UNL d   1       2.179   4.424   0.072  0.00  0.00     0.191 C 
ATOM      4  S   UNL d   1       2.828   5.968   0.011  0.00  0.00    -0.039 SA
BRANCH   3   5
ATOM      5  N   UNL d   1       3.048   3.366   0.093  0.00  0.00    -0.332 N 
ATOM      6  H   UNL d   1       4.000   3.642  -0.132  0.00  0.00     0.168 HD
BRANCH   5   7
ATOM      7  C   UNL d   1       2.891   2.052   0.584  0.00  0.00     0.034 A 
ATOM      8  C   UNL d   1       1.791   1.613   1.329  0.00  0.00     0.031 A 
ATOM      9  C   UNL d   1       1.726   0.296   1.798  0.00  0.00     0.026 A 
ATOM     10  C   UNL d   1       2.778  -0.580   1.554  0.00  0.00     0.034 A 
ATOM     11  C   UNL d   1       3.898  -0.148   0.850  0.00  0.00     0.026 A 
ATOM     12 CL   UNL d   1       2.703  -2.193   2.146  0.00  0.00    -0.084 Cl
ATOM     13  C   UNL d   1       3.954   1.164   0.369  0.00  0.00     0.031 A 
ENDBRANCH   5   7
ENDBRANCH   3   5
ENDBRANCH   1   3
BRANCH   1  14
ATOM     14  N   UNL d   1      -0.081   5.016   0.547  0.00  0.00    -0.307 N 
ATOM     15  HN  UNL d   1       0.184   5.942   0.884  1.00  0.00     0.186 HD
BRANCH  14  16
ATOM     16  C   UNL d   1      -1.309   4.610   0.553  0.00  0.00     0.139 C 
ATOM     17  C   UNL d   1      -2.298   5.446   1.155  0.00  0.00     0.083 A 
ATOM     18  C   UNL d   1      -3.652   5.294   1.319  0.00  0.00     0.057 A 
ATOM     19  N   UNL d   1      -2.008   6.644   1.759  0.00  0.00    -0.298 N 
ATOM     20  C   UNL d   1      -4.086   6.421   2.029  0.00  0.00     0.128 A 
ATOM     21 BR   UNL d   1      -4.756   3.893   0.763  0.00  0.00    -0.047 Br
ATOM     22  N   UNL d   1      -3.078   7.253   2.306  0.00  0.00    -0.310 N 
ATOM     23  HN  UNL d   1      -3.110   8.139   2.812  1.00  0.00     0.186 HD
ATOM     24  H   UNL d   1      -1.092   7.079   1.838  0.00  0.00     0.187 HD
ENDBRANCH  14  16
ENDBRANCH   1  14
TORSDOF 5
