REMARK  4 active torsions:
REMARK  status: ('A' for Active; 'I' for Inactive)
REMARK    1  A    between atoms: C_2  and  S_1 
REMARK    2  A    between atoms: N_4  and  S_1 
REMARK    3  A    between atoms: C_3  and  C_14 
REMARK    4  A    between atoms: C_17  and  N_4 
ROOT
ATOM      1  C   UNL d   1       2.539  -0.296   4.177  0.00  0.00     0.019 A 
ATOM      2  C   UNL d   1       0.953   0.564   2.551  0.00  0.00     0.043 A 
ATOM      3  C   UNL d   1       2.248   0.171   2.886  0.00  0.00     0.046 A 
ATOM      4  C   UNL d   1       1.506  -0.341   5.127  0.00  0.00     0.016 A 
ATOM      5  C   UNL d   1       0.213   0.067   4.793  0.00  0.00     0.003 A 
ATOM      6  C   UNL d   1      -0.062   0.525   3.504  0.00  0.00     0.030 A 
ENDROOT
BRANCH   2   7
ATOM      7  N   UNL d   1       0.649   0.947   1.221  0.00  0.00    -0.281 N 
ATOM      8  H   UNL d   1       0.888   0.310   0.460  0.00  0.00     0.179 HD
BRANCH   7   9
ATOM      9  S   UNL d   1       0.621   2.563   0.768  0.00  0.00     0.266 S 
ATOM     10  O   UNL d   1       0.353   2.599  -0.656  0.00  0.00    -0.200 OA
ATOM     11  O   UNL d   1      -0.231   3.279   1.698  0.00  0.00    -0.200 OA
BRANCH   9  12
ATOM     12  C   UNL d   1       2.275   3.141   1.001  0.00  0.00     0.118 A 
ATOM     13  C   UNL d   1       3.310   2.524   0.305  0.00  0.00     0.142 A 
ATOM     14  C   UNL d   1       4.615   2.996   0.422  0.00  0.00     0.086 A 
ATOM     15  F   UNL d   1       3.080   1.452  -0.468  0.00  0.00    -0.204 F 
ATOM     16  C   UNL d   1       4.864   4.097   1.232  0.00  0.00     0.119 A 
ATOM     17  C   UNL d   1       3.835   4.727   1.928  0.00  0.00     0.044 A 
ATOM     18  F   UNL d   1       6.114   4.564   1.342  0.00  0.00    -0.206 F 
ATOM     19  C   UNL d   1       2.528   4.247   1.814  0.00  0.00     0.031 A 
ENDBRANCH   9  12
ENDBRANCH   7   9
ENDBRANCH   2   7
BRANCH   1  20
ATOM     20  C   UNL d   1       3.886  -0.757   4.482  0.00  0.00     0.173 A 
ATOM     21  N   UNL d   1       4.944  -0.853   3.700  0.00  0.00    -0.278 N 
ATOM     22  N   UNL d   1       5.958  -1.382   4.474  0.00  0.00    -0.288 N 
ATOM     23  HN  UNL d   1       5.002  -0.587   2.717  1.00  0.00     0.189 HD
ATOM     24  C   UNL d   1       5.444  -1.564   5.666  0.00  0.00     0.251 A 
ATOM     25  HN  UNL d   1       6.912  -1.589   4.178  1.00  0.00     0.188 HD
ATOM     26  O   UNL d   1       4.138  -1.194   5.758  0.00  0.00    -0.286 OA
ENDBRANCH   1  20
TORSDOF 4
