REMARK  3 active torsions:
REMARK  status: ('A' for Active; 'I' for Inactive)
REMARK    1  A    between atoms: S_8  and  C_3 
REMARK    2  A    between atoms: C_11  and  S_8 
REMARK    3  A    between atoms: C_10  and  C_11 
ROOT
ATOM      1  N   UNL d   1       0.579   0.744   0.022  0.00  0.00    -0.159 N 
ATOM      2  C   UNL d   1       0.375  -0.610   0.081  0.00  0.00     0.697 A 
ATOM      3  C   UNL d   1       1.927   0.917  -0.032  0.00  0.00     0.177 A 
ATOM      4  N   UNL d   1       1.536  -1.221   0.080  0.00  0.00    -0.130 N 
ATOM      5  HN  UNL d   1       1.685  -2.229   0.126  1.00  0.00     0.205 HD
ATOM      6  N   UNL d   1       2.522  -0.254   0.005  0.00  0.00    -0.265 N 
ATOM      7  HN  UNL d   1       3.528  -0.420  -0.018  1.00  0.00     0.189 HD
ATOM      8  N   UNL d   1      -0.874  -1.119   0.129  0.00  0.00    -0.225 N 
ATOM      9  C   UNL d   1      -0.490   1.711  -0.065  0.00  0.00     0.151 C 
ATOM     10  C   UNL d   1      -1.842   1.106   0.316  0.00  0.00     0.041 C 
ATOM     11  C   UNL d   1      -1.990  -0.289  -0.288  0.00  0.00     0.139 C 
ATOM     12  H   UNL d   1      -0.958  -2.116  -0.053  0.00  0.00     0.177 HD
ENDROOT
BRANCH   3  13
ATOM     13  S   UNL d   1       2.687   2.463  -0.163  0.00  0.00    -0.087 SA
BRANCH  13  14
ATOM     14  C   UNL d   1       4.437   1.964  -0.162  0.00  0.00     0.122 C 
BRANCH  14  15
ATOM     15  C   UNL d   1       5.358   3.160  -0.244  0.00  0.00    -0.027 A 
ATOM     16  C   UNL d   1       5.821   3.843   0.893  0.00  0.00     0.041 A 
ATOM     17 CL   UNL d   1       5.367   3.375   2.493  0.00  0.00    -0.084 Cl
ATOM     18  C   UNL d   1       6.677   4.943   0.763  0.00  0.00     0.024 A 
ATOM     19  C   UNL d   1       7.075   5.380  -0.499  0.00  0.00     0.002 A 
ATOM     20  C   UNL d   1       6.613   4.724  -1.636  0.00  0.00     0.001 A 
ATOM     21  C   UNL d   1       5.760   3.625  -1.510  0.00  0.00     0.009 A 
ENDBRANCH  14  15
ENDBRANCH  13  14
ENDBRANCH   3  13
TORSDOF 3
