REMARK  3 active torsions:
REMARK  status: ('A' for Active; 'I' for Inactive)
REMARK    1  A    between atoms: O_2  and  S_1 
REMARK    2  A    between atoms: C_4  and  S_1 
REMARK    3  A    between atoms: C_3  and  O_2 
ROOT
ATOM      1  C   UNL d   1       0.965  -1.835  -1.791  0.00  0.00     0.117 A 
ATOM      2  C   UNL d   1       0.035  -2.718  -2.367  0.00  0.00     0.077 A 
ATOM      3  N   UNL d   1      -1.059  -3.144  -1.690  0.00  0.00    -0.363 N 
ATOM      4  HN  UNL d   1      -1.240  -2.828  -0.737  1.00  0.00     0.165 HD
ATOM      5  C   UNL d   1       0.282  -3.152  -3.694  0.00  0.00    -0.007 A 
ATOM      6  C   UNL d   1       2.112  -1.437  -2.496  0.00  0.00     0.040 A 
ATOM      7  C   UNL d   1       2.331  -1.871  -3.799  0.00  0.00     0.004 A 
ATOM      8  C   UNL d   1      -1.906  -4.000  -2.311  0.00  0.00     0.088 A 
ATOM      9  C   UNL d   1       1.415  -2.722  -4.399  0.00  0.00     0.014 A 
ATOM     10  C   UNL d   1      -0.622  -4.032  -4.300  0.00  0.00     0.015 A 
ATOM     11  C   UNL d   1      -1.735  -4.468  -3.600  0.00  0.00     0.018 A 
ENDROOT
BRANCH   1  12
ATOM     12  O   UNL d   1       0.734  -1.420  -0.486  0.00  0.00    -0.227 OA
BRANCH  12  13
ATOM     13  S   UNL d   1       1.123   0.100  -0.028  0.00  0.00     0.303 S 
ATOM     14  O   UNL d   1       0.326   1.046  -0.785  0.00  0.00    -0.193 OA
ATOM     15  O   UNL d   1       2.573   0.210   0.006  0.00  0.00    -0.193 OA
BRANCH  13  16
ATOM     16  C   UNL d   1       0.611   0.269   1.668  0.00  0.00     0.086 A 
ATOM     17  C   UNL d   1       1.373   1.099   2.501  0.00  0.00     0.026 A 
ATOM     18  C   UNL d   1       1.022   1.253   3.840  0.00  0.00     0.008 A 
ATOM     19  C   UNL d   1      -0.091   0.581   4.357  0.00  0.00    -0.062 A 
ATOM     20  C   UNL d   1      -0.848  -0.248   3.513  0.00  0.00     0.008 A 
ATOM     21  C   UNL d   1      -0.451   0.767   5.803  0.00  0.00     0.048 C 
ATOM     22  C   UNL d   1      -0.499  -0.412   2.166  0.00  0.00     0.026 A 
ENDBRANCH  13  16
ENDBRANCH  12  13
ENDBRANCH   1  12
TORSDOF 3
