REMARK  4 active torsions:
REMARK  status: ('A' for Active; 'I' for Inactive)
REMARK       I    between atoms: N_2  and  C_1 
REMARK       I    between atoms: N_8  and  C_1 
REMARK    1  A    between atoms: C_3  and  N_2 
REMARK    2  A    between atoms: C_7  and  C_5 
REMARK    3  A    between atoms: C_11  and  N_8 
REMARK    4  A    between atoms: C_12  and  C_11 
ROOT
ATOM      1  N   UNL d   1       2.246  -1.996  -7.458  0.00  0.00    -0.191 NA
ATOM      2  C   UNL d   1       1.772  -2.128  -6.403  0.00  0.00     0.099 C 
ATOM      3  C   UNL d   1       1.181  -2.283  -5.108  0.00  0.00     0.044 A 
ATOM      4  C   UNL d   1       0.014  -2.598  -2.562  0.00  0.00    -0.040 A 
ATOM      5  C   UNL d   1       1.950  -2.740  -4.034  0.00  0.00     0.023 A 
ATOM      6  C   UNL d   1      -0.169  -1.977  -4.910  0.00  0.00     0.023 A 
ATOM      7  C   UNL d   1       1.370  -2.891  -2.769  0.00  0.00     0.010 A 
ATOM      8  C   UNL d   1      -0.748  -2.131  -3.645  0.00  0.00     0.010 A 
ENDROOT
BRANCH   4   9
ATOM      9  C   UNL d   1      -0.607  -2.769  -1.194  0.00  0.00     0.162 C 
BRANCH   9  10
ATOM     10  N   UNL d   1      -0.571  -1.536  -0.436  0.00  0.00    -0.339 N 
ATOM     11  C   UNL d   1       0.230  -1.388   0.677  0.00  0.00     0.321 C 
ATOM     12  N   UNL d   1       0.238  -0.067   1.102  0.00  0.00    -0.308 N 
ATOM     13  O   UNL d   1       0.868  -2.305   1.175  0.00  0.00    -0.247 OA
ATOM     14  H   UNL d   1      -0.677   0.353   1.017  0.00  0.00     0.170 HD
ATOM     15  H   UNL d   1      -0.875  -0.696  -0.903  0.00  0.00     0.164 HD
BRANCH  12  16
ATOM     16  C   UNL d   1       0.906   0.323   2.284  0.00  0.00     0.043 A 
ATOM     17  C   UNL d   1       1.935   1.292   2.273  0.00  0.00    -0.024 A 
ATOM     18  C   UNL d   1       2.507   1.614   3.531  0.00  0.00     0.010 A 
ATOM     19  C   UNL d   1       2.046   1.066   4.730  0.00  0.00     0.001 A 
ATOM     20  C   UNL d   1       0.999   0.159   4.714  0.00  0.00     0.002 A 
ATOM     21  C   UNL d   1       0.438  -0.217   3.496  0.00  0.00     0.030 A 
BRANCH  17  22
ATOM     22  C   UNL d   1       2.486   2.041   1.033  0.00  0.00    -0.022 C 
ATOM     23  C   UNL d   1       1.830   1.708  -0.325  0.00  0.00     0.019 C 
ATOM     24  C   UNL d   1       2.292   3.565   1.238  0.00  0.00     0.019 C 
ATOM     25  C   UNL d   1       3.997   1.753   0.869  0.00  0.00     0.019 C 
ENDBRANCH  17  22
ENDBRANCH  12  16
ENDBRANCH   9  10
ENDBRANCH   4   9
TORSDOF 4
