REMARK  3 active torsions:
REMARK  status: ('A' for Active; 'I' for Inactive)
REMARK    1  A    between atoms: S_2  and  C_9 
REMARK    2  A    between atoms: C_12  and  S_2 
REMARK    3  A    between atoms: C_9  and  C_8 
ROOT
ATOM      1  C   UNL d   1      -0.223  -0.019   0.484  0.00  0.00     0.045 A 
ATOM      2  C   UNL d   1      -0.490   0.673  -0.693  0.00  0.00     0.131 A 
ATOM      3  C   UNL d   1       0.501   1.256  -1.480  0.00  0.00     0.192 A 
ATOM      4  C   UNL d   1       1.820   1.130  -1.047  0.00  0.00     0.199 A 
ATOM      5  C   UNL d   1       2.125   0.447   0.124  0.00  0.00     0.197 A 
ATOM      6  C   UNL d   1       1.115  -0.131   0.896  0.00  0.00     0.171 A 
ATOM      7  C   UNL d   1      -2.439   0.000   0.082  0.00  0.00     0.069 A 
ATOM      8  O   UNL d   1      -1.833   0.691  -0.931  0.00  0.00    -0.310 OA
ATOM      9  C   UNL d   1      -1.485  -0.443   0.979  0.00  0.00     0.051 A 
ATOM     10  F   UNL d   1       0.208   1.921  -2.605  0.00  0.00    -0.200 F 
ATOM     11  F   UNL d   1       2.808   1.683  -1.766  0.00  0.00    -0.199 F 
ATOM     12  F   UNL d   1       3.401   0.348   0.523  0.00  0.00    -0.199 F 
ATOM     13  F   UNL d   1       1.424  -0.779   2.028  0.00  0.00    -0.202 F 
ENDROOT
BRANCH   7  14
ATOM     14  C   UNL d   1      -3.923  -0.077   0.031  0.00  0.00     0.210 C 
BRANCH  14  15
ATOM     15  S   UNL d   1      -4.426  -1.791   0.042  0.00  0.00     0.181 S 
ATOM     16  O   UNL d   1      -4.011  -2.426  -1.195  0.00  0.00    -0.222 OA
ATOM     17  O   UNL d   1      -4.078  -2.376   1.327  0.00  0.00    -0.222 OA
BRANCH  15  18
ATOM     18  C   UNL d   1      -6.210  -1.706  -0.004  0.00  0.00     0.059 A 
ATOM     19  C   UNL d   1      -6.867  -1.688  -1.239  0.00  0.00     0.025 A 
ATOM     20  C   UNL d   1      -8.265  -1.704  -1.276  0.00  0.00     0.025 A 
ATOM     21  C   UNL d   1      -8.992  -1.750  -0.086  0.00  0.00     0.034 A 
ATOM     22  C   UNL d   1      -8.335  -1.777   1.145  0.00  0.00     0.025 A 
ATOM     23 CL   UNL d   1     -10.711  -1.796  -0.137  0.00  0.00    -0.084 Cl
ATOM     24  C   UNL d   1      -6.938  -1.760   1.190  0.00  0.00     0.025 A 
ENDBRANCH  15  18
ENDBRANCH  14  15
ENDBRANCH   7  14
TORSDOF 3
