REMARK  3 active torsions:
REMARK  status: ('A' for Active; 'I' for Inactive)
REMARK    1  A    between atoms: C_8  and  C_3 
REMARK    2  A    between atoms: C_4  and  C_5 
REMARK    3  A    between atoms: C_5  and  C_8 
ROOT
ATOM      1  C   UNL d   1       0.843  -2.694   1.077  0.00  0.00     0.121 C 
ENDROOT
BRANCH   1   2
ATOM      2  C   UNL d   1       2.096  -3.540   1.122  0.00  0.00     0.164 C 
ATOM      3  O   UNL d   1       2.876  -3.586   0.171  0.00  0.00    -0.292 OA
BRANCH   2   4
ATOM      4  C   UNL d   1       2.476  -4.266   2.379  0.00  0.00     0.033 A 
ATOM      5  C   UNL d   1       1.603  -4.738   3.372  0.00  0.00     0.048 A 
ATOM      6  C   UNL d   1       2.118  -5.340   4.532  0.00  0.00     0.026 A 
ATOM      7 CL   UNL d   1      -0.119  -4.718   3.274  0.00  0.00    -0.083 Cl
ATOM      8  C   UNL d   1       3.491  -5.506   4.701  0.00  0.00     0.025 A 
ATOM      9  C   UNL d   1       4.357  -5.087   3.701  0.00  0.00     0.035 A 
ATOM     10  C   UNL d   1       3.861  -4.473   2.552  0.00  0.00     0.040 A 
ATOM     11 CL   UNL d   1       6.050  -5.322   3.886  0.00  0.00    -0.084 Cl
ENDBRANCH   2   4
ENDBRANCH   1   2
BRANCH   1  12
ATOM     12  C   UNL d   1       0.684  -1.864  -0.198  0.00  0.00     0.173 C 
ATOM     13  O   UNL d   1      -0.420  -0.943   0.057  0.00  0.00    -0.307 OA
ATOM     14  C   UNL d   1      -1.536  -1.256  -0.666  0.00  0.00     0.294 C 
ATOM     15  C   UNL d   1      -1.140  -2.299  -1.599  0.00  0.00     0.048 A 
ATOM     16  O   UNL d   1      -2.635  -0.746  -0.563  0.00  0.00    -0.259 OA
ATOM     17  C   UNL d   1       0.181  -2.626  -1.369  0.00  0.00    -0.012 A 
ATOM     18  C   UNL d   1      -1.898  -2.892  -2.595  0.00  0.00     0.018 A 
ATOM     19  C   UNL d   1       0.817  -3.548  -2.186  0.00  0.00     0.011 A 
ATOM     20  C   UNL d   1       0.082  -4.156  -3.209  0.00  0.00     0.001 A 
ATOM     21  C   UNL d   1      -1.272  -3.839  -3.406  0.00  0.00     0.001 A 
ENDBRANCH   1  12
TORSDOF 3
