REMARK  6 active torsions:
REMARK  status: ('A' for Active; 'I' for Inactive)
REMARK    1  A    between atoms: N_5  and  C_1 
REMARK    2  A    between atoms: C_10  and  C_2 
REMARK    3  A    between atoms: N_3  and  C_7 
REMARK    4  A    between atoms: N_4  and  C_8 
REMARK       I    between atoms: C_6  and  N_5 
REMARK    5  A    between atoms: C_9  and  C_6 
REMARK    6  A    between atoms: O_23  and  C_10 
ROOT
ATOM      1  N   UNL d   1      -0.370   2.748   0.488  0.00  0.00    -0.316 N 
ATOM      2  C   UNL d   1       0.399   3.863   0.193  0.00  0.00     0.256 C 
ATOM      3  O   UNL d   1      -0.011   4.984  -0.096  0.00  0.00    -0.267 OA
ATOM      4  H   UNL d   1       0.057   1.920   0.894  0.00  0.00     0.169 HD
ENDROOT
BRANCH   2   5
ATOM      5  C   UNL d   1       1.880   3.742   0.231  0.00  0.00     0.037 A 
ATOM      6  C   UNL d   1       2.585   4.512  -0.715  0.00  0.00     0.053 A 
ATOM      7  C   UNL d   1       3.979   4.602  -0.663  0.00  0.00     0.106 A 
ATOM      8  C   UNL d   1       4.693   3.922   0.328  0.00  0.00     0.072 A 
ATOM      9  C   UNL d   1       3.983   3.148   1.261  0.00  0.00     0.106 A 
ATOM     10  C   UNL d   1       2.578   3.044   1.219  0.00  0.00     0.053 A 
BRANCH   7  11
ATOM     11  N   UNL d   1       4.689   5.445  -1.635  0.00  0.00    -0.116 N 
ATOM     12  O   UNL d   1       5.905   5.608  -1.467  0.00  0.00    -0.532 OA
ATOM     13  O   UNL d   1       4.032   5.933  -2.563  0.00  0.00    -0.532 OA
ENDBRANCH   7  11
BRANCH   9  14
ATOM     14  N   UNL d   1       4.728   2.468   2.330  0.00  0.00    -0.116 N 
ATOM     15  O   UNL d   1       5.915   2.780   2.491  0.00  0.00    -0.532 OA
ATOM     16  O   UNL d   1       4.119   1.624   3.000  0.00  0.00    -0.532 OA
ENDBRANCH   9  14
ENDBRANCH   2   5
BRANCH   1  17
ATOM     17  C   UNL d   1      -1.759   2.683   0.310  0.00  0.00     0.093 A 
ATOM     18  C   UNL d   1      -2.642   1.703   0.750  0.00  0.00     0.073 A 
ATOM     19  C   UNL d   1      -3.995   2.012   0.348  0.00  0.00     0.028 A 
ATOM     20  C   UNL d   1      -4.086   3.163  -0.393  0.00  0.00     0.053 A 
ATOM     21  S   UNL d   1      -2.562   3.873  -0.619  0.00  0.00    -0.083 SA
BRANCH  18  22
ATOM     22  C   UNL d   1      -2.268   0.531   1.536  0.00  0.00     0.295 C 
ATOM     23  O   UNL d   1      -1.110   0.274   1.850  0.00  0.00    -0.259 OA
BRANCH  22  24
ATOM     24  O   UNL d   1      -3.357  -0.219   1.866  0.00  0.00    -0.322 OA
ATOM     25  C   UNL d   1      -3.128  -1.398   2.639  0.00  0.00     0.213 C 
ENDBRANCH  22  24
ENDBRANCH  18  22
ENDBRANCH   1  17
TORSDOF 6
