REMARK  3 active torsions:
REMARK  status: ('A' for Active; 'I' for Inactive)
REMARK       I    between atoms: C_2  and  N_1 
REMARK    1  A    between atoms: C_7  and  C_2 
REMARK    2  A    between atoms: C_12  and  N_4 
REMARK    3  A    between atoms: N_6  and  C_7 
ROOT
ATOM      1  N   UNL d   1       5.362   2.699  -2.665  0.00  0.00    -0.378 N 
ATOM      2  N   UNL d   1       4.229   2.049  -0.013  0.00  0.00     0.100 N 
ATOM      3  C   UNL d   1       5.434   3.698  -1.591  0.00  0.00     0.153 C 
ATOM      4  C   UNL d   1       4.206   1.799  -2.580  0.00  0.00     0.153 C 
ATOM      5  C   UNL d   1       4.173   1.141  -1.184  0.00  0.00     0.292 C 
ATOM      6  C   UNL d   1       5.370   2.992  -0.208  0.00  0.00     0.292 C 
ENDROOT
BRANCH   2   7
ATOM      7  C   UNL d   1       2.991   2.822   0.205  0.00  0.00     0.375 C 
BRANCH   7   8
ATOM      8  C   UNL d   1       1.673   2.038   0.212  0.00  0.00     0.252 C 
ATOM      9  N   UNL d   1       1.508   1.017   1.119  0.00  0.00    -0.316 N 
ATOM     10  C   UNL d   1       0.258   0.532   1.555  0.00  0.00     0.043 A 
ATOM     11  C   UNL d   1       2.555   0.235   1.807  0.00  0.00     0.137 C 
ATOM     12  C   UNL d   1       0.423  -0.608   2.341  0.00  0.00    -0.030 A 
ATOM     13  C   UNL d   1      -1.001   1.069   1.343  0.00  0.00     0.030 A 
ATOM     14  C   UNL d   1      -0.666  -1.267   2.889  0.00  0.00     0.009 A 
ATOM     15  C   UNL d   1       1.866  -0.990   2.429  0.00  0.00     0.061 C 
ATOM     16  C   UNL d   1      -1.939  -0.735   2.676  0.00  0.00     0.001 A 
ATOM     17  C   UNL d   1      -2.105   0.432   1.917  0.00  0.00     0.002 A 
ATOM     18  O   UNL d   1       0.775   2.419  -0.549  0.00  0.00    -0.271 OA
ENDBRANCH   7   8
ENDBRANCH   2   7
BRANCH   1  19
ATOM     19  C   UNL d   1       6.154   2.767  -3.794  0.00  0.00     0.030 A 
ATOM     20  C   UNL d   1       7.490   3.197  -3.722  0.00  0.00     0.029 A 
ATOM     21  C   UNL d   1       8.329   3.205  -4.842  0.00  0.00     0.002 A 
ATOM     22  C   UNL d   1       7.849   2.780  -6.074  0.00  0.00     0.000 A 
ATOM     23  C   UNL d   1       6.530   2.359  -6.184  0.00  0.00     0.002 A 
ATOM     24  C   UNL d   1       5.698   2.358  -5.057  0.00  0.00     0.029 A 
ENDBRANCH   1  19
TORSDOF 3
