REMARK  3 active torsions:
REMARK  status: ('A' for Active; 'I' for Inactive)
REMARK    1  A    between atoms: C_9  and  C_5 
REMARK    2  A    between atoms: S_14  and  C_7 
REMARK    3  A    between atoms: N_15  and  C_8 
ROOT
ATOM      1  N   UNL d   1       1.689  -1.321   0.011  0.00  0.00    -0.335 N 
ATOM      2  HN  UNL d   1       2.274  -2.155   0.045  1.00  0.00     0.168 HD
ATOM      3  N   UNL d   1       1.508   1.041  -0.018  0.00  0.00    -0.331 N 
ATOM      4  HN  UNL d   1       1.961   1.955  -0.009  1.00  0.00     0.168 HD
ATOM      5  C   UNL d   1       2.227  -0.092   0.009  0.00  0.00     0.119 A 
ATOM      6  C   UNL d   1      -0.475  -0.298  -0.075  0.00  0.00     0.116 A 
ATOM      7  C   UNL d   1       0.344  -1.412  -0.034  0.00  0.00     0.095 A 
ATOM      8  C   UNL d   1       0.171   0.928  -0.057  0.00  0.00     0.103 A 
ATOM      9  C   UNL d   1      -1.898  -0.376  -0.122  0.00  0.00     0.105 C 
ATOM     10  N   UNL d   1      -3.060  -0.406  -0.129  0.00  0.00    -0.191 NA
ENDROOT
BRANCH   7  11
ATOM     11  S   UNL d   1      -0.324  -3.079  -0.047  0.00  0.00    -0.115 SA
ATOM     12  C   UNL d   1       1.198  -4.067  -0.024  0.00  0.00     0.097 C 
ENDBRANCH   7  11
BRANCH   8  13
ATOM     13  N   UNL d   1      -0.506   2.141  -0.173  0.00  0.00    -0.287 NA
ATOM     14  H   UNL d   1      -1.304   2.250   0.445  0.00  0.00     0.125 HD
ATOM     15  H   UNL d   1       0.159   2.906  -0.085  0.00  0.00     0.125 HD
ENDBRANCH   8  13
BRANCH   5  16
ATOM     16  C   UNL d   1       3.691   0.010  -0.005  0.00  0.00     0.023 A 
ATOM     17  C   UNL d   1       4.344   1.242   0.027  0.00  0.00     0.102 A 
ATOM     18  N   UNL d   1       5.691   1.415  -0.007  0.00  0.00    -0.374 N 
ATOM     19  C   UNL d   1       6.443   0.298  -0.080  0.00  0.00     0.087 A 
ATOM     20  HN  UNL d   1       6.113   2.343   0.022  1.00  0.00     0.164 HD
ATOM     21  C   UNL d   1       5.913  -0.978  -0.112  0.00  0.00     0.018 A 
ATOM     22  C   UNL d   1       4.526  -1.117  -0.070  0.00  0.00     0.018 A 
ENDBRANCH   5  16
TORSDOF 3
