REMARK  5 active torsions:
REMARK  status: ('A' for Active; 'I' for Inactive)
REMARK    1  A    between atoms: C_3  and  N_13 
REMARK    2  A    between atoms: N_9  and  C_3 
REMARK    3  A    between atoms: C_10  and  C_4 
REMARK    4  A    between atoms: N_13  and  N_6 
REMARK    5  A    between atoms: C_14  and  N_9 
ROOT
ATOM      1  N   UNL d   1       4.105   6.581   0.391  0.00  0.00    -0.277 N 
ATOM      2  H   UNL d   1       4.534   6.008  -0.338  0.00  0.00     0.189 HD
ENDROOT
BRANCH   1   3
ATOM      3  C   UNL d   1       2.746   6.739   0.423  0.00  0.00     0.186 C 
ATOM      4  S   UNL d   1       1.931   8.102   0.975  0.00  0.00    -0.040 SA
BRANCH   3   5
ATOM      5  N   UNL d   1       1.958   5.713   0.012  0.00  0.00    -0.361 N 
ATOM      6  H   UNL d   1       0.982   5.977   0.094  0.00  0.00     0.162 HD
BRANCH   5   7
ATOM      7  C   UNL d   1       2.177   4.274  -0.046  0.00  0.00     0.083 C 
ATOM      8  C   UNL d   1       2.865   3.766  -1.311  0.00  0.00     0.025 C 
ATOM      9  C   UNL d   1       2.711   2.243  -1.387  0.00  0.00     0.002 C 
ATOM     10  C   UNL d   1       3.219   1.535  -0.128  0.00  0.00     0.000 C 
ATOM     11  C   UNL d   1       2.697   2.150   1.171  0.00  0.00     0.002 C 
ATOM     12  C   UNL d   1       2.839   3.673   1.198  0.00  0.00     0.025 C 
ENDBRANCH   5   7
ENDBRANCH   3   5
ENDBRANCH   1   3
BRANCH   1  13
ATOM     13  N   UNL d   1       4.904   7.498   1.021  0.00  0.00    -0.307 N 
ATOM     14  C   UNL d   1       6.140   7.654   0.655  0.00  0.00     0.138 C 
ATOM     15  HN  UNL d   1       4.525   8.063   1.781  1.00  0.00     0.186 HD
BRANCH  14  16
ATOM     16  C   UNL d   1       6.852   7.003  -0.435  0.00  0.00     0.066 A 
ATOM     17  N   UNL d   1       6.290   6.123  -1.286  0.00  0.00    -0.300 N 
ATOM     18  N   UNL d   1       7.275   5.833  -2.156  0.00  0.00    -0.311 N 
ATOM     19  HN  UNL d   1       5.337   5.759  -1.274  1.00  0.00     0.187 HD
ATOM     20  C   UNL d   1       8.455   6.453  -1.872  0.00  0.00     0.109 A 
ATOM     21  H   UNL d   1       7.073   5.203  -2.925  0.00  0.00     0.186 HD
ATOM     22  C   UNL d   1       8.218   7.223  -0.762  0.00  0.00     0.051 A 
ENDBRANCH  14  16
ENDBRANCH   1  13
TORSDOF 5
