REMARK  4 active torsions:
REMARK  status: ('A' for Active; 'I' for Inactive)
REMARK    1  A    between atoms: N_8  and  C_1 
REMARK    2  A    between atoms: S_9  and  C_5 
REMARK    3  A    between atoms: C_14  and  S_9 
REMARK    4  A    between atoms: C_16  and  C_14 
ROOT
ATOM      1  C   UNL d   1      -0.435   1.105   0.262  0.00  0.00     0.172 A 
ATOM      2  S   UNL d   1      -1.338  -0.306   0.562  0.00  0.00    -0.026 SA
ATOM      3  N   UNL d   1       0.778   0.908  -0.206  0.00  0.00    -0.278 N 
ATOM      4  HN  UNL d   1       1.433   1.655  -0.441  1.00  0.00     0.189 HD
ATOM      5  C   UNL d   1       0.032  -1.191   0.024  0.00  0.00     0.130 A 
ATOM      6  N   UNL d   1       1.051  -0.441  -0.340  0.00  0.00    -0.286 N 
ATOM      7  HN  UNL d   1       1.938  -0.812  -0.681  1.00  0.00     0.188 HD
ENDROOT
BRANCH   5   8
ATOM      8  S   UNL d   1       0.066  -2.936  -0.045  0.00  0.00    -0.099 SA
BRANCH   8   9
ATOM      9  C   UNL d   1       1.859  -3.224  -0.063  0.00  0.00     0.120 C 
BRANCH   9  10
ATOM     10  C   UNL d   1       2.186  -4.694  -0.195  0.00  0.00    -0.048 A 
ATOM     11  C   UNL d   1       2.414  -5.257  -1.460  0.00  0.00     0.009 A 
ATOM     12  C   UNL d   1       2.719  -6.615  -1.589  0.00  0.00     0.024 A 
ATOM     13  C   UNL d   1       2.791  -7.418  -0.453  0.00  0.00     0.034 A 
ATOM     14  C   UNL d   1       2.555  -6.877   0.809  0.00  0.00     0.024 A 
ATOM     15 CL   UNL d   1       3.171  -9.089  -0.611  0.00  0.00    -0.084 Cl
ATOM     16  C   UNL d   1       2.252  -5.519   0.938  0.00  0.00     0.009 A 
ENDBRANCH   9  10
ENDBRANCH   8   9
ENDBRANCH   5   8
BRANCH   1  17
ATOM     17  N   UNL d   1      -0.969   2.376   0.504  0.00  0.00    -0.312 N 
ATOM     18  C   UNL d   1      -2.211   2.714   1.022  0.00  0.00     0.098 A 
ATOM     19  C   UNL d   1      -2.318   4.087   1.097  0.00  0.00     0.019 A 
ATOM     20  C   UNL d   1      -1.111   4.629   0.611  0.00  0.00     0.019 A 
ATOM     21  C   UNL d   1      -0.306   3.569   0.258  0.00  0.00     0.098 A 
ENDBRANCH   1  17
TORSDOF 4
