REMARK  5 active torsions:
REMARK  status: ('A' for Active; 'I' for Inactive)
REMARK    1  A    between atoms: C_5  and  C_1 
REMARK    2  A    between atoms: C_7  and  N_2 
REMARK    3  A    between atoms: N_3  and  C_6 
REMARK       I    between atoms: C_4  and  N_12 
REMARK    4  A    between atoms: C_13  and  C_4 
REMARK    5  A    between atoms: N_12  and  C_27 
ROOT
ATOM      1  C   UNL d   1      -1.125  -3.660  -8.738  0.00  0.00     0.103 A 
ATOM      2  N   UNL d   1      -0.245  -4.242  -9.584  0.00  0.00    -0.350 N 
ATOM      3  HN  UNL d   1       0.745  -4.305  -9.345  1.00  0.00     0.166 HD
ATOM      4  C   UNL d   1      -2.466  -3.565  -9.101  0.00  0.00     0.051 A 
ATOM      5  C   UNL d   1      -2.035  -4.688 -11.191  0.00  0.00     0.050 A 
ATOM      6  C   UNL d   1      -0.711  -4.741 -10.763  0.00  0.00     0.119 A 
ATOM      7  C   UNL d   1      -2.921  -4.072 -10.323  0.00  0.00     0.035 A 
ENDROOT
BRANCH   1   8
ATOM      8  N   UNL d   1      -0.673  -3.122  -7.551  0.00  0.00    -0.364 N 
ATOM      9  C   UNL d   1       0.749  -2.800  -7.368  0.00  0.00     0.144 C 
ATOM     10  C   UNL d   1       1.408  -3.650  -6.257  0.00  0.00     0.144 C 
ATOM     11  N   UNL d   1       0.603  -3.666  -5.022  0.00  0.00    -0.364 N 
ATOM     12  C   UNL d   1      -0.820  -3.987  -5.217  0.00  0.00     0.144 C 
ATOM     13  C   UNL d   1      -1.475  -3.122  -6.316  0.00  0.00     0.144 C 
BRANCH  11  14
ATOM     14  C   UNL d   1       1.014  -3.063  -3.853  0.00  0.00     0.103 A 
ATOM     15  C   UNL d   1       2.344  -3.108  -3.443  0.00  0.00     0.049 A 
ATOM     16  C   UNL d   1       2.730  -2.574  -2.211  0.00  0.00     0.021 A 
ATOM     17  C   UNL d   1       1.774  -1.983  -1.386  0.00  0.00     0.063 A 
ATOM     18  C   UNL d   1       0.475  -1.963  -1.859  0.00  0.00     0.106 A 
ATOM     19  N   UNL d   1       0.087  -2.487  -3.049  0.00  0.00    -0.352 N 
ATOM     20  HN  UNL d   1      -0.891  -2.447  -3.336  1.00  0.00     0.166 HD
BRANCH  17  21
ATOM     21  C   UNL d   1       2.128  -1.425  -0.044  0.00  0.00     0.418 C 
ATOM     22  F   UNL d   1       1.084  -0.828   0.595  0.00  0.00    -0.166 F 
ATOM     23  F   UNL d   1       3.110  -0.483  -0.111  0.00  0.00    -0.166 F 
ATOM     24  F   UNL d   1       2.589  -2.380   0.811  0.00  0.00    -0.166 F 
ENDBRANCH  17  21
ENDBRANCH  11  14
ENDBRANCH   1   8
BRANCH   5  25
ATOM     25  N   UNL d   1      -2.400  -5.248 -12.442  0.00  0.00    -0.322 N 
ATOM     26  C   UNL d   1      -3.672  -5.262 -12.993  0.00  0.00     0.256 C 
ATOM     27  O   UNL d   1      -4.682  -4.772 -12.499  0.00  0.00    -0.267 OA
ATOM     28  H   UNL d   1      -1.666  -5.733 -12.941  0.00  0.00     0.169 HD
BRANCH  26  29
ATOM     29  C   UNL d   1      -3.821  -5.987 -14.288  0.00  0.00     0.032 A 
ATOM     30  C   UNL d   1      -5.041  -6.638 -14.533  0.00  0.00     0.023 A 
ATOM     31  C   UNL d   1      -5.252  -7.346 -15.723  0.00  0.00    -0.061 A 
ATOM     32  C   UNL d   1      -6.552  -8.050 -15.977  0.00  0.00     0.048 C 
ATOM     33  C   UNL d   1      -4.233  -7.377 -16.680  0.00  0.00     0.007 A 
ATOM     34  C   UNL d   1      -3.024  -6.711 -16.454  0.00  0.00     0.002 A 
ATOM     35  C   UNL d   1      -2.816  -6.014 -15.261  0.00  0.00     0.017 A 
ENDBRANCH  26  29
ENDBRANCH   5  25
TORSDOF 5
