REMARK  6 active torsions:
REMARK  status: ('A' for Active; 'I' for Inactive)
REMARK    1  A    between atoms: N_3  and  C_1 
REMARK    2  A    between atoms: C_2  and  N_3 
REMARK    3  A    between atoms: N_6  and  C_2 
REMARK    4  A    between atoms: C_11  and  C_4 
REMARK    5  A    between atoms: C_12  and  C_5 
REMARK    6  A    between atoms: C_7  and  N_6 
ROOT
ATOM      1  N   UNL d   1       3.048  -0.517   1.367  0.00  0.00    -0.332 N 
ATOM      2  H   UNL d   1       2.961  -1.400   1.851  0.00  0.00     0.168 HD
ENDROOT
BRANCH   1   3
ATOM      3  C   UNL d   1       4.290   0.002   1.482  0.00  0.00     0.176 C 
ATOM      4  S   UNL d   1       5.233   0.550   0.199  0.00  0.00    -0.041 SA
BRANCH   3   5
ATOM      5  N   UNL d   1       4.956  -0.112   2.663  0.00  0.00    -0.333 N 
ATOM      6  H   UNL d   1       5.930   0.113   2.476  0.00  0.00     0.168 HD
BRANCH   5   7
ATOM      7  C   UNL d   1       4.723  -0.435   4.026  0.00  0.00     0.042 A 
ATOM      8  C   UNL d   1       3.526  -0.490   4.773  0.00  0.00    -0.013 A 
ATOM      9  C   UNL d   1       3.614  -0.828   6.159  0.00  0.00     0.042 A 
ATOM     10  C   UNL d   1       2.158  -0.152   4.256  0.00  0.00     0.052 C 
ATOM     11 CL   UNL d   1       2.205  -0.949   7.171  0.00  0.00    -0.084 Cl
ATOM     12  C   UNL d   1       4.833  -1.060   6.799  0.00  0.00     0.024 A 
ATOM     13  C   UNL d   1       6.000  -0.978   6.071  0.00  0.00     0.004 A 
ATOM     14  C   UNL d   1       5.940  -0.673   4.718  0.00  0.00     0.030 A 
ENDBRANCH   5   7
ENDBRANCH   3   5
ENDBRANCH   1   3
BRANCH   1  15
ATOM     15  C   UNL d   1       1.933  -0.187   0.538  0.00  0.00     0.047 C 
ATOM     16  C   UNL d   1       1.122  -1.278   0.131  0.00  0.00    -0.027 C 
ATOM     17  C   UNL d   1      -0.256  -1.081  -0.070  0.00  0.00     0.010 C 
ATOM     18  C   UNL d   1      -0.807   0.186   0.019  0.00  0.00     0.001 C 
ATOM     19  C   UNL d   1       0.025   1.276   0.195  0.00  0.00     0.010 C 
ATOM     20  C   UNL d   1       1.414   1.127   0.422  0.00  0.00    -0.027 C 
BRANCH  16  21
ATOM     21  C   UNL d   1       1.692  -2.623  -0.337  0.00  0.00     0.013 C 
ATOM     22  C   UNL d   1       2.947  -2.473  -1.208  0.00  0.00     0.015 C 
ATOM     23  C   UNL d   1       1.899  -3.646   0.777  0.00  0.00     0.015 C 
ENDBRANCH  16  21
BRANCH  20  24
ATOM     24  C   UNL d   1       2.263   2.396   0.338  0.00  0.00     0.013 C 
ATOM     25  C   UNL d   1       2.518   2.696  -1.151  0.00  0.00     0.015 C 
ATOM     26  C   UNL d   1       1.687   3.648   1.011  0.00  0.00     0.015 C 
ENDBRANCH  20  24
ENDBRANCH   1  15
TORSDOF 6
