REMARK  4 active torsions:
REMARK  status: ('A' for Active; 'I' for Inactive)
REMARK    1  A    between atoms: C_2  and  C_1 
REMARK       I    between atoms: N_5  and  C_2 
REMARK    2  A    between atoms: O_10  and  C_4 
REMARK    3  A    between atoms: C_7  and  C_14 
REMARK       I    between atoms: N_23  and  C_7 
REMARK    4  A    between atoms: C_9  and  O_10 
ROOT
ATOM      1  C   UNL d   1      -0.124   1.210  -0.048  0.00  0.00     0.146 A 
ATOM      2  O   UNL d   1      -0.828   0.085  -0.401  0.00  0.00    -0.282 OA
ATOM      3  C   UNL d   1      -0.005  -0.985  -0.210  0.00  0.00     0.191 A 
ATOM      4  C   UNL d   1       1.161   0.845   0.316  0.00  0.00     0.048 A 
ATOM      5  C   UNL d   1       1.240  -0.560   0.203  0.00  0.00     0.067 A 
ENDROOT
BRANCH   1   6
ATOM      6  C   UNL d   1      -0.694   2.539  -0.186  0.00  0.00     0.277 C 
ATOM      7  N   UNL d   1      -2.073   2.732  -0.055  0.00  0.00    -0.346 N 
ATOM      8  C   UNL d   1      -2.647   4.013  -0.453  0.00  0.00     0.127 C 
ATOM      9  C   UNL d   1      -3.005   1.804   0.588  0.00  0.00     0.127 C 
ATOM     10  C   UNL d   1      -3.276   4.724   0.742  0.00  0.00     0.034 C 
ATOM     11  C   UNL d   1      -4.316   3.833   1.433  0.00  0.00     0.081 C 
ATOM     12  C   UNL d   1      -3.693   2.472   1.785  0.00  0.00     0.034 C 
ATOM     13  O   UNL d   1       0.045   3.503  -0.411  0.00  0.00    -0.265 OA
BRANCH  11  14
ATOM     14  C   UNL d   1      -5.581   3.668   0.596  0.00  0.00     0.219 C 
ATOM     15  O   UNL d   1      -6.039   2.588   0.242  0.00  0.00    -0.273 OA
ATOM     16  N   UNL d   1      -6.223   4.824   0.266  0.00  0.00    -0.370 N 
ATOM     17  H   UNL d   1      -6.017   5.710   0.707  0.00  0.00     0.159 HD
ATOM     18  H   UNL d   1      -7.101   4.732  -0.229  0.00  0.00     0.159 HD
ENDBRANCH  11  14
ENDBRANCH   1   6
BRANCH   3  19
ATOM     19  O   UNL d   1      -0.575  -2.163  -0.462  0.00  0.00    -0.288 OA
BRANCH  19  20
ATOM     20  C   UNL d   1      -0.117  -3.305   0.156  0.00  0.00     0.081 A 
ATOM     21  C   UNL d   1       0.247  -3.329   1.506  0.00  0.00     0.061 A 
ATOM     22  C   UNL d   1       0.678  -4.521   2.084  0.00  0.00     0.038 A 
ATOM     23 CL   UNL d   1       1.165  -4.533   3.735  0.00  0.00    -0.084 Cl
ATOM     24  C   UNL d   1       0.719  -5.697   1.342  0.00  0.00     0.048 A 
ATOM     25  C   UNL d   1       0.319  -5.672   0.007  0.00  0.00     0.038 A 
ATOM     26  C   UNL d   1      -0.100  -4.483  -0.592  0.00  0.00     0.061 A 
ATOM     27 CL   UNL d   1       0.340  -7.130  -0.909  0.00  0.00    -0.084 Cl
ENDBRANCH  19  20
ENDBRANCH   3  19
TORSDOF 4
