REMARK  4 active torsions:
REMARK  status: ('A' for Active; 'I' for Inactive)
REMARK       I    between atoms: C_4  and  N_7 
REMARK    1  A    between atoms: C_17  and  C_4 
REMARK    2  A    between atoms: N_7  and  C_9 
REMARK    3  A    between atoms: C_8  and  O_11 
REMARK    4  A    between atoms: O_11  and  C_17 
ROOT
ATOM      1  C   UNL d   1      -3.723   3.043   0.405  0.00  0.00     0.246 C 
ATOM      2  N   UNL d   1      -3.410   1.915  -0.332  0.00  0.00    -0.325 N 
ATOM      3  O   UNL d   1      -3.032   3.563   1.277  0.00  0.00    -0.271 OA
ATOM      4  H   UNL d   1      -4.065   1.691  -1.076  0.00  0.00     0.169 HD
ENDROOT
BRANCH   1   5
ATOM      5  C   UNL d   1      -5.116   3.599   0.099  0.00  0.00     0.278 C 
BRANCH   5   6
ATOM      6  O   UNL d   1      -5.615   3.156  -1.165  0.00  0.00    -0.340 OA
BRANCH   6   7
ATOM      7  C   UNL d   1      -6.805   3.769  -1.476  0.00  0.00     0.091 A 
ATOM      8  C   UNL d   1      -6.900   4.566  -2.624  0.00  0.00     0.069 A 
ATOM      9  C   UNL d   1      -8.116   5.162  -2.970  0.00  0.00     0.050 A 
ATOM     10 CL   UNL d   1      -5.526   4.851  -3.630  0.00  0.00    -0.081 Cl
ATOM     11  C   UNL d   1      -9.237   4.944  -2.172  0.00  0.00     0.035 A 
ATOM     12  C   UNL d   1      -9.157   4.134  -1.040  0.00  0.00     0.026 A 
ATOM     13 CL   UNL d   1     -10.739   5.671  -2.591  0.00  0.00    -0.084 Cl
ATOM     14  C   UNL d   1      -7.943   3.537  -0.697  0.00  0.00     0.040 A 
ENDBRANCH   6   7
ENDBRANCH   5   6
ENDBRANCH   1   5
BRANCH   2  15
ATOM     15  C   UNL d   1      -2.276   1.088  -0.201  0.00  0.00     0.037 A 
ATOM     16  C   UNL d   1      -1.300   1.256   0.784  0.00  0.00     0.069 A 
ATOM     17  C   UNL d   1      -0.202   0.396   0.847  0.00  0.00     0.104 A 
ATOM     18  C   UNL d   1      -0.083  -0.663  -0.056  0.00  0.00     0.102 A 
ATOM     19  O   UNL d   1       0.721   0.647   1.832  0.00  0.00    -0.346 OA
ATOM     20  O   UNL d   1       0.956  -1.557  -0.038  0.00  0.00    -0.346 OA
ATOM     21  C   UNL d   1      -1.048  -0.839  -1.043  0.00  0.00     0.042 A 
ATOM     22  C   UNL d   1       1.704  -1.472   1.181  0.00  0.00     0.202 C 
ATOM     23  C   UNL d   1       1.956  -0.024   1.566  0.00  0.00     0.202 C 
ATOM     24  C   UNL d   1      -2.141   0.031  -1.114  0.00  0.00     0.032 A 
ENDBRANCH   2  15
TORSDOF 4
