REMARK  5 active torsions:
REMARK  status: ('A' for Active; 'I' for Inactive)
REMARK    1  A    between atoms: C1_2  and  C3_5 
REMARK    2  A    between atoms: C5_7  and  C2_3 
REMARK    3  A    between atoms: O2_11  and  C3_5 
REMARK    4  A    between atoms: O3_15  and  C8_12 
REMARK    5  A    between atoms: C11_16  and  O3_15 
ROOT
ATOM      1  N1  <1> d   1      -0.637  -2.357   0.199  0.00  0.00    -0.391 N 
ATOM      2  C1  <1> d   1      -2.080  -2.196   0.448  0.00  0.00     0.186 C 
ATOM      3  C2  <1> d   1      -0.033  -1.208  -0.455  0.00  0.00     0.173 C 
ATOM      4  S1  <1> d   1      -0.982   0.204   0.211  0.00  0.00    -0.137 SA
ATOM      5  C4  <1> d   1      -2.517  -0.738   0.346  0.00  0.00     0.112 C 
ATOM      6  H1  <1> d   1      -0.364  -3.268  -0.147  0.00  0.00     0.155 HD
ENDROOT
BRANCH   3   7
ATOM      7  C5  <1> d   1      -0.033  -1.288  -1.981  0.00  0.00    -0.026 A 
ATOM      8  C6  <1> d   1      -0.111  -0.133  -2.778  0.00  0.00     0.013 A 
ATOM      9  C9  <1> d   1      -0.175  -0.205  -4.174  0.00  0.00     0.037 A 
ATOM     10  C8  <1> d   1      -0.137  -1.437  -4.818  0.00  0.00     0.068 A 
ATOM     11  C10 <1> d   1       0.024  -2.588  -4.054  0.00  0.00     0.037 A 
ATOM     12  C7  <1> d   1       0.103  -2.516  -2.657  0.00  0.00     0.013 A 
BRANCH  10  13
ATOM     13  O3  <1> d   1      -0.237  -1.639  -6.167  0.00  0.00    -0.352 OA
BRANCH  13  14
ATOM     14  C11 <1> d   1      -0.453  -0.477  -6.969  0.00  0.00     0.171 C 
ATOM     15  C12 <1> d   1      -0.595  -0.905  -8.417  0.00  0.00     0.034 C 
ENDBRANCH  13  14
ENDBRANCH  10  13
ENDBRANCH   3   7
BRANCH   2  16
ATOM     16  C3  <1> d   1      -2.932  -3.106  -0.438  0.00  0.00     0.164 C 
ATOM     17  O1  <1> d   1      -3.577  -4.049   0.005  0.00  0.00    -0.648 OA
BRANCH  16  18
ATOM     18  O2  <1> d   1      -2.916  -2.832  -1.758  0.00  0.00    -0.775 OA
ATOM     19  H8  <1> d   1      -2.341  -2.091  -2.027  0.00  0.00     0.167 HD
ENDBRANCH  16  18
ENDBRANCH   2  16
TORSDOF 5
