REMARK  8 active torsions:
REMARK  status: ('A' for Active; 'I' for Inactive)
REMARK    1  A    between atoms: C_2  and  C_1 
REMARK       I    between atoms: N_12  and  C_2 
REMARK    2  A    between atoms: O_14  and  C_3 
REMARK    3  A    between atoms: O_17  and  C_4 
REMARK    4  A    between atoms: O_18  and  C_5 
REMARK    5  A    between atoms: C_19  and  N_12 
REMARK    6  A    between atoms: C_20  and  N_12 
REMARK    7  A    between atoms: C_15  and  C_20 
REMARK    8  A    between atoms: C_16  and  C_19 
ROOT
ATOM      1  N   UNL d   1       4.634  -2.230   3.621  0.00  0.00    -0.197 NA
ATOM      2  C   UNL d   1       4.996  -1.770   2.619  0.00  0.00     0.060 C 
ATOM      3  C   UNL d   1       5.470  -1.199   1.354  0.00  0.00     0.143 C 
ENDROOT
BRANCH   3   4
ATOM      4  C   UNL d   1       4.776  -1.798   0.126  0.00  0.00     0.140 C 
BRANCH   4   5
ATOM      5  N   UNL d   1       3.306  -1.808   0.166  0.00  0.00    -0.346 N 
ATOM      6  C   UNL d   1       2.654  -0.539   0.042  0.00  0.00     0.254 C 
ATOM      7  O   UNL d   1       3.346   0.480  -0.061  0.00  0.00    -0.267 OA
BRANCH   6   8
ATOM      8  C   UNL d   1       1.147  -0.333   0.035  0.00  0.00     0.037 A 
ATOM      9  C   UNL d   1       0.219  -1.364   0.014  0.00  0.00     0.057 A 
ATOM     10  C   UNL d   1      -1.171  -1.196   0.019  0.00  0.00     0.105 A 
ATOM     11  C   UNL d   1      -1.700   0.099   0.003  0.00  0.00     0.135 A 
ATOM     12  C   UNL d   1      -0.791   1.184   0.034  0.00  0.00     0.105 A 
ATOM     13  C   UNL d   1       0.609   0.960   0.033  0.00  0.00     0.057 A 
BRANCH  10  14
ATOM     14  O   UNL d   1      -2.003  -2.288   0.035  0.00  0.00    -0.353 OA
ATOM     15  C   UNL d   1      -1.435  -3.598   0.051  0.00  0.00     0.210 C 
ENDBRANCH  10  14
BRANCH  11  16
ATOM     16  O   UNL d   1      -3.033   0.411  -0.081  0.00  0.00    -0.351 OA
ATOM     17  C   UNL d   1      -3.998  -0.629  -0.161  0.00  0.00     0.210 C 
ENDBRANCH  11  16
BRANCH  12  18
ATOM     18  O   UNL d   1      -1.124   2.521   0.021  0.00  0.00    -0.353 OA
ATOM     19  C   UNL d   1      -2.342   2.886   0.667  0.00  0.00     0.210 C 
ENDBRANCH  12  18
ENDBRANCH   6   8
BRANCH   5  20
ATOM     20  C   UNL d   1       2.622  -3.106   0.277  0.00  0.00     0.140 C 
BRANCH  20  21
ATOM     21  C   UNL d   1       3.372  -4.432   0.417  0.00  0.00     0.143 C 
ATOM     22  C   UNL d   1       2.381  -5.529   0.524  0.00  0.00     0.060 C 
ATOM     23  N   UNL d   1       1.567  -6.346   0.579  0.00  0.00    -0.197 NA
ENDBRANCH  20  21
ENDBRANCH   5  20
ENDBRANCH   4   5
ENDBRANCH   3   4
TORSDOF 8
