REMARK  1 active torsions:
REMARK  status: ('A' for Active; 'I' for Inactive)
REMARK    1  A    between atoms: C_6  and  C_1 
ROOT
ATOM      1  C   UNL d   1      -1.859  -1.552  -0.080  0.00  0.00     0.097 A 
ATOM      2  C   UNL d   1      -2.326  -0.296  -0.043  0.00  0.00     0.094 A 
ATOM      3  O   UNL d   1      -0.514  -1.888  -0.027  0.00  0.00    -0.308 OA
ATOM      4  C   UNL d   1      -1.375   0.822   0.033  0.00  0.00     0.187 A 
ATOM      5  C   UNL d   1       0.051   0.474   0.025  0.00  0.00     0.048 A 
ATOM      6  C   UNL d   1       0.409  -0.872   0.003  0.00  0.00     0.090 A 
ATOM      7  O   UNL d   1      -1.770   1.980   0.082  0.00  0.00    -0.287 OA
ATOM      8  C   UNL d   1       1.030   1.471   0.029  0.00  0.00     0.018 A 
ATOM      9  C   UNL d   1       1.757  -1.230   0.000  0.00  0.00     0.038 A 
ATOM     10  C   UNL d   1       2.378   1.112   0.015  0.00  0.00     0.001 A 
ATOM     11  C   UNL d   1       2.740  -0.236   0.005  0.00  0.00     0.003 A 
ENDROOT
BRANCH   1  12
ATOM     12  C   UNL d   1      -2.763  -2.655  -0.209  0.00  0.00     0.038 A 
ATOM     13  S   UNL d   1      -2.409  -4.189   0.501  0.00  0.00    -0.099 SA
ATOM     14  C   UNL d   1      -3.864  -4.883  -0.062  0.00  0.00     0.050 A 
ATOM     15  C   UNL d   1      -4.617  -3.988  -0.783  0.00  0.00     0.008 A 
ATOM     16  C   UNL d   1      -3.986  -2.713  -0.866  0.00  0.00     0.022 A 
ENDBRANCH   1  12
TORSDOF 1
