REMARK  0 active torsions:
REMARK  status: ('A' for Active; 'I' for Inactive)
ROOT
ATOM      1  N   UNL d   1      -1.248  -1.119  -0.087  0.00  0.00    -0.299 N 
ATOM      2  C   UNL d   1       0.062  -1.541  -0.050  0.00  0.00     0.260 A 
ATOM      3  C   UNL d   1      -1.670   0.179  -0.094  0.00  0.00     0.179 A 
ATOM      4  C   UNL d   1       1.083  -0.475  -0.018  0.00  0.00     0.059 A 
ATOM      5  N   UNL d   1      -0.711   1.148  -0.077  0.00  0.00    -0.332 N 
ATOM      6  C   UNL d   1       0.657   0.854  -0.041  0.00  0.00     0.050 A 
ATOM      7  S   UNL d   1      -3.286   0.568  -0.122  0.00  0.00    -0.040 SA
ATOM      8  O   UNL d   1       0.364  -2.728  -0.043  0.00  0.00    -0.267 OA
ATOM      9  C   UNL d   1       2.445  -0.783   0.035  0.00  0.00     0.019 A 
ATOM     10  C   UNL d   1       1.593   1.887  -0.022  0.00  0.00     0.030 A 
ATOM     11  C   UNL d   1       3.381   0.252   0.059  0.00  0.00     0.001 A 
ATOM     12  C   UNL d   1       2.956   1.582   0.027  0.00  0.00     0.002 A 
ATOM     13  H   UNL d   1      -1.949  -1.847  -0.105  0.00  0.00     0.171 HD
ATOM     14  H   UNL d   1      -1.022   2.113  -0.084  0.00  0.00     0.168 HD
ENDROOT
TORSDOF 0
