REMARK  3 active torsions:
REMARK  status: ('A' for Active; 'I' for Inactive)
REMARK    1  A    between atoms: N_7  and  C_1 
REMARK    2  A    between atoms: C_15  and  N_9 
REMARK    3  A    between atoms: C_11  and  C_13 
ROOT
ATOM      1  N   UNL d   1      -1.057   2.960   1.074  0.00  0.00    -0.315 N 
ATOM      2  HN  UNL d   1      -0.663   3.833   1.426  1.00  0.00     0.181 HD
ATOM      3  N   UNL d   1      -1.729   2.183   1.783  0.00  0.00    -0.304 N 
ATOM      4  HN  UNL d   1      -2.155   1.320   1.447  1.00  0.00     0.186 HD
ENDROOT
BRANCH   1   5
ATOM      5  C   UNL d   1      -0.884   2.509  -0.303  0.00  0.00     0.260 A 
ATOM      6  C   UNL d   1      -1.486   3.568  -1.215  0.00  0.00     0.123 A 
ATOM      7  N   UNL d   1      -0.602   4.191  -1.942  0.00  0.00    -0.284 N 
ATOM      8  N   UNL d   1      -2.825   3.820  -1.264  0.00  0.00    -0.386 N 
ATOM      9  N   UNL d   1       0.613   3.651  -1.617  0.00  0.00    -0.266 N 
ATOM     10  HN  UNL d   1      -0.780   4.933  -2.618  1.00  0.00     0.188 HD
ATOM     11  C   UNL d   1       0.572   2.636  -0.672  0.00  0.00     0.267 A 
ATOM     12  H   UNL d   1       1.466   3.997  -2.040  0.00  0.00     0.190 HD
ATOM     13  O   UNL d   1       1.520   2.004  -0.241  0.00  0.00    -0.269 OA
ATOM     14  H   UNL d   1      -3.152   4.386  -2.038  0.00  0.00     0.157 HD
ATOM     15  H   UNL d   1      -3.479   3.155  -0.871  0.00  0.00     0.157 HD
ENDBRANCH   1   5
BRANCH   3  16
ATOM     16  C   UNL d   1      -1.821   2.657   3.112  0.00  0.00     0.047 A 
ATOM     17  C   UNL d   1      -2.942   2.321   3.874  0.00  0.00     0.031 A 
ATOM     18  C   UNL d   1      -3.075   2.763   5.200  0.00  0.00     0.010 A 
ATOM     19  C   UNL d   1      -2.086   3.555   5.813  0.00  0.00    -0.051 A 
ATOM     20  C   UNL d   1      -0.959   3.876   5.042  0.00  0.00     0.010 A 
ATOM     21  C   UNL d   1      -0.826   3.429   3.723  0.00  0.00     0.031 A 
BRANCH  19  22
ATOM     22  C   UNL d   1      -2.251   4.040   7.265  0.00  0.00    -0.024 C 
ATOM     23  C   UNL d   1      -1.055   4.883   7.769  0.00  0.00     0.019 C 
ATOM     24  C   UNL d   1      -3.514   4.918   7.384  0.00  0.00     0.019 C 
ATOM     25  C   UNL d   1      -2.388   2.833   8.218  0.00  0.00     0.019 C 
ENDBRANCH  19  22
ENDBRANCH   3  16
TORSDOF 3
