REMARK  0 active torsions:
REMARK  status: ('A' for Active; 'I' for Inactive)
ROOT
ATOM      1  C   UNL d   1       2.281  -1.361   0.002  0.00  0.00     0.208 C 
ATOM      2  N   UNL d   1       2.402  -0.459   1.037  0.00  0.00    -0.289 N 
ATOM      3  S   UNL d   1       3.836  -2.170  -0.190  0.00  0.00     0.209 S 
ATOM      4  N   UNL d   1       1.211  -1.597  -0.682  0.00  0.00    -0.332 N 
ATOM      5  HN  UNL d   1       1.189  -2.288  -1.432  1.00  0.00     0.168 HD
ATOM      6  C   UNL d   1       1.409   0.458   1.296  0.00  0.00     0.262 C 
ATOM      7  C   UNL d   1       0.132   0.215   0.590  0.00  0.00     0.059 A 
ATOM      8  C   UNL d   1       0.078  -0.843  -0.329  0.00  0.00     0.050 A 
ATOM      9  C   UNL d   1       4.427  -1.691   1.418  0.00  0.00     0.169 C 
ATOM     10  C   UNL d   1       3.711  -0.380   1.662  0.00  0.00     0.150 C 
ATOM     11  O   UNL d   1       3.624  -3.602  -0.214  0.00  0.00    -0.220 OA
ATOM     12  O   UNL d   1       4.585  -1.451  -1.197  0.00  0.00    -0.220 OA
ATOM     13  O   UNL d   1       1.549   1.413   2.051  0.00  0.00    -0.267 OA
ATOM     14  C   UNL d   1      -1.000   0.985   0.877  0.00  0.00     0.019 A 
ATOM     15  C   UNL d   1      -1.149  -1.159  -0.913  0.00  0.00     0.030 A 
ATOM     16  C   UNL d   1      -2.216   0.663   0.276  0.00  0.00     0.001 A 
ATOM     17  C   UNL d   1      -2.294  -0.418  -0.604  0.00  0.00     0.002 A 
ENDROOT
TORSDOF 0
