REMARK  3 active torsions:
REMARK  status: ('A' for Active; 'I' for Inactive)
REMARK    1  A    between atoms: C_11  and  C_3 
REMARK    2  A    between atoms: C_12  and  N_4 
REMARK    3  A    between atoms: O_17  and  C_11 
ROOT
ATOM      1  C   UNL d   1      -0.080  -0.715  -0.009  0.00  0.00     0.059 A 
ATOM      2  C   UNL d   1      -0.344   0.632   0.005  0.00  0.00     0.186 A 
ATOM      3  C   UNL d   1      -1.348  -1.349   0.104  0.00  0.00     0.139 A 
ATOM      4  N   UNL d   1      -1.716   0.794   0.053  0.00  0.00    -0.232 N 
ATOM      5  N   UNL d   1      -2.329  -0.418   0.137  0.00  0.00    -0.285 N 
ATOM      6  HN  UNL d   1      -3.331  -0.591   0.209  1.00  0.00     0.188 HD
ATOM      7  C   UNL d   1       1.299  -1.088  -0.109  0.00  0.00    -0.021 A 
ATOM      8  O   UNL d   1       0.521   1.628  -0.007  0.00  0.00    -0.254 OA
ATOM      9  C   UNL d   1       1.848   1.332  -0.022  0.00  0.00     0.307 A 
ATOM     10  C   UNL d   1       2.246  -0.118  -0.096  0.00  0.00     0.093 A 
ATOM     11  O   UNL d   1       2.675   2.237  -0.004  0.00  0.00    -0.258 OA
ATOM     12 BR   UNL d   1       4.095  -0.448  -0.162  0.00  0.00    -0.044 Br
ATOM     13  C   UNL d   1       1.603  -2.546  -0.287  0.00  0.00     0.051 C 
ENDROOT
BRANCH   4  14
ATOM     14  C   UNL d   1      -2.489   1.995   0.029  0.00  0.00     0.059 A 
ATOM     15  C   UNL d   1      -1.900   3.250  -0.191  0.00  0.00     0.031 A 
ATOM     16  C   UNL d   1      -2.680   4.409  -0.212  0.00  0.00     0.002 A 
ATOM     17  C   UNL d   1      -4.055   4.332  -0.013  0.00  0.00     0.000 A 
ATOM     18  C   UNL d   1      -4.654   3.094   0.200  0.00  0.00     0.002 A 
ATOM     19  C   UNL d   1      -3.879   1.929   0.220  0.00  0.00     0.031 A 
ENDBRANCH   4  14
BRANCH   3  20
ATOM     20  C   UNL d   1      -1.687  -2.783   0.209  0.00  0.00     0.312 C 
ATOM     21  O   UNL d   1      -0.889  -3.650   0.557  0.00  0.00    -0.258 OA
BRANCH  20  22
ATOM     22  O   UNL d   1      -2.982  -3.044  -0.143  0.00  0.00    -0.321 OA
ATOM     23  C   UNL d   1      -3.390  -4.414  -0.109  0.00  0.00     0.213 C 
ENDBRANCH  20  22
ENDBRANCH   3  20
TORSDOF 3
