REMARK  3 active torsions:
REMARK  status: ('A' for Active; 'I' for Inactive)
REMARK    1  A    between atoms: C_10  and  C_1 
REMARK    2  A    between atoms: C_11  and  C_4 
REMARK    3  A    between atoms: S_12  and  C_7 
ROOT
ATOM      1  C   UNL d   1      -0.676   1.225  -0.085  0.00  0.00     0.086 A 
ATOM      2  N   UNL d   1      -1.329   0.039  -0.107  0.00  0.00    -0.296 N 
ATOM      3  HN  UNL d   1      -2.347   0.017  -0.167  1.00  0.00     0.187 HD
ATOM      4  C   UNL d   1       0.719   1.218   0.024  0.00  0.00     0.073 A 
ATOM      5  N   UNL d   1       1.432   0.059   0.069  0.00  0.00    -0.333 N 
ATOM      6  HN  UNL d   1       2.450   0.055   0.127  1.00  0.00     0.168 HD
ATOM      7  C   UNL d   1       0.721  -1.078   0.033  0.00  0.00     0.156 A 
ATOM      8  N   UNL d   1      -0.620  -1.127  -0.048  0.00  0.00    -0.280 N 
ATOM      9  HN  UNL d   1      -1.103  -2.025  -0.065  1.00  0.00     0.189 HD
ENDROOT
BRANCH   1  10
ATOM     10  C   UNL d   1      -1.555   2.411  -0.177  0.00  0.00    -0.006 A 
ATOM     11  C   UNL d   1      -2.742   2.468   0.577  0.00  0.00     0.014 A 
ATOM     12  C   UNL d   1      -3.545   3.612   0.583  0.00  0.00     0.001 A 
ATOM     13  C   UNL d   1      -3.179   4.726  -0.165  0.00  0.00     0.000 A 
ATOM     14  C   UNL d   1      -2.034   4.681  -0.953  0.00  0.00     0.001 A 
ATOM     15  C   UNL d   1      -1.247   3.524  -0.980  0.00  0.00     0.014 A 
ENDBRANCH   1  10
BRANCH   4  16
ATOM     16  C   UNL d   1       1.572   2.430   0.070  0.00  0.00    -0.007 A 
ATOM     17  C   UNL d   1       1.276   3.536   0.888  0.00  0.00     0.014 A 
ATOM     18  C   UNL d   1       2.008   4.724   0.796  0.00  0.00     0.001 A 
ATOM     19  C   UNL d   1       3.089   4.811  -0.076  0.00  0.00     0.000 A 
ATOM     20  C   UNL d   1       3.453   3.704  -0.838  0.00  0.00     0.001 A 
ATOM     21  C   UNL d   1       2.704   2.527  -0.762  0.00  0.00     0.014 A 
ENDBRANCH   4  16
BRANCH   7  22
ATOM     22  S   UNL d   1       1.620  -2.595   0.076  0.00  0.00    -0.106 SA
ATOM     23  H   UNL d   1       2.814  -1.990   0.085  0.00  0.00     0.110 HD
ENDBRANCH   7  22
TORSDOF 3
