REMARK  5 active torsions:
REMARK  status: ('A' for Active; 'I' for Inactive)
REMARK       I    between atoms: C_3  and  N_1 
REMARK    1  A    between atoms: C_10  and  C_3 
REMARK    2  A    between atoms: C_4  and  C_12 
REMARK    3  A    between atoms: O_11  and  C_4 
REMARK    4  A    between atoms: S_8  and  C_10 
REMARK    5  A    between atoms: C_12  and  S_8 
ROOT
ATOM      1  N   UNL d   1      -1.184   1.449  -0.202  0.00  0.00    -0.317 N 
ATOM      2  C   UNL d   1       0.052   0.716  -0.071  0.00  0.00     0.043 A 
ATOM      3  C   UNL d   1      -1.239   2.695  -0.836  0.00  0.00     0.233 C 
ATOM      4  C   UNL d   1       0.024  -0.693   0.030  0.00  0.00    -0.031 A 
ATOM      5  O   UNL d   1      -0.262   3.293  -1.317  0.00  0.00    -0.272 OA
ATOM      6  C   UNL d   1      -2.363   0.735   0.320  0.00  0.00     0.132 C 
ATOM      7  C   UNL d   1       1.300   1.356  -0.039  0.00  0.00     0.030 A 
ATOM      8  C   UNL d   1      -2.475  -0.640  -0.313  0.00  0.00     0.025 C 
ATOM      9  C   UNL d   1      -1.264  -1.476   0.070  0.00  0.00     0.042 C 
ATOM     10  C   UNL d   1       1.229  -1.416   0.105  0.00  0.00     0.009 A 
ATOM     11  C   UNL d   1       2.490   0.627   0.038  0.00  0.00     0.002 A 
ATOM     12  C   UNL d   1       2.456  -0.759   0.095  0.00  0.00     0.001 A 
ENDROOT
BRANCH   3  13
ATOM     13  C   UNL d   1      -2.575   3.417  -0.954  0.00  0.00     0.177 C 
BRANCH  13  14
ATOM     14  S   UNL d   1      -2.829   4.523   0.471  0.00  0.00    -0.149 SA
BRANCH  14  15
ATOM     15  C   UNL d   1      -1.379   5.627   0.322  0.00  0.00     0.184 C 
BRANCH  15  16
ATOM     16  C   UNL d   1      -1.361   6.399  -0.978  0.00  0.00     0.149 C 
ATOM     17  O   UNL d   1      -1.951   7.458  -1.154  0.00  0.00    -0.649 OA
BRANCH  16  18
ATOM     18  O   UNL d   1      -0.642   5.813  -1.964  0.00  0.00    -0.776 OA
ATOM     19  H   UNL d   1      -0.250   4.933  -1.737  0.00  0.00     0.167 HD
ENDBRANCH  16  18
ENDBRANCH  15  16
ENDBRANCH  14  15
ENDBRANCH  13  14
ENDBRANCH   3  13
TORSDOF 5
