REMARK  2 active torsions:
REMARK  status: ('A' for Active; 'I' for Inactive)
REMARK    1  A    between atoms: C_5  and  C_1 
REMARK    2  A    between atoms: S_14  and  C_8 
ROOT
ATOM      1  C   UNL d   1       3.089  -1.392  -0.029  0.00  0.00     0.134 A 
ATOM      2  O   UNL d   1       5.936  -0.811  -0.401  0.00  0.00    -0.310 OA
ATOM      3  C   UNL d   1       3.720  -1.119  -1.380  0.00  0.00    -0.008 A 
ATOM      4  C   UNL d   1       4.091  -1.341   1.108  0.00  0.00    -0.008 A 
ATOM      5  C   UNL d   1       5.433  -1.058   0.851  0.00  0.00     0.083 A 
ATOM      6  C   UNL d   1       5.083  -0.834  -1.475  0.00  0.00     0.083 A 
ATOM      7  C   UNL d   1       2.951  -1.140  -2.560  0.00  0.00     0.011 A 
ATOM      8  C   UNL d   1       3.693  -1.578   2.437  0.00  0.00     0.011 A 
ATOM      9  C   UNL d   1       6.360  -1.004   1.895  0.00  0.00     0.038 A 
ATOM     10  C   UNL d   1       5.664  -0.543  -2.712  0.00  0.00     0.038 A 
ATOM     11  C   UNL d   1       4.619  -1.512   3.481  0.00  0.00     0.001 A 
ATOM     12  C   UNL d   1       3.531  -0.837  -3.793  0.00  0.00     0.001 A 
ATOM     13  C   UNL d   1       5.954  -1.226   3.210  0.00  0.00     0.003 A 
ATOM     14  C   UNL d   1       4.887  -0.534  -3.869  0.00  0.00     0.003 A 
ENDROOT
BRANCH   1  15
ATOM     15  C   UNL d   1       1.926  -0.481   0.233  0.00  0.00     0.154 A 
ATOM     16  O   UNL d   1       2.147   0.872   0.216  0.00  0.00    -0.271 OA
ATOM     17  C   UNL d   1       0.909   1.362   0.529  0.00  0.00     0.200 A 
ATOM     18  N   UNL d   1       0.019   0.409   0.709  0.00  0.00    -0.272 N 
ATOM     19  N   UNL d   1       0.677  -0.791   0.515  0.00  0.00    -0.280 N 
ATOM     20  HN  UNL d   1      -0.965   0.532   0.946  1.00  0.00     0.189 HD
ATOM     21  HN  UNL d   1       0.277  -1.727   0.578  1.00  0.00     0.189 HD
BRANCH  17  22
ATOM     22  S   UNL d   1       0.582   3.056   0.672  0.00  0.00    -0.098 SA
ATOM     23  H   UNL d   1       1.804   3.476   0.320  0.00  0.00     0.110 HD
ENDBRANCH  17  22
ENDBRANCH   1  15
TORSDOF 2
