REMARK  2 active torsions:
REMARK  status: ('A' for Active; 'I' for Inactive)
REMARK    1  A    between atoms: N_2  and  C_1 
REMARK    2  A    between atoms: C_4  and  N_2 
ROOT
ATOM      1  C   UNL d   1       1.030   1.632  -2.037  0.00  0.00     0.037 A 
ATOM      2  C   UNL d   1       2.118   1.176  -2.781  0.00  0.00     0.071 A 
ATOM      3  C   UNL d   1       2.608   1.945  -3.833  0.00  0.00     0.118 A 
ATOM      4  F   UNL d   1       3.659   1.502  -4.537  0.00  0.00    -0.206 F 
ATOM      5  C   UNL d   1       0.915   3.603  -3.460  0.00  0.00     0.005 A 
ATOM      6  C   UNL d   1       0.410   2.833  -2.407  0.00  0.00     0.029 A 
ATOM      7  C   UNL d   1       2.027   3.161  -4.170  0.00  0.00     0.042 A 
ENDROOT
BRANCH   1   8
ATOM      8  N   UNL d   1       0.484   0.939  -0.941  0.00  0.00    -0.333 N 
ATOM      9  H   UNL d   1      -0.463   1.187  -0.678  0.00  0.00     0.168 HD
BRANCH   8  10
ATOM     10  C   UNL d   1       1.022  -0.008  -0.132  0.00  0.00     0.169 C 
ATOM     11  S   UNL d   1       0.068  -0.839   0.947  0.00  0.00    -0.041 SA
ATOM     12  N   UNL d   1       2.350  -0.229  -0.162  0.00  0.00    -0.376 N 
ATOM     13  H   UNL d   1       2.954   0.544  -0.416  0.00  0.00     0.158 HD
ATOM     14  H   UNL d   1       2.719  -0.839   0.558  0.00  0.00     0.158 HD
ENDBRANCH   8  10
ENDBRANCH   1   8
TORSDOF 2
