REMARK  2 active torsions:
REMARK  status: ('A' for Active; 'I' for Inactive)
REMARK    1  A    between atoms: C_2  and  C_1 
REMARK       I    between atoms: N_3  and  C_2 
REMARK    2  A    between atoms: N_6  and  C_10 
ROOT
ATOM      1  C   UNL d   1      -2.871  -2.432  -0.434  0.00  0.00     0.264 C 
ATOM      2  N   UNL d   1      -2.720  -3.816  -0.364  0.00  0.00    -0.313 N 
ATOM      3  C   UNL d   1      -1.989  -4.505   0.631  0.00  0.00     0.044 A 
ATOM      4  C   UNL d   1      -2.022  -5.882   0.386  0.00  0.00    -0.027 A 
ATOM      5  C   UNL d   1      -0.685  -6.287   2.323  0.00  0.00     0.103 A 
ATOM      6  C   UNL d   1      -3.216  -4.822  -1.327  0.00  0.00     0.137 A 
ATOM      7  C   UNL d   1      -1.368  -6.789   1.208  0.00  0.00     0.045 A 
ATOM      8  C   UNL d   1      -1.331  -4.008   1.746  0.00  0.00     0.033 A 
ATOM      9  O   UNL d   1      -2.251  -1.628   0.262  0.00  0.00    -0.267 OA
ATOM     10  C   UNL d   1      -2.870  -6.213  -0.794  0.00  0.00     0.061 A 
ATOM     11  C   UNL d   1      -0.675  -4.906   2.601  0.00  0.00     0.038 A 
ENDROOT
BRANCH   1  12
ATOM     12  C   UNL d   1      -3.885  -1.907  -1.402  0.00  0.00     0.108 C 
ATOM     13  C   UNL d   1      -4.961  -1.010  -0.910  0.00  0.00     0.304 C 
ATOM     14  O   UNL d   1      -5.876  -0.548  -1.858  0.00  0.00    -0.274 OA
ATOM     15  O   UNL d   1      -5.072  -0.684   0.266  0.00  0.00    -0.259 OA
ATOM     16  C   UNL d   1      -5.887  -1.044  -3.173  0.00  0.00     0.089 A 
ATOM     17  C   UNL d   1      -4.863  -1.869  -3.619  0.00  0.00    -0.001 A 
ATOM     18  C   UNL d   1      -6.975  -0.724  -3.980  0.00  0.00     0.038 A 
ATOM     19  C   UNL d   1      -3.781  -2.200  -2.709  0.00  0.00     0.037 C 
ATOM     20  C   UNL d   1      -4.946  -2.418  -4.901  0.00  0.00     0.014 A 
ATOM     21  C   UNL d   1      -6.046  -2.130  -5.713  0.00  0.00     0.001 A 
ATOM     22  C   UNL d   1      -7.055  -1.278  -5.257  0.00  0.00     0.003 A 
ENDBRANCH   1  12
BRANCH   5  23
ATOM     23  N   UNL d   1       0.017  -7.219   3.214  0.00  0.00    -0.116 N 
ATOM     24  O   UNL d   1       0.030  -8.418   2.898  0.00  0.00    -0.532 OA
ATOM     25  O   UNL d   1       0.557  -6.752   4.230  0.00  0.00    -0.532 OA
ENDBRANCH   5  23
TORSDOF 2
