REMARK  6 active torsions:
REMARK  status: ('A' for Active; 'I' for Inactive)
REMARK    1  A    between atoms: C_2  and  N_13 
REMARK    2  A    between atoms: C_17  and  N_3 
REMARK    3  A    between atoms: C_18  and  C_4 
REMARK    4  A    between atoms: S_15  and  C_7 
REMARK       I    between atoms: N_13  and  C_16 
REMARK    5  A    between atoms: C_22  and  S_15 
REMARK    6  A    between atoms: C_16  and  C_22 
ROOT
ATOM      1  N   UNL d   1       1.934  -5.187  -0.295  0.00  0.00    -0.311 N 
ATOM      2  C   UNL d   1       2.758  -4.205   0.240  0.00  0.00     0.233 C 
ATOM      3  O   UNL d   1       3.821  -4.421   0.818  0.00  0.00    -0.272 OA
ATOM      4  H   UNL d   1       1.121  -4.913  -0.837  0.00  0.00     0.170 HD
ENDROOT
BRANCH   2   5
ATOM      5  C   UNL d   1       2.216  -2.798   0.011  0.00  0.00     0.185 C 
BRANCH   5   6
ATOM      6  S   UNL d   1       3.575  -1.649  -0.359  0.00  0.00    -0.083 SA
BRANCH   6   7
ATOM      7  C   UNL d   1       2.838  -0.134   0.015  0.00  0.00     0.163 A 
ATOM      8  N   UNL d   1       3.542   1.023   0.209  0.00  0.00    -0.315 N 
ATOM      9  C   UNL d   1       2.603   1.989   0.526  0.00  0.00     0.134 A 
ATOM     10  C   UNL d   1       4.975   1.169   0.151  0.00  0.00     0.160 C 
ATOM     11  N   UNL d   1       1.410   1.413   0.505  0.00  0.00    -0.283 N 
ATOM     12  N   UNL d   1       1.558   0.088   0.177  0.00  0.00    -0.278 N 
ATOM     13  HN  UNL d   1       0.524   1.879   0.701  1.00  0.00     0.188 HD
ATOM     14  HN  UNL d   1       0.809  -0.597   0.078  1.00  0.00     0.189 HD
BRANCH   9  15
ATOM     15  C   UNL d   1       2.842   3.382   0.925  0.00  0.00     0.012 A 
ATOM     16  C   UNL d   1       3.833   4.185   0.354  0.00  0.00     0.032 A 
ATOM     17  C   UNL d   1       4.027   5.463   0.856  0.00  0.00     0.088 A 
ATOM     18  N   UNL d   1       3.289   6.001   1.848  0.00  0.00    -0.375 N 
ATOM     19  C   UNL d   1       2.299   5.235   2.350  0.00  0.00     0.088 A 
ATOM     20  HN  UNL d   1       3.472   6.940   2.202  1.00  0.00     0.164 HD
ATOM     21  C   UNL d   1       2.039   3.943   1.925  0.00  0.00     0.032 A 
ENDBRANCH   9  15
ENDBRANCH   6   7
ENDBRANCH   5   6
ENDBRANCH   2   5
BRANCH   1  22
ATOM     22  C   UNL d   1       2.306  -6.528  -0.320  0.00  0.00     0.132 C 
ATOM     23  N   UNL d   1       1.850  -7.445  -1.268  0.00  0.00    -0.240 N 
ATOM     24  N   UNL d   1       2.195  -8.716  -0.933  0.00  0.00    -0.297 N 
ATOM     25  C   UNL d   1       3.078  -8.571   0.057  0.00  0.00     0.026 C 
ATOM     26  HN  UNL d   1       1.855  -9.585  -1.346  1.00  0.00     0.187 HD
ATOM     27  C   UNL d   1       3.154  -7.239   0.501  0.00  0.00     0.076 C 
ATOM     28  C   UNL d   1       3.853  -9.737   0.552  0.00  0.00     0.070 C 
BRANCH  23  29
ATOM     29  C   UNL d   1       1.232  -7.184  -2.526  0.00  0.00     0.058 A 
ATOM     30  C   UNL d   1       1.417  -5.954  -3.176  0.00  0.00     0.031 A 
ATOM     31  C   UNL d   1       0.826  -5.714  -4.417  0.00  0.00     0.002 A 
ATOM     32  C   UNL d   1       0.063  -6.711  -5.025  0.00  0.00     0.000 A 
ATOM     33  C   UNL d   1      -0.098  -7.947  -4.400  0.00  0.00     0.002 A 
ATOM     34  C   UNL d   1       0.492  -8.191  -3.157  0.00  0.00     0.031 A 
ENDBRANCH  23  29
ENDBRANCH   1  22
TORSDOF 6
