REMARK  6 active torsions:
REMARK  status: ('A' for Active; 'I' for Inactive)
REMARK    1  A    between atoms: C_10  and  N_1 
REMARK    2  A    between atoms: C_9  and  C_2 
REMARK    3  A    between atoms: N_13  and  C_11 
REMARK    4  A    between atoms: C_12  and  N_13 
REMARK    5  A    between atoms: O_20  and  C_14 
REMARK    6  A    between atoms: O_21  and  C_17 
ROOT
ATOM      1  N   UNL d   1       3.982   0.636  -0.245  0.00  0.00    -0.223 N 
ATOM      2  C   UNL d   1       3.783  -0.726   0.040  0.00  0.00     0.145 C 
ATOM      3  N   UNL d   1       5.888  -0.355  -0.285  0.00  0.00    -0.226 N 
ATOM      4  HN  UNL d   1       6.892  -0.519  -0.351  1.00  0.00     0.210 HD
ATOM      5  N   UNL d   1       5.302   0.802  -0.530  0.00  0.00    -0.219 N 
ATOM      6  HN  UNL d   1       5.751   1.654  -0.867  1.00  0.00     0.210 HD
ATOM      7  N   UNL d   1       4.974  -1.299   0.068  0.00  0.00    -0.268 N 
ATOM      8  HN  UNL d   1       5.172  -2.270   0.309  1.00  0.00     0.190 HD
ENDROOT
BRANCH   2   9
ATOM      9  C   UNL d   1       2.499  -1.331   0.125  0.00  0.00     0.063 C 
ATOM     10  C   UNL d   1       2.282  -2.611   0.467  0.00  0.00     0.066 C 
BRANCH  10  11
ATOM     11  N   UNL d   1       3.122  -3.648   0.822  0.00  0.00    -0.267 NA
ATOM     12  H   UNL d   1       2.725  -4.551   0.561  0.00  0.00     0.133 HD
BRANCH  11  13
ATOM     13  C   UNL d   1       3.702  -3.846   2.111  0.00  0.00     0.045 A 
ATOM     14  C   UNL d   1       4.475  -4.998   2.397  0.00  0.00     0.089 A 
ATOM     15  C   UNL d   1       4.969  -5.207   3.694  0.00  0.00     0.038 A 
ATOM     16  C   UNL d   1       4.735  -4.285   4.711  0.00  0.00     0.003 A 
ATOM     17  C   UNL d   1       4.012  -3.132   4.433  0.00  0.00     0.002 A 
ATOM     18  C   UNL d   1       3.518  -2.909   3.144  0.00  0.00     0.026 A 
BRANCH  14  19
ATOM     19  O   UNL d   1       4.752  -6.051   1.560  0.00  0.00    -0.354 OA
ATOM     20  C   UNL d   1       4.928  -5.790   0.174  0.00  0.00     0.210 C 
ENDBRANCH  14  19
ENDBRANCH  11  13
ENDBRANCH  10  11
ENDBRANCH   2   9
BRANCH   1  21
ATOM     21  C   UNL d   1       3.118   1.774  -0.292  0.00  0.00     0.060 A 
ATOM     22  C   UNL d   1       1.870   1.812   0.340  0.00  0.00     0.034 A 
ATOM     23  C   UNL d   1       1.049   2.950   0.233  0.00  0.00     0.039 A 
ATOM     24  C   UNL d   1       1.474   4.066  -0.487  0.00  0.00     0.068 A 
ATOM     25  C   UNL d   1       2.738   4.053  -1.068  0.00  0.00     0.039 A 
ATOM     26  C   UNL d   1       3.558   2.924  -0.972  0.00  0.00     0.034 A 
BRANCH  24  27
ATOM     27  O   UNL d   1       0.769   5.221  -0.680  0.00  0.00    -0.356 OA
ATOM     28  C   UNL d   1      -0.595   5.224  -0.279  0.00  0.00     0.210 C 
ENDBRANCH  24  27
ENDBRANCH   1  21
TORSDOF 6
