REMARK  4 active torsions:
REMARK  status: ('A' for Active; 'I' for Inactive)
REMARK       I    between atoms: C_6  and  N_1 
REMARK       I    between atoms: C_7  and  N_1 
REMARK    1  A    between atoms: C_3  and  C_10 
REMARK    2  A    between atoms: C_11  and  C_6 
REMARK       I    between atoms: N_12  and  C_7 
REMARK    3  A    between atoms: C_19  and  N_12 
REMARK    4  A    between atoms: C_22  and  C_19 
ROOT
ATOM      1  N   UNL d   1       1.252  -0.088   0.026  0.00  0.00    -0.275 N 
ATOM      2  C   UNL d   1       0.541  -0.848  -0.884  0.00  0.00     0.259 C 
ATOM      3  C   UNL d   1       2.604   0.167  -0.066  0.00  0.00     0.323 C 
ATOM      4  N   UNL d   1       3.077   0.854   1.033  0.00  0.00    -0.339 N 
ATOM      5  O   UNL d   1       0.975  -1.317  -1.929  0.00  0.00    -0.267 OA
ATOM      6  O   UNL d   1       3.336  -0.157  -0.991  0.00  0.00    -0.247 OA
ATOM      7  H   UNL d   1       0.748   0.397   0.746  0.00  0.00     0.173 HD
ATOM      8  H   UNL d   1       2.507   0.926   1.860  0.00  0.00     0.164 HD
ENDROOT
BRANCH   2   9
ATOM      9  C   UNL d   1      -0.894  -1.092  -0.564  0.00  0.00     0.032 A 
ATOM     10  C   UNL d   1      -1.784  -1.247  -1.634  0.00  0.00     0.018 A 
ATOM     11  C   UNL d   1      -3.122  -1.583  -1.406  0.00  0.00     0.015 A 
ATOM     12  C   UNL d   1      -3.593  -1.784  -0.102  0.00  0.00    -0.008 A 
ATOM     13  C   UNL d   1      -2.702  -1.604   0.969  0.00  0.00     0.015 A 
ATOM     14  C   UNL d   1      -1.359  -1.265   0.745  0.00  0.00     0.018 A 
BRANCH  12  15
ATOM     15  C   UNL d   1      -4.970  -2.190   0.156  0.00  0.00     0.063 A 
ATOM     16  N   UNL d   1      -5.598  -1.890   1.361  0.00  0.00    -0.292 N 
ATOM     17  N   UNL d   1      -6.837  -2.352   1.404  0.00  0.00    -0.061 NA
ATOM     18  HN  UNL d   1      -5.155  -1.374   2.122  1.00  0.00     0.183 HD
ATOM     19  S   UNL d   1      -7.274  -3.172   0.015  0.00  0.00    -0.010 SA
ATOM     20  C   UNL d   1      -5.747  -2.921  -0.728  0.00  0.00     0.096 A 
ENDBRANCH  12  15
ENDBRANCH   2   9
BRANCH   4  21
ATOM     21  C   UNL d   1       4.483   1.168   1.170  0.00  0.00     0.162 C 
BRANCH  21  22
ATOM     22  C   UNL d   1       4.680   2.648   1.364  0.00  0.00    -0.039 A 
ATOM     23  C   UNL d   1       4.649   3.218   2.645  0.00  0.00     0.032 A 
ATOM     24  C   UNL d   1       4.807   4.596   2.801  0.00  0.00     0.034 A 
ATOM     25 CL   UNL d   1       4.762   5.283   4.379  0.00  0.00    -0.084 Cl
ATOM     26  C   UNL d   1       4.994   5.419   1.693  0.00  0.00     0.024 A 
ATOM     27  C   UNL d   1       5.023   4.862   0.416  0.00  0.00     0.002 A 
ATOM     28  C   UNL d   1       4.862   3.485   0.252  0.00  0.00     0.009 A 
ENDBRANCH  21  22
ENDBRANCH   4  21
TORSDOF 4
