REMARK  4 active torsions:
REMARK  status: ('A' for Active; 'I' for Inactive)
REMARK    1  A    between atoms: C_9  and  C_3 
REMARK    2  A    between atoms: N_10  and  C_4 
REMARK    3  A    between atoms: C_14  and  N_10 
REMARK    4  A    between atoms: C_16  and  C_14 
ROOT
ATOM      1  N   UNL d   1      -1.701   1.271   0.074  0.00  0.00    -0.327 N 
ATOM      2  HN  UNL d   1      -2.255   2.126   0.136  1.00  0.00     0.169 HD
ATOM      3  C   UNL d   1      -2.286   0.060   0.076  0.00  0.00     0.118 A 
ATOM      4  C   UNL d   1      -0.356   1.316  -0.013  0.00  0.00     0.127 A 
ATOM      5  N   UNL d   1      -1.613  -1.105   0.024  0.00  0.00    -0.344 N 
ATOM      6  HN  UNL d   1      -2.105  -1.999   0.040  1.00  0.00     0.167 HD
ATOM      7  C   UNL d   1       0.418   0.154  -0.097  0.00  0.00     0.100 A 
ATOM      8  C   UNL d   1      -0.263  -1.051  -0.051  0.00  0.00     0.032 A 
ATOM      9 CL   UNL d   1       2.142   0.246  -0.203  0.00  0.00    -0.078 Cl
ATOM     10  C   UNL d   1       0.412  -2.392  -0.044  0.00  0.00     0.070 C 
ENDROOT
BRANCH   4  11
ATOM     11  N   UNL d   1       0.280   2.557   0.064  0.00  0.00    -0.371 N 
ATOM     12  H   UNL d   1       0.925   2.708  -0.707  0.00  0.00     0.161 HD
BRANCH  11  13
ATOM     13  C   UNL d   1      -0.503   3.728   0.414  0.00  0.00     0.160 C 
BRANCH  13  14
ATOM     14  C   UNL d   1       0.446   4.826   0.848  0.00  0.00    -0.041 A 
ATOM     15  C   UNL d   1       0.339   6.123   0.330  0.00  0.00     0.009 A 
ATOM     16  C   UNL d   1       1.212   7.129   0.759  0.00  0.00     0.001 A 
ATOM     17  C   UNL d   1       2.194   6.851   1.709  0.00  0.00     0.000 A 
ATOM     18  C   UNL d   1       2.304   5.569   2.238  0.00  0.00     0.001 A 
ATOM     19  C   UNL d   1       1.434   4.565   1.814  0.00  0.00     0.009 A 
ENDBRANCH  13  14
ENDBRANCH  11  13
ENDBRANCH   4  11
BRANCH   3  20
ATOM     20  C   UNL d   1      -3.750  -0.008   0.152  0.00  0.00     0.023 A 
ATOM     21  C   UNL d   1      -4.546   1.139   0.098  0.00  0.00     0.102 A 
ATOM     22  N   UNL d   1      -5.904   1.152   0.166  0.00  0.00    -0.374 N 
ATOM     23  C   UNL d   1      -6.515  -0.041   0.300  0.00  0.00     0.087 A 
ATOM     24  HN  UNL d   1      -6.434   2.022   0.118  1.00  0.00     0.164 HD
ATOM     25  C   UNL d   1      -5.836  -1.244   0.363  0.00  0.00     0.018 A 
ATOM     26  C   UNL d   1      -4.444  -1.221   0.287  0.00  0.00     0.018 A 
ENDBRANCH   3  20
TORSDOF 4
