REMARK  1 active torsions:
REMARK  status: ('A' for Active; 'I' for Inactive)
REMARK    1  A    between atoms: O_20  and  C_15 
ROOT
ATOM      1  C   UNL d   1      -0.605  -0.654  -0.260  0.00  0.00     0.021 C 
ATOM      2  C   UNL d   1      -0.957  -2.299  -4.137  0.00  0.00    -0.047 C 
ATOM      3  C   UNL d   1      -0.274   0.374  -1.380  0.00  0.00     0.006 C 
ATOM      4  C   UNL d   1      -0.138  -1.421  -3.204  0.00  0.00     0.024 C 
ATOM      5  C   UNL d   1      -0.791  -0.057  -2.796  0.00  0.00    -0.000 C 
ATOM      6  C   UNL d   1      -2.289  -2.026  -4.432  0.00  0.00    -0.049 C 
ATOM      7  C   UNL d   1      -0.391  -3.507  -4.588  0.00  0.00     0.017 C 
ATOM      8  C   UNL d   1      -1.891  -0.078   0.312  0.00  0.00     0.135 C 
ATOM      9  C   UNL d   1      -0.756  -2.072  -0.815  0.00  0.00     0.018 C 
ATOM     10  C   UNL d   1       0.239  -2.269  -1.956  0.00  0.00     0.011 C 
ATOM     11  C   UNL d   1      -1.184  -4.527  -5.119  0.00  0.00    -0.028 C 
ATOM     12  C   UNL d   1      -3.094  -3.041  -4.968  0.00  0.00     0.044 C 
ATOM     13  C   UNL d   1      -0.826   1.705  -0.854  0.00  0.00     0.013 C 
ATOM     14  C   UNL d   1      -2.328  -0.036  -2.926  0.00  0.00     0.010 C 
ATOM     15  C   UNL d   1      -2.559  -4.310  -5.217  0.00  0.00     0.074 C 
ATOM     16  C   UNL d   1      -2.842  -0.648  -4.217  0.00  0.00     0.039 C 
ATOM     17  C   UNL d   1      -2.072   1.379  -0.036  0.00  0.00     0.079 C 
ATOM     18  O   UNL d   1      -2.686  -0.708   0.999  0.00  0.00    -0.297 OA
ATOM     19  C   UNL d   1       0.433  -0.644   0.871  0.00  0.00     0.024 C 
ATOM     20  C   UNL d   1      -0.562  -5.859  -5.424  0.00  0.00     0.051 C 
ENDROOT
BRANCH  15  21
ATOM     21  O   UNL d   1      -3.352  -5.370  -5.576  0.00  0.00    -0.355 OA
ATOM     22  C   UNL d   1      -4.448  -5.550  -4.676  0.00  0.00     0.210 C 
ENDBRANCH  15  21
TORSDOF 1
