REMARK  0 active torsions:
REMARK  status: ('A' for Active; 'I' for Inactive)
ROOT
ATOM      1  N   UNL d   1      -0.254   0.677   0.069  0.00  0.00    -0.229 N 
ATOM      2  C   UNL d   1      -0.306  -0.683   0.003  0.00  0.00     0.193 A 
ATOM      3  C   UNL d   1       0.899  -1.464   0.013  0.00  0.00     0.220 C 
ATOM      4  N   UNL d   1       0.923   1.393   0.198  0.00  0.00    -0.296 N 
ATOM      5  N   UNL d   1      -1.559  -1.075  -0.081  0.00  0.00    -0.280 N 
ATOM      6  HN  UNL d   1      -1.890  -2.037  -0.142  1.00  0.00     0.189 HD
ATOM      7  N   UNL d   1      -2.346   0.067  -0.071  0.00  0.00    -0.292 N 
ATOM      8  HN  UNL d   1      -3.364   0.097  -0.126  1.00  0.00     0.187 HD
ATOM      9  C   UNL d   1       2.168  -0.667   0.020  0.00  0.00     0.085 C 
ATOM     10  C   UNL d   1      -1.543   1.107   0.024  0.00  0.00     0.225 A 
ATOM     11  C   UNL d   1       2.116   0.681   0.076  0.00  0.00     0.026 C 
ATOM     12  O   UNL d   1       0.971  -2.691  -0.009  0.00  0.00    -0.284 OA
ATOM     13  C   UNL d   1       3.381   1.496   0.025  0.00  0.00     0.070 C 
ATOM     14  H   UNL d   1       0.918   2.315  -0.232  0.00  0.00     0.187 HD
ENDROOT
TORSDOF 0
