REMARK  5 active torsions:
REMARK  status: ('A' for Active; 'I' for Inactive)
REMARK    1  A    between atoms: C_15  and  C_3 
REMARK    2  A    between atoms: O_11  and  C_4 
REMARK    3  A    between atoms: N_10  and  C_13 
REMARK    4  A    between atoms: C_12  and  O_11 
REMARK    5  A    between atoms: C_17  and  C_12 
ROOT
ATOM      1  N   UNL d   1       0.819   0.252  -0.126  0.00  0.00    -0.280 N 
ATOM      2  C   UNL d   1       1.783   1.267  -0.109  0.00  0.00     0.266 A 
ATOM      3  C   UNL d   1       3.213   0.785  -0.247  0.00  0.00     0.078 A 
ATOM      4  C   UNL d   1       3.532  -0.531  -0.358  0.00  0.00     0.108 A 
ATOM      5  C   UNL d   1       1.179  -1.076  -0.191  0.00  0.00     0.066 A 
ATOM      6  C   UNL d   1      -0.560   0.324  -0.088  0.00  0.00     0.027 A 
ATOM      7  C   UNL d   1       2.481  -1.568  -0.296  0.00  0.00     0.027 A 
ATOM      8  C   UNL d   1      -1.064  -0.966  -0.055  0.00  0.00    -0.022 A 
ATOM      9  C   UNL d   1       0.038  -1.861  -0.103  0.00  0.00     0.000 A 
ATOM     10  O   UNL d   1       1.440   2.437  -0.011  0.00  0.00    -0.267 OA
ATOM     11  C   UNL d   1       2.614  -2.960  -0.295  0.00  0.00     0.017 A 
ATOM     12  C   UNL d   1      -1.374   1.576  -0.051  0.00  0.00     0.058 C 
ATOM     13  C   UNL d   1       0.198  -3.256  -0.088  0.00  0.00     0.014 A 
ATOM     14  C   UNL d   1      -2.529  -1.256  -0.017  0.00  0.00     0.041 C 
ATOM     15  C   UNL d   1       1.492  -3.790  -0.177  0.00  0.00     0.002 A 
ATOM     16  C   UNL d   1      -2.851   1.254  -0.351  0.00  0.00     0.006 C 
ATOM     17  C   UNL d   1      -3.337  -0.008   0.381  0.00  0.00     0.005 C 
ENDROOT
BRANCH   4  18
ATOM     18  O   UNL d   1       4.854  -0.964  -0.657  0.00  0.00    -0.273 OA
BRANCH  18  19
ATOM     19  C   UNL d   1       5.526  -1.603   0.344  0.00  0.00     0.298 C 
ATOM     20  O   UNL d   1       5.124  -1.795   1.485  0.00  0.00    -0.259 OA
BRANCH  19  21
ATOM     21  C   UNL d   1       6.839  -2.139  -0.136  0.00  0.00     0.040 A 
ATOM     22  C   UNL d   1       7.475  -3.118   0.655  0.00  0.00     0.020 A 
ATOM     23  C   UNL d   1       8.721  -3.642   0.289  0.00  0.00     0.037 A 
ATOM     24  C   UNL d   1       9.338  -3.187  -0.879  0.00  0.00     0.102 A 
ATOM     25  C   UNL d   1       8.716  -2.222  -1.687  0.00  0.00     0.037 A 
ATOM     26  C   UNL d   1       7.467  -1.699  -1.312  0.00  0.00     0.020 A 
BRANCH  24  27
ATOM     27  N   UNL d   1      10.649  -3.719  -1.256  0.00  0.00    -0.116 N 
ATOM     28  O   UNL d   1      11.383  -4.126  -0.344  0.00  0.00    -0.532 OA
ATOM     29  O   UNL d   1      10.939  -3.729  -2.460  0.00  0.00    -0.532 OA
ENDBRANCH  24  27
ENDBRANCH  19  21
ENDBRANCH  18  19
ENDBRANCH   4  18
BRANCH   3  30
ATOM     30  C   UNL d   1       4.246   1.839  -0.235  0.00  0.00    -0.018 A 
ATOM     31  C   UNL d   1       4.601   2.513  -1.409  0.00  0.00     0.012 A 
ATOM     32  C   UNL d   1       5.460   3.613  -1.351  0.00  0.00     0.001 A 
ATOM     33  C   UNL d   1       5.966   4.043  -0.124  0.00  0.00     0.000 A 
ATOM     34  C   UNL d   1       5.626   3.368   1.047  0.00  0.00     0.001 A 
ATOM     35  C   UNL d   1       4.771   2.267   0.992  0.00  0.00     0.012 A 
ENDBRANCH   3  30
TORSDOF 5
