REMARK  3 active torsions:
REMARK  status: ('A' for Active; 'I' for Inactive)
REMARK    1  A    between atoms: C_9  and  C_1 
REMARK    2  A    between atoms: O_11  and  C_2 
REMARK    3  A    between atoms: O_14  and  C_12 
ROOT
ATOM      1  C   UNL d   1      -1.820  -0.914   0.032  0.00  0.00     0.076 A 
ATOM      2  C   UNL d   1      -0.562  -1.402   0.005  0.00  0.00     0.094 A 
ATOM      3  C   UNL d   1      -2.038   0.571   0.052  0.00  0.00     0.259 A 
ATOM      4  N   UNL d   1      -0.931   1.372   0.043  0.00  0.00    -0.322 N 
ATOM      5  C   UNL d   1       0.600  -0.493   0.011  0.00  0.00     0.025 A 
ATOM      6  C   UNL d   1       0.379   0.889   0.025  0.00  0.00     0.050 A 
ATOM      7  C   UNL d   1       1.440   1.801   0.020  0.00  0.00     0.067 A 
ATOM      8  C   UNL d   1       1.921  -0.952  -0.001  0.00  0.00     0.019 A 
ATOM      9  O   UNL d   1      -3.161   1.071   0.073  0.00  0.00    -0.267 OA
ATOM     10  C   UNL d   1       2.753   1.332   0.004  0.00  0.00     0.070 A 
ATOM     11  C   UNL d   1       2.986  -0.045  -0.004  0.00  0.00     0.038 A 
ATOM     12  H   UNL d   1      -1.115   2.366   0.054  0.00  0.00     0.169 HD
ENDROOT
BRANCH   1  13
ATOM     13  C   UNL d   1      -3.001  -1.795   0.035  0.00  0.00    -0.018 A 
ATOM     14  C   UNL d   1      -3.528  -2.271   1.242  0.00  0.00     0.012 A 
ATOM     15  C   UNL d   1      -4.677  -3.063   1.242  0.00  0.00     0.001 A 
ATOM     16  C   UNL d   1      -5.300  -3.389   0.037  0.00  0.00     0.000 A 
ATOM     17  C   UNL d   1      -4.768  -2.937  -1.169  0.00  0.00     0.001 A 
ATOM     18  C   UNL d   1      -3.618  -2.145  -1.172  0.00  0.00     0.012 A 
ENDBRANCH   1  13
BRANCH   2  19
ATOM     19  O   UNL d   1      -0.251  -2.751  -0.036  0.00  0.00    -0.359 OA
ATOM     20  H   UNL d   1      -1.077  -3.263  -0.084  0.00  0.00     0.217 HD
ENDBRANCH   2  19
BRANCH  10  21
ATOM     21  O   UNL d   1       3.881   2.105  -0.001  0.00  0.00    -0.356 OA
ATOM     22  C   UNL d   1       3.698   3.515   0.005  0.00  0.00     0.210 C 
ENDBRANCH  10  21
TORSDOF 3
