REMARK  5 active torsions:
REMARK  status: ('A' for Active; 'I' for Inactive)
REMARK    1  A    between atoms: C_6  and  N_1 
REMARK    2  A    between atoms: C_8  and  C_3 
REMARK    3  A    between atoms: N_12  and  C_6 
REMARK    4  A    between atoms: O_13  and  C_8 
REMARK    5  A    between atoms: C_14  and  O_13 
ROOT
ATOM      1  N   UNL d   1       1.083  -0.573  -0.084  0.00  0.00    -0.214 N 
ATOM      2  C   UNL d   1       1.079   0.825  -0.071  0.00  0.00     0.141 A 
ATOM      3  C   UNL d   1      -0.246   1.218  -0.031  0.00  0.00     0.101 A 
ATOM      4  N   UNL d   1      -0.202  -1.071  -0.102  0.00  0.00    -0.300 N 
ATOM      5  HN  UNL d   1      -0.496  -2.048  -0.136  1.00  0.00     0.186 HD
ATOM      6  C   UNL d   1      -0.975   0.015  -0.065  0.00  0.00     0.129 A 
ATOM      7  N   UNL d   1       2.192   1.594  -0.069  0.00  0.00    -0.383 N 
ATOM      8  H   UNL d   1       3.140   1.218  -0.032  0.00  0.00     0.157 HD
ATOM      9  H   UNL d   1       2.133   2.613  -0.002  0.00  0.00     0.157 HD
ENDROOT
BRANCH   1  10
ATOM     10  C   UNL d   1       2.170  -1.492  -0.057  0.00  0.00     0.192 C 
ATOM     11  S   UNL d   1       3.815  -1.214  -0.024  0.00  0.00    -0.039 SA
BRANCH  10  12
ATOM     12  N   UNL d   1       1.699  -2.787  -0.046  0.00  0.00    -0.375 N 
ATOM     13  H   UNL d   1       0.692  -2.945  -0.054  0.00  0.00     0.158 HD
ATOM     14  H   UNL d   1       2.331  -3.575  -0.014  0.00  0.00     0.158 HD
ENDBRANCH  10  12
ENDBRANCH   1  10
BRANCH   3  15
ATOM     15  C   UNL d   1      -0.736   2.577   0.080  0.00  0.00     0.298 C 
ATOM     16  O   UNL d   1      -0.004   3.559   0.122  0.00  0.00    -0.259 OA
BRANCH  15  17
ATOM     17  O   UNL d   1      -2.093   2.622   0.222  0.00  0.00    -0.318 OA
BRANCH  17  18
ATOM     18  C   UNL d   1      -2.611   3.869   0.706  0.00  0.00     0.174 C 
ATOM     19  C   UNL d   1      -2.623   3.822   2.223  0.00  0.00     0.034 C 
ENDBRANCH  17  18
ENDBRANCH  15  17
ENDBRANCH   3  15
TORSDOF 5
