REMARK  3 active torsions:
REMARK  status: ('A' for Active; 'I' for Inactive)
REMARK       I    between atoms: C_9  and  N_12 
REMARK       I    between atoms: N_14  and  C_9 
REMARK    1  A    between atoms: N_12  and  C_10 
REMARK    2  A    between atoms: C_20  and  N_14 
REMARK    3  A    between atoms: C_15  and  C_16 
ROOT
ATOM      1  C   UNL d   1      -5.924   0.978   0.817  0.00  0.00     0.325 C 
ATOM      2  N   UNL d   1      -6.724  -0.153   0.900  0.00  0.00    -0.309 N 
ATOM      3  N   UNL d   1      -4.926   0.855  -0.130  0.00  0.00    -0.309 N 
ATOM      4  O   UNL d   1      -6.083   1.965   1.522  0.00  0.00    -0.247 OA
ATOM      5  H   UNL d   1      -6.570  -0.879   0.213  0.00  0.00     0.170 HD
ATOM      6  H   UNL d   1      -4.923   0.040  -0.721  0.00  0.00     0.170 HD
ENDROOT
BRANCH   2   7
ATOM      7  C   UNL d   1      -7.839  -0.314   1.763  0.00  0.00     0.038 A 
ATOM      8  C   UNL d   1      -8.145   0.621   2.779  0.00  0.00     0.062 A 
ATOM      9  C   UNL d   1      -9.358   0.442   3.485  0.00  0.00     0.069 A 
ATOM     10  C   UNL d   1     -10.242  -0.734   3.204  0.00  0.00     0.067 A 
ATOM     11  N   UNL d   1      -9.846   1.260   4.432  0.00  0.00    -0.310 N 
ATOM     12  N   UNL d   1     -11.366  -0.739   3.938  0.00  0.00    -0.310 N 
ATOM     13  C   UNL d   1      -9.866  -1.702   2.245  0.00  0.00     0.035 A 
ATOM     14  S   UNL d   1     -11.311   0.627   4.885  0.00  0.00     0.068 SA
ATOM     15  HN  UNL d   1     -12.107  -1.440   3.917  1.00  0.00     0.176 HD
ATOM     16  C   UNL d   1      -8.662  -1.455   1.549  0.00  0.00     0.032 A 
ATOM     17  HN  UNL d   1      -9.404   2.102   4.799  1.00  0.00     0.176 HD
ENDBRANCH   2   7
BRANCH   3  18
ATOM     18  C   UNL d   1      -3.835   1.752  -0.301  0.00  0.00     0.036 A 
ATOM     19  C   UNL d   1      -3.644   2.886   0.487  0.00  0.00     0.030 A 
ATOM     20  C   UNL d   1      -2.460   3.622   0.416  0.00  0.00     0.010 A 
ATOM     21  C   UNL d   1      -1.419   3.250  -0.446  0.00  0.00    -0.051 A 
ATOM     22  C   UNL d   1      -1.670   2.182  -1.321  0.00  0.00     0.010 A 
ATOM     23  C   UNL d   1      -2.861   1.440  -1.248  0.00  0.00     0.030 A 
BRANCH  21  24
ATOM     24  C   UNL d   1      -0.059   3.955  -0.329  0.00  0.00    -0.024 C 
ATOM     25  C   UNL d   1       1.005   3.408  -1.305  0.00  0.00     0.019 C 
ATOM     26  C   UNL d   1      -0.202   5.468  -0.590  0.00  0.00     0.019 C 
ATOM     27  C   UNL d   1       0.488   3.741   1.103  0.00  0.00     0.019 C 
ENDBRANCH  21  24
ENDBRANCH   3  18
TORSDOF 3
