REMARK  4 active torsions:
REMARK  status: ('A' for Active; 'I' for Inactive)
REMARK    1  A    between atoms: N_2  and  N_1 
REMARK       I    between atoms: N_4  and  C_6 
REMARK       I    between atoms: N_16  and  C_6 
REMARK    2  A    between atoms: N_8  and  C_7 
REMARK    3  A    between atoms: S_15  and  C_7 
REMARK    4  A    between atoms: C_12  and  N_8 
ROOT
ATOM      1  N   UNL d   1       3.417   4.608   0.246  0.00  0.00    -0.215 N 
ATOM      2  HN  UNL d   1       3.888   5.405   0.674  1.00  0.00     0.196 HD
ATOM      3  N   UNL d   1       2.718   2.389   0.291  0.00  0.00    -0.312 N 
ATOM      4  HN  UNL d   1       1.857   2.584  -0.221  1.00  0.00     0.170 HD
ATOM      5  C   UNL d   1       3.359   3.454   0.836  0.00  0.00     0.176 C 
ATOM      6  C   UNL d   1       3.090   1.145   0.356  0.00  0.00     0.146 C 
ATOM      7  N   UNL d   1       3.866   3.393   2.102  0.00  0.00    -0.272 NA
ATOM      8  H   UNL d   1       3.471   2.664   2.685  0.00  0.00     0.127 HD
ATOM      9  H   UNL d   1       3.950   4.293   2.554  0.00  0.00     0.127 HD
ENDROOT
BRANCH   6  10
ATOM     10  N   UNL d   1       2.329   0.115  -0.143  0.00  0.00    -0.337 N 
ATOM     11  H   UNL d   1       2.702  -0.814   0.024  0.00  0.00     0.168 HD
BRANCH  10  12
ATOM     12  C   UNL d   1       0.914   0.091  -0.142  0.00  0.00     0.034 A 
ATOM     13  C   UNL d   1       0.148   0.871   0.734  0.00  0.00     0.036 A 
ATOM     14  C   UNL d   1      -1.256   0.829   0.732  0.00  0.00    -0.054 A 
ATOM     15  C   UNL d   1      -2.012   1.691   1.706  0.00  0.00     0.049 C 
ATOM     16  C   UNL d   1      -1.916  -0.006  -0.185  0.00  0.00    -0.056 A 
ATOM     17  C   UNL d   1      -1.154  -0.797  -1.057  0.00  0.00     0.009 A 
ATOM     18  C   UNL d   1      -3.418  -0.052  -0.256  0.00  0.00     0.049 C 
ATOM     19  C   UNL d   1       0.244  -0.754  -1.029  0.00  0.00     0.030 A 
ENDBRANCH  10  12
ENDBRANCH   6  10
BRANCH   6  20
ATOM     20  S   UNL d   1       4.579   0.593   1.121  0.00  0.00    -0.098 SA
ATOM     21  C   UNL d   1       5.374  -0.276  -0.243  0.00  0.00     0.099 C 
ENDBRANCH   6  20
BRANCH   1  22
ATOM     22  N   UNL d   1       2.827   4.701  -0.953  0.00  0.00    -0.036 N 
ATOM     23  O   UNL d   1       3.553   4.938  -1.930  0.00  0.00    -0.516 OA
ATOM     24  O   UNL d   1       1.590   4.669  -1.030  0.00  0.00    -0.516 OA
ENDBRANCH   1  22
TORSDOF 4
