REMARK  4 active torsions:
REMARK  status: ('A' for Active; 'I' for Inactive)
REMARK    1  A    between atoms: C_12  and  N_1 
REMARK    2  A    between atoms: C_9  and  C_2 
REMARK       I    between atoms: C_7  and  N_10 
REMARK    3  A    between atoms: C_8  and  C_7 
REMARK       I    between atoms: N_11  and  C_9 
REMARK    4  A    between atoms: N_10  and  N_11 
ROOT
ATOM      1  N   UNL d   1      -0.303  -1.129  -0.036  0.00  0.00    -0.260 N 
ATOM      2  C   UNL d   1      -0.452   1.108  -0.100  0.00  0.00     0.081 A 
ATOM      3  N   UNL d   1       0.960  -0.684   0.124  0.00  0.00    -0.297 N 
ATOM      4  HN  UNL d   1       1.794  -1.245   0.298  1.00  0.00     0.187 HD
ATOM      5  C   UNL d   1      -1.215  -0.066  -0.133  0.00  0.00     0.048 A 
ATOM      6  C   UNL d   1       0.889   0.636   0.008  0.00  0.00     0.040 A 
ATOM      7  C   UNL d   1      -2.686  -0.298  -0.102  0.00  0.00     0.071 C 
ATOM      8  C   UNL d   1       2.149   1.430   0.051  0.00  0.00     0.071 C 
ENDROOT
BRANCH   2   9
ATOM      9  C   UNL d   1      -0.778   2.532  -0.078  0.00  0.00     0.274 C 
ATOM     10  N   UNL d   1      -2.067   2.968  -0.335  0.00  0.00    -0.263 N 
ATOM     11  H   UNL d   1      -2.832   2.393  -0.668  0.00  0.00     0.190 HD
ATOM     12  O   UNL d   1       0.081   3.385   0.165  0.00  0.00    -0.266 OA
BRANCH  10  13
ATOM     13  N   UNL d   1      -2.253   4.373  -0.322  0.00  0.00    -0.260 N 
ATOM     14  C   UNL d   1      -3.511   4.930  -0.451  0.00  0.00     0.343 C 
ATOM     15  O   UNL d   1      -4.507   4.230  -0.664  0.00  0.00    -0.262 OA
ATOM     16  H   UNL d   1      -1.433   4.926  -0.049  0.00  0.00     0.190 HD
BRANCH  14  17
ATOM     17  C   UNL d   1      -3.534   6.466  -0.321  0.00  0.00     0.473 C 
ATOM     18  F   UNL d   1      -2.289   6.978  -0.085  0.00  0.00    -0.162 F 
ATOM     19  F   UNL d   1      -3.988   7.081  -1.447  0.00  0.00    -0.162 F 
ATOM     20  F   UNL d   1      -4.319   6.896   0.704  0.00  0.00    -0.162 F 
ENDBRANCH  14  17
ENDBRANCH  10  13
ENDBRANCH   2   9
BRANCH   1  21
ATOM     21  C   UNL d   1      -0.514  -2.541  -0.031  0.00  0.00     0.056 A 
ATOM     22  C   UNL d   1       0.344  -3.345   0.740  0.00  0.00     0.031 A 
ATOM     23  C   UNL d   1       0.162  -4.729   0.797  0.00  0.00     0.002 A 
ATOM     24  C   UNL d   1      -0.852  -5.325   0.053  0.00  0.00     0.000 A 
ATOM     25  C   UNL d   1      -1.677  -4.541  -0.752  0.00  0.00     0.002 A 
ATOM     26  C   UNL d   1      -1.515  -3.150  -0.794  0.00  0.00     0.031 A 
ENDBRANCH   1  21
TORSDOF 4
