REMARK  3 active torsions:
REMARK  status: ('A' for Active; 'I' for Inactive)
REMARK    1  A    between atoms: C_9  and  C_3 
REMARK    2  A    between atoms: C_10  and  N_8 
REMARK    3  A    between atoms: C_11  and  C_10 
ROOT
ATOM      1  N   UNL d   1       1.283  -0.552   0.522  0.00  0.00    -0.321 N 
ATOM      2  HN  UNL d   1       2.125  -0.930   0.957  1.00  0.00     0.169 HD
ATOM      3  C   UNL d   1       0.981   0.809   0.399  0.00  0.00     0.123 A 
ATOM      4  N   UNL d   1      -0.153   1.151  -0.227  0.00  0.00    -0.309 N 
ATOM      5  HN  UNL d   1      -0.481   2.099  -0.410  1.00  0.00     0.176 HD
ATOM      6  C   UNL d   1       0.318  -1.269  -0.006  0.00  0.00     0.162 A 
ATOM      7  S   UNL d   1      -0.924  -0.261  -0.650  0.00  0.00     0.024 SA
ATOM      8  N   UNL d   1       0.261  -2.617  -0.062  0.00  0.00    -0.365 N 
ATOM      9  H   UNL d   1      -0.494  -3.057  -0.579  0.00  0.00     0.162 HD
ENDROOT
BRANCH   8  10
ATOM     10  C   UNL d   1       1.474  -3.401   0.045  0.00  0.00     0.160 C 
BRANCH  10  11
ATOM     11  C   UNL d   1       1.671  -4.236  -1.201  0.00  0.00    -0.041 A 
ATOM     12  C   UNL d   1       1.794  -3.626  -2.460  0.00  0.00     0.009 A 
ATOM     13  C   UNL d   1       2.014  -4.394  -3.605  0.00  0.00     0.001 A 
ATOM     14  C   UNL d   1       2.123  -5.779  -3.505  0.00  0.00     0.000 A 
ATOM     15  C   UNL d   1       2.005  -6.398  -2.263  0.00  0.00     0.001 A 
ATOM     16  C   UNL d   1       1.778  -5.632  -1.116  0.00  0.00     0.009 A 
ENDBRANCH  10  11
ENDBRANCH   8  10
BRANCH   3  17
ATOM     17  C   UNL d   1       1.899   1.815   0.950  0.00  0.00     0.009 A 
ATOM     18  C   UNL d   1       3.028   1.420   1.684  0.00  0.00     0.015 A 
ATOM     19  C   UNL d   1       3.906   2.370   2.213  0.00  0.00     0.001 A 
ATOM     20  C   UNL d   1       3.667   3.728   2.014  0.00  0.00     0.000 A 
ATOM     21  C   UNL d   1       2.549   4.138   1.291  0.00  0.00     0.001 A 
ATOM     22  C   UNL d   1       1.670   3.188   0.763  0.00  0.00     0.015 A 
ENDBRANCH   3  17
TORSDOF 3
