REMARK  6 active torsions:
REMARK  status: ('A' for Active; 'I' for Inactive)
REMARK    1  A    between atoms: C_13  and  N_1 
REMARK    2  A    between atoms: C_19  and  N_4 
REMARK    3  A    between atoms: C_5  and  C_18 
REMARK    4  A    between atoms: C_17  and  C_6 
REMARK    5  A    between atoms: C_14  and  C_13 
REMARK       I    between atoms: N_20  and  C_14 
REMARK    6  A    between atoms: N_15  and  N_20 
ROOT
ATOM      1  N   UNL d   1       1.737  -0.708   1.265  0.00  0.00    -0.308 N 
ATOM      2  HN  UNL d   1       0.847  -0.211   1.288  1.00  0.00     0.186 HD
ATOM      3  C   UNL d   1       2.599  -0.585   0.309  0.00  0.00     0.122 C 
ENDROOT
BRANCH   1   4
ATOM      4  N   UNL d   1       2.151  -1.587   2.254  0.00  0.00    -0.269 N 
ATOM      5  C   UNL d   1       1.449  -1.689   3.457  0.00  0.00     0.249 C 
ATOM      6  O   UNL d   1       0.648  -0.845   3.861  0.00  0.00    -0.270 OA
ATOM      7  H   UNL d   1       2.711  -2.379   1.959  0.00  0.00     0.190 HD
BRANCH   5   8
ATOM      8  C   UNL d   1       1.812  -2.943   4.282  0.00  0.00     0.206 C 
BRANCH   8   9
ATOM      9  N   UNL d   1       0.914  -4.120   4.060  0.00  0.00    -0.239 NA
ATOM     10  C   UNL d   1      -0.429  -3.827   4.439  0.00  0.00     0.033 A 
ATOM     11  C   UNL d   1      -1.439  -3.607   3.482  0.00  0.00     0.027 A 
ATOM     12  C   UNL d   1      -0.769  -3.840   5.800  0.00  0.00     0.025 A 
ATOM     13  C   UNL d   1      -2.759  -3.405   3.900  0.00  0.00     0.021 A 
ATOM     14  S   UNL d   1      -1.077  -3.556   1.728  0.00  0.00    -0.087 SA
ATOM     15  C   UNL d   1      -3.085  -3.438   5.258  0.00  0.00     0.001 A 
ATOM     16  C   UNL d   1      -2.086  -3.654   6.206  0.00  0.00     0.002 A 
ATOM     17  C   UNL d   1       0.410  -4.542   1.673  0.00  0.00     0.027 A 
ATOM     18  C   UNL d   1       1.193  -4.758   2.820  0.00  0.00     0.033 A 
ATOM     19  C   UNL d   1       0.787  -5.124   0.458  0.00  0.00     0.021 A 
ATOM     20  C   UNL d   1       2.254  -5.676   2.759  0.00  0.00     0.025 A 
ATOM     21  C   UNL d   1       2.580  -6.308   1.559  0.00  0.00     0.002 A 
ATOM     22  C   UNL d   1       1.871  -6.002   0.401  0.00  0.00     0.001 A 
ENDBRANCH   8   9
ENDBRANCH   5   8
ENDBRANCH   1   4
BRANCH   3  23
ATOM     23  C   UNL d   1       2.342  -0.005  -0.991  0.00  0.00     0.027 C 
ATOM     24  C   UNL d   1       1.369   0.835  -1.635  0.00  0.00     0.072 C 
ATOM     25  N   UNL d   1       1.633   0.896  -2.958  0.00  0.00    -0.292 N 
ATOM     26  N   UNL d   1       2.626   0.029  -3.191  0.00  0.00    -0.266 N 
ATOM     27  HN  UNL d   1       1.167   1.487  -3.647  1.00  0.00     0.187 HD
ATOM     28  C   UNL d   1       3.211  -0.352  -2.018  0.00  0.00     0.132 C 
BRANCH  24  29
ATOM     29  C   UNL d   1       0.187   1.604  -1.179  0.00  0.00    -0.007 A 
ATOM     30  C   UNL d   1      -0.421   1.443   0.067  0.00  0.00     0.015 A 
ATOM     31  C   UNL d   1      -1.597   2.144   0.393  0.00  0.00     0.024 A 
ATOM     32  C   UNL d   1      -2.175   3.020  -0.524  0.00  0.00     0.034 A 
ATOM     33  C   UNL d   1      -1.578   3.224  -1.758  0.00  0.00     0.024 A 
ATOM     34 CL   UNL d   1      -3.638   3.838  -0.138  0.00  0.00    -0.084 Cl
ATOM     35  C   UNL d   1      -0.409   2.527  -2.075  0.00  0.00     0.015 A 
ENDBRANCH  24  29
BRANCH  26  36
ATOM     36  C   UNL d   1       2.910  -0.445  -4.500  0.00  0.00     0.056 A 
ATOM     37  C   UNL d   1       3.833  -1.483  -4.703  0.00  0.00     0.031 A 
ATOM     38  C   UNL d   1       4.028  -2.005  -5.984  0.00  0.00     0.002 A 
ATOM     39  C   UNL d   1       3.316  -1.492  -7.066  0.00  0.00     0.000 A 
ATOM     40  C   UNL d   1       2.407  -0.452  -6.873  0.00  0.00     0.002 A 
ATOM     41  C   UNL d   1       2.201   0.071  -5.596  0.00  0.00     0.031 A 
ENDBRANCH  26  36
ENDBRANCH   3  23
TORSDOF 6
