REMARK  7 active torsions:
REMARK  status: ('A' for Active; 'I' for Inactive)
REMARK    1  A    between atoms: C_11  and  C_2 
REMARK       I    between atoms: C_6  and  N_10 
REMARK    2  A    between atoms: O_19  and  C_6 
REMARK    3  A    between atoms: N_10  and  N_8 
REMARK    4  A    between atoms: C_12  and  C_17 
REMARK    5  A    between atoms: O_16  and  C_18 
REMARK    6  A    between atoms: C_17  and  O_16 
REMARK    7  A    between atoms: C_23  and  O_19 
ROOT
ATOM      1  O   UNL d   1       8.912  -7.628  -1.328  0.00  0.00    -0.346 OA
ENDROOT
BRANCH   1   2
ATOM      2  C   UNL d   1       9.352  -8.665  -2.105  0.00  0.00     0.069 A 
ATOM      3  C   UNL d   1      10.511  -9.290  -1.642  0.00  0.00     0.037 A 
ATOM      4  C   UNL d   1      11.075 -10.366  -2.339  0.00  0.00     0.016 A 
ATOM      5  C   UNL d   1      10.485 -10.841  -3.515  0.00  0.00    -0.008 A 
ATOM      6  C   UNL d   1       9.328 -10.204  -3.983  0.00  0.00     0.016 A 
ATOM      7  C   UNL d   1       8.762  -9.127  -3.281  0.00  0.00     0.037 A 
BRANCH   5   8
ATOM      8  C   UNL d   1      11.053 -11.965  -4.252  0.00  0.00     0.063 A 
ATOM      9  N   UNL d   1      10.883 -12.093  -5.628  0.00  0.00    -0.292 N 
ATOM     10  N   UNL d   1      11.487 -13.172  -6.104  0.00  0.00    -0.061 NA
ATOM     11  HN  UNL d   1      10.357 -11.434  -6.201  1.00  0.00     0.183 HD
ATOM     12  S   UNL d   1      12.249 -14.068  -4.916  0.00  0.00    -0.010 SA
ATOM     13  C   UNL d   1      11.778 -12.990  -3.666  0.00  0.00     0.096 A 
ENDBRANCH   5   8
ENDBRANCH   1   2
BRANCH   1  14
ATOM     14  C   UNL d   1       7.711  -6.984  -1.733  0.00  0.00     0.229 C 
BRANCH  14  15
ATOM     15  C   UNL d   1       7.364  -5.878  -0.734  0.00  0.00     0.024 C 
ATOM     16  N   UNL d   1       6.214  -5.968  -0.133  0.00  0.00    -0.303 N 
ATOM     17  HN  UNL d   1       5.606  -6.763  -0.331  1.00  0.00     0.186 HD
ATOM     18  C   UNL d   1       8.377  -4.770  -0.574  0.00  0.00     0.067 C 
BRANCH  16  19
ATOM     19  N   UNL d   1       5.809  -5.022   0.754  0.00  0.00    -0.245 N 
ATOM     20  C   UNL d   1       4.534  -5.062   1.262  0.00  0.00     0.379 C 
ATOM     21  O   UNL d   1       3.693  -5.922   1.055  0.00  0.00    -0.237 OA
ATOM     22  H   UNL d   1       6.341  -4.187   0.938  0.00  0.00     0.192 HD
BRANCH  20  23
ATOM     23  O   UNL d   1       4.310  -3.926   1.986  0.00  0.00    -0.303 OA
BRANCH  23  24
ATOM     24  C   UNL d   1       2.925  -3.624   2.213  0.00  0.00     0.176 C 
ATOM     25  C   UNL d   1       2.434  -2.805   1.032  0.00  0.00     0.034 C 
ENDBRANCH  23  24
ENDBRANCH  20  23
ENDBRANCH  16  19
ENDBRANCH  14  15
ENDBRANCH   1  14
TORSDOF 7
