REMARK  4 active torsions:
REMARK  status: ('A' for Active; 'I' for Inactive)
REMARK    1  A    between atoms: C_8  and  C_1 
REMARK    2  A    between atoms: N_7  and  C_9 
REMARK       I    between atoms: N_16  and  C_8 
REMARK    3  A    between atoms: N_11  and  N_16 
REMARK    4  A    between atoms: C_23  and  C_22 
ROOT
ATOM      1  C   UNL d   1       1.950  -2.541   0.059  0.00  0.00     0.289 C 
ATOM      2  N   UNL d   1       1.053  -3.596  -0.084  0.00  0.00    -0.265 N 
ATOM      3  O   UNL d   1       3.156  -2.706   0.225  0.00  0.00    -0.264 OA
ATOM      4  H   UNL d   1       0.057  -3.425  -0.103  0.00  0.00     0.190 HD
ENDROOT
BRANCH   2   5
ATOM      5  N   UNL d   1       1.520  -4.862  -0.285  0.00  0.00    -0.308 N 
ATOM      6  C   UNL d   1       0.631  -5.784  -0.469  0.00  0.00     0.118 C 
ATOM      7  HN  UNL d   1       2.519  -5.071  -0.291  1.00  0.00     0.186 HD
BRANCH   6   8
ATOM      8  C   UNL d   1       1.033  -7.162  -0.826  0.00  0.00    -0.019 A 
ATOM      9  C   UNL d   1       2.389  -7.508  -0.886  0.00  0.00     0.015 A 
ATOM     10  C   UNL d   1       2.773  -8.765  -1.358  0.00  0.00     0.037 A 
ATOM     11  C   UNL d   1       1.791  -9.676  -1.769  0.00  0.00     0.102 A 
ATOM     12  C   UNL d   1       0.429  -9.350  -1.671  0.00  0.00     0.037 A 
ATOM     13  C   UNL d   1       0.051  -8.089  -1.194  0.00  0.00     0.015 A 
BRANCH  11  14
ATOM     14  N   UNL d   1       2.193 -10.966  -2.345  0.00  0.00    -0.116 N 
ATOM     15  O   UNL d   1       3.405 -11.200  -2.449  0.00  0.00    -0.532 OA
ATOM     16  O   UNL d   1       1.294 -11.740  -2.704  0.00  0.00    -0.532 OA
ENDBRANCH  11  14
ENDBRANCH   6   8
ENDBRANCH   2   5
BRANCH   1  17
ATOM     17  C   UNL d   1       1.341  -1.229   0.017  0.00  0.00     0.132 A 
ATOM     18  N   UNL d   1       1.822  -0.109   0.680  0.00  0.00    -0.302 N 
ATOM     19  C   UNL d   1       0.942   0.934   0.398  0.00  0.00     0.112 A 
ATOM     20  C   UNL d   1       2.941   0.060   1.502  0.00  0.00     0.099 A 
ATOM     21  C   UNL d   1       1.200   2.199   1.000  0.00  0.00     0.049 A 
ATOM     22  N   UNL d   1      -0.005   0.560  -0.431  0.00  0.00    -0.344 N 
ATOM     23  C   UNL d   1       2.276   2.360   1.788  0.00  0.00     0.005 A 
ATOM     24  C   UNL d   1       3.191   1.262   2.050  0.00  0.00     0.018 A 
ATOM     25  C   UNL d   1       0.256  -0.756  -0.718  0.00  0.00     0.040 A 
ATOM     26  HN  UNL d   1      -0.773   1.129  -0.787  1.00  0.00     0.167 HD
ATOM     27  C   UNL d   1      -0.565  -1.432  -1.754  0.00  0.00     0.071 C 
ENDBRANCH   1  17
TORSDOF 4
