REMARK  8 active torsions:
REMARK  status: ('A' for Active; 'I' for Inactive)
REMARK    1  A    between atoms: C_2  and  CA_1 
REMARK    2  A    between atoms: N_3  and  CA_1 
REMARK    3  A    between atoms: CA_1  and  CB_5 
REMARK    4  A    between atoms: OXT_6  and  C_2 
REMARK       I    between atoms: C4_13  and  N_3 
REMARK    5  A    between atoms: CG_7  and  CB_5 
REMARK    6  A    between atoms: C10_20  and  C4_13 
REMARK    7  A    between atoms: C6_15  and  O1_16 
REMARK    8  A    between atoms: O1_16  and  C10_20 
ROOT
ATOM      1  N   LEU d   1       0.306   1.286  -0.327  0.00  0.00    -0.345 N 
ATOM      2  H   LEU d   1       0.936   2.079  -0.447  0.00  0.00     0.163 HD
ATOM      3  C4  <1> d   1      -1.042   1.474  -0.509  0.00  0.00     0.242 C 
ATOM      4  O3  <1> d   1      -1.864   0.576  -0.335  0.00  0.00    -0.271 OA
ENDROOT
BRANCH   3   5
ATOM      5  C10 <1> d   1      -1.440   2.845  -1.049  0.00  0.00     0.278 C 
BRANCH   5   6
ATOM      6  O1  <1> d   1      -0.534   3.862  -0.630  0.00  0.00    -0.340 OA
BRANCH   6   7
ATOM      7  C6  <1> d   1      -0.786   5.122  -1.115  0.00  0.00     0.091 A 
ATOM      8  C3  <1> d   1      -0.435   6.221  -0.310  0.00  0.00     0.069 A 
ATOM      9  C5  <1> d   1      -0.612   7.530  -0.769  0.00  0.00     0.050 A 
ATOM     10 Cl1  <1> d   1       0.213   5.998   1.277  0.00  0.00    -0.081 Cl
ATOM     11  C9  <1> d   1      -1.130   7.747  -2.042  0.00  0.00     0.035 A 
ATOM     12  C11 <1> d   1      -1.475   6.671  -2.854  0.00  0.00     0.026 A 
ATOM     13 Cl2  <1> d   1      -1.337   9.351  -2.625  0.00  0.00    -0.084 Cl
ATOM     14  C8  <1> d   1      -1.300   5.363  -2.395  0.00  0.00     0.040 A 
ENDBRANCH   6   7
ENDBRANCH   5   6
ENDBRANCH   3   5
BRANCH   1  15
ATOM     15  CA  LEU d   1       0.858   0.004   0.099  0.00  0.00     0.182 C 
BRANCH  15  16
ATOM     16  C   LEU d   1       2.141   0.290   0.882  0.00  0.00     0.163 C 
ATOM     17  O   LEU d   1       3.068   0.965   0.446  0.00  0.00    -0.648 OA
BRANCH  16  18
ATOM     18  OXT LEU d   1       2.161  -0.240   2.126  0.00  0.00    -0.775 OA
ATOM     19  HXT LEU d   1       1.332  -0.683   2.391  0.00  0.00     0.167 HD
ENDBRANCH  16  18
ENDBRANCH  15  16
BRANCH  15  20
ATOM     20  CB  LEU d   1       1.142  -0.905  -1.109  0.00  0.00     0.040 C 
BRANCH  20  21
ATOM     21  CG  LEU d   1       1.684  -2.306  -0.751  0.00  0.00    -0.020 C 
ATOM     22  CD1 LEU d   1       0.705  -3.113   0.103  0.00  0.00     0.009 C 
ATOM     23  CD2 LEU d   1       2.009  -3.088  -2.027  0.00  0.00     0.009 C 
ENDBRANCH  20  21
ENDBRANCH  15  20
ENDBRANCH   1  15
TORSDOF 8
