REMARK  5 active torsions:
REMARK  status: ('A' for Active; 'I' for Inactive)
REMARK    1  A    between atoms: C_12  and  N_1 
REMARK    2  A    between atoms: C_7  and  C_3 
REMARK    3  A    between atoms: N_6  and  C_15 
REMARK    4  A    between atoms: C_17  and  C_8 
REMARK    5  A    between atoms: C_29  and  C_20 
ROOT
ATOM      1  N   UNL d   1       0.106  -1.184  -0.115  0.00  0.00    -0.262 N 
ATOM      2  C   UNL d   1       0.915  -0.061  -0.038  0.00  0.00     0.153 A 
ATOM      3  C   UNL d   1      -1.558   0.500  -0.129  0.00  0.00     0.079 A 
ATOM      4  C   UNL d   1      -1.267  -0.963  -0.236  0.00  0.00     0.271 A 
ATOM      5  S   UNL d   1      -0.084   1.391  -0.068  0.00  0.00    -0.054 SA
ATOM      6  S   UNL d   1       2.584   0.060  -0.024  0.00  0.00    -0.052 SA
ATOM      7  O   UNL d   1      -2.132  -1.810  -0.399  0.00  0.00    -0.266 OA
ENDROOT
BRANCH   3   8
ATOM      8  C   UNL d   1      -2.752   1.099  -0.035  0.00  0.00     0.061 C 
ATOM      9  C   UNL d   1      -3.969   0.380   0.040  0.00  0.00     0.077 A 
ATOM     10  O   UNL d   1      -4.561   0.048   1.236  0.00  0.00    -0.310 OA
ATOM     11  C   UNL d   1      -4.780  -0.090  -0.981  0.00  0.00     0.040 A 
ATOM     12  C   UNL d   1      -5.707  -0.649   0.980  0.00  0.00     0.086 A 
ATOM     13  C   UNL d   1      -5.879  -0.750  -0.383  0.00  0.00     0.041 A 
BRANCH  12  14
ATOM     14  C   UNL d   1      -6.473  -1.108   2.138  0.00  0.00    -0.002 A 
ATOM     15  C   UNL d   1      -6.016  -0.919   3.452  0.00  0.00     0.017 A 
ATOM     16  C   UNL d   1      -6.772  -1.354   4.551  0.00  0.00     0.037 A 
ATOM     17  C   UNL d   1      -8.003  -1.986   4.334  0.00  0.00     0.102 A 
ATOM     18  C   UNL d   1      -8.471  -2.192   3.034  0.00  0.00     0.037 A 
ATOM     19  C   UNL d   1      -7.706  -1.755   1.948  0.00  0.00     0.017 A 
BRANCH  17  20
ATOM     20  N   UNL d   1      -8.811  -2.436   5.473  0.00  0.00    -0.116 N 
ATOM     21  O   UNL d   1      -8.369  -2.224   6.612  0.00  0.00    -0.532 OA
ATOM     22  O   UNL d   1      -9.892  -2.992   5.232  0.00  0.00    -0.532 OA
ENDBRANCH  17  20
ENDBRANCH  12  14
ENDBRANCH   3   8
BRANCH   1  23
ATOM     23  C   UNL d   1       0.597  -2.521  -0.099  0.00  0.00     0.044 A 
ATOM     24  C   UNL d   1       0.232  -3.423  -1.104  0.00  0.00     0.031 A 
ATOM     25  C   UNL d   1       0.696  -4.742  -1.080  0.00  0.00     0.010 A 
ATOM     26  C   UNL d   1       1.500  -5.202  -0.028  0.00  0.00    -0.055 A 
ATOM     27  C   UNL d   1       1.855  -4.298   0.983  0.00  0.00     0.010 A 
ATOM     28  C   UNL d   1       1.414  -2.971   0.946  0.00  0.00     0.031 A 
BRANCH  26  29
ATOM     29  C   UNL d   1       1.956  -6.648   0.058  0.00  0.00     0.010 C 
ATOM     30  C   UNL d   1       0.763  -7.606   0.105  0.00  0.00     0.015 C 
ATOM     31  C   UNL d   1       2.908  -7.017  -1.081  0.00  0.00     0.015 C 
ENDBRANCH  26  29
ENDBRANCH   1  23
TORSDOF 5
