REMARK  4 active torsions:
REMARK  status: ('A' for Active; 'I' for Inactive)
REMARK    1  A    between atoms: C_6  and  C_3 
REMARK    2  A    between atoms: C_9  and  C_5 
REMARK       I    between atoms: N_8  and  C_6 
REMARK    3  A    between atoms: C_13  and  N_8 
REMARK    4  A    between atoms: C_18  and  C_13 
ROOT
ATOM      1  N   UNL d   1       1.159   0.407   0.062  0.00  0.00    -0.269 N 
ATOM      2  HN  UNL d   1       2.118   0.709   0.233  1.00  0.00     0.194 HD
ATOM      3  C   UNL d   1      -0.718  -0.940  -0.083  0.00  0.00     0.249 C 
ATOM      4  O   UNL d   1       0.707  -0.928   0.000  0.00  0.00    -0.265 OA
ATOM      5  C   UNL d   1       0.141   1.183  -0.136  0.00  0.00     0.045 C 
ATOM      6  C   UNL d   1      -1.151   0.481  -0.365  0.00  0.00     0.104 C 
ENDROOT
BRANCH   3   7
ATOM      7  C   UNL d   1      -1.335  -1.548   1.183  0.00  0.00     0.249 C 
ATOM      8  N   UNL d   1      -0.697  -2.692   1.624  0.00  0.00    -0.355 N 
ATOM      9  H   UNL d   1       0.262  -2.828   1.322  0.00  0.00     0.162 HD
ATOM     10  O   UNL d   1      -2.365  -1.118   1.697  0.00  0.00    -0.271 OA
BRANCH   8  11
ATOM     11  C   UNL d   1      -1.120  -3.364   2.834  0.00  0.00     0.161 C 
BRANCH  11  12
ATOM     12  C   UNL d   1      -0.717  -4.818   2.853  0.00  0.00    -0.041 A 
ATOM     13  C   UNL d   1       0.009  -5.348   3.930  0.00  0.00     0.009 A 
ATOM     14  C   UNL d   1       0.320  -6.711   3.978  0.00  0.00     0.001 A 
ATOM     15  C   UNL d   1      -0.092  -7.558   2.952  0.00  0.00     0.000 A 
ATOM     16  C   UNL d   1      -0.812  -7.045   1.875  0.00  0.00     0.001 A 
ATOM     17  C   UNL d   1      -1.125  -5.684   1.828  0.00  0.00     0.009 A 
ENDBRANCH  11  12
ENDBRANCH   8  11
ENDBRANCH   3   7
BRANCH   5  18
ATOM     18  C   UNL d   1       0.251   2.664  -0.183  0.00  0.00    -0.011 A 
ATOM     19  C   UNL d   1       1.510   3.259  -0.013  0.00  0.00     0.015 A 
ATOM     20  C   UNL d   1       1.653   4.649  -0.082  0.00  0.00     0.024 A 
ATOM     21  C   UNL d   1       0.536   5.447  -0.318  0.00  0.00     0.034 A 
ATOM     22  C   UNL d   1      -0.721   4.867  -0.484  0.00  0.00     0.024 A 
ATOM     23 CL   UNL d   1       0.709   7.156  -0.415  0.00  0.00    -0.084 Cl
ATOM     24  C   UNL d   1      -0.865   3.477  -0.418  0.00  0.00     0.015 A 
ENDBRANCH   5  18
TORSDOF 4
