REMARK  5 active torsions:
REMARK  status: ('A' for Active; 'I' for Inactive)
REMARK    1  A    between atoms: C_5  and  C_1 
REMARK    2  A    between atoms: C_11  and  N_2 
REMARK    3  A    between atoms: N_4  and  O_8 
REMARK    4  A    between atoms: O_8  and  C_5 
REMARK    5  A    between atoms: O_24  and  C_22 
ROOT
ATOM      1  C   UNL d   1       1.543  -1.010   0.325  0.00  0.00     0.076 C 
ATOM      2  N   UNL d   1       1.704   1.215   0.064  0.00  0.00    -0.344 N 
ATOM      3  C   UNL d   1       2.439   0.042   0.131  0.00  0.00     0.026 C 
ATOM      4  C   UNL d   1       0.245  -0.425   0.500  0.00  0.00     0.012 A 
ATOM      5  C   UNL d   1       0.349   0.943   0.211  0.00  0.00     0.046 A 
ATOM      6  C   UNL d   1      -0.813   1.738   0.120  0.00  0.00     0.033 A 
ATOM      7  C   UNL d   1      -1.031  -0.959   0.801  0.00  0.00     0.051 A 
ATOM      8  C   UNL d   1       3.919  -0.071  -0.060  0.00  0.00     0.069 C 
ATOM      9  C   UNL d   1      -2.180  -0.176   0.696  0.00  0.00     0.069 A 
ATOM     10  C   UNL d   1      -2.071   1.161   0.349  0.00  0.00     0.039 A 
ENDROOT
BRANCH   1  11
ATOM     11  C   UNL d   1       1.886  -2.437   0.224  0.00  0.00     0.318 C 
ATOM     12  O   UNL d   1       3.013  -2.860  -0.028  0.00  0.00    -0.257 OA
BRANCH  11  13
ATOM     13  O   UNL d   1       0.785  -3.248   0.275  0.00  0.00    -0.182 OA
BRANCH  13  14
ATOM     14  N   UNL d   1       0.807  -4.211  -0.735  0.00  0.00    -0.145 N 
ATOM     15  C   UNL d   1       0.683  -5.535  -0.476  0.00  0.00     0.251 C 
ATOM     16  C   UNL d   1       0.474  -6.227  -1.799  0.00  0.00     0.115 C 
ATOM     17  O   UNL d   1       0.669  -6.100   0.605  0.00  0.00    -0.271 OA
ATOM     18  C   UNL d   1       0.309  -5.098  -2.808  0.00  0.00     0.115 C 
ATOM     19  C   UNL d   1       0.447  -3.852  -1.991  0.00  0.00     0.251 C 
ATOM     20  O   UNL d   1       0.220  -2.725  -2.412  0.00  0.00    -0.271 OA
ENDBRANCH  13  14
ENDBRANCH  11  13
ENDBRANCH   1  11
BRANCH   2  21
ATOM     21  C   UNL d   1       2.322   2.525  -0.153  0.00  0.00     0.090 A 
ATOM     22  C   UNL d   1       1.777   3.830   0.389  0.00  0.00     0.028 A 
ATOM     23  C   UNL d   1       1.748   3.577  -1.081  0.00  0.00     0.028 A 
ENDBRANCH   2  21
BRANCH   9  24
ATOM     24  O   UNL d   1      -3.352  -0.826   0.975  0.00  0.00    -0.356 OA
ATOM     25  C   UNL d   1      -4.478  -0.401   0.215  0.00  0.00     0.210 C 
ENDBRANCH   9  24
TORSDOF 5
