REMARK  5 active torsions:
REMARK  status: ('A' for Active; 'I' for Inactive)
REMARK    1  A    between atoms: C_2  and  S_1 
REMARK    2  A    between atoms: N_3  and  S_1 
REMARK    3  A    between atoms: C_9  and  N_3 
REMARK    4  A    between atoms: C_16  and  C_12 
REMARK    5  A    between atoms: O_13  and  C_16 
ROOT
ATOM      1  N   UNL d   1       0.354  -0.094   1.646  0.00  0.00    -0.280 N 
ATOM      2  H   UNL d   1       0.838   0.800   1.615  0.00  0.00     0.179 HD
ENDROOT
BRANCH   1   3
ATOM      3  S   UNL d   1      -0.234  -0.562   0.144  0.00  0.00     0.269 S 
ATOM      4  O   UNL d   1      -0.744   0.650  -0.491  0.00  0.00    -0.200 OA
ATOM      5  O   UNL d   1       0.752  -1.380  -0.531  0.00  0.00    -0.200 OA
BRANCH   3   6
ATOM      6  C   UNL d   1      -1.625  -1.639   0.400  0.00  0.00     0.120 A 
ATOM      7  S   UNL d   1      -3.163  -0.906   0.558  0.00  0.00    -0.088 SA
ATOM      8  C   UNL d   1      -3.926  -2.412   0.839  0.00  0.00     0.051 A 
ATOM      9  C   UNL d   1      -3.030  -3.457   0.817  0.00  0.00     0.009 A 
ATOM     10  C   UNL d   1      -1.704  -3.014   0.552  0.00  0.00     0.033 A 
ENDBRANCH   3   6
ENDBRANCH   1   3
BRANCH   1  11
ATOM     11  C   UNL d   1       0.827  -1.050   2.592  0.00  0.00     0.043 A 
ATOM     12  C   UNL d   1       2.162  -1.461   2.646  0.00  0.00     0.039 A 
ATOM     13  C   UNL d   1       2.607  -2.310   3.685  0.00  0.00    -0.033 A 
ATOM     14  C   UNL d   1       1.685  -2.742   4.652  0.00  0.00     0.009 A 
ATOM     15  C   UNL d   1       0.357  -2.322   4.596  0.00  0.00     0.003 A 
ATOM     16  C   UNL d   1      -0.069  -1.482   3.567  0.00  0.00     0.030 A 
BRANCH  13  17
ATOM     17  C   UNL d   1       4.038  -2.787   3.766  0.00  0.00     0.203 C 
BRANCH  17  18
ATOM     18  O   UNL d   1       4.929  -1.805   3.256  0.00  0.00    -0.396 OA
ATOM     19  H   UNL d   1       5.829  -2.117   3.447  0.00  0.00     0.209 HD
ENDBRANCH  17  18
ENDBRANCH  13  17
ENDBRANCH   1  11
TORSDOF 5
