REMARK  3 active torsions:
REMARK  status: ('A' for Active; 'I' for Inactive)
REMARK    1  A    between atoms: C_13  and  C_3 
REMARK    2  A    between atoms: C_15  and  C_4 
REMARK    3  A    between atoms: C_7  and  C_14 
ROOT
ATOM      1  N   UNL d   1       1.374  -0.588  -0.023  0.00  0.00    -0.349 N 
ATOM      2  HN  UNL d   1       2.258  -1.095  -0.053  1.00  0.00     0.166 HD
ATOM      3  C   UNL d   1       0.182  -1.153  -0.022  0.00  0.00     0.084 A 
ATOM      4  C   UNL d   1       1.258   0.796   0.024  0.00  0.00     0.050 A 
ATOM      5  S   UNL d   1      -1.139  -0.048   0.078  0.00  0.00    -0.081 SA
ATOM      6  C   UNL d   1      -0.041   1.262   0.075  0.00  0.00     0.082 A 
ENDROOT
BRANCH   3   7
ATOM      7  C   UNL d   1      -0.055  -2.607  -0.055  0.00  0.00    -0.002 A 
ATOM      8  C   UNL d   1       0.864  -3.472   0.557  0.00  0.00     0.015 A 
ATOM      9  C   UNL d   1       0.667  -4.861   0.552  0.00  0.00     0.014 A 
ATOM     10  C   UNL d   1      -0.452  -5.418  -0.081  0.00  0.00    -0.008 A 
ATOM     11  C   UNL d   1      -1.359  -4.559  -0.713  0.00  0.00     0.014 A 
ATOM     12  C   UNL d   1      -1.165  -3.173  -0.699  0.00  0.00     0.015 A 
BRANCH  10  13
ATOM     13  C   UNL d   1      -0.687  -6.856  -0.113  0.00  0.00     0.063 A 
ATOM     14  N   UNL d   1      -1.371  -7.446  -1.173  0.00  0.00    -0.292 N 
ATOM     15  N   UNL d   1      -1.493  -8.754  -1.017  0.00  0.00    -0.061 NA
ATOM     16  HN  UNL d   1      -1.736  -6.931  -1.974  1.00  0.00     0.183 HD
ATOM     17  S   UNL d   1      -0.811  -9.305   0.406  0.00  0.00    -0.010 SA
ATOM     18  C   UNL d   1      -0.299  -7.736   0.882  0.00  0.00     0.096 A 
ENDBRANCH  10  13
ENDBRANCH   3   7
BRANCH   4  19
ATOM     19  C   UNL d   1       2.428   1.667  -0.026  0.00  0.00    -0.009 A 
ATOM     20  C   UNL d   1       3.584   1.236  -0.693  0.00  0.00     0.014 A 
ATOM     21  C   UNL d   1       4.702   2.069  -0.792  0.00  0.00     0.001 A 
ATOM     22  C   UNL d   1       4.681   3.338  -0.215  0.00  0.00     0.000 A 
ATOM     23  C   UNL d   1       3.547   3.771   0.468  0.00  0.00     0.001 A 
ATOM     24  C   UNL d   1       2.427   2.940   0.564  0.00  0.00     0.014 A 
ENDBRANCH   4  19
TORSDOF 3
