REMARK  3 active torsions:
REMARK  status: ('A' for Active; 'I' for Inactive)
REMARK    1  A    between atoms: O_8  and  S_1 
REMARK    2  A    between atoms: C_9  and  S_1 
REMARK    3  A    between atoms: C_2  and  O_8 
ROOT
ATOM      1  C   UNL d   1       0.801  -0.010   2.720  0.00  0.00     0.107 A 
ATOM      2  C   UNL d   1       2.030  -0.462   3.010  0.00  0.00     0.113 A 
ATOM      3  C   UNL d   1       2.383  -1.037   4.319  0.00  0.00     0.250 A 
ATOM      4  N   UNL d   1       1.391  -1.096   5.285  0.00  0.00    -0.318 N 
ATOM      5  C   UNL d   1      -0.245  -0.091   3.759  0.00  0.00     0.026 A 
ATOM      6  C   UNL d   1       0.065  -0.625   5.033  0.00  0.00     0.050 A 
ATOM      7  O   UNL d   1       3.535  -1.435   4.489  0.00  0.00    -0.268 OA
ATOM      8  C   UNL d   1       1.802  -1.683   6.548  0.00  0.00     0.159 C 
ATOM      9  C   UNL d   1      -1.552   0.361   3.502  0.00  0.00     0.016 A 
ATOM     10  C   UNL d   1      -0.945  -0.675   6.008  0.00  0.00     0.031 A 
ATOM     11  C   UNL d   1      -2.541   0.297   4.483  0.00  0.00     0.001 A 
ATOM     12  C   UNL d   1      -2.236  -0.218   5.736  0.00  0.00     0.002 A 
ENDROOT
BRANCH   1  13
ATOM     13  O   UNL d   1       0.426   0.543   1.496  0.00  0.00    -0.228 OA
BRANCH  13  14
ATOM     14  S   UNL d   1       1.484   0.740   0.263  0.00  0.00     0.303 S 
ATOM     15  O   UNL d   1       1.897  -0.574  -0.199  0.00  0.00    -0.193 OA
ATOM     16  O   UNL d   1       2.477   1.720   0.663  0.00  0.00    -0.193 OA
BRANCH  14  17
ATOM     17  C   UNL d   1       0.549   1.478  -1.063  0.00  0.00     0.086 A 
ATOM     18  C   UNL d   1       0.482   2.870  -1.163  0.00  0.00     0.026 A 
ATOM     19  C   UNL d   1      -0.063   3.454  -2.309  0.00  0.00     0.008 A 
ATOM     20  C   UNL d   1      -0.531   2.656  -3.362  0.00  0.00    -0.062 A 
ATOM     21  C   UNL d   1      -0.478   1.261  -3.240  0.00  0.00     0.008 A 
ATOM     22  C   UNL d   1      -1.036   3.300  -4.621  0.00  0.00     0.048 C 
ATOM     23  C   UNL d   1       0.064   0.670  -2.097  0.00  0.00     0.026 A 
ENDBRANCH  14  17
ENDBRANCH  13  14
ENDBRANCH   1  13
TORSDOF 3
