REMARK  4 active torsions:
REMARK  status: ('A' for Active; 'I' for Inactive)
REMARK    1  A    between atoms: C_2  and  S_1 
REMARK    2  A    between atoms: N_3  and  S_1 
REMARK    3  A    between atoms: C_9  and  N_3 
REMARK    4  A    between atoms: N_4  and  C_7 
ROOT
ATOM      1  C   UNL d   1       1.265   5.417  -0.079  0.00  0.00     0.030 A 
ATOM      2  C   UNL d   1       0.780   2.679  -0.628  0.00  0.00     0.042 A 
ATOM      3  C   UNL d   1      -0.010   4.957  -0.436  0.00  0.00     0.031 A 
ATOM      4  C   UNL d   1       2.291   4.456  -0.024  0.00  0.00     0.031 A 
ATOM      5  C   UNL d   1      -0.252   3.606  -0.718  0.00  0.00     0.032 A 
ATOM      6  C   UNL d   1       2.058   3.101  -0.288  0.00  0.00     0.032 A 
ENDROOT
BRANCH   2   7
ATOM      7  N   UNL d   1       0.515   1.306  -0.858  0.00  0.00    -0.281 N 
ATOM      8  H   UNL d   1       0.837   0.622  -0.175  0.00  0.00     0.179 HD
BRANCH   7   9
ATOM      9  S   UNL d   1       0.383   0.705  -2.421  0.00  0.00     0.266 S 
ATOM     10  O   UNL d   1       0.165  -0.724  -2.303  0.00  0.00    -0.200 OA
ATOM     11  O   UNL d   1      -0.552   1.530  -3.155  0.00  0.00    -0.200 OA
BRANCH   9  12
ATOM     12  C   UNL d   1       1.979   0.921  -3.139  0.00  0.00     0.118 A 
ATOM     13  C   UNL d   1       3.073   0.298  -2.554  0.00  0.00     0.139 A 
ATOM     14  F   UNL d   1       2.952  -0.381  -1.404  0.00  0.00    -0.204 F 
ATOM     15  C   UNL d   1       4.332   0.385  -3.146  0.00  0.00     0.044 A 
ATOM     16  C   UNL d   1       4.492   1.098  -4.335  0.00  0.00     0.003 A 
ATOM     17  C   UNL d   1       3.390   1.724  -4.925  0.00  0.00     0.002 A 
ATOM     18  C   UNL d   1       2.130   1.636  -4.331  0.00  0.00     0.028 A 
ENDBRANCH   9  12
ENDBRANCH   7   9
ENDBRANCH   2   7
BRANCH   1  19
ATOM     19  N   UNL d   1       1.551   6.755   0.153  0.00  0.00    -0.381 N 
ATOM     20  C   UNL d   1       0.680   7.820  -0.351  0.00  0.00     0.123 C 
ATOM     21  C   UNL d   1       1.553   9.017  -0.737  0.00  0.00     0.020 C 
ATOM     22  C   UNL d   1       2.458   9.461   0.413  0.00  0.00     0.003 C 
ATOM     23  C   UNL d   1       3.245   8.286   0.993  0.00  0.00     0.020 C 
ATOM     24  C   UNL d   1       2.321   7.121   1.349  0.00  0.00     0.123 C 
ENDBRANCH   1  19
TORSDOF 4
