REMARK  2 active torsions:
REMARK  status: ('A' for Active; 'I' for Inactive)
REMARK    1  A    between atoms: C_6  and  C_1 
REMARK    2  A    between atoms: C_2  and  N_11 
REMARK       I    between atoms: N_10  and  C_6 
ROOT
ATOM      1  C   UNL d   1      -0.242   2.474  -0.123  0.00  0.00     0.260 C 
ATOM      2  N   UNL d   1      -1.633   2.603  -0.325  0.00  0.00    -0.344 N 
ATOM      3  N   UNL d   1      -4.474   3.383  -0.690  0.00  0.00     0.105 N 
ATOM      4  C   UNL d   1      -2.606   2.564   0.766  0.00  0.00     0.156 C 
ATOM      5  C   UNL d   1      -2.048   3.258  -1.565  0.00  0.00     0.156 C 
ATOM      6  C   UNL d   1      -4.050   2.398   0.313  0.00  0.00     0.293 C 
ATOM      7  C   UNL d   1      -3.572   3.284  -1.847  0.00  0.00     0.293 C 
ATOM      8  O   UNL d   1       0.525   2.588  -1.077  0.00  0.00    -0.267 OA
ENDROOT
BRANCH   3   9
ATOM      9  C   UNL d   1      -4.811   4.745  -0.219  0.00  0.00     0.290 C 
ATOM     10  C   UNL d   1      -3.680   5.679   0.222  0.00  0.00    -0.009 C 
ATOM     11  C   UNL d   1      -3.793   5.977   1.598  0.00  0.00    -0.017 C 
ATOM     12  C   UNL d   1      -2.689   6.285  -0.535  0.00  0.00     0.010 C 
ATOM     13  C   UNL d   1      -2.816   6.713   2.252  0.00  0.00     0.013 C 
ATOM     14  C   UNL d   1      -5.033   5.429   2.095  0.00  0.00    -0.017 A 
ATOM     15  C   UNL d   1      -1.742   7.205   1.508  0.00  0.00     0.001 C 
ATOM     16  C   UNL d   1      -1.696   7.019   0.120  0.00  0.00     0.001 C 
ATOM     17  C   UNL d   1      -5.673   4.721   1.054  0.00  0.00    -0.009 A 
ATOM     18  C   UNL d   1      -5.627   5.547   3.341  0.00  0.00     0.013 A 
ATOM     19  C   UNL d   1      -6.894   4.094   1.262  0.00  0.00     0.010 A 
ATOM     20  C   UNL d   1      -7.481   4.193   2.526  0.00  0.00     0.001 A 
ATOM     21  C   UNL d   1      -6.859   4.923   3.552  0.00  0.00     0.001 A 
ENDBRANCH   3   9
BRANCH   1  22
ATOM     22  C   UNL d   1       0.240   2.205   1.231  0.00  0.00     0.073 C 
ATOM     23  S   UNL d   1       1.550   1.114   1.435  0.00  0.00    -0.084 SA
ATOM     24  C   UNL d   1       1.506   1.247   3.145  0.00  0.00     0.022 C 
ATOM     25  C   UNL d   1       2.434   0.538   3.987  0.00  0.00     0.021 A 
ATOM     26  C   UNL d   1       0.512   2.112   3.550  0.00  0.00     0.022 C 
ATOM     27  S   UNL d   1       1.989  -0.024   5.547  0.00  0.00    -0.101 SA
ATOM     28  C   UNL d   1       3.756   0.238   3.712  0.00  0.00     0.021 A 
ATOM     29  C   UNL d   1       3.551  -0.647   5.847  0.00  0.00     0.050 A 
ATOM     30  C   UNL d   1       4.402  -0.439   4.787  0.00  0.00     0.008 A 
ATOM     31  C   UNL d   1      -0.142   2.731   2.450  0.00  0.00     0.026 C 
ENDBRANCH   1  22
TORSDOF 2
