REMARK  5 active torsions:
REMARK  status: ('A' for Active; 'I' for Inactive)
REMARK    1  A    between atoms: N_2  and  C_1 
REMARK    2  A    between atoms: C_3  and  N_8 
REMARK    3  A    between atoms: N_9  and  C_6 
REMARK    4  A    between atoms: C_7  and  C_13 
REMARK    5  A    between atoms: N_8  and  N_9 
ROOT
ATOM      1  N   UNL d   1       0.869  -2.557   0.019  0.00  0.00    -0.312 N 
ATOM      2  C   UNL d   1       2.269  -3.003  -0.066  0.00  0.00     0.172 C 
ENDROOT
BRANCH   1   3
ATOM      3  N   UNL d   1      -0.118  -3.261  -0.692  0.00  0.00    -0.204 NA
ATOM      4  H   UNL d   1       0.182  -3.508  -1.640  0.00  0.00     0.150 HD
BRANCH   3   5
ATOM      5  C   UNL d   1      -0.592  -4.470  -0.026  0.00  0.00     0.257 C 
ATOM      6  O   UNL d   1      -1.625  -5.043  -0.854  0.00  0.00    -0.290 OA
ATOM      7  C   UNL d   1      -2.857  -4.932  -0.276  0.00  0.00     0.295 C 
ATOM      8  O   UNL d   1      -3.924  -5.214  -0.783  0.00  0.00    -0.259 OA
ATOM      9  C   UNL d   1      -2.634  -4.508   1.097  0.00  0.00     0.049 A 
ATOM     10  C   UNL d   1      -1.289  -4.259   1.270  0.00  0.00     0.003 A 
ATOM     11  C   UNL d   1      -3.554  -4.438   2.130  0.00  0.00     0.018 A 
ATOM     12  C   UNL d   1      -0.799  -3.948   2.531  0.00  0.00     0.012 A 
ATOM     13  C   UNL d   1      -1.701  -3.892   3.602  0.00  0.00     0.001 A 
ATOM     14  C   UNL d   1      -3.071  -4.130   3.401  0.00  0.00     0.001 A 
ENDBRANCH   3   5
ENDBRANCH   1   3
BRANCH   1  15
ATOM     15  C   UNL d   1       0.688  -1.154   0.158  0.00  0.00     0.078 A 
ATOM     16  C   UNL d   1      -0.148  -0.340  -0.637  0.00  0.00     0.131 A 
ATOM     17  C   UNL d   1      -0.376   1.023  -0.360  0.00  0.00     0.054 A 
ATOM     18  C   UNL d   1       0.243   1.628   0.738  0.00  0.00     0.050 A 
ATOM     19  C   UNL d   1       1.095   0.849   1.531  0.00  0.00     0.018 A 
ATOM     20  C   UNL d   1       1.307  -0.508   1.247  0.00  0.00     0.034 A 
BRANCH  16  21
ATOM     21  N   UNL d   1      -0.765  -0.838  -1.854  0.00  0.00    -0.113 N 
ATOM     22  O   UNL d   1      -0.006  -1.179  -2.777  0.00  0.00    -0.532 OA
ATOM     23  O   UNL d   1      -2.000  -0.786  -1.920  0.00  0.00    -0.532 OA
ENDBRANCH  16  21
BRANCH  18  24
ATOM     24  C   UNL d   1       0.000   3.077   1.082  0.00  0.00     0.417 C 
ATOM     25  F   UNL d   1      -0.799   3.721   0.189  0.00  0.00    -0.166 F 
ATOM     26  F   UNL d   1      -0.594   3.227   2.297  0.00  0.00    -0.166 F 
ATOM     27  F   UNL d   1       1.155   3.795   1.137  0.00  0.00    -0.166 F 
ENDBRANCH  18  24
ENDBRANCH   1  15
TORSDOF 5
