REMARK  4 active torsions:
REMARK  status: ('A' for Active; 'I' for Inactive)
REMARK    1  A    between atoms: C_7  and  N_1 
REMARK    2  A    between atoms: S_6  and  C_4 
REMARK    3  A    between atoms: C_13  and  S_6 
REMARK    4  A    between atoms: C_12  and  C_7 
ROOT
ATOM      1  N   UNL d   1      -0.069   0.762  -0.151  0.00  0.00    -0.283 N 
ATOM      2  C   UNL d   1      -1.152  -0.045   0.073  0.00  0.00     0.241 C 
ATOM      3  C   UNL d   1       1.084   0.048  -0.242  0.00  0.00     0.228 C 
ATOM      4  C   UNL d   1      -0.729  -1.495  -0.090  0.00  0.00     0.153 C 
ATOM      5  C   UNL d   1       0.789  -1.416  -0.129  0.00  0.00     0.128 C 
ATOM      6  O   UNL d   1      -2.268   0.328   0.407  0.00  0.00    -0.272 OA
ATOM      7  O   UNL d   1       2.217   0.506  -0.321  0.00  0.00    -0.273 OA
ENDROOT
BRANCH   1   8
ATOM      8  C   UNL d   1      -0.085   2.214  -0.058  0.00  0.00     0.174 C 
BRANCH   8   9
ATOM      9  C   UNL d   1      -0.487   2.884  -1.345  0.00  0.00    -0.024 A 
ATOM     10  C   UNL d   1       0.457   3.251  -2.300  0.00  0.00     0.096 A 
ATOM     11  N   UNL d   1       0.152   3.812  -3.495  0.00  0.00    -0.375 N 
ATOM     12  C   UNL d   1      -1.157   4.016  -3.756  0.00  0.00     0.087 A 
ATOM     13  HN  UNL d   1       0.877   4.067  -4.165  1.00  0.00     0.164 HD
ATOM     14  C   UNL d   1      -2.171   3.714  -2.865  0.00  0.00     0.018 A 
ATOM     15  C   UNL d   1      -1.828   3.146  -1.641  0.00  0.00     0.011 A 
ENDBRANCH   8   9
ENDBRANCH   1   8
BRANCH   4  16
ATOM     16  S   UNL d   1      -1.435  -2.198  -1.629  0.00  0.00    -0.115 SA
BRANCH  16  17
ATOM     17  C   UNL d   1      -0.790  -3.868  -1.556  0.00  0.00     0.001 A 
ATOM     18  C   UNL d   1      -1.151  -4.747  -0.529  0.00  0.00     0.020 A 
ATOM     19  C   UNL d   1      -0.625  -6.045  -0.490  0.00  0.00     0.025 A 
ATOM     20  C   UNL d   1       0.252  -6.471  -1.485  0.00  0.00     0.034 A 
ATOM     21  C   UNL d   1       0.602  -5.612  -2.524  0.00  0.00     0.025 A 
ATOM     22 CL   UNL d   1       0.902  -8.062  -1.431  0.00  0.00    -0.084 Cl
ATOM     23  C   UNL d   1       0.078  -4.315  -2.562  0.00  0.00     0.020 A 
ENDBRANCH  16  17
ENDBRANCH   4  16
TORSDOF 4
