REMARK  5 active torsions:
REMARK  status: ('A' for Active; 'I' for Inactive)
REMARK    1  A    between atoms: N_3  and  C_1 
REMARK    2  A    between atoms: N_5  and  C_1 
REMARK       I    between atoms: C_2  and  N_4 
REMARK    3  A    between atoms: C_12  and  C_2 
REMARK    4  A    between atoms: C_6  and  N_3 
REMARK    5  A    between atoms: N_4  and  N_5 
ROOT
ATOM      1  N   UNL d   1       0.044   1.161  -0.339  0.00  0.00    -0.273 N 
ATOM      2  H   UNL d   1       0.362   2.023  -0.778  0.00  0.00     0.189 HD
ENDROOT
BRANCH   1   3
ATOM      3  N   UNL d   1      -1.299   1.167   0.046  0.00  0.00    -0.264 N 
ATOM      4  C   UNL d   1      -1.851   2.403   0.331  0.00  0.00     0.270 C 
ATOM      5  O   UNL d   1      -1.179   3.428   0.399  0.00  0.00    -0.266 OA
ATOM      6  H   UNL d   1      -1.851   0.365  -0.245  0.00  0.00     0.190 HD
BRANCH   4   7
ATOM      7  C   UNL d   1      -3.330   2.466   0.473  0.00  0.00     0.036 A 
ATOM      8  C   UNL d   1      -4.113   1.342   0.730  0.00  0.00     0.034 A 
ATOM      9  C   UNL d   1      -5.484   1.514   0.809  0.00  0.00     0.088 A 
ATOM     10  N   UNL d   1      -6.101   2.705   0.658  0.00  0.00    -0.375 N 
ATOM     11  C   UNL d   1      -5.318   3.780   0.431  0.00  0.00     0.088 A 
ATOM     12  HN  UNL d   1      -7.116   2.788   0.714  1.00  0.00     0.164 HD
ATOM     13  C   UNL d   1      -3.941   3.714   0.331  0.00  0.00     0.034 A 
ENDBRANCH   4   7
ENDBRANCH   1   3
BRANCH   1  14
ATOM     14  C   UNL d   1       0.795   0.014  -0.401  0.00  0.00     0.191 C 
ATOM     15  S   UNL d   1       0.270  -1.493   0.104  0.00  0.00    -0.039 SA
BRANCH  14  16
ATOM     16  N   UNL d   1       2.008   0.116  -1.030  0.00  0.00    -0.331 N 
ATOM     17  H   UNL d   1       2.345  -0.754  -1.434  0.00  0.00     0.168 HD
BRANCH  16  18
ATOM     18  C   UNL d   1       2.760   1.275  -1.328  0.00  0.00     0.056 A 
ATOM     19  C   UNL d   1       3.557   1.310  -2.483  0.00  0.00     0.060 A 
ATOM     20 CL   UNL d   1       3.592  -0.023  -3.585  0.00  0.00    -0.082 Cl
ATOM     21  C   UNL d   1       4.296   2.453  -2.800  0.00  0.00     0.026 A 
ATOM     22  C   UNL d   1       4.277   3.554  -1.944  0.00  0.00     0.002 A 
ATOM     23  C   UNL d   1       3.525   3.513  -0.773  0.00  0.00     0.002 A 
ATOM     24  C   UNL d   1       2.771   2.378  -0.465  0.00  0.00     0.031 A 
ENDBRANCH  16  18
ENDBRANCH  14  16
ENDBRANCH   1  14
TORSDOF 5
