REMARK  7 active torsions:
REMARK  status: ('A' for Active; 'I' for Inactive)
REMARK    1  A    between atoms: N_7  and  C_1 
REMARK    2  A    between atoms: C_6  and  C_5 
REMARK    3  A    between atoms: C_9  and  C_6 
REMARK    4  A    between atoms: C_12  and  N_7 
REMARK       I    between atoms: N_10  and  C_9 
REMARK    5  A    between atoms: C_13  and  N_10 
REMARK    6  A    between atoms: S_19  and  C_17 
REMARK    7  A    between atoms: S_20  and  C_18 
ROOT
ATOM      1  C   UNL d   1       0.790   1.058   0.159  0.00  0.00     0.148 C 
ATOM      2  N   UNL d   1       0.808  -0.230  -0.260  0.00  0.00    -0.306 N 
ATOM      3  C   UNL d   1      -0.293  -0.995  -0.010  0.00  0.00     0.238 C 
ATOM      4  S   UNL d   1      -0.824   1.534   0.614  0.00  0.00    -0.079 SA
ATOM      5  C   UNL d   1      -1.492  -0.157   0.386  0.00  0.00     0.156 C 
ATOM      6  O   UNL d   1      -0.270  -2.216  -0.072  0.00  0.00    -0.272 OA
ATOM      7  H   UNL d   1       1.663  -0.689  -0.531  0.00  0.00     0.171 HD
ENDROOT
BRANCH   5   8
ATOM      8  C   UNL d   1      -2.159  -0.680   1.650  0.00  0.00     0.128 C 
BRANCH   8   9
ATOM      9  C   UNL d   1      -3.657  -0.441   1.630  0.00  0.00     0.223 C 
ATOM     10  N   UNL d   1      -3.997   0.889   1.789  0.00  0.00    -0.327 N 
ATOM     11  H   UNL d   1      -3.237   1.562   1.794  0.00  0.00     0.169 HD
ATOM     12  O   UNL d   1      -4.431  -1.379   1.488  0.00  0.00    -0.273 OA
BRANCH  10  13
ATOM     13  C   UNL d   1      -5.293   1.435   1.938  0.00  0.00     0.035 A 
ATOM     14  C   UNL d   1      -6.461   0.670   2.045  0.00  0.00     0.048 A 
ATOM     15  C   UNL d   1      -7.711   1.279   2.231  0.00  0.00     0.002 A 
ATOM     16  C   UNL d   1      -7.776   2.677   2.294  0.00  0.00     0.018 A 
ATOM     17  C   UNL d   1      -6.622   3.450   2.183  0.00  0.00     0.004 A 
ATOM     18  C   UNL d   1      -5.386   2.830   2.009  0.00  0.00     0.029 A 
BRANCH  15  19
ATOM     19  S   UNL d   1      -9.270   0.408   2.389  0.00  0.00    -0.134 SA
ATOM     20  C   UNL d   1      -8.773  -1.330   2.529  0.00  0.00     0.095 C 
ENDBRANCH  15  19
ENDBRANCH  10  13
ENDBRANCH   8   9
ENDBRANCH   5   8
BRANCH   1  21
ATOM     21  N   UNL d   1       1.787   1.867   0.267  0.00  0.00    -0.337 N 
ATOM     22  HN  UNL d   1       1.621   2.829   0.562  1.00  0.00     0.168 HD
BRANCH  21  23
ATOM     23  C   UNL d   1       3.099   1.447  -0.014  0.00  0.00     0.035 A 
ATOM     24  C   UNL d   1       3.680   0.348   0.637  0.00  0.00     0.048 A 
ATOM     25  C   UNL d   1       4.975  -0.081   0.329  0.00  0.00     0.002 A 
ATOM     26  C   UNL d   1       5.725   0.664  -0.587  0.00  0.00     0.018 A 
ATOM     27  C   UNL d   1       5.185   1.800  -1.193  0.00  0.00     0.004 A 
ATOM     28  C   UNL d   1       3.872   2.183  -0.912  0.00  0.00     0.029 A 
BRANCH  25  29
ATOM     29  S   UNL d   1       5.741  -1.532   1.044  0.00  0.00    -0.134 SA
ATOM     30  C   UNL d   1       4.323  -2.476   1.673  0.00  0.00     0.095 C 
ENDBRANCH  25  29
ENDBRANCH  21  23
ENDBRANCH   1  21
TORSDOF 7
