REMARK  5 active torsions:
REMARK  status: ('A' for Active; 'I' for Inactive)
REMARK    1  A    between atoms: C_18  and  N_1 
REMARK    2  A    between atoms: S_2  and  N_12 
REMARK    3  A    between atoms: C_11  and  S_2 
REMARK    4  A    between atoms: C_14  and  C_7 
REMARK    5  A    between atoms: N_12  and  C_14 
ROOT
ATOM      1  N   UNL d   1       3.388   0.915  -0.064  0.00  0.00    -0.310 N 
ATOM      2  H   UNL d   1       3.466  -0.053   0.252  0.00  0.00     0.172 HD
ENDROOT
BRANCH   1   3
ATOM      3  S   UNL d   1       4.825   1.769  -0.049  0.00  0.00     0.259 S 
ATOM      4  O   UNL d   1       5.856   0.886  -0.543  0.00  0.00    -0.201 OA
ATOM      5  O   UNL d   1       4.569   3.061  -0.644  0.00  0.00    -0.201 OA
BRANCH   3   6
ATOM      6  C   UNL d   1       5.131   2.009   1.683  0.00  0.00     0.081 A 
ATOM      7  C   UNL d   1       5.381   0.879   2.475  0.00  0.00     0.051 A 
ATOM      8  C   UNL d   1       5.652   1.004   3.844  0.00  0.00     0.045 A 
ATOM      9  N   UNL d   1       5.934  -0.123   4.647  0.00  0.00    -0.283 NA
ATOM     10  C   UNL d   1       5.590   2.308   4.394  0.00  0.00     0.090 A 
ATOM     11  C   UNL d   1       6.450   0.256   5.971  0.00  0.00     0.122 C 
ATOM     12  C   UNL d   1       6.641  -1.238   4.015  0.00  0.00     0.116 C 
ATOM     13  C   UNL d   1       5.628   1.405   6.540  0.00  0.00     0.190 C 
ATOM     14  O   UNL d   1       5.769   2.579   5.734  0.00  0.00    -0.348 OA
ATOM     15  C   UNL d   1       5.375   3.436   3.593  0.00  0.00     0.040 A 
ATOM     16  C   UNL d   1       5.152   3.291   2.227  0.00  0.00     0.028 A 
ENDBRANCH   3   6
ENDBRANCH   1   3
BRANCH   1  17
ATOM     17  C   UNL d   1       2.179   1.602   0.399  0.00  0.00     0.193 C 
BRANCH  17  18
ATOM     18  C   UNL d   1       1.039   0.645   0.280  0.00  0.00     0.069 A 
ATOM     19  N   UNL d   1       1.055  -0.539   0.913  0.00  0.00    -0.280 N 
ATOM     20  N   UNL d   1      -0.121  -1.103   0.513  0.00  0.00    -0.197 N 
ATOM     21  HN  UNL d   1       1.767  -0.921   1.536  1.00  0.00     0.189 HD
ATOM     22  N   UNL d   1      -0.881  -0.349  -0.328  0.00  0.00    -0.282 N 
ATOM     23  C   UNL d   1      -0.155   0.768  -0.459  0.00  0.00     0.049 A 
ATOM     24  HN  UNL d   1      -1.780  -0.577  -0.751  1.00  0.00     0.189 HD
ATOM     25  C   UNL d   1      -0.623   1.901  -1.287  0.00  0.00     0.072 C 
BRANCH  20  26
ATOM     26  C   UNL d   1      -0.526  -2.390   0.954  0.00  0.00     0.074 A 
ATOM     27  C   UNL d   1       0.216  -3.059   1.939  0.00  0.00     0.033 A 
ATOM     28  C   UNL d   1      -0.186  -4.321   2.380  0.00  0.00     0.002 A 
ATOM     29  C   UNL d   1      -1.317  -4.926   1.833  0.00  0.00     0.000 A 
ATOM     30  C   UNL d   1      -2.056  -4.267   0.849  0.00  0.00     0.002 A 
ATOM     31  C   UNL d   1      -1.669  -2.998   0.413  0.00  0.00     0.033 A 
ENDBRANCH  20  26
ENDBRANCH  17  18
ENDBRANCH   1  17
TORSDOF 5
