REMARK  6 active torsions:
REMARK  status: ('A' for Active; 'I' for Inactive)
REMARK    1  A    between atoms: N_2  and  S_1 
REMARK    2  A    between atoms: C_3  and  S_1 
REMARK    3  A    between atoms: C_4  and  N_2 
REMARK    4  A    between atoms: C_5  and  N_2 
REMARK    5  A    between atoms: C_12  and  C_4 
REMARK    6  A    between atoms: C_13  and  C_5 
ROOT
ATOM      1  N   UNL d   1       0.383  -1.449  -0.132  0.00  0.00    -0.195 NA
ENDROOT
BRANCH   1   2
ATOM      2  S   UNL d   1       1.175   0.092  -0.079  0.00  0.00     0.244 S 
ATOM      3  O   UNL d   1       0.902   0.755  -1.332  0.00  0.00    -0.206 OA
ATOM      4  O   UNL d   1       2.525  -0.097   0.407  0.00  0.00    -0.206 OA
BRANCH   2   5
ATOM      5  C   UNL d   1       0.344   1.034   1.187  0.00  0.00     0.074 A 
ATOM      6  C   UNL d   1       0.365   0.603   2.515  0.00  0.00     0.026 A 
ATOM      7  C   UNL d   1      -0.288   1.365   3.490  0.00  0.00     0.025 A 
ATOM      8  C   UNL d   1      -0.935   2.552   3.133  0.00  0.00     0.034 A 
ATOM      9  C   UNL d   1      -0.915   3.002   1.815  0.00  0.00     0.025 A 
ATOM     10 CL   UNL d   1      -1.771   3.465   4.328  0.00  0.00    -0.084 Cl
ATOM     11  C   UNL d   1      -0.272   2.244   0.836  0.00  0.00     0.026 A 
ENDBRANCH   2   5
ENDBRANCH   1   2
BRANCH   1  12
ATOM     12  C   UNL d   1      -1.115  -1.347  -0.216  0.00  0.00     0.164 C 
BRANCH  12  13
ATOM     13  C   UNL d   1      -1.877  -2.670  -0.204  0.00  0.00     0.023 A 
ATOM     14  N   UNL d   1      -2.692  -2.915  -1.263  0.00  0.00    -0.368 N 
ATOM     15  C   UNL d   1      -3.437  -4.044  -1.241  0.00  0.00     0.088 A 
ATOM     16  HN  UNL d   1      -2.740  -2.268  -2.051  1.00  0.00     0.165 HD
ATOM     17  C   UNL d   1      -3.412  -4.960  -0.207  0.00  0.00     0.017 A 
ATOM     18  C   UNL d   1      -2.562  -4.718   0.863  0.00  0.00     0.003 A 
ATOM     19  C   UNL d   1      -1.777  -3.559   0.867  0.00  0.00     0.026 A 
ENDBRANCH  12  13
ENDBRANCH   1  12
BRANCH   1  20
ATOM     20  C   UNL d   1       0.888  -2.231  -1.335  0.00  0.00     0.164 C 
BRANCH  20  21
ATOM     21  C   UNL d   1       2.379  -2.500  -1.396  0.00  0.00     0.023 A 
ATOM     22  N   UNL d   1       3.053  -2.005  -2.466  0.00  0.00    -0.368 N 
ATOM     23  C   UNL d   1       4.384  -2.230  -2.521  0.00  0.00     0.088 A 
ATOM     24  HN  UNL d   1       2.574  -1.483  -3.199  1.00  0.00     0.165 HD
ATOM     25  C   UNL d   1       5.081  -2.954  -1.570  0.00  0.00     0.017 A 
ATOM     26  C   UNL d   1       4.375  -3.468  -0.488  0.00  0.00     0.003 A 
ATOM     27  C   UNL d   1       3.005  -3.238  -0.395  0.00  0.00     0.026 A 
ENDBRANCH  20  21
ENDBRANCH   1  20
TORSDOF 6
