REMARK  3 active torsions:
REMARK  status: ('A' for Active; 'I' for Inactive)
REMARK    1  A    between atoms: C_5  and  C_1 
REMARK    2  A    between atoms: C_7  and  C_2 
REMARK    3  A    between atoms: O_15  and  C_5 
ROOT
ATOM      1  C   UNL d   1       0.555  -2.677   0.050  0.00  0.00     0.114 C 
ATOM      2  C   UNL d   1       0.773  -3.432  -1.057  0.00  0.00     0.158 C 
ATOM      3  C   UNL d   1       0.602  -2.885  -2.360  0.00  0.00     0.113 C 
ATOM      4  C   UNL d   1       1.143  -4.803  -1.026  0.00  0.00     0.113 C 
ATOM      5  N   UNL d   1       0.495  -2.457  -3.435  0.00  0.00    -0.191 NA
ATOM      6  N   UNL d   1       1.450  -5.921  -1.014  0.00  0.00    -0.191 NA
ENDROOT
BRANCH   1   7
ATOM      7  C   UNL d   1       0.050  -1.330  -0.013  0.00  0.00     0.060 A 
ATOM      8  C   UNL d   1      -1.308  -0.859  -0.004  0.00  0.00     0.082 A 
ATOM      9  N   UNL d   1      -1.310   0.484  -0.027  0.00  0.00    -0.259 N 
ATOM     10  O   UNL d   1      -0.007   0.892  -0.111  0.00  0.00    -0.241 OA
ATOM     11  HN  UNL d   1      -2.131   1.088   0.011  1.00  0.00     0.195 HD
ATOM     12  C   UNL d   1       0.814  -0.185  -0.090  0.00  0.00     0.088 A 
ATOM     13  C   UNL d   1       2.251   0.126  -0.159  0.00  0.00     0.080 C 
BRANCH   8  14
ATOM     14  C   UNL d   1      -2.571  -1.606   0.064  0.00  0.00     0.015 A 
ATOM     15  C   UNL d   1      -3.764  -1.158  -0.540  0.00  0.00     0.046 A 
ATOM     16 CL   UNL d   1      -3.882   0.257  -1.535  0.00  0.00    -0.083 Cl
ATOM     17  C   UNL d   1      -4.951  -1.889  -0.394  0.00  0.00     0.025 A 
ATOM     18  C   UNL d   1      -4.968  -3.080   0.328  0.00  0.00     0.002 A 
ATOM     19  C   UNL d   1      -3.797  -3.550   0.907  0.00  0.00     0.001 A 
ATOM     20  C   UNL d   1      -2.617  -2.815   0.784  0.00  0.00     0.015 A 
ENDBRANCH   8  14
ENDBRANCH   1   7
BRANCH   1  21
ATOM     21  O   UNL d   1       0.698  -3.045   1.374  0.00  0.00    -0.353 OA
ATOM     22  C   UNL d   1       1.647  -4.024   1.777  0.00  0.00     0.210 C 
ENDBRANCH   1  21
TORSDOF 3
