REMARK  4 active torsions:
REMARK  status: ('A' for Active; 'I' for Inactive)
REMARK    1  A    between atoms: C_2  and  S_1 
REMARK    2  A    between atoms: O_8  and  S_1 
REMARK    3  A    between atoms: C_3  and  C_7 
REMARK    4  A    between atoms: C_14  and  O_8 
ROOT
ATOM      1  C   UNL d   1       0.378   0.654   1.478  0.00  0.00     0.128 A 
ATOM      2  S   UNL d   1       0.396   2.366   1.445  0.00  0.00    -0.074 SA
ATOM      3  C   UNL d   1      -0.082   2.474   3.082  0.00  0.00     0.033 A 
ATOM      4  C   UNL d   1      -0.141   0.183   2.671  0.00  0.00     0.035 A 
ATOM      5  C   UNL d   1      -0.395   1.234   3.600  0.00  0.00     0.023 A 
ENDROOT
BRANCH   1   6
ATOM      6  S   UNL d   1       1.081  -0.201   0.070  0.00  0.00     0.309 S 
ATOM      7  O   UNL d   1       1.294  -1.545   0.569  0.00  0.00    -0.192 OA
ATOM      8  O   UNL d   1       2.150   0.658  -0.397  0.00  0.00    -0.192 OA
BRANCH   6   9
ATOM      9  O   UNL d   1      -0.158  -0.184  -0.977  0.00  0.00    -0.227 OA
BRANCH   9  10
ATOM     10  C   UNL d   1      -0.203  -0.901  -2.153  0.00  0.00     0.111 A 
ATOM     11  C   UNL d   1       0.820  -1.565  -2.847  0.00  0.00     0.068 A 
ATOM     12 CL   UNL d   1       2.473  -1.667  -2.367  0.00  0.00    -0.081 Cl
ATOM     13  C   UNL d   1       0.538  -2.204  -4.068  0.00  0.00     0.026 A 
ATOM     14  C   UNL d   1      -0.746  -2.189  -4.609  0.00  0.00     0.002 A 
ATOM     15  C   UNL d   1      -1.763  -1.538  -3.930  0.00  0.00     0.003 A 
ATOM     16  C   UNL d   1      -1.494  -0.902  -2.716  0.00  0.00     0.040 A 
ENDBRANCH   9  10
ENDBRANCH   6   9
ENDBRANCH   1   6
BRANCH   3  17
ATOM     17  C   UNL d   1      -0.130   3.735   3.897  0.00  0.00     0.056 A 
ATOM     18  N   UNL d   1      -0.436   3.690   5.250  0.00  0.00    -0.353 N 
ATOM     19  C   UNL d   1      -0.343   4.895   5.775  0.00  0.00     0.047 A 
ATOM     20  HN  UNL d   1      -0.696   2.848   5.764  1.00  0.00     0.166 HD
ATOM     21  C   UNL d   1      -0.553   5.207   7.214  0.00  0.00     0.076 C 
ATOM     22  S   UNL d   1       0.059   6.150   4.672  0.00  0.00    -0.087 SA
ATOM     23  C   UNL d   1       0.158   4.993   3.409  0.00  0.00     0.082 A 
ENDBRANCH   3  17
TORSDOF 4
