REMARK  2 active torsions:
REMARK  status: ('A' for Active; 'I' for Inactive)
REMARK    1  A    between atoms: C_8  and  C_4 
REMARK    2  A    between atoms: O_15  and  C_8 
ROOT
ATOM      1  C   UNL d   1      -0.880  -0.460   0.004  0.00  0.00     0.024 A 
ATOM      2  S   UNL d   1      -1.727  -1.949   0.020  0.00  0.00    -0.083 SA
ATOM      3  C   UNL d   1      -1.754   0.613  -0.005  0.00  0.00    -0.029 A 
ATOM      4  C   UNL d   1      -3.260  -1.198   0.012  0.00  0.00     0.081 A 
ATOM      5  C   UNL d   1       0.592  -0.390  -0.001  0.00  0.00    -0.000 A 
ATOM      6  C   UNL d   1      -3.126   0.176   0.004  0.00  0.00     0.034 A 
ATOM      7  S   UNL d   1       0.396   2.449   0.065  0.00  0.00    -0.124 SA
ATOM      8  C   UNL d   1       1.228   0.866   0.010  0.00  0.00     0.012 A 
ATOM      9  C   UNL d   1      -1.368   2.051  -0.038  0.00  0.00     0.119 A 
ATOM     10  C   UNL d   1       1.399  -1.547  -0.013  0.00  0.00     0.038 A 
ATOM     11  C   UNL d   1       2.634   0.938   0.004  0.00  0.00     0.021 A 
ATOM     12  C   UNL d   1       2.792  -1.456  -0.012  0.00  0.00     0.035 A 
ATOM     13  C   UNL d   1       3.414  -0.217  -0.007  0.00  0.00     0.025 A 
ATOM     14 CL   UNL d   1       3.746  -2.888  -0.013  0.00  0.00    -0.084 Cl
ENDROOT
BRANCH   4  15
ATOM     15  C   UNL d   1      -4.450  -2.029   0.013  0.00  0.00     0.299 C 
ATOM     16  O   UNL d   1      -4.474  -3.254   0.017  0.00  0.00    -0.259 OA
BRANCH  15  17
ATOM     17  O   UNL d   1      -5.572  -1.250   0.006  0.00  0.00    -0.322 OA
ATOM     18  C   UNL d   1      -6.784  -2.007   0.004  0.00  0.00     0.213 C 
ENDBRANCH  15  17
ENDBRANCH   4  15
TORSDOF 2
