REMARK  6 active torsions:
REMARK  status: ('A' for Active; 'I' for Inactive)
REMARK    1  A    between atoms: N_3  and  C_1 
REMARK       I    between atoms: C_2  and  N_4 
REMARK    2  A    between atoms: C_9  and  C_2 
REMARK    3  A    between atoms: N_4  and  N_3 
REMARK    4  A    between atoms: C_8  and  N_6 
REMARK    5  A    between atoms: O_11  and  C_9 
REMARK    6  A    between atoms: C_12  and  O_11 
ROOT
ATOM      1  C   UNL d   1       0.007  -3.135   2.012  0.00  0.00     0.260 C 
ATOM      2  N   UNL d   1      -0.268  -3.439   0.692  0.00  0.00    -0.266 N 
ATOM      3  O   UNL d   1      -0.315  -2.069   2.534  0.00  0.00    -0.269 OA
ATOM      4  H   UNL d   1      -0.131  -4.373   0.311  0.00  0.00     0.190 HD
ENDROOT
BRANCH   1   5
ATOM      5  C   UNL d   1       0.797  -4.228   2.734  0.00  0.00     0.280 C 
BRANCH   5   6
ATOM      6  O   UNL d   1      -0.076  -5.296   3.081  0.00  0.00    -0.342 OA
BRANCH   6   7
ATOM      7  C   UNL d   1       0.452  -6.320   3.820  0.00  0.00     0.069 A 
ATOM      8  C   UNL d   1       1.805  -6.535   4.088  0.00  0.00     0.037 A 
ATOM      9  C   UNL d   1       2.205  -7.641   4.850  0.00  0.00     0.003 A 
ATOM     10  C   UNL d   1       1.258  -8.535   5.348  0.00  0.00     0.000 A 
ATOM     11  C   UNL d   1      -0.092  -8.326   5.083  0.00  0.00     0.003 A 
ATOM     12  C   UNL d   1      -0.490  -7.225   4.320  0.00  0.00     0.037 A 
ENDBRANCH   6   7
ENDBRANCH   5   6
ENDBRANCH   1   5
BRANCH   2  13
ATOM     13  N   UNL d   1      -0.957  -2.517  -0.119  0.00  0.00    -0.273 N 
ATOM     14  H   UNL d   1      -1.161  -1.621   0.316  0.00  0.00     0.189 HD
BRANCH  13  15
ATOM     15  C   UNL d   1      -1.025  -2.713  -1.476  0.00  0.00     0.190 C 
ATOM     16  S   UNL d   1      -0.408  -4.062  -2.267  0.00  0.00    -0.039 SA
ATOM     17  N   UNL d   1      -1.665  -1.782  -2.243  0.00  0.00    -0.343 N 
ATOM     18  H   UNL d   1      -1.680  -2.034  -3.228  0.00  0.00     0.167 HD
BRANCH  17  19
ATOM     19  C   UNL d   1      -2.297  -0.617  -1.900  0.00  0.00     0.080 C 
ATOM     20  C   UNL d   1      -2.902   0.132  -2.826  0.00  0.00     0.030 C 
ENDBRANCH  17  19
ENDBRANCH  13  15
ENDBRANCH   2  13
TORSDOF 6
