REMARK  4 active torsions:
REMARK  status: ('A' for Active; 'I' for Inactive)
REMARK    1  A    between atoms: N_2  and  S_1 
REMARK    2  A    between atoms: C_5  and  S_1 
REMARK    3  A    between atoms: C_3  and  C_11 
REMARK       I    between atoms: N_4  and  C_3 
REMARK    4  A    between atoms: C_11  and  N_6 
ROOT
ATOM      1  N   UNL d   1       0.051  -1.147  -0.323  0.00  0.00    -0.303 N 
ATOM      2  N   UNL d   1       0.161  -3.660  -1.918  0.00  0.00     0.100 N 
ATOM      3  C   UNL d   1       0.112  -2.474   0.347  0.00  0.00     0.165 C 
ATOM      4  C   UNL d   1      -0.497  -1.194  -1.699  0.00  0.00     0.165 C 
ATOM      5  C   UNL d   1       0.166  -2.306  -2.544  0.00  0.00     0.293 C 
ATOM      6  C   UNL d   1       0.759  -3.534  -0.572  0.00  0.00     0.293 C 
ENDROOT
BRANCH   1   7
ATOM      7  S   UNL d   1       1.276  -0.030   0.012  0.00  0.00     0.260 S 
ATOM      8  O   UNL d   1       1.271   1.007  -0.991  0.00  0.00    -0.200 OA
ATOM      9  O   UNL d   1       2.480  -0.770   0.339  0.00  0.00    -0.200 OA
BRANCH   7  10
ATOM     10  C   UNL d   1       0.664   0.724   1.510  0.00  0.00     0.079 A 
ATOM     11  C   UNL d   1       1.411   0.676   2.690  0.00  0.00     0.028 A 
ATOM     12  C   UNL d   1       0.922   1.312   3.835  0.00  0.00     0.044 A 
ATOM     13  C   UNL d   1      -0.298   1.983   3.785  0.00  0.00     0.116 A 
ATOM     14  C   UNL d   1      -1.043   2.036   2.611  0.00  0.00     0.044 A 
ATOM     15  F   UNL d   1      -0.759   2.593   4.885  0.00  0.00    -0.206 F 
ATOM     16  C   UNL d   1      -0.561   1.406   1.463  0.00  0.00     0.028 A 
ENDBRANCH   7  10
ENDBRANCH   1   7
BRANCH   2  17
ATOM     17  C   UNL d   1      -1.220  -4.201  -1.936  0.00  0.00     0.374 C 
BRANCH  17  18
ATOM     18  C   UNL d   1      -1.515  -5.478  -1.139  0.00  0.00     0.248 C 
ATOM     19  N   UNL d   1      -0.745  -6.617  -1.250  0.00  0.00    -0.347 N 
ATOM     20  C   UNL d   1      -1.241  -7.864  -0.653  0.00  0.00     0.152 C 
ATOM     21  C   UNL d   1       0.342  -6.849  -2.203  0.00  0.00     0.152 C 
ATOM     22  C   UNL d   1      -1.662  -8.837  -1.763  0.00  0.00     0.187 C 
ATOM     23  O   UNL d   1      -0.574  -9.078  -2.674  0.00  0.00    -0.388 OA
ATOM     24  C   UNL d   1      -0.115  -7.851  -3.271  0.00  0.00     0.187 C 
ATOM     25  O   UNL d   1      -2.536  -5.481  -0.436  0.00  0.00    -0.271 OA
ENDBRANCH  17  18
ENDBRANCH   2  17
TORSDOF 4
