REMARK  2 active torsions:
REMARK  status: ('A' for Active; 'I' for Inactive)
REMARK    1  A    between atoms: N_2  and  C_1 
REMARK    2  A    between atoms: C_8  and  N_2 
ROOT
ATOM      1  C   UNL d   1       4.626   2.709  -0.721  0.00  0.00     0.042 A 
ATOM      2  C   UNL d   1       3.769   1.603  -0.717  0.00  0.00     0.053 A 
ATOM      3  C   UNL d   1       2.951   1.333   0.381  0.00  0.00     0.035 A 
ATOM      4  C   UNL d   1       4.673   3.581   0.375  0.00  0.00    -0.040 A 
ATOM      5  C   UNL d   1       3.884   3.284   1.494  0.00  0.00     0.011 A 
ATOM      6 CL   UNL d   1       5.634   2.946  -2.105  0.00  0.00    -0.084 Cl
ATOM      7  C   UNL d   1       3.053   2.159   1.503  0.00  0.00     0.030 A 
ATOM      8  C   UNL d   1       5.562   4.792   0.398  0.00  0.00     0.050 C 
ENDROOT
BRANCH   3   9
ATOM      9  N   UNL d   1       2.155   0.180   0.341  0.00  0.00    -0.337 N 
ATOM     10  HN  UNL d   1       2.604  -0.707   0.111  1.00  0.00     0.168 HD
BRANCH   9  11
ATOM     11  C   UNL d   1       0.883   0.176   0.578  0.00  0.00     0.140 C 
ATOM     12  N   UNL d   1       0.147  -0.972   0.515  0.00  0.00    -0.370 N 
ATOM     13  C   UNL d   1      -1.072  -0.964   1.292  0.00  0.00     0.132 C 
ATOM     14  H   UNL d   1       0.707  -1.815   0.506  0.00  0.00     0.161 HD
ATOM     15  C   UNL d   1      -1.609   0.462   1.248  0.00  0.00     0.102 C 
ATOM     16  S   UNL d   1      -0.142   1.522   1.054  0.00  0.00    -0.093 SA
ENDBRANCH   9  11
ENDBRANCH   3   9
TORSDOF 2
