REMARK  4 active torsions:
REMARK  status: ('A' for Active; 'I' for Inactive)
REMARK    1  A    between atoms: N_10  and  C_3 
REMARK    2  A    between atoms: N_12  and  C_4 
REMARK    3  A    between atoms: C_13  and  N_10 
REMARK    4  A    between atoms: C_14  and  N_10 
ROOT
ATOM      1  N   UNL d   1       1.486   0.841   0.578  0.00  0.00    -0.180 N 
ATOM      2  HN  UNL d   1       1.903   1.699   0.938  1.00  0.00     0.185 HD
ATOM      3  C   UNL d   1       2.253  -0.116   0.025  0.00  0.00     0.681 A 
ATOM      4  C   UNL d   1       0.158   0.641   0.645  0.00  0.00     0.116 A 
ATOM      5  N   UNL d   1       1.735  -1.241  -0.494  0.00  0.00    -0.200 N 
ATOM      6  HN  UNL d   1       2.336  -1.962  -0.895  1.00  0.00     0.183 HD
ATOM      7  C   UNL d   1      -0.450  -0.475   0.112  0.00  0.00     0.099 A 
ATOM      8  C   UNL d   1      -1.852  -0.701   0.144  0.00  0.00     0.104 C 
ATOM      9  N   UNL d   1      -2.999  -0.891   0.137  0.00  0.00    -0.191 NA
ATOM     10  C   UNL d   1       0.397  -1.386  -0.466  0.00  0.00     0.132 A 
ENDROOT
BRANCH   4  11
ATOM     11  N   UNL d   1      -0.548   1.603   1.371  0.00  0.00    -0.287 NA
ATOM     12  H   UNL d   1       0.102   2.338   1.643  0.00  0.00     0.125 HD
ATOM     13  H   UNL d   1      -1.368   1.966   0.897  0.00  0.00     0.125 HD
ENDBRANCH   4  11
BRANCH   3  14
ATOM     14  N   UNL d   1       3.618   0.048   0.002  0.00  0.00    -0.218 N 
BRANCH  14  15
ATOM     15  C   UNL d   1       4.191   1.381  -0.065  0.00  0.00     0.136 C 
ATOM     16  C   UNL d   1       4.511   1.934   1.314  0.00  0.00     0.027 C 
ENDBRANCH  14  15
BRANCH  14  17
ATOM     17  C   UNL d   1       4.473  -1.127   0.004  0.00  0.00     0.136 C 
ATOM     18  C   UNL d   1       4.805  -1.594  -1.403  0.00  0.00     0.027 C 
ENDBRANCH  14  17
ENDBRANCH   3  14
TORSDOF 4
