REMARK  1 active torsions:
REMARK  status: ('A' for Active; 'I' for Inactive)
REMARK    1  A    between atoms: C_7  and  C_2 
ROOT
ATOM      1  N   UNL d   1      -1.832   0.476   0.055  0.00  0.00    -0.334 N 
ATOM      2  C   UNL d   1      -1.284   1.838   0.052  0.00  0.00     0.200 C 
ATOM      3  C   UNL d   1      -1.028  -0.638   0.140  0.00  0.00     0.048 A 
ATOM      4  N   UNL d   1       0.121   1.961   0.501  0.00  0.00    -0.266 NA
ATOM      5  C   UNL d   1       0.426  -0.468   0.167  0.00  0.00     0.012 A 
ATOM      6  C   UNL d   1       0.954   0.839   0.284  0.00  0.00     0.022 A 
ATOM      7  C   UNL d   1      -3.151   0.118   0.078  0.00  0.00     0.093 A 
ATOM      8  C   UNL d   1      -1.870  -1.736   0.176  0.00  0.00     0.032 A 
ATOM      9  C   UNL d   1      -3.208  -1.260   0.144  0.00  0.00     0.020 A 
ATOM     10  C   UNL d   1       1.292  -1.560   0.040  0.00  0.00     0.015 A 
ATOM     11  C   UNL d   1       2.341   1.011   0.313  0.00  0.00     0.024 A 
ATOM     12  C   UNL d   1       2.672  -1.367   0.035  0.00  0.00     0.001 A 
ATOM     13  C   UNL d   1       3.198  -0.083   0.171  0.00  0.00     0.002 A 
ATOM     14  H   UNL d   1       0.550   2.821   0.178  0.00  0.00     0.130 HD
ENDROOT
BRANCH   2  15
ATOM     15  C   UNL d   1      -1.418   2.513  -1.310  0.00  0.00    -0.018 A 
ATOM     16  C   UNL d   1      -2.129   3.719  -1.415  0.00  0.00     0.050 A 
ATOM     17  C   UNL d   1      -2.002   4.505  -2.557  0.00  0.00     0.102 A 
ATOM     18  O   UNL d   1      -2.608   5.734  -2.532  0.00  0.00    -0.346 OA
ATOM     19  C   UNL d   1      -1.219   4.082  -3.632  0.00  0.00     0.102 A 
ATOM     20  C   UNL d   1      -1.782   6.659  -3.241  0.00  0.00     0.202 C 
ATOM     21  C   UNL d   1      -1.518   6.172  -4.659  0.00  0.00     0.202 C 
ATOM     22  O   UNL d   1      -0.942   4.862  -4.721  0.00  0.00    -0.346 OA
ATOM     23  C   UNL d   1      -0.611   2.832  -3.590  0.00  0.00     0.040 A 
ATOM     24  C   UNL d   1      -0.704   2.053  -2.434  0.00  0.00     0.013 A 
ENDBRANCH   2  15
TORSDOF 1
