REMARK  3 active torsions:
REMARK  status: ('A' for Active; 'I' for Inactive)
REMARK    1  A    between atoms: C_5  and  C_3 
REMARK    2  A    between atoms: C_8  and  C_4 
REMARK    3  A    between atoms: C_9  and  C_11 
ROOT
ATOM      1  N   UNL d   1       1.246   0.154   0.168  0.00  0.00    -0.318 N 
ATOM      2  HN  UNL d   1       2.237   0.291   0.368  1.00  0.00     0.169 HD
ATOM      3  C   UNL d   1       0.261   1.102  -0.006  0.00  0.00     0.140 A 
ATOM      4  C   UNL d   1       0.581  -0.977   0.010  0.00  0.00     0.183 A 
ATOM      5  N   UNL d   1      -0.947   0.596  -0.276  0.00  0.00    -0.242 N 
ATOM      6  HN  UNL d   1      -1.809   1.100  -0.485  1.00  0.00     0.196 HD
ATOM      7  O   UNL d   1      -0.753  -0.776  -0.206  0.00  0.00    -0.217 OA
ENDROOT
BRANCH   3   8
ATOM      8  C   UNL d   1       0.547   2.523  -0.010  0.00  0.00     0.040 A 
ATOM      9  C   UNL d   1      -0.290   3.514   0.529  0.00  0.00     0.064 A 
ATOM     10  C   UNL d   1       0.084   4.863   0.360  0.00  0.00     0.034 A 
ATOM     11  C   UNL d   1       1.264   5.171  -0.292  0.00  0.00     0.088 A 
ATOM     12  N   UNL d   1       2.098   4.239  -0.783  0.00  0.00    -0.374 N 
ATOM     13  C   UNL d   1       1.723   2.946  -0.633  0.00  0.00     0.103 A 
ATOM     14  HN  UNL d   1       2.971   4.492  -1.246  1.00  0.00     0.164 HD
BRANCH   9  15
ATOM     15  C   UNL d   1      -1.560   3.257   1.303  0.00  0.00     0.418 C 
ATOM     16  F   UNL d   1      -1.798   1.979   1.682  0.00  0.00    -0.166 F 
ATOM     17  F   UNL d   1      -1.570   3.967   2.471  0.00  0.00    -0.166 F 
ATOM     18  F   UNL d   1      -2.665   3.674   0.623  0.00  0.00    -0.166 F 
ENDBRANCH   9  15
ENDBRANCH   3   8
BRANCH   4  19
ATOM     19  C   UNL d   1       1.049  -2.360   0.072  0.00  0.00     0.039 A 
ATOM     20  C   UNL d   1       0.429  -3.432  -0.600  0.00  0.00     0.050 A 
ATOM     21  C   UNL d   1       0.921  -4.739  -0.480  0.00  0.00     0.048 A 
ATOM     22 CL   UNL d   1      -0.926  -3.240  -1.664  0.00  0.00    -0.083 Cl
ATOM     23  C   UNL d   1       2.046  -4.989   0.296  0.00  0.00     0.035 A 
ATOM     24  C   UNL d   1       2.692  -3.946   0.952  0.00  0.00     0.025 A 
ATOM     25 CL   UNL d   1       2.645  -6.595   0.436  0.00  0.00    -0.084 Cl
ATOM     26  C   UNL d   1       2.197  -2.641   0.840  0.00  0.00     0.019 A 
ENDBRANCH   4  19
TORSDOF 3
