REMARK  3 active torsions:
REMARK  status: ('A' for Active; 'I' for Inactive)
REMARK    1  A    between atoms: C_2  and  N_1 
REMARK    2  A    between atoms: C_6  and  C_3 
REMARK    3  A    between atoms: O_12  and  C_6 
ROOT
ATOM      1  C   UNL d   1       0.001   2.263   0.011  0.00  0.00     0.062 A 
ATOM      2  C   UNL d   1      -0.729   2.973   0.986  0.00  0.00     0.066 A 
ATOM      3  C   UNL d   1       0.788   2.978  -0.910  0.00  0.00     0.031 A 
ATOM      4  C   UNL d   1      -0.642   4.378   1.024  0.00  0.00     0.020 A 
ATOM      5  C   UNL d   1       0.127   5.072   0.090  0.00  0.00     0.001 A 
ATOM      6  C   UNL d   1       0.835   4.372  -0.881  0.00  0.00     0.002 A 
ENDROOT
BRANCH   1   7
ATOM      7  N   UNL d   1      -0.015   0.858  -0.074  0.00  0.00    -0.244 N 
ATOM      8  C   UNL d   1      -1.141   0.094  -0.180  0.00  0.00     0.255 A 
ATOM      9  C   UNL d   1      -0.702  -1.310  -0.186  0.00  0.00     0.080 A 
ATOM     10  O   UNL d   1      -2.301   0.428  -0.338  0.00  0.00    -0.268 OA
ATOM     11  C   UNL d   1       0.632  -1.323  -0.128  0.00  0.00     0.080 A 
ATOM     12  C   UNL d   1       1.096   0.070  -0.098  0.00  0.00     0.255 A 
ATOM     13  O   UNL d   1       2.276   0.372  -0.078  0.00  0.00    -0.268 OA
ENDBRANCH   1   7
BRANCH   2  14
ATOM     14  C   UNL d   1      -1.452   2.267   2.085  0.00  0.00     0.295 C 
ATOM     15  O   UNL d   1      -1.151   1.161   2.508  0.00  0.00    -0.259 OA
BRANCH  14  16
ATOM     16  O   UNL d   1      -2.466   3.049   2.529  0.00  0.00    -0.322 OA
ATOM     17  C   UNL d   1      -3.235   2.488   3.594  0.00  0.00     0.213 C 
ENDBRANCH  14  16
ENDBRANCH   2  14
TORSDOF 3
