REMARK  4 active torsions:
REMARK  status: ('A' for Active; 'I' for Inactive)
REMARK    1  A    between atoms: N_11  and  N_6 
REMARK    2  A    between atoms: C_15  and  C_9 
REMARK    3  A    between atoms: C_16  and  C_14 
REMARK    4  A    between atoms: O_19  and  C_18 
ROOT
ATOM      1  C   UNL d   1      -0.198   0.623   0.017  0.00  0.00     0.069 A 
ATOM      2  C   UNL d   1      -0.084  -0.748  -0.016  0.00  0.00     0.091 A 
ATOM      3  C   UNL d   1       1.014   1.416   0.065  0.00  0.00     0.280 A 
ATOM      4  N   UNL d   1       1.062  -1.471   0.009  0.00  0.00    -0.344 N 
ATOM      5  HN  UNL d   1       1.077  -2.491  -0.004  1.00  0.00     0.167 HD
ATOM      6  N   UNL d   1       2.191   0.640   0.045  0.00  0.00    -0.215 N 
ATOM      7  C   UNL d   1      -1.559   1.054  -0.001  0.00  0.00     0.040 A 
ATOM      8  S   UNL d   1      -1.599  -1.506  -0.058  0.00  0.00    -0.071 SA
ATOM      9  C   UNL d   1      -2.447  -0.009  -0.009  0.00  0.00     0.018 A 
ATOM     10  C   UNL d   1       2.135  -0.748   0.049  0.00  0.00     0.211 A 
ATOM     11  O   UNL d   1       0.974   2.645   0.105  0.00  0.00    -0.265 OA
ENDROOT
BRANCH   6  12
ATOM     12  N   UNL d   1       3.373   1.349   0.134  0.00  0.00    -0.301 N 
ATOM     13  C   UNL d   1       4.462   0.882  -0.379  0.00  0.00     0.119 C 
ATOM     14  HN  UNL d   1       3.385   2.251   0.609  1.00  0.00     0.186 HD
BRANCH  13  15
ATOM     15  C   UNL d   1       5.709   1.674  -0.319  0.00  0.00    -0.017 A 
ATOM     16  C   UNL d   1       5.721   2.924   0.315  0.00  0.00     0.049 A 
ATOM     17  C   UNL d   1       6.891   3.681   0.338  0.00  0.00     0.069 A 
ATOM     18  C   UNL d   1       8.030   3.197  -0.313  0.00  0.00     0.037 A 
ATOM     19  C   UNL d   1       8.016   1.952  -0.947  0.00  0.00     0.004 A 
ATOM     20  C   UNL d   1       6.857   1.178  -0.938  0.00  0.00     0.013 A 
BRANCH  17  21
ATOM     21  O   UNL d   1       7.048   4.891   0.955  0.00  0.00    -0.356 OA
ATOM     22  C   UNL d   1       5.916   5.406   1.651  0.00  0.00     0.210 C 
ENDBRANCH  17  21
ENDBRANCH  13  15
ENDBRANCH   6  12
BRANCH   9  23
ATOM     23  C   UNL d   1      -3.917   0.006   0.017  0.00  0.00    -0.019 A 
ATOM     24  C   UNL d   1      -4.634   1.037  -0.607  0.00  0.00     0.013 A 
ATOM     25  C   UNL d   1      -6.031   1.073  -0.546  0.00  0.00     0.001 A 
ATOM     26  C   UNL d   1      -6.726   0.082   0.144  0.00  0.00     0.000 A 
ATOM     27  C   UNL d   1      -6.033  -0.953   0.760  0.00  0.00     0.001 A 
ATOM     28  C   UNL d   1      -4.639  -0.992   0.694  0.00  0.00     0.013 A 
ENDBRANCH   9  23
TORSDOF 4
