REMARK  5 active torsions:
REMARK  status: ('A' for Active; 'I' for Inactive)
REMARK    1  A    between atoms: C_13  and  C_4 
REMARK    2  A    between atoms: O_15  and  C_6 
REMARK    3  A    between atoms: C_10  and  C_9 
REMARK    4  A    between atoms: O_16  and  C_10 
REMARK    5  A    between atoms: C_19  and  O_16 
ROOT
ATOM      1  N   UNL d   1      -0.446  -1.855  -0.001  0.00  0.00    -0.355 N 
ATOM      2  HN  UNL d   1      -0.100  -2.814   0.011  1.00  0.00     0.166 HD
ATOM      3  C   UNL d   1       0.003   0.524  -0.028  0.00  0.00     0.025 A 
ATOM      4  C   UNL d   1      -1.781  -1.610  -0.001  0.00  0.00     0.045 A 
ATOM      5  C   UNL d   1       0.417  -0.825  -0.017  0.00  0.00     0.045 A 
ATOM      6  C   UNL d   1      -1.383   0.746  -0.004  0.00  0.00     0.080 A 
ATOM      7  C   UNL d   1       0.986   1.545  -0.046  0.00  0.00     0.034 A 
ATOM      8  C   UNL d   1      -2.276  -0.314   0.012  0.00  0.00     0.067 A 
ATOM      9  C   UNL d   1       2.352   1.236  -0.042  0.00  0.00     0.040 A 
ATOM     10  C   UNL d   1       1.776  -1.109  -0.023  0.00  0.00     0.031 A 
ATOM     11  C   UNL d   1       2.745  -0.101  -0.034  0.00  0.00     0.020 A 
ENDROOT
BRANCH   4  12
ATOM     12  C   UNL d   1      -2.659  -2.798  -0.019  0.00  0.00    -0.009 A 
ATOM     13  C   UNL d   1      -2.255  -4.009   0.574  0.00  0.00     0.013 A 
ATOM     14  C   UNL d   1      -3.084  -5.135   0.569  0.00  0.00     0.001 A 
ATOM     15  C   UNL d   1      -4.337  -5.078  -0.034  0.00  0.00     0.000 A 
ATOM     16  C   UNL d   1      -4.758  -3.897  -0.638  0.00  0.00     0.001 A 
ATOM     17  C   UNL d   1      -3.926  -2.773  -0.633  0.00  0.00     0.013 A 
ENDBRANCH   4  12
BRANCH   6  18
ATOM     18  O   UNL d   1      -1.964   1.987   0.005  0.00  0.00    -0.360 OA
ATOM     19  H   UNL d   1      -1.288   2.682   0.022  0.00  0.00     0.217 HD
ENDBRANCH   6  18
BRANCH   9  20
ATOM     20  C   UNL d   1       3.404   2.284   0.044  0.00  0.00     0.293 C 
ATOM     21  O   UNL d   1       4.596   2.043   0.111  0.00  0.00    -0.259 OA
BRANCH  20  22
ATOM     22  O   UNL d   1       2.822   3.504   0.154  0.00  0.00    -0.318 OA
BRANCH  22  23
ATOM     23  C   UNL d   1       3.658   4.543   0.683  0.00  0.00     0.174 C 
ATOM     24  C   UNL d   1       3.525   4.522   2.195  0.00  0.00     0.034 C 
ENDBRANCH  22  23
ENDBRANCH  20  22
ENDBRANCH   9  20
TORSDOF 5
