REMARK  1 active torsions:
REMARK  status: ('A' for Active; 'I' for Inactive)
REMARK    1  A    between atoms: C_7  and  N_1 
ROOT
ATOM      1  N   UNL d   1       2.460  -0.558  -0.021  0.00  0.00    -0.251 N 
ATOM      2  C   UNL d   1       2.401   0.844  -0.031  0.00  0.00     0.186 A 
ATOM      3  C   UNL d   1       1.316  -1.381   0.050  0.00  0.00     0.267 A 
ATOM      4  C   UNL d   1       0.003  -0.704   0.039  0.00  0.00     0.060 A 
ATOM      5  N   UNL d   1       1.153   1.407   0.031  0.00  0.00    -0.332 N 
ATOM      6  C   UNL d   1      -0.033   0.682   0.034  0.00  0.00     0.050 A 
ATOM      7  S   UNL d   1       3.665   1.946  -0.181  0.00  0.00    -0.040 SA
ATOM      8  O   UNL d   1       1.332  -2.607   0.172  0.00  0.00    -0.267 OA
ATOM      9  C   UNL d   1      -1.193  -1.435   0.042  0.00  0.00     0.026 A 
ATOM     10  C   UNL d   1      -1.253   1.358   0.018  0.00  0.00     0.031 A 
ATOM     11  C   UNL d   1      -2.427  -0.769   0.031  0.00  0.00    -0.061 A 
ATOM     12  C   UNL d   1      -2.446   0.632   0.011  0.00  0.00     0.009 A 
ATOM     13  C   UNL d   1      -3.718  -1.533   0.011  0.00  0.00     0.048 C 
ATOM     14  H   UNL d   1       1.119   2.420  -0.001  0.00  0.00     0.168 HD
ENDROOT
BRANCH   1  15
ATOM     15  C   UNL d   1       3.719  -1.241  -0.121  0.00  0.00     0.083 A 
ATOM     16  C   UNL d   1       3.960  -2.117  -1.188  0.00  0.00     0.143 A 
ATOM     17  F   UNL d   1       3.032  -2.298  -2.141  0.00  0.00    -0.204 F 
ATOM     18  C   UNL d   1       5.190  -2.755  -1.333  0.00  0.00     0.044 A 
ATOM     19  C   UNL d   1       6.198  -2.533  -0.397  0.00  0.00     0.003 A 
ATOM     20  C   UNL d   1       5.968  -1.683   0.686  0.00  0.00     0.002 A 
ATOM     21  C   UNL d   1       4.732  -1.043   0.828  0.00  0.00     0.033 A 
ENDBRANCH   1  15
TORSDOF 1
