REMARK  3 active torsions:
REMARK  status: ('A' for Active; 'I' for Inactive)
REMARK    1  A    between atoms: C_9  and  C_1 
REMARK    2  A    between atoms: O_12  and  C_3 
REMARK    3  A    between atoms: N_11  and  N_7 
ROOT
ATOM      1  C   UNL d   1      -0.039   2.011   0.028  0.00  0.00     0.017 A 
ATOM      2  C   UNL d   1      -0.954  -0.226  -0.044  0.00  0.00     0.069 A 
ATOM      3  C   UNL d   1      -1.146   1.160   0.003  0.00  0.00     0.099 A 
ATOM      4  C   UNL d   1       0.331  -0.765  -0.063  0.00  0.00     0.050 A 
ATOM      5  C   UNL d   1       1.256   1.474  -0.003  0.00  0.00     0.039 A 
ATOM      6  C   UNL d   1       1.430   0.091  -0.043  0.00  0.00     0.036 A 
ATOM      7 CL   UNL d   1      -2.312  -1.292  -0.066  0.00  0.00    -0.081 Cl
ATOM      8 CL   UNL d   1       3.019  -0.568  -0.057  0.00  0.00    -0.084 Cl
ENDROOT
BRANCH   1   9
ATOM      9  C   UNL d   1      -0.221   3.474   0.133  0.00  0.00     0.115 C 
ATOM     10  N   UNL d   1       0.792   4.283   0.090  0.00  0.00    -0.332 N 
ATOM     11  HN  UNL d   1       1.746   3.966  -0.082  1.00  0.00     0.179 HD
BRANCH  10  12
ATOM     12  N   UNL d   1       0.478   5.582   0.291  0.00  0.00    -0.245 NA
ATOM     13  C   UNL d   1       1.541   6.547   0.054  0.00  0.00     0.132 C 
ATOM     14  H   UNL d   1      -0.378   5.880  -0.181  0.00  0.00     0.145 HD
ENDBRANCH  10  12
ENDBRANCH   1   9
BRANCH   3  15
ATOM     15  O   UNL d   1      -2.411   1.688   0.022  0.00  0.00    -0.358 OA
ATOM     16  H   UNL d   1      -3.046   0.945   0.001  0.00  0.00     0.217 HD
ENDBRANCH   3  15
TORSDOF 3
