REMARK  2 active torsions:
REMARK  status: ('A' for Active; 'I' for Inactive)
REMARK    1  A    between atoms: C_5  and  C_1 
REMARK    2  A    between atoms: C_2  and  C_5 
ROOT
ATOM      1  C   UNL d   1      -0.129   2.673  -0.003  0.00  0.00     0.092 C 
ENDROOT
BRANCH   1   2
ATOM      2  C   UNL d   1       1.076   3.565  -0.102  0.00  0.00    -0.013 A 
ATOM      3  S   UNL d   1       1.691   4.029  -1.635  0.00  0.00    -0.106 SA
ATOM      4  C   UNL d   1       2.892   5.018  -0.926  0.00  0.00     0.050 A 
ATOM      5  C   UNL d   1       2.842   4.987   0.448  0.00  0.00     0.008 A 
ATOM      6  C   UNL d   1       1.800   4.142   0.926  0.00  0.00     0.015 A 
ENDBRANCH   1   2
BRANCH   1   7
ATOM      7  C   UNL d   1       0.212   1.211   0.056  0.00  0.00    -0.013 A 
ATOM      8  S   UNL d   1       0.470   0.440   1.565  0.00  0.00    -0.106 SA
ATOM      9  C   UNL d   1       0.713  -1.080   0.821  0.00  0.00     0.050 A 
ATOM     10  C   UNL d   1       0.609  -1.007  -0.549  0.00  0.00     0.008 A 
ATOM     11  C   UNL d   1       0.324   0.317  -0.992  0.00  0.00     0.015 A 
ENDBRANCH   1   7
TORSDOF 2
