REMARK  5 active torsions:
REMARK  status: ('A' for Active; 'I' for Inactive)
REMARK    1  A    between atoms: C_12  and  C_3 
REMARK    2  A    between atoms: C_15  and  N_7 
REMARK    3  A    between atoms: N_11  and  C_8 
REMARK       I    between atoms: C_13  and  N_11 
REMARK    4  A    between atoms: O_18  and  C_12 
REMARK    5  A    between atoms: C_22  and  O_18 
ROOT
ATOM      1  C   UNL d   1      -0.266  -0.802   0.157  0.00  0.00     0.081 A 
ATOM      2  C   UNL d   1      -0.300   0.621   0.082  0.00  0.00     0.023 A 
ATOM      3  C   UNL d   1       0.933   1.373   0.036  0.00  0.00     0.136 C 
ATOM      4  C   UNL d   1       1.010  -1.503   0.256  0.00  0.00     0.281 C 
ATOM      5  N   UNL d   1       2.072   0.743  -0.017  0.00  0.00    -0.284 N 
ATOM      6  HN  UNL d   1       2.937   1.281  -0.078  1.00  0.00     0.188 HD
ATOM      7  N   UNL d   1       2.138  -0.665   0.010  0.00  0.00    -0.219 N 
ATOM      8  C   UNL d   1      -1.544  -1.320   0.178  0.00  0.00     0.093 A 
ATOM      9  C   UNL d   1      -1.586   1.121   0.070  0.00  0.00     0.067 A 
ATOM     10  S   UNL d   1      -2.745  -0.119   0.262  0.00  0.00    -0.082 SA
ATOM     11  O   UNL d   1       1.058  -2.678   0.607  0.00  0.00    -0.265 OA
ENDROOT
BRANCH   7  12
ATOM     12  C   UNL d   1       3.475  -1.175  -0.189  0.00  0.00     0.060 A 
ATOM     13  C   UNL d   1       3.744  -2.540  -0.375  0.00  0.00     0.031 A 
ATOM     14  C   UNL d   1       5.044  -3.006  -0.611  0.00  0.00     0.002 A 
ATOM     15  C   UNL d   1       6.110  -2.116  -0.673  0.00  0.00     0.000 A 
ATOM     16  C   UNL d   1       5.875  -0.758  -0.498  0.00  0.00     0.002 A 
ATOM     17  C   UNL d   1       4.574  -0.295  -0.261  0.00  0.00     0.031 A 
ENDBRANCH   7  12
BRANCH   3  18
ATOM     18  C   UNL d   1       0.935   2.902   0.028  0.00  0.00     0.312 C 
ATOM     19  O   UNL d   1       0.112   3.559   0.639  0.00  0.00    -0.258 OA
BRANCH  18  20
ATOM     20  O   UNL d   1       1.872   3.354  -0.832  0.00  0.00    -0.317 OA
BRANCH  20  21
ATOM     21  C   UNL d   1       1.733   4.721  -1.236  0.00  0.00     0.175 C 
ATOM     22  C   UNL d   1       1.014   4.728  -2.572  0.00  0.00     0.034 C 
ENDBRANCH  20  21
ENDBRANCH  18  20
ENDBRANCH   3  18
BRANCH   8  23
ATOM     23  N   UNL d   1      -2.078  -2.587   0.153  0.00  0.00    -0.321 N 
ATOM     24  C   UNL d   1      -1.591  -3.549  -0.714  0.00  0.00     0.218 C 
ATOM     25  O   UNL d   1      -0.700  -3.389  -1.542  0.00  0.00    -0.274 OA
ATOM     26  C   UNL d   1      -2.344  -4.852  -0.611  0.00  0.00     0.117 C 
ATOM     27  H   UNL d   1      -3.054  -2.654   0.410  0.00  0.00     0.169 HD
ENDBRANCH   8  23
TORSDOF 5
