REMARK  3 active torsions:
REMARK  status: ('A' for Active; 'I' for Inactive)
REMARK    1  A    between atoms: C_2  and  N_1 
REMARK    2  A    between atoms: S_5  and  C_8 
REMARK    3  A    between atoms: C_9  and  S_5 
ROOT
ATOM      1  C   UNL d   1       0.206   0.905  -0.939  0.00  0.00     0.102 A 
ATOM      2  C   UNL d   1      -0.953   0.633  -1.677  0.00  0.00     0.037 A 
ATOM      3  C   UNL d   1       0.628   2.226  -0.741  0.00  0.00     0.037 A 
ATOM      4  C   UNL d   1      -1.270   3.017  -2.036  0.00  0.00     0.005 A 
ATOM      5  C   UNL d   1      -0.113   3.277  -1.292  0.00  0.00     0.021 A 
ATOM      6  C   UNL d   1      -1.689   1.693  -2.217  0.00  0.00     0.021 A 
ENDROOT
BRANCH   4   7
ATOM      7  S   UNL d   1      -2.254   4.364  -2.663  0.00  0.00    -0.091 SA
BRANCH   7   8
ATOM      8  C   UNL d   1      -1.494   4.685  -4.246  0.00  0.00     0.005 A 
ATOM      9  C   UNL d   1      -1.514   3.733  -5.269  0.00  0.00     0.019 A 
ATOM     10  C   UNL d   1      -0.977   4.030  -6.525  0.00  0.00     0.008 A 
ATOM     11  C   UNL d   1      -0.420   5.288  -6.780  0.00  0.00    -0.062 A 
ATOM     12  C   UNL d   1      -0.402   6.242  -5.757  0.00  0.00     0.008 A 
ATOM     13  C   UNL d   1       0.143   5.596  -8.137  0.00  0.00     0.048 C 
ATOM     14  C   UNL d   1      -0.939   5.942  -4.500  0.00  0.00     0.019 A 
ENDBRANCH   7   8
ENDBRANCH   4   7
BRANCH   1  15
ATOM     15  N   UNL d   1       0.976  -0.203  -0.358  0.00  0.00    -0.116 N 
ATOM     16  O   UNL d   1       0.574  -1.356  -0.566  0.00  0.00    -0.532 OA
ATOM     17  O   UNL d   1       1.984   0.081   0.306  0.00  0.00    -0.532 OA
ENDBRANCH   1  15
TORSDOF 3
