REMARK  3 active torsions:
REMARK  status: ('A' for Active; 'I' for Inactive)
REMARK    1  A    between atoms: C_8  and  N_1 
REMARK    2  A    between atoms: N_6  and  C_9 
REMARK    3  A    between atoms: S_20  and  C_18 
ROOT
ATOM      1  N   UNL d   1       2.300  -0.065   0.134  0.00  0.00    -0.244 N 
ATOM      2  C   UNL d   1       1.617  -1.287   0.127  0.00  0.00     0.266 A 
ATOM      3  C   UNL d   1       1.680   1.191   0.028  0.00  0.00     0.266 A 
ATOM      4  C   UNL d   1       0.136  -1.234   0.079  0.00  0.00     0.047 A 
ATOM      5  C   UNL d   1       0.199   1.203  -0.012  0.00  0.00     0.045 A 
ATOM      6  C   UNL d   1      -0.515   0.003   0.022  0.00  0.00     0.006 A 
ATOM      7  C   UNL d   1      -1.993  -2.385   0.082  0.00  0.00     0.104 A 
ATOM      8  C   UNL d   1      -0.597  -2.432   0.098  0.00  0.00     0.054 A 
ATOM      9  C   UNL d   1      -1.933   0.042   0.005  0.00  0.00    -0.021 A 
ATOM     10  C   UNL d   1      -2.662  -1.155   0.037  0.00  0.00     0.048 A 
ATOM     11  O   UNL d   1       2.141  -2.398   0.113  0.00  0.00    -0.267 OA
ATOM     12  O   UNL d   1       2.255   2.277   0.007  0.00  0.00    -0.267 OA
ATOM     13  C   UNL d   1      -0.474   2.434  -0.056  0.00  0.00     0.018 A 
ATOM     14  C   UNL d   1      -2.589   1.281  -0.043  0.00  0.00     0.012 A 
ATOM     15  C   UNL d   1      -1.864   2.471  -0.071  0.00  0.00     0.002 A 
ENDROOT
BRANCH   1  16
ATOM     16  C   UNL d   1       3.730  -0.091   0.259  0.00  0.00     0.047 A 
ATOM     17  C   UNL d   1       4.537   0.669  -0.603  0.00  0.00     0.048 A 
ATOM     18  C   UNL d   1       5.929   0.688  -0.463  0.00  0.00     0.002 A 
ATOM     19  C   UNL d   1       6.514  -0.063   0.563  0.00  0.00     0.018 A 
ATOM     20  C   UNL d   1       5.724  -0.826   1.425  0.00  0.00     0.004 A 
ATOM     21  C   UNL d   1       4.340  -0.853   1.263  0.00  0.00     0.030 A 
BRANCH  18  22
ATOM     22  S   UNL d   1       7.019   1.579  -1.566  0.00  0.00    -0.134 SA
ATOM     23  C   UNL d   1       5.989   2.984  -2.071  0.00  0.00     0.095 C 
ENDBRANCH  18  22
ENDBRANCH   1  16
BRANCH   7  24
ATOM     24  N   UNL d   1      -2.769  -3.632   0.122  0.00  0.00    -0.116 N 
ATOM     25  O   UNL d   1      -2.143  -4.699   0.148  0.00  0.00    -0.532 OA
ATOM     26  O   UNL d   1      -4.004  -3.538   0.131  0.00  0.00    -0.532 OA
ENDBRANCH   7  24
TORSDOF 3
