REMARK  5 active torsions:
REMARK  status: ('A' for Active; 'I' for Inactive)
REMARK    1  A    between atoms: C_6  and  N_1 
REMARK    2  A    between atoms: C_8  and  C_4 
REMARK    3  A    between atoms: C_10  and  C_6 
REMARK    4  A    between atoms: O_11  and  C_8 
REMARK    5  A    between atoms: C_12  and  O_11 
ROOT
ATOM      1  N   UNL d   1       0.856   0.520   0.020  0.00  0.00    -0.294 N 
ATOM      2  C   UNL d   1       0.562  -0.812   0.233  0.00  0.00     0.149 A 
ATOM      3  C   UNL d   1      -0.228   1.366  -0.160  0.00  0.00     0.268 A 
ATOM      4  C   UNL d   1      -1.496   0.595  -0.089  0.00  0.00     0.097 A 
ATOM      5  S   UNL d   1      -1.165  -1.081   0.062  0.00  0.00    -0.053 SA
ATOM      6  S   UNL d   1       1.589  -2.062   0.644  0.00  0.00    -0.052 SA
ATOM      7  O   UNL d   1      -0.190   2.583  -0.301  0.00  0.00    -0.266 OA
ENDROOT
BRANCH   1   8
ATOM      8  C   UNL d   1       2.201   1.093   0.071  0.00  0.00     0.172 C 
BRANCH   8   9
ATOM      9  C   UNL d   1       2.912   1.059  -1.265  0.00  0.00    -0.040 A 
ATOM     10  C   UNL d   1       2.762   2.112  -2.180  0.00  0.00     0.009 A 
ATOM     11  C   UNL d   1       3.408   2.075  -3.419  0.00  0.00     0.001 A 
ATOM     12  C   UNL d   1       4.203   0.984  -3.764  0.00  0.00     0.000 A 
ATOM     13  C   UNL d   1       4.368  -0.063  -2.863  0.00  0.00     0.001 A 
ATOM     14  C   UNL d   1       3.733  -0.023  -1.620  0.00  0.00     0.009 A 
ENDBRANCH   8   9
ENDBRANCH   1   8
BRANCH   4  15
ATOM     15  C   UNL d   1      -2.714   1.148  -0.079  0.00  0.00     0.159 C 
BRANCH  15  16
ATOM     16  O   UNL d   1      -3.851   0.402   0.100  0.00  0.00    -0.362 OA
BRANCH  16  17
ATOM     17  C   UNL d   1      -5.003   0.939  -0.546  0.00  0.00     0.170 C 
ATOM     18  C   UNL d   1      -6.116  -0.083  -0.398  0.00  0.00     0.034 C 
ENDBRANCH  16  17
ENDBRANCH  15  16
ENDBRANCH   4  15
TORSDOF 5
