REMARK  6 active torsions:
REMARK  status: ('A' for Active; 'I' for Inactive)
REMARK    1  A    between atoms: C_12  and  C_5 
REMARK    2  A    between atoms: S_13  and  C_9 
REMARK    3  A    between atoms: O_19  and  C_12 
REMARK    4  A    between atoms: C_17  and  S_13 
REMARK    5  A    between atoms: C_14  and  C_17 
REMARK       I    between atoms: N_18  and  C_14 
REMARK    6  A    between atoms: C_22  and  O_19 
ROOT
ATOM      1  C   UNL d   1       1.559  -0.893  -0.022  0.00  0.00     0.161 A 
ATOM      2  N   UNL d   1       0.885   0.305  -0.071  0.00  0.00    -0.221 N 
ATOM      3  N   UNL d   1       0.922  -2.095   0.049  0.00  0.00    -0.333 N 
ATOM      4  HN  UNL d   1       1.446  -2.970   0.076  1.00  0.00     0.168 HD
ATOM      5  C   UNL d   1       2.888  -0.502  -0.023  0.00  0.00     0.167 A 
ATOM      6  N   UNL d   1       1.725   1.354  -0.140  0.00  0.00    -0.013 NA
ATOM      7  N   UNL d   1       2.959   0.873  -0.113  0.00  0.00    -0.275 N 
ATOM      8  HN  UNL d   1       3.816   1.425  -0.153  1.00  0.00     0.184 HD
ATOM      9  C   UNL d   1      -0.380  -2.086   0.080  0.00  0.00     0.084 A 
ATOM     10  C   UNL d   1      -1.205  -0.830   0.035  0.00  0.00     0.026 A 
ATOM     11  C   UNL d   1      -0.510   0.390  -0.029  0.00  0.00     0.069 A 
ATOM     12  C   UNL d   1      -2.602  -0.796   0.054  0.00  0.00     0.016 A 
ATOM     13  C   UNL d   1      -1.170   1.621  -0.046  0.00  0.00     0.032 A 
ATOM     14  C   UNL d   1      -3.274   0.432   0.025  0.00  0.00     0.001 A 
ATOM     15  C   UNL d   1      -2.562   1.634  -0.018  0.00  0.00     0.002 A 
ENDROOT
BRANCH   9  16
ATOM     16  S   UNL d   1      -1.216  -3.631   0.155  0.00  0.00    -0.102 SA
BRANCH  16  17
ATOM     17  C   UNL d   1       0.088  -4.727   0.783  0.00  0.00     0.183 C 
BRANCH  17  18
ATOM     18  C   UNL d   1       0.427  -4.397   2.225  0.00  0.00     0.225 C 
ATOM     19  O   UNL d   1      -0.298  -4.672   3.176  0.00  0.00    -0.273 OA
ATOM     20  N   UNL d   1       1.617  -3.757   2.421  0.00  0.00    -0.369 N 
ATOM     21  H   UNL d   1       2.098  -3.304   1.647  0.00  0.00     0.159 HD
ATOM     22  H   UNL d   1       1.830  -3.446   3.359  0.00  0.00     0.159 HD
ENDBRANCH  17  18
ENDBRANCH  16  17
ENDBRANCH   9  16
BRANCH   5  23
ATOM     23  C   UNL d   1       4.045  -1.357   0.141  0.00  0.00     0.315 C 
ATOM     24  O   UNL d   1       3.971  -2.559   0.377  0.00  0.00    -0.257 OA
BRANCH  23  25
ATOM     25  O   UNL d   1       5.211  -0.648   0.113  0.00  0.00    -0.317 OA
BRANCH  25  26
ATOM     26  C   UNL d   1       6.355  -1.320   0.652  0.00  0.00     0.175 C 
ATOM     27  C   UNL d   1       6.342  -1.163   2.163  0.00  0.00     0.034 C 
ENDBRANCH  25  26
ENDBRANCH  23  25
ENDBRANCH   5  23
TORSDOF 6
