REMARK  3 active torsions:
REMARK  status: ('A' for Active; 'I' for Inactive)
REMARK       I    between atoms: N_3  and  C_1 
REMARK       I    between atoms: N_5  and  C_1 
REMARK    1  A    between atoms: C_12  and  N_3 
REMARK    2  A    between atoms: C_11  and  N_5 
REMARK    3  A    between atoms: C_10  and  C_11 
ROOT
ATOM      1  C   UNL d   1       0.970  -1.130   0.364  0.00  0.00     0.320 C 
ATOM      2  N   UNL d   1       2.323  -0.914   0.221  0.00  0.00    -0.309 N 
ATOM      3  N   UNL d   1       0.261  -0.730  -0.745  0.00  0.00    -0.339 N 
ATOM      4  O   UNL d   1       0.411  -1.599   1.350  0.00  0.00    -0.247 OA
ATOM      5  H   UNL d   1       2.608  -0.374  -0.583  0.00  0.00     0.170 HD
ATOM      6  H   UNL d   1       0.748  -0.473  -1.588  0.00  0.00     0.164 HD
ENDROOT
BRANCH   3   7
ATOM      7  C   UNL d   1      -1.176  -0.900  -0.826  0.00  0.00     0.162 C 
BRANCH   7   8
ATOM      8  C   UNL d   1      -1.551  -1.867  -1.923  0.00  0.00    -0.040 A 
ATOM      9  C   UNL d   1      -1.186  -3.222  -1.823  0.00  0.00     0.018 A 
ATOM     10  C   UNL d   1      -1.498  -4.071  -2.870  0.00  0.00    -0.022 A 
ATOM     11  C   UNL d   1      -1.252  -5.522  -3.021  0.00  0.00     0.068 C 
ATOM     12  C   UNL d   1      -2.188  -3.610  -3.980  0.00  0.00     0.075 A 
ATOM     13  C   UNL d   1      -1.544  -5.656  -4.516  0.00  0.00     0.180 C 
ATOM     14  O   UNL d   1      -2.417  -4.576  -4.926  0.00  0.00    -0.350 OA
ATOM     15  C   UNL d   1      -2.599  -2.300  -4.090  0.00  0.00     0.038 A 
ATOM     16  C   UNL d   1      -2.269  -1.421  -3.055  0.00  0.00     0.011 A 
ENDBRANCH   7   8
ENDBRANCH   3   7
BRANCH   2  17
ATOM     17  C   UNL d   1       3.330  -1.227   1.158  0.00  0.00     0.036 A 
ATOM     18  C   UNL d   1       3.113  -2.033   2.279  0.00  0.00     0.029 A 
ATOM     19  C   UNL d   1       4.146  -2.290   3.186  0.00  0.00     0.002 A 
ATOM     20  C   UNL d   1       5.409  -1.744   2.981  0.00  0.00     0.000 A 
ATOM     21  C   UNL d   1       5.644  -0.951   1.861  0.00  0.00     0.002 A 
ATOM     22  C   UNL d   1       4.612  -0.701   0.948  0.00  0.00     0.029 A 
ENDBRANCH   2  17
TORSDOF 3
