REMARK  10 active torsions:
REMARK  status: ('A' for Active; 'I' for Inactive)
REMARK    1  A    between atoms: C_5  and  C_1 
REMARK    2  A    between atoms: C_6  and  C_1 
REMARK    3  A    between atoms: C_2  and  C_4 
REMARK    4  A    between atoms: N_7  and  C_3 
REMARK    5  A    between atoms: O_19  and  C_5 
REMARK    6  A    between atoms: O_18  and  C_6 
REMARK    7  A    between atoms: C_8  and  N_7 
REMARK    8  A    between atoms: O_20  and  C_12 
REMARK    9  A    between atoms: C_22  and  O_18 
REMARK   10  A    between atoms: C_21  and  O_19 
ROOT
ATOM      1  N   UNL d   1       1.062  -2.247  -0.701  0.00  0.00    -0.365 N 
ATOM      2  H   UNL d   1       2.045  -2.363  -0.432  0.00  0.00     0.165 HD
ENDROOT
BRANCH   1   3
ATOM      3  C   UNL d   1       0.527  -1.007  -0.423  0.00  0.00     0.112 C 
ATOM      4  C   UNL d   1       1.169   0.108  -0.019  0.00  0.00     0.129 C 
BRANCH   4   5
ATOM      5  C   UNL d   1       0.408   1.293   0.443  0.00  0.00     0.300 C 
ATOM      6  O   UNL d   1       0.860   2.140   1.202  0.00  0.00    -0.259 OA
BRANCH   5   7
ATOM      7  O   UNL d   1      -0.887   1.240   0.032  0.00  0.00    -0.318 OA
BRANCH   7   8
ATOM      8  C   UNL d   1      -1.801   2.050   0.786  0.00  0.00     0.174 C 
ATOM      9  C   UNL d   1      -2.260   1.255   1.997  0.00  0.00     0.034 C 
ENDBRANCH   7   8
ENDBRANCH   5   7
ENDBRANCH   4   5
BRANCH   4  10
ATOM     10  C   UNL d   1       2.635   0.041   0.156  0.00  0.00     0.300 C 
ATOM     11  O   UNL d   1       3.257  -1.004   0.314  0.00  0.00    -0.259 OA
BRANCH  10  12
ATOM     12  O   UNL d   1       3.187   1.278   0.137  0.00  0.00    -0.318 OA
BRANCH  12  13
ATOM     13  C   UNL d   1       4.491   1.362   0.729  0.00  0.00     0.174 C 
ATOM     14  C   UNL d   1       4.326   1.511   2.232  0.00  0.00     0.034 C 
ENDBRANCH  12  13
ENDBRANCH  10  12
ENDBRANCH   4  10
ENDBRANCH   1   3
BRANCH   1  15
ATOM     15  C   UNL d   1       0.373  -3.425  -1.025  0.00  0.00     0.035 A 
ATOM     16  C   UNL d   1      -0.839  -3.414  -1.723  0.00  0.00     0.045 A 
ATOM     17  C   UNL d   1      -1.520  -4.604  -2.018  0.00  0.00     0.052 A 
ATOM     18  C   UNL d   1      -0.983  -5.819  -1.572  0.00  0.00     0.053 A 
ATOM     19  C   UNL d   1       0.196  -5.845  -0.827  0.00  0.00     0.071 A 
ATOM     20  C   UNL d   1       0.879  -4.654  -0.577  0.00  0.00     0.066 A 
BRANCH  17  21
ATOM     21  C   UNL d   1      -2.804  -4.589  -2.802  0.00  0.00     0.417 C 
ATOM     22  F   UNL d   1      -3.224  -3.336  -3.136  0.00  0.00    -0.166 F 
ATOM     23  F   UNL d   1      -2.712  -5.275  -3.974  0.00  0.00    -0.166 F 
ATOM     24  F   UNL d   1      -3.838  -5.154  -2.118  0.00  0.00    -0.166 F 
ENDBRANCH  17  21
BRANCH  19  25
ATOM     25  O   UNL d   1       0.601  -7.085  -0.415  0.00  0.00    -0.356 OA
ATOM     26  C   UNL d   1       1.353  -7.108   0.795  0.00  0.00     0.210 C 
ENDBRANCH  19  25
ENDBRANCH   1  15
TORSDOF 10
