REMARK  1 active torsions:
REMARK  status: ('A' for Active; 'I' for Inactive)
REMARK    1  A    between atoms: C_8  and  C_2 
ROOT
ATOM      1  C   UNL d   1      -0.188   0.815   0.078  0.00  0.00    -0.007 A 
ATOM      2  C   UNL d   1      -1.604   1.323   0.169  0.00  0.00     0.287 C 
ATOM      3  C   UNL d   1       0.109  -0.529  -0.060  0.00  0.00    -0.007 A 
ATOM      4  S   UNL d   1       1.776  -0.844  -0.124  0.00  0.00    -0.106 SA
ATOM      5  N   UNL d   1      -2.550   0.325  -0.376  0.00  0.00     0.097 N 
ATOM      6  C   UNL d   1       1.011   1.600   0.102  0.00  0.00     0.018 A 
ATOM      7  C   UNL d   1       2.145   0.822   0.010  0.00  0.00     0.051 A 
ATOM      8  C   UNL d   1      -0.923  -1.605  -0.170  0.00  0.00     0.076 C 
ATOM      9  C   UNL d   1      -2.320  -1.033   0.154  0.00  0.00     0.276 C 
ATOM     10  H   UNL d   1      -2.398   0.296  -1.384  0.00  0.00     0.317 HD
ENDROOT
BRANCH   2  11
ATOM     11  C   UNL d   1      -1.909   1.717   1.610  0.00  0.00    -0.021 A 
ATOM     12  C   UNL d   1      -2.841   2.750   1.832  0.00  0.00     0.011 A 
ATOM     13  C   UNL d   1      -3.209   3.128   3.127  0.00  0.00     0.024 A 
ATOM     14  C   UNL d   1      -2.658   2.472   4.221  0.00  0.00     0.034 A 
ATOM     15  C   UNL d   1      -1.736   1.446   4.034  0.00  0.00     0.024 A 
ATOM     16 CL   UNL d   1      -3.128   2.917   5.815  0.00  0.00    -0.084 Cl
ATOM     17  C   UNL d   1      -1.368   1.071   2.738  0.00  0.00     0.011 A 
ENDBRANCH   2  11
TORSDOF 1
