REMARK  5 active torsions:
REMARK  status: ('A' for Active; 'I' for Inactive)
REMARK    1  A    between atoms: N_3  and  C_1 
REMARK    2  A    between atoms: C_2  and  N_3 
REMARK    3  A    between atoms: C_12  and  C_5 
REMARK    4  A    between atoms: C_13  and  C_6 
REMARK    5  A    between atoms: N_8  and  N_7 
ROOT
ATOM      1  C   UNL d   1       1.189  -1.436  -1.846  0.00  0.00     0.047 C 
ATOM      2  C   UNL d   1       2.099  -2.479  -1.539  0.00  0.00    -0.031 C 
ATOM      3  C   UNL d   1       0.698  -1.312  -3.176  0.00  0.00    -0.031 C 
ATOM      4  C   UNL d   1       2.209  -3.067  -3.910  0.00  0.00     0.001 C 
ATOM      5  C   UNL d   1       2.625  -3.250  -2.596  0.00  0.00     0.009 C 
ATOM      6  C   UNL d   1       1.236  -2.122  -4.193  0.00  0.00     0.009 C 
ENDROOT
BRANCH   1   7
ATOM      7  N   UNL d   1       0.696  -0.516  -0.893  0.00  0.00    -0.331 N 
ATOM      8  H   UNL d   1      -0.264  -0.224  -1.036  0.00  0.00     0.168 HD
BRANCH   7   9
ATOM      9  C   UNL d   1       1.206   0.022   0.243  0.00  0.00     0.186 C 
ATOM     10  S   UNL d   1       0.143   0.630   1.386  0.00  0.00    -0.040 SA
ATOM     11  N   UNL d   1       2.546   0.166   0.451  0.00  0.00    -0.300 N 
ATOM     12  H   UNL d   1       2.773   0.656   1.318  0.00  0.00     0.183 HD
BRANCH  11  13
ATOM     13  N   UNL d   1       3.486   0.287  -0.594  0.00  0.00    -0.248 NA
ATOM     14  H   UNL d   1       2.984   0.273  -1.487  0.00  0.00     0.143 HD
ATOM     15  H   UNL d   1       4.059  -0.559  -0.603  0.00  0.00     0.143 HD
ENDBRANCH  11  13
ENDBRANCH   7   9
ENDBRANCH   1   7
BRANCH   2  16
ATOM     16  C   UNL d   1       2.510  -2.887  -0.135  0.00  0.00     0.036 C 
ATOM     17  C   UNL d   1       2.178  -4.334   0.225  0.00  0.00     0.010 C 
ENDBRANCH   2  16
BRANCH   3  18
ATOM     18  C   UNL d   1      -0.358  -0.310  -3.607  0.00  0.00     0.036 C 
ATOM     19  C   UNL d   1       0.232   1.012  -4.075  0.00  0.00     0.010 C 
ENDBRANCH   3  18
TORSDOF 5
