REMARK  1 active torsions:
REMARK  status: ('A' for Active; 'I' for Inactive)
REMARK    1  A    between atoms: C_2  and  N_1 
REMARK       I    between atoms: C_11  and  N_3 
ROOT
ATOM      1  C   UNL d   1      -2.531   0.005  -0.530  0.00  0.00     0.144 C 
ATOM      2  N   UNL d   1      -3.559  -0.769   0.003  0.00  0.00    -0.207 N 
ATOM      3  N   UNL d   1      -4.716  -0.596  -0.705  0.00  0.00    -0.301 N 
ATOM      4  HN  UNL d   1      -5.594  -1.104  -0.601  1.00  0.00     0.186 HD
ATOM      5  C   UNL d   1      -3.114   0.839  -1.460  0.00  0.00     0.070 C 
ATOM      6  C   UNL d   1      -3.564  -1.496   1.215  0.00  0.00     0.240 C 
ATOM      7  C   UNL d   1      -4.438   0.388  -1.562  0.00  0.00     0.111 C 
ATOM      8  O   UNL d   1      -2.590  -1.467   1.961  0.00  0.00    -0.272 OA
ATOM      9  C   UNL d   1      -4.872  -2.133   1.578  0.00  0.00     0.119 C 
ENDROOT
BRANCH   1  10
ATOM     10  N   UNL d   1      -1.229  -0.047  -0.084  0.00  0.00    -0.228 N 
ATOM     11  C   UNL d   1      -0.521  -1.200   0.059  0.00  0.00     0.257 A 
ATOM     12  C   UNL d   1       0.766  -0.821   0.656  0.00  0.00     0.087 A 
ATOM     13  O   UNL d   1      -0.802  -2.336  -0.282  0.00  0.00    -0.268 OA
ATOM     14  C   UNL d   1       0.768   0.505   0.830  0.00  0.00     0.012 A 
ATOM     15  C   UNL d   1      -0.501   1.040   0.289  0.00  0.00     0.262 A 
ATOM     16  C   UNL d   1       1.789   1.345   1.497  0.00  0.00     0.054 C 
ATOM     17  O   UNL d   1      -0.789   2.222   0.265  0.00  0.00    -0.267 OA
ENDBRANCH   1  10
TORSDOF 1
