REMARK  7 active torsions:
REMARK  status: ('A' for Active; 'I' for Inactive)
REMARK    1  A    between atoms: O_3  and  C_1 
REMARK    2  A    between atoms: C_11  and  C_2 
REMARK    3  A    between atoms: C_5  and  O_3 
REMARK    4  A    between atoms: C_6  and  C_5 
REMARK    5  A    between atoms: O_14  and  C_10 
REMARK    6  A    between atoms: C_20  and  O_14 
REMARK    7  A    between atoms: C_23  and  C_20 
ROOT
ATOM      1  C   UNL d   1       0.605   0.974   0.704  0.00  0.00     0.102 C 
ATOM      2  C   UNL d   1       1.185  -0.281   0.442  0.00  0.00     0.044 C 
ATOM      3  C   UNL d   1      -0.800   1.151   0.785  0.00  0.00     0.006 C 
ATOM      4  C   UNL d   1       0.340  -1.353   0.158  0.00  0.00     0.021 C 
ATOM      5  C   UNL d   1      -1.617   0.099   0.352  0.00  0.00     0.077 C 
ATOM      6  C   UNL d   1      -1.038  -1.150   0.078  0.00  0.00     0.038 C 
ATOM      7  C   UNL d   1      -1.344   2.414   1.391  0.00  0.00     0.054 C 
ENDROOT
BRANCH   1   8
ATOM      8  O   UNL d   1       1.402   2.112   0.951  0.00  0.00    -0.273 OA
BRANCH   8   9
ATOM      9  C   UNL d   1       2.163   2.568  -0.122  0.00  0.00     0.298 C 
ATOM     10  O   UNL d   1       2.239   2.064  -1.232  0.00  0.00    -0.259 OA
BRANCH   9  11
ATOM     11  C   UNL d   1       2.864   3.829   0.262  0.00  0.00     0.041 A 
ATOM     12  C   UNL d   1       2.645   4.457   1.496  0.00  0.00     0.043 A 
ATOM     13  C   UNL d   1       3.276   5.672   1.794  0.00  0.00     0.056 A 
ATOM     14 CL   UNL d   1       2.926   6.394   3.326  0.00  0.00    -0.083 Cl
ATOM     15  C   UNL d   1       4.138   6.264   0.868  0.00  0.00     0.055 A 
ATOM     16  C   UNL d   1       4.375   5.635  -0.358  0.00  0.00     0.026 A 
ATOM     17 CL   UNL d   1       4.926   7.773   1.167  0.00  0.00    -0.083 Cl
ATOM     18  C   UNL d   1       3.740   4.424  -0.660  0.00  0.00     0.019 A 
ENDBRANCH   9  11
ENDBRANCH   8   9
ENDBRANCH   1   8
BRANCH   2  19
ATOM     19  C   UNL d   1       2.658  -0.494   0.565  0.00  0.00     0.158 C 
ATOM     20  O   UNL d   1       3.326   0.238   1.297  0.00  0.00    -0.293 OA
ATOM     21  C   UNL d   1       3.315  -1.633  -0.172  0.00  0.00     0.097 C 
ENDBRANCH   2  19
BRANCH   5  22
ATOM     22  O   UNL d   1      -2.963   0.086   0.133  0.00  0.00    -0.346 OA
BRANCH  22  23
ATOM     23  C   UNL d   1      -3.705   1.258  -0.213  0.00  0.00     0.214 C 
BRANCH  23  24
ATOM     24  C   UNL d   1      -3.279   2.098  -1.404  0.00  0.00    -0.034 A 
ATOM     25  C   UNL d   1      -2.274   1.723  -2.304  0.00  0.00     0.009 A 
ATOM     26  C   UNL d   1      -1.859   2.595  -3.314  0.00  0.00     0.001 A 
ATOM     27  C   UNL d   1      -2.477   3.832  -3.471  0.00  0.00     0.000 A 
ATOM     28  C   UNL d   1      -3.528   4.191  -2.632  0.00  0.00     0.001 A 
ATOM     29  C   UNL d   1      -3.927   3.330  -1.608  0.00  0.00     0.009 A 
ENDBRANCH  23  24
ENDBRANCH  22  23
ENDBRANCH   5  22
TORSDOF 7
