REMARK  2 active torsions:
REMARK  status: ('A' for Active; 'I' for Inactive)
REMARK    1  A    between atoms: C_8  and  N_1 
REMARK    2  A    between atoms: S_13  and  C_2 
ROOT
ATOM      1  N   UNL d   1       2.408  -0.676  -0.041  0.00  0.00    -0.258 N 
ATOM      2  C   UNL d   1       2.341   0.713  -0.057  0.00  0.00     0.154 A 
ATOM      3  C   UNL d   1       1.248  -1.458   0.035  0.00  0.00     0.270 A 
ATOM      4  N   UNL d   1       1.226   1.373  -0.037  0.00  0.00    -0.335 N 
ATOM      5  HN  UNL d   1       1.227   2.393  -0.038  1.00  0.00     0.168 HD
ATOM      6  C   UNL d   1      -0.026  -0.730   0.024  0.00  0.00     0.098 A 
ATOM      7  C   UNL d   1       0.022   0.661  -0.015  0.00  0.00     0.053 A 
ATOM      8  O   UNL d   1       1.238  -2.682   0.102  0.00  0.00    -0.266 OA
ATOM      9  C   UNL d   1      -1.253  -1.394   0.027  0.00  0.00     0.134 A 
ATOM     10  F   UNL d   1      -1.332  -2.731   0.061  0.00  0.00    -0.205 F 
ATOM     11  C   UNL d   1      -1.179   1.378  -0.048  0.00  0.00     0.031 A 
ATOM     12  C   UNL d   1      -2.410   0.714  -0.056  0.00  0.00     0.005 A 
ATOM     13  C   UNL d   1      -2.445  -0.676  -0.018  0.00  0.00     0.043 A 
ENDROOT
BRANCH   1  14
ATOM     14  C   UNL d   1       3.625  -1.406  -0.116  0.00  0.00     0.045 A 
ATOM     15  C   UNL d   1       4.078  -1.855  -1.362  0.00  0.00     0.037 A 
ATOM     16  C   UNL d   1       5.116  -2.796  -1.450  0.00  0.00    -0.054 A 
ATOM     17  C   UNL d   1       5.530  -3.310  -2.802  0.00  0.00     0.049 C 
ATOM     18  C   UNL d   1       5.711  -3.280  -0.266  0.00  0.00    -0.056 A 
ATOM     19  C   UNL d   1       5.268  -2.796   0.976  0.00  0.00     0.009 A 
ATOM     20  C   UNL d   1       6.776  -4.342  -0.302  0.00  0.00     0.049 C 
ATOM     21  C   UNL d   1       4.226  -1.871   1.054  0.00  0.00     0.031 A 
ENDBRANCH   1  14
BRANCH   2  22
ATOM     22  S   UNL d   1       3.847   1.624  -0.099  0.00  0.00    -0.098 SA
ATOM     23  C   UNL d   1       3.242   3.327  -0.079  0.00  0.00     0.099 C 
ENDBRANCH   2  22
TORSDOF 2
