REMARK  2 active torsions:
REMARK  status: ('A' for Active; 'I' for Inactive)
REMARK    1  A    between atoms: N_16  and  C_9 
REMARK    2  A    between atoms: C_15  and  C_10 
ROOT
ATOM      1  C   UNL d   1       0.055  -0.613  -0.037  0.00  0.00     0.168 C 
ATOM      2  C   UNL d   1       0.083   0.722  -0.048  0.00  0.00     0.075 C 
ATOM      3  N   UNL d   1       1.214  -1.357  -0.058  0.00  0.00    -0.283 N 
ATOM      4  N   UNL d   1       2.504   0.617  -0.048  0.00  0.00    -0.270 N 
ATOM      5  C   UNL d   1       2.480  -0.770  -0.030  0.00  0.00     0.332 C 
ATOM      6  C   UNL d   1       1.380   1.406  -0.192  0.00  0.00     0.262 C 
ATOM      7  C   UNL d   1      -2.420   0.716  -0.020  0.00  0.00     0.081 C 
ATOM      8  O   UNL d   1      -1.144  -1.307   0.018  0.00  0.00    -0.280 OA
ATOM      9  C   UNL d   1      -2.362  -0.633  -0.052  0.00  0.00     0.140 C 
ATOM     10  C   UNL d   1      -1.161   1.558   0.072  0.00  0.00     0.109 C 
ATOM     11  C   UNL d   1      -3.670   1.398  -0.089  0.00  0.00     0.100 C 
ATOM     12  N   UNL d   1      -4.694   1.942  -0.129  0.00  0.00    -0.191 NA
ATOM     13  O   UNL d   1       3.507  -1.451   0.001  0.00  0.00    -0.246 OA
ATOM     14  O   UNL d   1       1.417   2.609  -0.441  0.00  0.00    -0.267 OA
ATOM     15  C   UNL d   1       1.180  -2.813  -0.038  0.00  0.00     0.163 C 
ATOM     16  C   UNL d   1       3.783   1.302  -0.038  0.00  0.00     0.164 C 
ENDROOT
BRANCH   9  17
ATOM     17  N   UNL d   1      -3.442  -1.481  -0.144  0.00  0.00    -0.282 NA
ATOM     18  H   UNL d   1      -4.335  -1.099   0.162  0.00  0.00     0.126 HD
ATOM     19  H   UNL d   1      -3.251  -2.408   0.226  0.00  0.00     0.126 HD
ENDBRANCH   9  17
BRANCH  10  20
ATOM     20  C   UNL d   1      -1.149   2.387   1.358  0.00  0.00    -0.044 A 
ATOM     21  C   UNL d   1      -1.196   3.788   1.284  0.00  0.00     0.008 A 
ATOM     22  C   UNL d   1      -1.175   4.561   2.445  0.00  0.00     0.001 A 
ATOM     23  C   UNL d   1      -1.106   3.946   3.692  0.00  0.00     0.000 A 
ATOM     24  C   UNL d   1      -1.058   2.557   3.783  0.00  0.00     0.001 A 
ATOM     25  C   UNL d   1      -1.081   1.779   2.625  0.00  0.00     0.008 A 
ENDBRANCH  10  20
TORSDOF 2
