REMARK  3 active torsions:
REMARK  status: ('A' for Active; 'I' for Inactive)
REMARK    1  A    between atoms: N_8  and  C_1 
REMARK    2  A    between atoms: C_2  and  C_3 
REMARK    3  A    between atoms: C_6  and  N_7 
ROOT
ATOM      1  C   UNL d   1      -0.178   1.163  -0.020  0.00  0.00     0.125 A 
ATOM      2  C   UNL d   1      -1.630  -1.210  -0.123  0.00  0.00     0.065 A 
ATOM      3  N   UNL d   1      -1.533   1.202   0.031  0.00  0.00    -0.350 N 
ATOM      4  HN  UNL d   1      -2.024   2.093   0.110  1.00  0.00     0.166 HD
ATOM      5  C   UNL d   1       0.498  -0.065  -0.152  0.00  0.00     0.078 A 
ATOM      6  C   UNL d   1      -0.238  -1.253  -0.203  0.00  0.00     0.045 A 
ATOM      7  C   UNL d   1      -2.221   0.036  -0.027  0.00  0.00     0.106 A 
ATOM      8 CL   UNL d   1       2.222  -0.206  -0.109  0.00  0.00    -0.080 Cl
ENDROOT
BRANCH   1   9
ATOM      9  N   UNL d   1       0.516   2.339   0.203  0.00  0.00    -0.363 N 
ATOM     10  C   UNL d   1      -0.150   3.375   1.006  0.00  0.00     0.144 C 
ATOM     11  C   UNL d   1       0.952   4.206   1.684  0.00  0.00     0.145 C 
ATOM     12  N   UNL d   1       1.945   4.730   0.724  0.00  0.00    -0.355 N 
ATOM     13  C   UNL d   1       2.451   3.752  -0.263  0.00  0.00     0.145 C 
ATOM     14  C   UNL d   1       1.313   2.915  -0.893  0.00  0.00     0.144 C 
BRANCH  12  15
ATOM     15  C   UNL d   1       2.370   6.029   0.767  0.00  0.00     0.169 C 
ATOM     16  S   UNL d   1       1.344   7.345   0.925  0.00  0.00    -0.041 SA
ATOM     17  N   UNL d   1       3.700   6.291   0.661  0.00  0.00    -0.371 N 
ATOM     18  C   UNL d   1       4.808   5.429   1.022  0.00  0.00     0.148 C 
ATOM     19  H   UNL d   1       3.895   7.284   0.721  0.00  0.00     0.161 HD
ENDBRANCH  12  15
ENDBRANCH   1   9
BRANCH   2  20
ATOM     20  C   UNL d   1      -2.474  -2.446  -0.101  0.00  0.00     0.418 C 
ATOM     21  F   UNL d   1      -1.748  -3.596  -0.137  0.00  0.00    -0.166 F 
ATOM     22  F   UNL d   1      -3.244  -2.526   1.018  0.00  0.00    -0.166 F 
ATOM     23  F   UNL d   1      -3.332  -2.510  -1.153  0.00  0.00    -0.166 F 
ENDBRANCH   2  20
TORSDOF 3
