REMARK  2 active torsions:
REMARK  status: ('A' for Active; 'I' for Inactive)
REMARK    1  A    between atoms: C_9  and  C_3 
REMARK    2  A    between atoms: C_8  and  C_7 
ROOT
ATOM      1  N   UNL d   1      -0.784   0.034   0.067  0.00  0.00    -0.331 N 
ATOM      2  HN  UNL d   1      -1.769  -0.224   0.126  1.00  0.00     0.168 HD
ATOM      3  C   UNL d   1      -0.260   1.216   0.008  0.00  0.00     0.162 A 
ATOM      4  C   UNL d   1       0.313  -0.783   0.029  0.00  0.00     0.111 A 
ATOM      5  O   UNL d   1       1.091   1.302  -0.056  0.00  0.00    -0.256 OA
ATOM      6  C   UNL d   1       1.560   0.022  -0.035  0.00  0.00     0.316 A 
ATOM      7  C   UNL d   1       0.315  -2.122   0.017  0.00  0.00     0.049 C 
ATOM      8  O   UNL d   1       2.717  -0.343  -0.063  0.00  0.00    -0.257 OA
ENDROOT
BRANCH   7   9
ATOM      9  C   UNL d   1      -0.938  -2.884  -0.010  0.00  0.00    -0.012 A 
ATOM     10  C   UNL d   1      -1.592  -3.200  -1.213  0.00  0.00     0.044 A 
ATOM     11 CL   UNL d   1      -0.921  -2.783  -2.753  0.00  0.00    -0.083 Cl
ATOM     12  C   UNL d   1      -2.819  -3.868  -1.196  0.00  0.00     0.024 A 
ATOM     13  C   UNL d   1      -3.404  -4.225   0.019  0.00  0.00     0.002 A 
ATOM     14  C   UNL d   1      -2.761  -3.921   1.217  0.00  0.00     0.001 A 
ATOM     15  C   UNL d   1      -1.534  -3.252   1.205  0.00  0.00     0.013 A 
ENDBRANCH   7   9
BRANCH   3  16
ATOM     16  C   UNL d   1      -0.987   2.493   0.026  0.00  0.00     0.015 A 
ATOM     17  C   UNL d   1      -2.379   2.472   0.182  0.00  0.00     0.016 A 
ATOM     18  C   UNL d   1      -3.096   3.667   0.235  0.00  0.00     0.001 A 
ATOM     19  C   UNL d   1      -2.427   4.886   0.129  0.00  0.00     0.000 A 
ATOM     20  C   UNL d   1      -1.042   4.911  -0.039  0.00  0.00     0.001 A 
ATOM     21  C   UNL d   1      -0.319   3.717  -0.091  0.00  0.00     0.016 A 
ENDBRANCH   3  16
TORSDOF 2
