REMARK  5 active torsions:
REMARK  status: ('A' for Active; 'I' for Inactive)
REMARK    1  A    between atoms: N_4  and  N_1 
REMARK       I    between atoms: C_3  and  N_4 
REMARK    2  A    between atoms: O_13  and  C_3 
REMARK    3  A    between atoms: C_6  and  C_5 
REMARK       I    between atoms: C_7  and  N_8 
REMARK    4  A    between atoms: N_8  and  C_11 
REMARK    5  A    between atoms: C_19  and  O_13 
ROOT
ATOM      1  C   UNL d   1       2.975   0.304   1.026  0.00  0.00    -0.010 A 
ATOM      2  C   UNL d   1       2.463  -0.178   2.241  0.00  0.00     0.043 A 
ATOM      3  C   UNL d   1       3.153   0.024   3.437  0.00  0.00     0.035 A 
ATOM      4  C   UNL d   1       4.175   1.020   1.009  0.00  0.00     0.013 A 
ATOM      5  C   UNL d   1       4.858   1.247   2.203  0.00  0.00     0.003 A 
ATOM      6  C   UNL d   1       4.351   0.750   3.408  0.00  0.00     0.029 A 
ENDROOT
BRANCH   1   7
ATOM      7  C   UNL d   1       2.217   0.006  -0.230  0.00  0.00     0.032 C 
ATOM      8  N   UNL d   1       0.926  -0.100  -0.132  0.00  0.00    -0.300 N 
ATOM      9  HN  UNL d   1       0.476   0.083   0.765  1.00  0.00     0.186 HD
ATOM     10  C   UNL d   1       3.032  -0.185  -1.490  0.00  0.00     0.070 C 
BRANCH   8  11
ATOM     11  N   UNL d   1       0.165  -0.447  -1.197  0.00  0.00    -0.245 N 
ATOM     12  C   UNL d   1      -1.141  -0.839  -1.007  0.00  0.00     0.379 C 
ATOM     13  O   UNL d   1      -1.791  -0.760   0.025  0.00  0.00    -0.237 OA
ATOM     14  H   UNL d   1       0.573  -0.696  -2.084  0.00  0.00     0.192 HD
BRANCH  12  15
ATOM     15  O   UNL d   1      -1.588  -1.411  -2.162  0.00  0.00    -0.303 OA
BRANCH  15  16
ATOM     16  C   UNL d   1      -2.831  -2.121  -2.048  0.00  0.00     0.176 C 
ATOM     17  C   UNL d   1      -2.536  -3.565  -1.685  0.00  0.00     0.034 C 
ENDBRANCH  15  16
ENDBRANCH  12  15
ENDBRANCH   8  11
ENDBRANCH   1   7
BRANCH   3  18
ATOM     18  N   UNL d   1       2.723  -0.476   4.686  0.00  0.00    -0.327 N 
ATOM     19  C   UNL d   1       1.620  -1.274   4.932  0.00  0.00     0.218 C 
ATOM     20  O   UNL d   1       0.803  -1.677   4.112  0.00  0.00    -0.274 OA
ATOM     21  C   UNL d   1       1.476  -1.660   6.383  0.00  0.00     0.117 C 
ATOM     22  H   UNL d   1       3.309  -0.247   5.478  0.00  0.00     0.169 HD
ENDBRANCH   3  18
TORSDOF 5
