REMARK  4 active torsions:
REMARK  status: ('A' for Active; 'I' for Inactive)
REMARK    1  A    between atoms: S_12  and  C_7 
REMARK    2  A    between atoms: N_11  and  C_13 
REMARK    3  A    between atoms: C_20  and  S_12 
REMARK    4  A    between atoms: C_21  and  C_20 
ROOT
ATOM      1  C   UNL d   1       0.727   0.449  -0.020  0.00  0.00     0.073 A 
ATOM      2  C   UNL d   1       1.307  -0.797  -0.085  0.00  0.00     0.092 A 
ATOM      3  N   UNL d   1       2.633  -1.069  -0.119  0.00  0.00    -0.330 N 
ATOM      4  HN  UNL d   1       2.995  -2.021  -0.179  1.00  0.00     0.168 HD
ATOM      5  C   UNL d   1       1.604   1.601   0.042  0.00  0.00     0.262 A 
ATOM      6  N   UNL d   1       2.970   1.295   0.011  0.00  0.00    -0.298 N 
ATOM      7  C   UNL d   1       3.410  -0.030  -0.069  0.00  0.00     0.150 A 
ATOM      8  S   UNL d   1       0.133  -2.039  -0.103  0.00  0.00    -0.075 SA
ATOM      9  C   UNL d   1      -0.705   0.393  -0.025  0.00  0.00    -0.026 A 
ATOM     10  C   UNL d   1      -1.147  -0.916  -0.037  0.00  0.00    -0.008 A 
ATOM     11  O   UNL d   1       1.159   2.743   0.122  0.00  0.00    -0.267 OA
ATOM     12  C   UNL d   1       3.889   2.425   0.078  0.00  0.00     0.161 C 
ATOM     13  C   UNL d   1      -1.657   1.554   0.017  0.00  0.00     0.041 C 
ATOM     14  C   UNL d   1      -2.585  -1.341  -0.035  0.00  0.00     0.047 C 
ATOM     15  C   UNL d   1      -3.088   1.131  -0.350  0.00  0.00     0.005 C 
ATOM     16  C   UNL d   1      -3.494  -0.165   0.363  0.00  0.00     0.005 C 
ENDROOT
BRANCH   7  17
ATOM     17  S   UNL d   1       5.154  -0.296  -0.073  0.00  0.00    -0.089 SA
BRANCH  17  18
ATOM     18  C   UNL d   1       5.263  -1.912  -0.890  0.00  0.00     0.121 C 
BRANCH  18  19
ATOM     19  C   UNL d   1       6.702  -2.374  -1.020  0.00  0.00    -0.048 A 
ATOM     20  C   UNL d   1       7.263  -3.228  -0.055  0.00  0.00     0.010 A 
ATOM     21  C   UNL d   1       8.585  -3.670  -0.172  0.00  0.00     0.036 A 
ATOM     22  C   UNL d   1       9.359  -3.250  -1.258  0.00  0.00     0.102 A 
ATOM     23  C   UNL d   1       8.822  -2.388  -2.223  0.00  0.00     0.036 A 
ATOM     24  C   UNL d   1       7.498  -1.953  -2.098  0.00  0.00     0.010 A 
BRANCH  22  25
ATOM     25  N   UNL d   1      10.746  -3.718  -1.390  0.00  0.00    -0.116 N 
ATOM     26  O   UNL d   1      11.181  -4.485  -0.519  0.00  0.00    -0.532 OA
ATOM     27  O   UNL d   1      11.400  -3.322  -2.366  0.00  0.00    -0.532 OA
ENDBRANCH  22  25
ENDBRANCH  18  19
ENDBRANCH  17  18
ENDBRANCH   7  17
TORSDOF 4
