REMARK  4 active torsions:
REMARK  status: ('A' for Active; 'I' for Inactive)
REMARK    1  A    between atoms: N_3  and  C_1 
REMARK    2  A    between atoms: N_6  and  C_1 
REMARK    3  A    between atoms: C_2  and  C_4 
REMARK    4  A    between atoms: C_7  and  N_3 
ROOT
ATOM      1  C   UNL d   1       2.769  -2.132  -3.461  0.00  0.00     0.050 A 
ATOM      2  C   UNL d   1       1.133  -0.697  -2.365  0.00  0.00     0.035 A 
ATOM      3  C   UNL d   1       2.208  -1.589  -2.295  0.00  0.00     0.045 A 
ATOM      4  C   UNL d   1       2.230  -1.772  -4.704  0.00  0.00     0.016 A 
ATOM      5  C   UNL d   1       1.129  -0.918  -4.775  0.00  0.00     0.003 A 
ATOM      6  C   UNL d   1       0.570  -0.399  -3.607  0.00  0.00     0.029 A 
ENDROOT
BRANCH   2   7
ATOM      7  N   UNL d   1       0.568  -0.095  -1.222  0.00  0.00    -0.333 N 
ATOM      8  H   UNL d   1      -0.420   0.131  -1.285  0.00  0.00     0.168 HD
BRANCH   7   9
ATOM      9  C   UNL d   1       1.084   0.021   0.042  0.00  0.00     0.173 C 
ATOM     10  S   UNL d   1      -0.022   0.046   1.305  0.00  0.00    -0.041 SA
BRANCH   9  11
ATOM     11  N   UNL d   1       2.453   0.198   0.183  0.00  0.00    -0.367 N 
ATOM     12  C   UNL d   1       3.217   0.999  -0.776  0.00  0.00     0.151 C 
ATOM     13  C   UNL d   1       3.155  -0.077   1.433  0.00  0.00     0.151 C 
ENDBRANCH   9  11
ENDBRANCH   7   9
ENDBRANCH   2   7
BRANCH   1  14
ATOM     14  C   UNL d   1       3.951  -3.065  -3.387  0.00  0.00     0.417 C 
ATOM     15  F   UNL d   1       4.230  -3.497  -2.126  0.00  0.00    -0.166 F 
ATOM     16  F   UNL d   1       3.781  -4.189  -4.137  0.00  0.00    -0.166 F 
ATOM     17  F   UNL d   1       5.096  -2.483  -3.841  0.00  0.00    -0.166 F 
ENDBRANCH   1  14
TORSDOF 4
