REMARK  3 active torsions:
REMARK  status: ('A' for Active; 'I' for Inactive)
REMARK    1  A    between atoms: C_5  and  O_22 
REMARK    2  A    between atoms: O_17  and  C_11 
REMARK    3  A    between atoms: C_18  and  O_17 
ROOT
ATOM      1  C   UNL d   1       2.335   0.149   0.305  0.00  0.00    -0.010 C 
ATOM      2  C   UNL d   1       4.514  -1.101   1.062  0.00  0.00     0.019 A 
ATOM      3  C   UNL d   1       4.390  -0.409   2.440  0.00  0.00    -0.007 A 
ATOM      4  C   UNL d   1       0.932   0.158  -0.487  0.00  0.00     0.001 C 
ATOM      5  C   UNL d   1       3.395  -0.974  -0.017  0.00  0.00     0.131 C 
ATOM      6  C   UNL d   1      -1.873   0.603  -1.310  0.00  0.00    -0.013 C 
ATOM      7  C   UNL d   1       5.495  -0.026   1.496  0.00  0.00     0.012 A 
ATOM      8  C   UNL d   1      -1.563  -0.621  -0.441  0.00  0.00     0.001 C 
ATOM      9  C   UNL d   1      -0.095  -0.945  -0.086  0.00  0.00    -0.005 C 
ATOM     10  C   UNL d   1       2.070  -0.138   1.818  0.00  0.00    -0.003 C 
ATOM     11  C   UNL d   1      -3.424   0.552  -1.237  0.00  0.00     0.140 C 
ATOM     12  C   UNL d   1       3.163   0.445   2.702  0.00  0.00     0.010 C 
ATOM     13  C   UNL d   1      -1.232   1.773  -0.581  0.00  0.00     0.012 C 
ATOM     14  C   UNL d   1       0.288   1.610  -0.473  0.00  0.00     0.007 C 
ATOM     15  C   UNL d   1      -0.051  -1.265   1.431  0.00  0.00     0.006 C 
ATOM     16  C   UNL d   1      -2.428  -1.709  -1.059  0.00  0.00     0.008 C 
ATOM     17  C   UNL d   1       0.616  -0.146   2.257  0.00  0.00     0.006 C 
ATOM     18  C   UNL d   1      -3.748  -0.964  -1.325  0.00  0.00     0.034 C 
ATOM     19  C   UNL d   1       3.022   1.498  -0.079  0.00  0.00     0.018 C 
ATOM     20  C   UNL d   1      -1.412   0.576  -2.780  0.00  0.00     0.018 C 
ENDROOT
BRANCH  11  21
ATOM     21  O   UNL d   1      -4.062   1.271  -2.294  0.00  0.00    -0.316 OA
BRANCH  21  22
ATOM     22  C   UNL d   1      -5.406   1.442  -2.136  0.00  0.00     0.255 C 
ATOM     23  O   UNL d   1      -6.053   1.107  -1.150  0.00  0.00    -0.266 OA
ATOM     24  C   UNL d   1      -6.012   2.006  -3.382  0.00  0.00     0.126 C 
ENDBRANCH  21  22
ENDBRANCH  11  21
BRANCH   5  25
ATOM     25  O   UNL d   1       3.998  -0.810  -1.291  0.00  0.00    -0.394 OA
ATOM     26  H   UNL d   1       4.695  -1.484  -1.357  0.00  0.00     0.210 HD
ENDBRANCH   5  25
TORSDOF 3
