REMARK  3 active torsions:
REMARK  status: ('A' for Active; 'I' for Inactive)
REMARK    1  A    between atoms: C_9  and  C_3 
REMARK    2  A    between atoms: C_8  and  C_4 
REMARK    3  A    between atoms: C_10  and  C_5 
ROOT
ATOM      1  N   UNL d   1      -1.347  -0.052  -0.008  0.00  0.00    -0.355 N 
ATOM      2  HN  UNL d   1      -2.367  -0.092  -0.003  1.00  0.00     0.166 HD
ATOM      3  C   UNL d   1      -0.700   1.143  -0.012  0.00  0.00     0.043 A 
ATOM      4  C   UNL d   1      -0.610  -1.189  -0.011  0.00  0.00     0.043 A 
ATOM      5  C   UNL d   1       1.472   0.059  -0.013  0.00  0.00    -0.022 A 
ATOM      6  C   UNL d   1       0.695   1.218  -0.020  0.00  0.00     0.042 A 
ATOM      7  C   UNL d   1       0.784  -1.158  -0.015  0.00  0.00     0.042 A 
ENDROOT
BRANCH   3   8
ATOM      8  C   UNL d   1      -1.540   2.360  -0.036  0.00  0.00    -0.009 A 
ATOM      9  C   UNL d   1      -1.112   3.570   0.543  0.00  0.00     0.014 A 
ATOM     10  C   UNL d   1      -1.875   4.739   0.453  0.00  0.00     0.007 A 
ATOM     11  C   UNL d   1      -3.104   4.730  -0.207  0.00  0.00    -0.062 A 
ATOM     12  C   UNL d   1      -3.563   3.532  -0.762  0.00  0.00     0.007 A 
ATOM     13  C   UNL d   1      -3.901   5.995  -0.316  0.00  0.00     0.048 C 
ATOM     14  C   UNL d   1      -2.792   2.365  -0.674  0.00  0.00     0.014 A 
ENDBRANCH   3   8
BRANCH   4  15
ATOM     15  C   UNL d   1      -1.355  -2.467   0.037  0.00  0.00    -0.009 A 
ATOM     16  C   UNL d   1      -0.847  -3.642  -0.555  0.00  0.00     0.015 A 
ATOM     17  C   UNL d   1      -1.516  -4.866  -0.445  0.00  0.00     0.024 A 
ATOM     18  C   UNL d   1      -2.717  -4.934   0.250  0.00  0.00     0.034 A 
ATOM     19  C   UNL d   1      -3.260  -3.789   0.823  0.00  0.00     0.024 A 
ATOM     20 CL   UNL d   1      -3.530  -6.443   0.401  0.00  0.00    -0.084 Cl
ATOM     21  C   UNL d   1      -2.585  -2.567   0.713  0.00  0.00     0.015 A 
ENDBRANCH   4  15
BRANCH   5  22
ATOM     22  C   UNL d   1       2.951   0.118   0.021  0.00  0.00    -0.026 A 
ATOM     23  C   UNL d   1       3.662   1.145  -0.628  0.00  0.00     0.012 A 
ATOM     24  C   UNL d   1       5.056   1.225  -0.555  0.00  0.00     0.001 A 
ATOM     25  C   UNL d   1       5.773   0.267   0.154  0.00  0.00     0.000 A 
ATOM     26  C   UNL d   1       5.098  -0.770   0.789  0.00  0.00     0.001 A 
ATOM     27  C   UNL d   1       3.704  -0.839   0.726  0.00  0.00     0.012 A 
ENDBRANCH   5  22
TORSDOF 3
