REMARK  5 active torsions:
REMARK  status: ('A' for Active; 'I' for Inactive)
REMARK    1  A    between atoms: C_2  and  C_1 
REMARK       I    between atoms: N_5  and  C_1 
REMARK    2  A    between atoms: C_4  and  C_3 
REMARK    3  A    between atoms: O_13  and  C_4 
REMARK    4  A    between atoms: C_11  and  N_5 
REMARK       I    between atoms: C_6  and  N_7 
REMARK    5  A    between atoms: N_7  and  C_12 
ROOT
ATOM      1  C   UNL d   1       0.994  -0.092  -0.173  0.00  0.00     0.257 C 
ATOM      2  N   UNL d   1       0.271   0.786  -0.950  0.00  0.00    -0.323 N 
ATOM      3  O   UNL d   1       0.542  -0.834   0.696  0.00  0.00    -0.267 OA
ATOM      4  H   UNL d   1       0.750   1.295  -1.685  0.00  0.00     0.169 HD
ENDROOT
BRANCH   2   5
ATOM      5  C   UNL d   1      -1.124   1.000  -0.907  0.00  0.00     0.035 A 
ATOM      6  C   UNL d   1      -1.970   0.503   0.084  0.00  0.00     0.032 A 
ATOM      7  C   UNL d   1      -3.355   0.720   0.012  0.00  0.00     0.032 A 
ATOM      8  C   UNL d   1      -3.915   1.431  -1.055  0.00  0.00     0.034 A 
ATOM      9  C   UNL d   1      -3.062   1.966  -2.017  0.00  0.00     0.032 A 
ATOM     10  C   UNL d   1      -1.679   1.756  -1.941  0.00  0.00     0.032 A 
BRANCH   8  11
ATOM     11  N   UNL d   1      -5.322   1.536  -1.107  0.00  0.00    -0.328 N 
ATOM     12  C   UNL d   1      -6.073   2.125  -2.110  0.00  0.00     0.218 C 
ATOM     13  O   UNL d   1      -5.647   2.719  -3.097  0.00  0.00    -0.274 OA
ATOM     14  C   UNL d   1      -7.560   1.966  -1.919  0.00  0.00     0.117 C 
ATOM     15  H   UNL d   1      -5.825   1.089  -0.354  0.00  0.00     0.169 HD
ENDBRANCH   8  11
ENDBRANCH   2   5
BRANCH   1  16
ATOM     16  C   UNL d   1       2.458  -0.171  -0.432  0.00  0.00     0.049 A 
ATOM     17  C   UNL d   1       3.075  -0.123  -1.692  0.00  0.00     0.053 A 
ATOM     18  C   UNL d   1       4.481  -0.143  -1.771  0.00  0.00     0.019 A 
ATOM     19  C   UNL d   1       5.265  -0.251  -0.621  0.00  0.00     0.001 A 
ATOM     20  C   UNL d   1       4.653  -0.351   0.623  0.00  0.00     0.001 A 
ATOM     21  C   UNL d   1       3.263  -0.314   0.716  0.00  0.00     0.018 A 
BRANCH  17  22
ATOM     22  C   UNL d   1       2.376  -0.026  -2.995  0.00  0.00     0.177 C 
ATOM     23  O   UNL d   1       2.813   0.659  -3.904  0.00  0.00    -0.646 OA
BRANCH  22  24
ATOM     24  O   UNL d   1       1.248  -0.748  -3.113  0.00  0.00    -0.773 OA
ATOM     25  H   UNL d   1       0.983  -1.319  -2.366  0.00  0.00     0.167 HD
ENDBRANCH  22  24
ENDBRANCH  17  22
ENDBRANCH   1  16
TORSDOF 5
