REMARK  4 active torsions:
REMARK  status: ('A' for Active; 'I' for Inactive)
REMARK       I    between atoms: N_2  and  C_1 
REMARK    1  A    between atoms: C_3  and  C_1 
REMARK    2  A    between atoms: C_4  and  N_2 
REMARK    3  A    between atoms: N_5  and  C_4 
REMARK    4  A    between atoms: C_10  and  N_5 
ROOT
ATOM      1  C   UNL d   1      -1.065  -0.714   0.873  0.00  0.00     0.264 C 
ATOM      2  N   UNL d   1       0.285  -0.498   1.137  0.00  0.00    -0.299 N 
ATOM      3  O   UNL d   1      -1.773  -1.502   1.491  0.00  0.00    -0.267 OA
ATOM      4  H   UNL d   1       0.798   0.071   0.476  0.00  0.00     0.171 HD
ENDROOT
BRANCH   2   5
ATOM      5  C   UNL d   1       0.965  -0.671   2.329  0.00  0.00     0.179 C 
ATOM      6  S   UNL d   1       0.303  -0.855   3.852  0.00  0.00    -0.040 SA
BRANCH   5   7
ATOM      7  N   UNL d   1       2.335  -0.586   2.243  0.00  0.00    -0.333 N 
ATOM      8  H   UNL d   1       2.786  -0.417   3.139  0.00  0.00     0.168 HD
BRANCH   7   9
ATOM      9  C   UNL d   1       3.192  -0.996   1.202  0.00  0.00     0.034 A 
ATOM     10  C   UNL d   1       4.536  -0.615   1.285  0.00  0.00     0.031 A 
ATOM     11  C   UNL d   1       5.457  -1.047   0.326  0.00  0.00     0.026 A 
ATOM     12  C   UNL d   1       5.039  -1.883  -0.705  0.00  0.00     0.034 A 
ATOM     13  C   UNL d   1       3.708  -2.284  -0.788  0.00  0.00     0.026 A 
ATOM     14 CL   UNL d   1       6.176  -2.445  -1.867  0.00  0.00    -0.084 Cl
ATOM     15  C   UNL d   1       2.784  -1.840   0.163  0.00  0.00     0.031 A 
ENDBRANCH   7   9
ENDBRANCH   5   7
ENDBRANCH   2   5
BRANCH   1  16
ATOM     16  C   UNL d   1      -1.625  -0.036  -0.319  0.00  0.00     0.109 A 
ATOM     17  C   UNL d   1      -2.597  -0.679  -1.086  0.00  0.00     0.135 A 
ATOM     18  F   UNL d   1      -2.960  -1.944  -0.831  0.00  0.00    -0.205 F 
ATOM     19  C   UNL d   1      -3.197  -0.038  -2.171  0.00  0.00     0.043 A 
ATOM     20  C   UNL d   1      -2.832   1.266  -2.498  0.00  0.00     0.006 A 
ATOM     21  C   UNL d   1      -1.855   1.917  -1.747  0.00  0.00     0.043 A 
ATOM     22  C   UNL d   1      -1.258   1.263  -0.667  0.00  0.00     0.135 A 
ATOM     23  F   UNL d   1      -0.316   1.915   0.030  0.00  0.00    -0.205 F 
ENDBRANCH   1  16
TORSDOF 4
