REMARK  5 active torsions:
REMARK  status: ('A' for Active; 'I' for Inactive)
REMARK    1  A    between atoms: C_15  and  C_1 
REMARK    2  A    between atoms: O_8  and  C_4 
REMARK    3  A    between atoms: N_7  and  C_11 
REMARK    4  A    between atoms: C_9  and  O_8 
REMARK    5  A    between atoms: C_12  and  C_9 
ROOT
ATOM      1  C   UNL d   1       2.771  -1.142  -0.231  0.00  0.00     0.077 A 
ATOM      2  N   UNL d   1       1.263   0.807  -0.250  0.00  0.00    -0.312 N 
ATOM      3  C   UNL d   1       2.558   0.375  -0.333  0.00  0.00     0.262 A 
ATOM      4  C   UNL d   1       1.688  -1.971  -0.211  0.00  0.00     0.108 A 
ATOM      5  C   UNL d   1       0.318  -1.424  -0.192  0.00  0.00     0.026 A 
ATOM      6  C   UNL d   1       0.190  -0.054  -0.180  0.00  0.00     0.057 A 
ATOM      7  C   UNL d   1       0.785   2.188  -0.184  0.00  0.00     0.137 A 
ATOM      8  O   UNL d   1       3.494   1.167  -0.434  0.00  0.00    -0.267 OA
ATOM      9  C   UNL d   1      -1.010   0.636  -0.089  0.00  0.00    -0.029 A 
ATOM     10  C   UNL d   1      -0.759   2.114  -0.092  0.00  0.00     0.061 A 
ATOM     11  C   UNL d   1      -0.878  -2.142  -0.132  0.00  0.00     0.017 A 
ATOM     12  C   UNL d   1      -2.119  -1.472  -0.039  0.00  0.00     0.002 A 
ATOM     13  C   UNL d   1      -2.191  -0.072  -0.011  0.00  0.00     0.009 A 
ENDROOT
BRANCH   4  14
ATOM     14  O   UNL d   1       1.728  -3.369   0.002  0.00  0.00    -0.273 OA
BRANCH  14  15
ATOM     15  C   UNL d   1       2.225  -4.166  -0.988  0.00  0.00     0.298 C 
ATOM     16  O   UNL d   1       2.789  -3.823  -2.013  0.00  0.00    -0.259 OA
BRANCH  15  17
ATOM     17  C   UNL d   1       1.926  -5.593  -0.666  0.00  0.00     0.042 A 
ATOM     18  C   UNL d   1       2.742  -6.599  -1.203  0.00  0.00     0.053 A 
ATOM     19  C   UNL d   1       2.401  -7.946  -0.993  0.00  0.00     0.103 A 
ATOM     20  C   UNL d   1       1.256  -8.300  -0.267  0.00  0.00     0.036 A 
ATOM     21  C   UNL d   1       0.455  -7.298   0.276  0.00  0.00     0.003 A 
ATOM     22  C   UNL d   1       0.792  -5.953   0.084  0.00  0.00     0.018 A 
BRANCH  19  23
ATOM     23  N   UNL d   1       3.248  -9.008  -1.544  0.00  0.00    -0.116 N 
ATOM     24  O   UNL d   1       4.423  -8.717  -1.818  0.00  0.00    -0.532 OA
ATOM     25  O   UNL d   1       2.743 -10.129  -1.691  0.00  0.00    -0.532 OA
ENDBRANCH  19  23
ENDBRANCH  15  17
ENDBRANCH  14  15
ENDBRANCH   4  14
BRANCH   1  26
ATOM     26  C   UNL d   1       4.162  -1.631  -0.041  0.00  0.00    -0.018 A 
ATOM     27  C   UNL d   1       5.203  -1.196  -0.879  0.00  0.00     0.012 A 
ATOM     28  C   UNL d   1       6.527  -1.574  -0.634  0.00  0.00     0.001 A 
ATOM     29  C   UNL d   1       6.827  -2.406   0.441  0.00  0.00     0.000 A 
ATOM     30  C   UNL d   1       5.807  -2.855   1.275  0.00  0.00     0.001 A 
ATOM     31  C   UNL d   1       4.487  -2.461   1.042  0.00  0.00     0.012 A 
ENDBRANCH   1  26
TORSDOF 5
