REMARK  3 active torsions:
REMARK  status: ('A' for Active; 'I' for Inactive)
REMARK    1  A    between atoms: C_7  and  N_1 
REMARK    2  A    between atoms: S_2  and  C_8 
REMARK    3  A    between atoms: N_14  and  S_2 
ROOT
ATOM      1  C   UNL d   1       1.274   2.310   0.195  0.00  0.00     0.061 A 
ATOM      2  C   UNL d   1       2.850   3.852  -0.808  0.00  0.00     0.076 A 
ATOM      3  C   UNL d   1       2.215   2.603  -0.793  0.00  0.00     0.056 A 
ATOM      4  C   UNL d   1       1.028   3.277   1.186  0.00  0.00     0.032 A 
ATOM      5  C   UNL d   1       2.598   4.807   0.175  0.00  0.00     0.025 A 
ATOM      6  C   UNL d   1       1.683   4.513   1.180  0.00  0.00     0.004 A 
ENDROOT
BRANCH   1   7
ATOM      7  N   UNL d   1       0.550   1.095   0.196  0.00  0.00    -0.224 N 
ATOM      8  C   UNL d   1       0.504   0.116  -0.819  0.00  0.00     0.248 A 
ATOM      9  C   UNL d   1      -0.419  -0.932  -0.273  0.00  0.00     0.158 A 
ATOM     10  O   UNL d   1       1.036   0.077  -1.915  0.00  0.00    -0.271 OA
ATOM     11  C   UNL d   1      -0.887  -0.281   0.987  0.00  0.00     0.009 A 
ATOM     12  N   UNL d   1      -0.305   0.844   1.251  0.00  0.00    -0.299 N 
ATOM     13  C   UNL d   1      -1.940  -0.885   1.848  0.00  0.00     0.065 C 
ATOM     14  HN  UNL d   1      -0.449   1.429   2.074  1.00  0.00     0.187 HD
ENDBRANCH   1   7
BRANCH   2  15
ATOM     15  S   UNL d   1       3.884   4.247  -2.182  0.00  0.00     0.239 S 
ATOM     16  O   UNL d   1       4.237   5.645  -2.132  0.00  0.00    -0.206 OA
ATOM     17  O   UNL d   1       4.861   3.196  -2.352  0.00  0.00    -0.206 OA
BRANCH  15  18
ATOM     18  N   UNL d   1       2.785   4.101  -3.442  0.00  0.00    -0.225 NA
ATOM     19  H   UNL d   1       2.613   5.001  -3.885  0.00  0.00     0.136 HD
ATOM     20  H   UNL d   1       3.037   3.337  -4.067  0.00  0.00     0.136 HD
ENDBRANCH  15  18
ENDBRANCH   2  15
TORSDOF 3
