REMARK  3 active torsions:
REMARK  status: ('A' for Active; 'I' for Inactive)
REMARK    1  A    between atoms: C_2  and  C_1 
REMARK    2  A    between atoms: C_9  and  C_3 
REMARK    3  A    between atoms: C_14  and  N_4 
ROOT
ATOM      1  C   UNL d   1      -0.109  -1.321  -0.187  0.00  0.00     0.152 C 
ATOM      2  N   UNL d   1       1.101  -0.711   0.110  0.00  0.00    -0.224 N 
ATOM      3  N   UNL d   1       0.852   0.590   0.389  0.00  0.00     0.001 NA
ATOM      4  N   UNL d   1      -0.409   0.795   0.032  0.00  0.00    -0.007 NA
ATOM      5  N   UNL d   1      -1.012  -0.376  -0.350  0.00  0.00    -0.269 N 
ATOM      6  HN  UNL d   1      -1.966  -0.492  -0.692  1.00  0.00     0.185 HD
ENDROOT
BRANCH   1   7
ATOM      7  C   UNL d   1      -0.422  -2.772  -0.176  0.00  0.00     0.060 A 
ATOM      8  C   UNL d   1      -1.428  -3.420  -0.855  0.00  0.00     0.147 A 
ATOM      9  N   UNL d   1      -1.332  -4.733  -0.488  0.00  0.00    -0.296 N 
ATOM     10  N   UNL d   1      -0.323  -4.984   0.360  0.00  0.00    -0.310 N 
ATOM     11  H   UNL d   1      -1.905  -5.516  -0.796  0.00  0.00     0.187 HD
ATOM     12  C   UNL d   1       0.223  -3.784   0.567  0.00  0.00     0.124 A 
ATOM     13  HN  UNL d   1      -0.040  -5.881   0.754  1.00  0.00     0.186 HD
BRANCH   8  14
ATOM     14  C   UNL d   1      -2.441  -3.025  -1.843  0.00  0.00     0.434 C 
ATOM     15  F   UNL d   1      -2.220  -1.812  -2.396  0.00  0.00    -0.165 F 
ATOM     16  F   UNL d   1      -2.466  -3.917  -2.869  0.00  0.00    -0.165 F 
ATOM     17  F   UNL d   1      -3.685  -3.022  -1.309  0.00  0.00    -0.165 F 
ENDBRANCH   8  14
ENDBRANCH   1   7
BRANCH   2  18
ATOM     18  C   UNL d   1       2.419  -1.220   0.039  0.00  0.00     0.056 A 
ATOM     19  C   UNL d   1       2.724  -2.280  -0.828  0.00  0.00     0.031 A 
ATOM     20  C   UNL d   1       4.024  -2.785  -0.885  0.00  0.00     0.002 A 
ATOM     21  C   UNL d   1       5.020  -2.232  -0.086  0.00  0.00     0.000 A 
ATOM     22  C   UNL d   1       4.726  -1.157   0.755  0.00  0.00     0.002 A 
ATOM     23  C   UNL d   1       3.432  -0.636   0.809  0.00  0.00     0.031 A 
ENDBRANCH   2  18
TORSDOF 3
