REMARK  7 active torsions:
REMARK  status: ('A' for Active; 'I' for Inactive)
REMARK    1  A    between atoms: C_4  and  C_1 
REMARK    2  A    between atoms: O_16  and  C_4 
REMARK    3  A    between atoms: C_7  and  C_18 
REMARK    4  A    between atoms: N_14  and  O_16 
REMARK    5  A    between atoms: C_22  and  C_17 
REMARK    6  A    between atoms: N_23  and  C_17 
REMARK    7  A    between atoms: C_24  and  C_22 
ROOT
ATOM      1  N   UNL d   1       4.502   1.225  -0.953  0.00  0.00    -0.245 N 
ATOM      2  HN  UNL d   1       4.938   1.070  -1.862  1.00  0.00     0.196 HD
ATOM      3  C   UNL d   1       4.917   0.682   0.151  0.00  0.00     0.100 C 
ENDROOT
BRANCH   3   4
ATOM      4  C   UNL d   1       6.171  -0.189   0.074  0.00  0.00     0.116 C 
BRANCH   4   5
ATOM      5  C   UNL d   1       5.913  -1.664  -0.139  0.00  0.00    -0.051 A 
ATOM      6  C   UNL d   1       5.291  -2.119  -1.308  0.00  0.00     0.008 A 
ATOM      7  C   UNL d   1       5.189  -3.490  -1.579  0.00  0.00     0.014 A 
ATOM      8  C   UNL d   1       5.713  -4.439  -0.690  0.00  0.00    -0.008 A 
ATOM      9  C   UNL d   1       6.292  -3.984   0.502  0.00  0.00     0.014 A 
ATOM     10  C   UNL d   1       6.396  -2.613   0.773  0.00  0.00     0.008 A 
BRANCH   8  11
ATOM     11  C   UNL d   1       5.697  -5.867  -0.993  0.00  0.00     0.063 A 
ATOM     12  N   UNL d   1       5.722  -6.825   0.017  0.00  0.00    -0.292 N 
ATOM     13  N   UNL d   1       5.727  -8.057  -0.466  0.00  0.00    -0.061 NA
ATOM     14  HN  UNL d   1       5.735  -6.604   1.013  1.00  0.00     0.183 HD
ATOM     15  S   UNL d   1       5.723  -8.099  -2.137  0.00  0.00    -0.010 SA
ATOM     16  C   UNL d   1       5.711  -6.389  -2.276  0.00  0.00     0.096 A 
ENDBRANCH   8  11
ENDBRANCH   4   5
ENDBRANCH   3   4
BRANCH   3  17
ATOM     17  N   UNL d   1       4.328   0.848   1.380  0.00  0.00    -0.387 N 
ATOM     18  H   UNL d   1       3.387   1.223   1.348  0.00  0.00     0.157 HD
ATOM     19  H   UNL d   1       4.449   0.096   2.050  0.00  0.00     0.157 HD
ENDBRANCH   3  17
BRANCH   1  20
ATOM     20  O   UNL d   1       3.372   2.057  -0.750  0.00  0.00    -0.192 OA
BRANCH  20  21
ATOM     21  C   UNL d   1       2.993   2.613  -1.955  0.00  0.00     0.333 C 
ATOM     22  O   UNL d   1       3.511   2.371  -3.043  0.00  0.00    -0.256 OA
BRANCH  21  23
ATOM     23  C   UNL d   1       1.878   3.542  -1.838  0.00  0.00     0.130 A 
ATOM     24  N   UNL d   1       1.274   3.840  -0.618  0.00  0.00    -0.287 N 
ATOM     25  N   UNL d   1       0.286   4.710  -0.756  0.00  0.00    -0.061 NA
ATOM     26  HN  UNL d   1       1.558   3.436   0.275  1.00  0.00     0.183 HD
ATOM     27  S   UNL d   1       0.053   5.191  -2.341  0.00  0.00    -0.010 SA
ATOM     28  C   UNL d   1       1.326   4.208  -2.924  0.00  0.00     0.102 A 
ENDBRANCH  21  23
ENDBRANCH  20  21
ENDBRANCH   1  20
TORSDOF 7
