REMARK  6 active torsions:
REMARK  status: ('A' for Active; 'I' for Inactive)
REMARK    1  A    between atoms: C_2  and  C_1 
REMARK       I    between atoms: N_5  and  C_2 
REMARK    2  A    between atoms: C_4  and  C_3 
REMARK    3  A    between atoms: C_11  and  N_5 
REMARK    4  A    between atoms: C_23  and  N_5 
REMARK    5  A    between atoms: O_22  and  C_10 
REMARK    6  A    between atoms: C_24  and  O_22 
ROOT
ATOM      1  C   UNL d   1       0.691   1.274  -0.052  0.00  0.00     0.063 A 
ATOM      2  C   UNL d   1       1.229   0.200   0.678  0.00  0.00     0.069 A 
ATOM      3  C   UNL d   1      -0.343   0.985  -0.938  0.00  0.00     0.108 A 
ATOM      4  N   UNL d   1      -0.945  -0.221  -1.058  0.00  0.00    -0.346 N 
ATOM      5  HN  UNL d   1      -1.729  -0.366  -1.695  1.00  0.00     0.167 HD
ATOM      6  C   UNL d   1       0.619  -1.063   0.548  0.00  0.00     0.073 A 
ATOM      7  C   UNL d   1      -0.462  -1.218  -0.301  0.00  0.00     0.142 A 
ENDROOT
BRANCH   1   8
ATOM      8  C   UNL d   1       1.248   2.647  -0.008  0.00  0.00     0.260 C 
ATOM      9  N   UNL d   1       0.428   3.787   0.207  0.00  0.00    -0.314 N 
ATOM     10  O   UNL d   1       2.461   2.729  -0.206  0.00  0.00    -0.267 OA
BRANCH   9  11
ATOM     11  C   UNL d   1      -0.988   3.758   0.075  0.00  0.00     0.037 A 
ATOM     12  C   UNL d   1      -1.770   3.051   0.986  0.00  0.00     0.031 A 
ATOM     13  C   UNL d   1      -3.156   2.940   0.785  0.00  0.00     0.026 A 
ATOM     14  C   UNL d   1      -3.742   3.532  -0.331  0.00  0.00     0.034 A 
ATOM     15  C   UNL d   1      -2.972   4.270  -1.229  0.00  0.00     0.026 A 
ATOM     16 CL   UNL d   1      -5.428   3.343  -0.612  0.00  0.00    -0.084 Cl
ATOM     17  C   UNL d   1      -1.596   4.391  -1.020  0.00  0.00     0.031 A 
ENDBRANCH   9  11
BRANCH   9  18
ATOM     18  C   UNL d   1       1.108   5.092   0.135  0.00  0.00     0.128 C 
ATOM     19  C   UNL d   1       0.385   6.256   0.808  0.00  0.00     0.027 C 
ENDBRANCH   9  18
ENDBRANCH   1   8
BRANCH   2  20
ATOM     20  C   UNL d   1       2.456   0.272   1.550  0.00  0.00     0.418 C 
ATOM     21  F   UNL d   1       2.887   1.507   1.906  0.00  0.00    -0.166 F 
ATOM     22  F   UNL d   1       2.244  -0.372   2.739  0.00  0.00    -0.166 F 
ATOM     23  F   UNL d   1       3.517  -0.367   0.987  0.00  0.00    -0.166 F 
ENDBRANCH   2  20
BRANCH   7  24
ATOM     24  O   UNL d   1      -1.053  -2.462  -0.338  0.00  0.00    -0.336 OA
BRANCH  24  25
ATOM     25  C   UNL d   1      -2.024  -2.584  -1.380  0.00  0.00     0.173 C 
ATOM     26  C   UNL d   1      -2.667  -3.955  -1.276  0.00  0.00     0.034 C 
ENDBRANCH  24  25
ENDBRANCH   7  24
TORSDOF 6
