REMARK  4 active torsions:
REMARK  status: ('A' for Active; 'I' for Inactive)
REMARK    1  A    between atoms: C_7  and  C_1 
REMARK    2  A    between atoms: C_8  and  C_3 
REMARK    3  A    between atoms: O_13  and  C_7 
REMARK    4  A    between atoms: C_19  and  O_13 
ROOT
ATOM      1  C   UNL d   1       1.440   1.058   0.041  0.00  0.00     0.066 C 
ATOM      2  C   UNL d   1       1.368  -0.292   0.001  0.00  0.00     0.024 C 
ATOM      3  C   UNL d   1       0.186   1.899  -0.075  0.00  0.00     0.161 C 
ATOM      4  C   UNL d   1      -1.069  -0.237  -0.025  0.00  0.00     0.321 C 
ATOM      5  N   UNL d   1       0.125  -0.882  -0.103  0.00  0.00    -0.312 N 
ATOM      6  N   UNL d   1      -1.009   1.103   0.144  0.00  0.00    -0.330 N 
ATOM      7  O   UNL d   1      -2.136  -0.839  -0.058  0.00  0.00    -0.247 OA
ATOM      8  C   UNL d   1       2.493  -1.294   0.037  0.00  0.00     0.069 C 
ATOM      9  H   UNL d   1       0.048  -1.891  -0.159  0.00  0.00     0.170 HD
ATOM     10  H   UNL d   1      -1.909   1.564   0.178  0.00  0.00     0.165 HD
ENDROOT
BRANCH   3  11
ATOM     11  C   UNL d   1       0.107   3.111   0.845  0.00  0.00    -0.030 A 
ATOM     12  C   UNL d   1      -0.062   4.397   0.299  0.00  0.00     0.012 A 
ATOM     13  C   UNL d   1      -0.090   5.519   1.128  0.00  0.00     0.043 A 
ATOM     14  C   UNL d   1       0.038   5.357   2.501  0.00  0.00     0.116 A 
ATOM     15  C   UNL d   1       0.176   4.094   3.065  0.00  0.00     0.043 A 
ATOM     16  F   UNL d   1       0.032   6.436   3.295  0.00  0.00    -0.206 F 
ATOM     17  C   UNL d   1       0.205   2.969   2.240  0.00  0.00     0.012 A 
ENDBRANCH   3  11
BRANCH   1  18
ATOM     18  C   UNL d   1       2.752   1.749   0.171  0.00  0.00     0.293 C 
ATOM     19  O   UNL d   1       3.739   1.253   0.698  0.00  0.00    -0.259 OA
BRANCH  18  20
ATOM     20  O   UNL d   1       2.715   3.002  -0.350  0.00  0.00    -0.318 OA
BRANCH  20  21
ATOM     21  C   UNL d   1       3.929   3.763  -0.211  0.00  0.00     0.174 C 
ATOM     22  C   UNL d   1       4.159   4.231   1.219  0.00  0.00     0.034 C 
ENDBRANCH  20  21
ENDBRANCH  18  20
ENDBRANCH   1  18
TORSDOF 4
