REMARK  2 active torsions:
REMARK  status: ('A' for Active; 'I' for Inactive)
REMARK    1  A    between atoms: C_9  and  C_11 
REMARK    2  A    between atoms: C_16  and  C_10 
ROOT
ATOM      1  N   UNL d   1      -2.150  -0.707  -1.259  0.00  0.00    -0.338 N 
ATOM      2  C   UNL d   1      -1.552   0.511  -1.374  0.00  0.00     0.093 A 
ATOM      3  C   UNL d   1      -0.597   0.420  -2.361  0.00  0.00    -0.018 A 
ATOM      4  C   UNL d   1      -3.309   0.725   0.150  0.00  0.00     0.013 C 
ATOM      5  C   UNL d   1      -2.147   1.460  -0.479  0.00  0.00     0.207 C 
ATOM      6  C   UNL d   1      -1.721  -1.593  -2.184  0.00  0.00     0.046 A 
ATOM      7  C   UNL d   1      -3.200  -0.732  -0.263  0.00  0.00     0.172 C 
ATOM      8  C   UNL d   1      -0.725  -0.917  -2.905  0.00  0.00    -0.001 A 
ATOM      9  C   UNL d   1      -4.313   1.324   0.805  0.00  0.00     0.024 C 
ATOM     10  O   UNL d   1      -1.851   2.626  -0.280  0.00  0.00    -0.285 OA
ATOM     11  C   UNL d   1       0.329   1.479  -2.837  0.00  0.00     0.052 C 
ATOM     12  C   UNL d   1      -2.117  -2.905  -2.466  0.00  0.00     0.030 A 
ATOM     13  C   UNL d   1      -0.102  -1.603  -3.968  0.00  0.00     0.014 A 
ATOM     14  C   UNL d   1      -1.488  -3.552  -3.531  0.00  0.00     0.002 A 
ATOM     15  C   UNL d   1      -0.496  -2.913  -4.272  0.00  0.00     0.001 A 
ENDROOT
BRANCH   9  16
ATOM     16  C   UNL d   1      -5.496   0.548   1.183  0.00  0.00    -0.035 A 
ATOM     17  C   UNL d   1      -5.559  -0.112   2.413  0.00  0.00     0.012 A 
ATOM     18  C   UNL d   1      -6.615  -0.987   2.687  0.00  0.00     0.017 A 
ATOM     19  C   UNL d   1      -7.619  -1.220   1.733  0.00  0.00     0.048 A 
ATOM     20  C   UNL d   1      -7.568  -0.525   0.515  0.00  0.00     0.017 A 
ATOM     21  C   UNL d   1      -6.516   0.353   0.243  0.00  0.00     0.012 A 
BRANCH  19  22
ATOM     22  C   UNL d   1      -8.724  -2.220   1.982  0.00  0.00     0.417 C 
ATOM     23  F   UNL d   1      -8.630  -2.849   3.186  0.00  0.00    -0.166 F 
ATOM     24  F   UNL d   1      -9.961  -1.653   1.949  0.00  0.00    -0.166 F 
ATOM     25  F   UNL d   1      -8.741  -3.211   1.046  0.00  0.00    -0.166 F 
ENDBRANCH  19  22
ENDBRANCH   9  16
TORSDOF 2
