REMARK  4 active torsions:
REMARK  status: ('A' for Active; 'I' for Inactive)
REMARK    1  A    between atoms: C_8  and  N_1 
REMARK    2  A    between atoms: S_12  and  C_2 
REMARK    3  A    between atoms: C_15  and  S_12 
REMARK    4  A    between atoms: O_16  and  C_13 
ROOT
ATOM      1  C   UNL d   1       4.332   4.387   0.225  0.00  0.00    -0.107 C 
ATOM      2  C   UNL d   1       5.073   5.318   0.071  0.00  0.00     0.013 C 
ATOM      3  C   UNL d   1       3.335   3.322   0.436  0.00  0.00     0.175 C 
ENDROOT
BRANCH   3   4
ATOM      4  S   UNL d   1       3.862   1.699  -0.184  0.00  0.00    -0.081 SA
BRANCH   4   5
ATOM      5  C   UNL d   1       2.375   0.781   0.047  0.00  0.00     0.155 A 
ATOM      6  N   UNL d   1       2.442  -0.605   0.178  0.00  0.00    -0.255 N 
ATOM      7  C   UNL d   1       1.285  -1.367   0.375  0.00  0.00     0.267 A 
ATOM      8  C   UNL d   1       0.010  -0.652   0.276  0.00  0.00     0.059 A 
ATOM      9  O   UNL d   1       1.260  -2.572   0.620  0.00  0.00    -0.267 OA
ATOM     10  C   UNL d   1       0.052   0.730   0.130  0.00  0.00     0.049 A 
ATOM     11  C   UNL d   1      -1.203  -1.355   0.268  0.00  0.00     0.019 A 
ATOM     12  C   UNL d   1      -1.155   1.417  -0.015  0.00  0.00     0.030 A 
ATOM     13  N   UNL d   1       1.258   1.440   0.062  0.00  0.00    -0.335 N 
ATOM     14  C   UNL d   1      -2.372   0.727  -0.040  0.00  0.00     0.002 A 
ATOM     15  C   UNL d   1      -2.397  -0.660   0.097  0.00  0.00     0.001 A 
ATOM     16  HN  UNL d   1       1.257   2.460   0.024  1.00  0.00     0.168 HD
BRANCH   6  17
ATOM     17  C   UNL d   1       3.627  -1.367  -0.006  0.00  0.00     0.078 A 
ATOM     18  C   UNL d   1       4.517  -1.693   1.030  0.00  0.00     0.095 A 
ATOM     19  C   UNL d   1       5.536  -2.624   0.774  0.00  0.00     0.039 A 
ATOM     20  C   UNL d   1       5.666  -3.235  -0.475  0.00  0.00     0.003 A 
ATOM     21  C   UNL d   1       4.798  -2.896  -1.506  0.00  0.00     0.002 A 
ATOM     22  C   UNL d   1       3.784  -1.970  -1.272  0.00  0.00     0.033 A 
BRANCH  18  23
ATOM     23  O   UNL d   1       4.570  -1.156   2.286  0.00  0.00    -0.354 OA
ATOM     24  C   UNL d   1       3.344  -1.002   2.985  0.00  0.00     0.210 C 
ENDBRANCH  18  23
ENDBRANCH   6  17
ENDBRANCH   4   5
ENDBRANCH   3   4
TORSDOF 4
