REMARK  1 active torsions:
REMARK  status: ('A' for Active; 'I' for Inactive)
REMARK    1  A    between atoms: S_14  and  C_9 
ROOT
ATOM      1  N   UNL d   1      -0.218  -0.817  -0.003  0.00  0.00    -0.193 N 
ATOM      2  C   UNL d   1      -0.351   0.538  -0.002  0.00  0.00     0.190 A 
ATOM      3  C   UNL d   1       1.023  -1.399  -0.002  0.00  0.00     0.292 A 
ATOM      4  S   UNL d   1      -2.029   0.967  -0.003  0.00  0.00    -0.024 SA
ATOM      5  N   UNL d   1      -1.380  -1.557  -0.004  0.00  0.00    -0.276 N 
ATOM      6  HN  UNL d   1      -1.440  -2.575  -0.005  1.00  0.00     0.189 HD
ATOM      7  N   UNL d   1       0.615   1.390  -0.000  0.00  0.00    -0.278 N 
ATOM      8  HN  UNL d   1       0.429   2.393  -0.000  1.00  0.00     0.189 HD
ATOM      9  C   UNL d   1      -2.384  -0.740  -0.005  0.00  0.00     0.130 A 
ATOM     10  N   UNL d   1       1.934   0.899   0.001  0.00  0.00    -0.298 N 
ATOM     11  HN  UNL d   1       2.722   1.547   0.002  1.00  0.00     0.187 HD
ATOM     12  C   UNL d   1       2.143  -0.384  -0.000  0.00  0.00     0.091 A 
ATOM     13  O   UNL d   1       1.289  -2.593  -0.003  0.00  0.00    -0.264 OA
ATOM     14  C   UNL d   1       3.545  -0.919   0.001  0.00  0.00     0.076 C 
ENDROOT
BRANCH   9  15
ATOM     15  S   UNL d   1      -4.048  -1.219  -0.008  0.00  0.00    -0.108 SA
ATOM     16  C   UNL d   1      -3.889  -3.015  -0.011  0.00  0.00     0.097 C 
ENDBRANCH   9  15
TORSDOF 1
