REMARK  3 active torsions:
REMARK  status: ('A' for Active; 'I' for Inactive)
REMARK    1  A    between atoms: N_8  and  C_2 
REMARK       I    between atoms: C_11  and  N_8 
REMARK    2  A    between atoms: C_14  and  C_11 
REMARK    3  A    between atoms: N_12  and  C_14 
ROOT
ATOM      1  C   UNL d   1       2.169   0.292   0.904  0.00  0.00     0.085 A 
ATOM      2  C   UNL d   1       3.109  -0.130  -0.006  0.00  0.00     0.093 A 
ATOM      3  C   UNL d   1       1.398   1.373   0.352  0.00  0.00     0.003 A 
ATOM      4  C   UNL d   1       2.012  -0.113   2.296  0.00  0.00     0.302 A 
ATOM      5  O   UNL d   1       1.048   0.627   3.029  0.00  0.00    -0.274 OA
ATOM      6  S   UNL d   1       3.163   0.823  -1.414  0.00  0.00    -0.082 SA
ATOM      7  C   UNL d   1       1.805   1.727  -0.915  0.00  0.00     0.065 A 
ATOM      8  C   UNL d   1       0.418   2.084   1.143  0.00  0.00     0.010 A 
ATOM      9  C   UNL d   1       0.296   1.705   2.486  0.00  0.00     0.090 A 
ATOM     10  O   UNL d   1       2.707  -0.951   2.862  0.00  0.00    -0.259 OA
ATOM     11  C   UNL d   1      -0.348   3.145   0.663  0.00  0.00     0.015 A 
ATOM     12  C   UNL d   1      -0.549   2.390   3.358  0.00  0.00     0.038 A 
ATOM     13  C   UNL d   1      -1.208   3.830   1.530  0.00  0.00     0.001 A 
ATOM     14  C   UNL d   1      -1.300   3.461   2.873  0.00  0.00     0.003 A 
ENDROOT
BRANCH   2  15
ATOM     15  N   UNL d   1       4.103  -1.061   0.016  0.00  0.00    -0.319 N 
ATOM     16  C   UNL d   1       3.940  -2.390   0.382  0.00  0.00     0.240 C 
ATOM     17  O   UNL d   1       2.872  -2.970   0.537  0.00  0.00    -0.271 OA
ATOM     18  H   UNL d   1       4.959  -0.847  -0.477  0.00  0.00     0.169 HD
BRANCH  16  19
ATOM     19  C   UNL d   1       5.319  -3.092   0.448  0.00  0.00     0.220 C 
BRANCH  19  20
ATOM     20  N   UNL d   1       6.195  -2.167   1.158  0.00  0.00    -0.400 N 
ATOM     21  C   UNL d   1       6.143  -2.303   2.617  0.00  0.00     0.143 C 
ATOM     22  C   UNL d   1       6.670  -1.004   3.235  0.00  0.00     0.187 C 
ATOM     23  O   UNL d   1       8.014  -0.741   2.797  0.00  0.00    -0.388 OA
ATOM     24  C   UNL d   1       8.072  -0.655   1.364  0.00  0.00     0.187 C 
ATOM     25  C   UNL d   1       7.551  -1.944   0.685  0.00  0.00     0.143 C 
ENDBRANCH  19  20
ENDBRANCH  16  19
ENDBRANCH   2  15
TORSDOF 3
