REMARK  5 active torsions:
REMARK  status: ('A' for Active; 'I' for Inactive)
REMARK    1  A    between atoms: C_2  and  S_1 
REMARK    2  A    between atoms: C_5  and  S_1 
REMARK    3  A    between atoms: C_3  and  C_2 
REMARK    4  A    between atoms: C_4  and  C_3 
REMARK       I    between atoms: N_8  and  C_4 
REMARK    5  A    between atoms: C_13  and  N_8 
ROOT
ATOM      1  C   UNL d   1       0.211   0.966   0.638  0.00  0.00     0.118 C 
ATOM      2  C   UNL d   1       0.607   1.436   2.032  0.00  0.00     0.027 C 
ENDROOT
BRANCH   1   3
ATOM      3  S   UNL d   1       0.248  -0.815   0.444  0.00  0.00     0.179 S 
ATOM      4  O   UNL d   1       0.277  -1.088  -0.983  0.00  0.00    -0.222 OA
ATOM      5  O   UNL d   1      -0.769  -1.419   1.282  0.00  0.00    -0.222 OA
BRANCH   3   6
ATOM      6  C   UNL d   1       1.811  -1.371   1.099  0.00  0.00     0.059 A 
ATOM      7  C   UNL d   1       1.868  -1.832   2.421  0.00  0.00     0.025 A 
ATOM      8  C   UNL d   1       3.038  -2.429   2.896  0.00  0.00     0.025 A 
ATOM      9  C   UNL d   1       4.135  -2.571   2.047  0.00  0.00     0.034 A 
ATOM     10  C   UNL d   1       4.080  -2.106   0.732  0.00  0.00     0.025 A 
ATOM     11 CL   UNL d   1       5.556  -3.358   2.617  0.00  0.00    -0.084 Cl
ATOM     12  C   UNL d   1       2.913  -1.507   0.251  0.00  0.00     0.025 A 
ENDBRANCH   3   6
ENDBRANCH   1   3
BRANCH   1  13
ATOM     13  C   UNL d   1      -1.133   1.551   0.173  0.00  0.00     0.123 C 
BRANCH  13  14
ATOM     14  C   UNL d   1      -2.332   0.953   0.870  0.00  0.00     0.223 C 
ATOM     15  N   UNL d   1      -3.221   0.099   0.303  0.00  0.00    -0.327 N 
ATOM     16  H   UNL d   1      -3.845  -0.234   1.032  0.00  0.00     0.169 HD
ATOM     17  O   UNL d   1      -2.506   1.231   2.065  0.00  0.00    -0.273 OA
BRANCH  15  18
ATOM     18  C   UNL d   1      -3.478  -0.449  -0.969  0.00  0.00     0.034 A 
ATOM     19  C   UNL d   1      -2.846  -0.127  -2.166  0.00  0.00     0.029 A 
ATOM     20  C   UNL d   1      -3.229  -0.735  -3.371  0.00  0.00     0.002 A 
ATOM     21  C   UNL d   1      -4.253  -1.675  -3.398  0.00  0.00     0.000 A 
ATOM     22  C   UNL d   1      -4.895  -2.014  -2.215  0.00  0.00     0.002 A 
ATOM     23  C   UNL d   1      -4.510  -1.406  -1.015  0.00  0.00     0.029 A 
ENDBRANCH  15  18
ENDBRANCH  13  14
ENDBRANCH   1  13
TORSDOF 5
