REMARK  5 active torsions:
REMARK  status: ('A' for Active; 'I' for Inactive)
REMARK    1  A    between atoms: N_2  and  C_1 
REMARK    2  A    between atoms: N_4  and  C_1 
REMARK    3  A    between atoms: C_8  and  N_2 
REMARK    4  A    between atoms: C_9  and  N_4 
REMARK    5  A    between atoms: C_7  and  C_9 
ROOT
ATOM      1  C   UNL d   1       1.022  -0.093   0.054  0.00  0.00     0.172 C 
ATOM      2  S   UNL d   1       0.245   1.143   0.864  0.00  0.00    -0.041 SA
ENDROOT
BRANCH   1   3
ATOM      3  N   UNL d   1       0.446  -1.085  -0.696  0.00  0.00    -0.333 N 
ATOM      4  H   UNL d   1       0.810  -2.011  -0.502  0.00  0.00     0.168 HD
BRANCH   3   5
ATOM      5  C   UNL d   1      -0.702  -1.014  -1.509  0.00  0.00     0.034 A 
ATOM      6  C   UNL d   1      -1.068   0.160  -2.176  0.00  0.00     0.031 A 
ATOM      7  C   UNL d   1      -2.119   0.150  -3.099  0.00  0.00     0.026 A 
ATOM      8  C   UNL d   1      -2.816  -1.030  -3.342  0.00  0.00     0.034 A 
ATOM      9  C   UNL d   1      -2.481  -2.197  -2.660  0.00  0.00     0.026 A 
ATOM     10 CL   UNL d   1      -4.074  -1.053  -4.515  0.00  0.00    -0.084 Cl
ATOM     11  C   UNL d   1      -1.415  -2.193  -1.756  0.00  0.00     0.031 A 
ENDBRANCH   3   5
ENDBRANCH   1   3
BRANCH   1  12
ATOM     12  N   UNL d   1       2.384  -0.188   0.183  0.00  0.00    -0.363 N 
ATOM     13  H   UNL d   1       2.760   0.544   0.777  0.00  0.00     0.162 HD
BRANCH  12  14
ATOM     14  C   UNL d   1       3.259  -0.594  -0.907  0.00  0.00     0.162 C 
BRANCH  14  15
ATOM     15  C   UNL d   1       3.816  -1.983  -0.787  0.00  0.00    -0.025 A 
ATOM     16  C   UNL d   1       4.236  -2.648  -1.935  0.00  0.00     0.096 A 
ATOM     17  N   UNL d   1       4.820  -3.869  -1.943  0.00  0.00    -0.375 N 
ATOM     18  C   UNL d   1       5.011  -4.455  -0.743  0.00  0.00     0.087 A 
ATOM     19  HN  UNL d   1       5.102  -4.323  -2.812  1.00  0.00     0.164 HD
ATOM     20  C   UNL d   1       4.647  -3.877   0.459  0.00  0.00     0.018 A 
ATOM     21  C   UNL d   1       4.040  -2.621   0.434  0.00  0.00     0.011 A 
ENDBRANCH  14  15
ENDBRANCH  12  14
ENDBRANCH   1  12
TORSDOF 5
