REMARK  8 active torsions:
REMARK  status: ('A' for Active; 'I' for Inactive)
REMARK    1  A    between atoms: O_10  and  C_2 
REMARK       I    between atoms: N_5  and  C_6 
REMARK    2  A    between atoms: C_11  and  N_5 
REMARK    3  A    between atoms: C_12  and  N_5 
REMARK    4  A    between atoms: C_6  and  C_16 
REMARK    5  A    between atoms: C_16  and  O_10 
REMARK    6  A    between atoms: C_13  and  C_11 
REMARK    7  A    between atoms: O_24  and  C_13 
REMARK    8  A    between atoms: C_28  and  O_24 
ROOT
ATOM      1  C   UNL d   1      -3.034   1.606  -1.512  0.00  0.00     0.101 A 
ATOM      2  C   UNL d   1      -1.880   1.939  -0.808  0.00  0.00     0.164 A 
ATOM      3  N   UNL d   1      -1.314   1.125   0.116  0.00  0.00    -0.340 N 
ATOM      4  HN  UNL d   1      -0.463   1.402   0.606  1.00  0.00     0.167 HD
ATOM      5  C   UNL d   1      -3.708   0.424  -1.155  0.00  0.00    -0.035 A 
ATOM      6  C   UNL d   1      -3.471   2.418  -2.610  0.00  0.00     0.104 C 
ATOM      7  N   UNL d   1      -3.838   3.005  -3.541  0.00  0.00    -0.191 NA
ATOM      8  C   UNL d   1      -1.906  -0.062   0.371  0.00  0.00     0.008 A 
ATOM      9  C   UNL d   1      -3.117  -0.423  -0.210  0.00  0.00     0.033 A 
ATOM     10  C   UNL d   1      -4.998  -0.004  -1.799  0.00  0.00     0.050 C 
ATOM     11  C   UNL d   1      -1.177  -0.998   1.287  0.00  0.00     0.068 C 
ENDROOT
BRANCH   2  12
ATOM     12  O   UNL d   1      -1.270   3.152  -1.078  0.00  0.00    -0.325 OA
BRANCH  12  13
ATOM     13  C   UNL d   1      -0.182   3.419  -0.199  0.00  0.00     0.280 C 
BRANCH  13  14
ATOM     14  C   UNL d   1       0.470   4.800  -0.434  0.00  0.00     0.249 C 
ATOM     15  N   UNL d   1       1.836   4.890  -0.129  0.00  0.00    -0.307 N 
ATOM     16  O   UNL d   1      -0.201   5.786  -0.731  0.00  0.00    -0.271 OA
BRANCH  15  17
ATOM     17  C   UNL d   1       2.479   6.214  -0.156  0.00  0.00     0.243 C 
BRANCH  17  18
ATOM     18  C   UNL d   1       3.185   6.518  -1.476  0.00  0.00     0.277 C 
ATOM     19  O   UNL d   1       2.837   6.126  -2.581  0.00  0.00    -0.263 OA
BRANCH  18  20
ATOM     20  O   UNL d   1       4.307   7.261  -1.230  0.00  0.00    -0.321 OA
BRANCH  20  21
ATOM     21  C   UNL d   1       5.230   7.372  -2.325  0.00  0.00     0.174 C 
ATOM     22  C   UNL d   1       6.242   6.244  -2.217  0.00  0.00     0.034 C 
ENDBRANCH  20  21
ENDBRANCH  18  20
ENDBRANCH  17  18
ENDBRANCH  15  17
BRANCH  15  23
ATOM     23  C   UNL d   1       2.709   3.784  -0.290  0.00  0.00     0.037 A 
ATOM     24  C   UNL d   1       2.841   3.172  -1.545  0.00  0.00     0.031 A 
ATOM     25  C   UNL d   1       3.715   2.099  -1.712  0.00  0.00     0.026 A 
ATOM     26  C   UNL d   1       4.433   1.621  -0.619  0.00  0.00     0.034 A 
ATOM     27  C   UNL d   1       4.296   2.217   0.636  0.00  0.00     0.026 A 
ATOM     28 CL   UNL d   1       5.499   0.286  -0.820  0.00  0.00    -0.084 Cl
ATOM     29  C   UNL d   1       3.445   3.313   0.799  0.00  0.00     0.031 A 
ENDBRANCH  15  23
ENDBRANCH  13  14
ENDBRANCH  12  13
ENDBRANCH   2  12
TORSDOF 8
