REMARK  5 active torsions:
REMARK  status: ('A' for Active; 'I' for Inactive)
REMARK    1  A    between atoms: C_5  and  C_1 
REMARK       I    between atoms: N_10  and  C_5 
REMARK    2  A    between atoms: N_11  and  N_6 
REMARK    3  A    between atoms: C_20  and  N_10 
REMARK    4  A    between atoms: C_19  and  N_11 
REMARK    5  A    between atoms: C_14  and  C_15 
ROOT
ATOM      1  C   UNL d   1      -1.559  -1.585  -0.133  0.00  0.00     0.085 C 
ATOM      2  C   UNL d   1      -1.016   0.937   0.007  0.00  0.00     0.110 C 
ATOM      3  C   UNL d   1      -2.024  -0.207   0.154  0.00  0.00     0.216 C 
ATOM      4  C   UNL d   1      -0.250  -1.809  -0.335  0.00  0.00     0.033 C 
ATOM      5  N   UNL d   1      -1.339   2.200  -0.020  0.00  0.00    -0.296 N 
ATOM      6  HN  UNL d   1      -0.616   2.913  -0.115  1.00  0.00     0.187 HD
ATOM      7  C   UNL d   1       0.419   0.573  -0.091  0.00  0.00     0.006 A 
ATOM      8  C   UNL d   1       0.770  -0.771  -0.230  0.00  0.00    -0.022 A 
ATOM      9  O   UNL d   1      -3.179   0.018   0.510  0.00  0.00    -0.285 OA
ATOM     10  C   UNL d   1       1.416   1.556  -0.015  0.00  0.00     0.015 A 
ATOM     11  C   UNL d   1       2.125  -1.128  -0.255  0.00  0.00     0.012 A 
ATOM     12  C   UNL d   1       2.762   1.190  -0.035  0.00  0.00     0.001 A 
ATOM     13  C   UNL d   1       3.116  -0.152  -0.143  0.00  0.00     0.001 A 
ENDROOT
BRANCH   5  14
ATOM     14  N   UNL d   1      -2.640   2.559   0.077  0.00  0.00    -0.300 N 
ATOM     15  H   UNL d   1      -3.329   1.899   0.453  0.00  0.00     0.187 HD
BRANCH  14  16
ATOM     16  C   UNL d   1      -2.959   3.925   0.199  0.00  0.00     0.048 A 
ATOM     17  C   UNL d   1      -2.000   4.932   0.022  0.00  0.00     0.032 A 
ATOM     18  C   UNL d   1      -2.355   6.285   0.048  0.00  0.00     0.017 A 
ATOM     19  C   UNL d   1      -3.690   6.660   0.224  0.00  0.00     0.009 A 
ATOM     20  C   UNL d   1      -4.659   5.670   0.410  0.00  0.00     0.017 A 
ATOM     21  C   UNL d   1      -4.292   4.315   0.387  0.00  0.00     0.032 A 
BRANCH  19  22
ATOM     22  C   UNL d   1      -4.013   8.114   0.203  0.00  0.00     0.155 C 
ATOM     23  O   UNL d   1      -3.155   8.928   0.542  0.00  0.00    -0.293 OA
ATOM     24  C   UNL d   1      -5.362   8.577  -0.283  0.00  0.00     0.096 C 
ENDBRANCH  19  22
ENDBRANCH  14  16
ENDBRANCH   5  14
BRANCH   1  25
ATOM     25  C   UNL d   1      -2.452  -2.794  -0.178  0.00  0.00     0.260 C 
ATOM     26  N   UNL d   1      -3.744  -2.596   0.252  0.00  0.00    -0.323 N 
ATOM     27  H   UNL d   1      -4.011  -1.648   0.514  0.00  0.00     0.169 HD
ATOM     28  O   UNL d   1      -1.986  -3.861  -0.573  0.00  0.00    -0.267 OA
BRANCH  26  29
ATOM     29  C   UNL d   1      -4.775  -3.566   0.304  0.00  0.00     0.035 A 
ATOM     30  C   UNL d   1      -4.593  -4.921   0.009  0.00  0.00     0.029 A 
ATOM     31  C   UNL d   1      -5.675  -5.806   0.010  0.00  0.00     0.002 A 
ATOM     32  C   UNL d   1      -6.952  -5.350   0.321  0.00  0.00     0.000 A 
ATOM     33  C   UNL d   1      -7.141  -4.013   0.659  0.00  0.00     0.002 A 
ATOM     34  C   UNL d   1      -6.057  -3.127   0.658  0.00  0.00     0.029 A 
ENDBRANCH  26  29
ENDBRANCH   1  25
TORSDOF 5
