REMARK  1 active torsions:
REMARK  status: ('A' for Active; 'I' for Inactive)
REMARK    1  A    between atoms: C_2  and  N_1 
ROOT
ATOM      1  C   UNL d   1       0.003   2.312   0.043  0.00  0.00     0.053 A 
ATOM      2  C   UNL d   1      -0.681   3.060   1.028  0.00  0.00    -0.013 A 
ATOM      3  C   UNL d   1      -0.676   4.466   0.919  0.00  0.00     0.042 A 
ATOM      4  C   UNL d   1       0.709   2.979  -0.976  0.00  0.00     0.031 A 
ATOM      5 CL   UNL d   1      -1.476   5.472   2.080  0.00  0.00    -0.084 Cl
ATOM      6  C   UNL d   1      -1.330   2.416   2.227  0.00  0.00     0.052 C 
ATOM      7  C   UNL d   1       0.695   4.369  -1.066  0.00  0.00     0.004 A 
ATOM      8  C   UNL d   1      -0.002   5.112  -0.121  0.00  0.00     0.024 A 
ENDROOT
BRANCH   1   9
ATOM      9  N   UNL d   1       0.007   0.900   0.038  0.00  0.00    -0.245 N 
ATOM     10  C   UNL d   1      -1.113   0.117   0.051  0.00  0.00     0.255 A 
ATOM     11  C   UNL d   1      -0.659  -1.278  -0.019  0.00  0.00     0.080 A 
ATOM     12  O   UNL d   1      -2.292   0.423   0.041  0.00  0.00    -0.268 OA
ATOM     13  C   UNL d   1       0.670  -1.274  -0.114  0.00  0.00     0.080 A 
ATOM     14  C   UNL d   1       1.117   0.122  -0.129  0.00  0.00     0.255 A 
ATOM     15  O   UNL d   1       2.290   0.435  -0.248  0.00  0.00    -0.268 OA
ENDBRANCH   1   9
TORSDOF 1
