REMARK  10 active torsions:
REMARK  status: ('A' for Active; 'I' for Inactive)
REMARK    1  A    between atoms: C_2  and  S_1 
REMARK    2  A    between atoms: N_3  and  S_1 
REMARK    3  A    between atoms: C_20  and  N_3 
REMARK    4  A    between atoms: C_21  and  N_3 
REMARK    5  A    between atoms: C_4  and  C_7 
REMARK       I    between atoms: N_10  and  C_4 
REMARK    6  A    between atoms: N_8  and  N_10 
REMARK    7  A    between atoms: C_14  and  C_18 
REMARK    8  A    between atoms: C_19  and  C_17 
REMARK    9  A    between atoms: C_25  and  C_20 
REMARK   10  A    between atoms: C_24  and  C_21 
ROOT
ATOM      1  C   UNL d   1       0.467  -1.775  -0.297  0.00  0.00     0.074 A 
ATOM      2  C   UNL d   1      -0.575  -4.387  -0.336  0.00  0.00     0.033 A 
ATOM      3  C   UNL d   1       1.340  -2.862  -0.318  0.00  0.00     0.026 A 
ATOM      4  C   UNL d   1      -0.917  -1.981  -0.277  0.00  0.00     0.026 A 
ATOM      5  C   UNL d   1       0.815  -4.158  -0.339  0.00  0.00     0.018 A 
ATOM      6  C   UNL d   1      -1.437  -3.281  -0.304  0.00  0.00     0.018 A 
ENDROOT
BRANCH   2   7
ATOM      7  C   UNL d   1      -1.043  -5.811  -0.351  0.00  0.00     0.270 C 
ATOM      8  N   UNL d   1      -2.415  -6.051  -0.373  0.00  0.00    -0.266 N 
ATOM      9  H   UNL d   1      -3.106  -5.315  -0.363  0.00  0.00     0.190 HD
ATOM     10  O   UNL d   1      -0.195  -6.701  -0.351  0.00  0.00    -0.266 OA
BRANCH   8  11
ATOM     11  N   UNL d   1      -2.838  -7.348  -0.415  0.00  0.00    -0.309 N 
ATOM     12  C   UNL d   1      -4.110  -7.570  -0.444  0.00  0.00     0.107 C 
ATOM     13  HN  UNL d   1      -2.169  -8.118  -0.424  1.00  0.00     0.186 HD
BRANCH  12  14
ATOM     14  C   UNL d   1      -4.590  -8.967  -0.482  0.00  0.00     0.019 C 
ATOM     15  C   UNL d   1      -5.892  -9.285  -0.480  0.00  0.00     0.013 C 
BRANCH  15  16
ATOM     16  C   UNL d   1      -6.376 -10.678  -0.481  0.00  0.00    -0.036 A 
ATOM     17  C   UNL d   1      -5.652 -11.721   0.118  0.00  0.00     0.011 A 
ATOM     18  C   UNL d   1      -6.149 -13.027   0.129  0.00  0.00     0.001 A 
ATOM     19  C   UNL d   1      -7.385 -13.307  -0.446  0.00  0.00     0.000 A 
ATOM     20  C   UNL d   1      -8.123 -12.280  -1.031  0.00  0.00     0.001 A 
ATOM     21  C   UNL d   1      -7.624 -10.974  -1.045  0.00  0.00     0.011 A 
ENDBRANCH  15  16
ENDBRANCH  12  14
ENDBRANCH   8  11
ENDBRANCH   2   7
BRANCH   1  22
ATOM     22  S   UNL d   1       1.112  -0.124  -0.112  0.00  0.00     0.243 S 
ATOM     23  O   UNL d   1       2.312  -0.241   0.686  0.00  0.00    -0.206 OA
ATOM     24  O   UNL d   1       0.017   0.723   0.320  0.00  0.00    -0.206 OA
BRANCH  22  25
ATOM     25  N   UNL d   1       1.543   0.387  -1.719  0.00  0.00    -0.206 NA
BRANCH  25  26
ATOM     26  C   UNL d   1       0.397   0.276  -2.690  0.00  0.00     0.107 C 
BRANCH  26  27
ATOM     27  C   UNL d   1       0.740   0.640  -4.139  0.00  0.00     0.011 C 
ATOM     28  C   UNL d   1       1.921  -0.130  -4.708  0.00  0.00     0.006 C 
ENDBRANCH  26  27
ENDBRANCH  25  26
BRANCH  25  29
ATOM     29  C   UNL d   1       2.147   1.770  -1.719  0.00  0.00     0.107 C 
BRANCH  29  30
ATOM     30  C   UNL d   1       3.537   1.847  -1.088  0.00  0.00     0.011 C 
ATOM     31  C   UNL d   1       4.531   0.874  -1.701  0.00  0.00     0.006 C 
ENDBRANCH  29  30
ENDBRANCH  25  29
ENDBRANCH  22  25
ENDBRANCH   1  22
TORSDOF 10
