REMARK  3 active torsions:
REMARK  status: ('A' for Active; 'I' for Inactive)
REMARK    1  A    between atoms: C_11  and  C_5 
REMARK    2  A    between atoms: S_14  and  C_7 
REMARK    3  A    between atoms: N_15  and  C_8 
ROOT
ATOM      1  N   UNL d   1       1.694  -1.325   0.018  0.00  0.00    -0.334 N 
ATOM      2  HN  UNL d   1       2.276  -2.161   0.060  1.00  0.00     0.168 HD
ATOM      3  N   UNL d   1       1.515   1.038  -0.039  0.00  0.00    -0.330 N 
ATOM      4  HN  UNL d   1       1.968   1.953  -0.046  1.00  0.00     0.168 HD
ATOM      5  C   UNL d   1       2.240  -0.095   0.001  0.00  0.00     0.134 A 
ATOM      6  C   UNL d   1      -0.467  -0.296  -0.068  0.00  0.00     0.116 A 
ATOM      7  C   UNL d   1       0.349  -1.411  -0.023  0.00  0.00     0.095 A 
ATOM      8  C   UNL d   1       0.180   0.927  -0.069  0.00  0.00     0.103 A 
ATOM      9  C   UNL d   1      -1.891  -0.374  -0.104  0.00  0.00     0.105 C 
ATOM     10  N   UNL d   1      -3.051  -0.408  -0.103  0.00  0.00    -0.191 NA
ENDROOT
BRANCH   7  11
ATOM     11  S   UNL d   1      -0.317  -3.079  -0.021  0.00  0.00    -0.115 SA
ATOM     12  C   UNL d   1       1.207  -4.064   0.007  0.00  0.00     0.097 C 
ENDBRANCH   7  11
BRANCH   8  13
ATOM     13  N   UNL d   1      -0.496   2.142  -0.185  0.00  0.00    -0.287 NA
ATOM     14  H   UNL d   1      -1.263   2.264   0.467  0.00  0.00     0.125 HD
ATOM     15  H   UNL d   1       0.190   2.893  -0.116  0.00  0.00     0.125 HD
ENDBRANCH   8  13
BRANCH   5  16
ATOM     16  C   UNL d   1       3.722  -0.007  -0.005  0.00  0.00     0.076 A 
ATOM     17  N   UNL d   1       4.282   1.235  -0.018  0.00  0.00    -0.363 N 
ATOM     18  C   UNL d   1       5.630   1.325  -0.052  0.00  0.00     0.088 A 
ATOM     19  HN  UNL d   1       3.701   2.073  -0.003  1.00  0.00     0.165 HD
ATOM     20  C   UNL d   1       6.476   0.232  -0.071  0.00  0.00     0.017 A 
ATOM     21  C   UNL d   1       5.909  -1.034  -0.049  0.00  0.00     0.004 A 
ATOM     22  C   UNL d   1       4.522  -1.156  -0.015  0.00  0.00     0.033 A 
ENDBRANCH   5  16
TORSDOF 3
