REMARK  7 active torsions:
REMARK  status: ('A' for Active; 'I' for Inactive)
REMARK    1  A    between atoms: C_3  and  S_1 
REMARK    2  A    between atoms: N_8  and  S_1 
REMARK    3  A    between atoms: S_2  and  C_9 
REMARK    4  A    between atoms: N_15  and  S_2 
REMARK    5  A    between atoms: C_14  and  C_5 
REMARK    6  A    between atoms: C_20  and  N_8 
REMARK    7  A    between atoms: C_21  and  C_20 
ROOT
ATOM      1  S   UNL d   1       0.888  -0.086   0.006  0.00  0.00     0.248 S 
ATOM      2  O   UNL d   1       0.440  -0.785  -1.178  0.00  0.00    -0.205 OA
ATOM      3  O   UNL d   1       2.283  -0.019   0.374  0.00  0.00    -0.205 OA
ENDROOT
BRANCH   1   4
ATOM      4  C   UNL d   1       0.119  -0.997   1.328  0.00  0.00     0.116 A 
ATOM      5  S   UNL d   1      -1.105  -0.225   2.226  0.00  0.00    -0.075 SA
ATOM      6  C   UNL d   1      -1.355  -1.597   3.236  0.00  0.00     0.033 A 
ATOM      7  C   UNL d   1      -0.530  -2.640   2.848  0.00  0.00     0.023 A 
ATOM      8  C   UNL d   1       0.317  -2.294   1.757  0.00  0.00     0.034 A 
BRANCH   6   9
ATOM      9  C   UNL d   1      -2.350  -1.557   4.319  0.00  0.00     0.049 A 
ATOM     10  N   UNL d   1      -2.558  -0.344   4.886  0.00  0.00    -0.365 N 
ATOM     11  C   UNL d   1      -3.449  -0.276   5.900  0.00  0.00     0.088 A 
ATOM     12  HN  UNL d   1      -2.063   0.486   4.559  1.00  0.00     0.165 HD
ATOM     13  C   UNL d   1      -4.151  -1.367   6.385  0.00  0.00     0.017 A 
ATOM     14  C   UNL d   1      -3.926  -2.604   5.796  0.00  0.00     0.004 A 
ATOM     15  C   UNL d   1      -3.010  -2.706   4.750  0.00  0.00     0.031 A 
ENDBRANCH   6   9
ENDBRANCH   1   4
BRANCH   1  16
ATOM     16  N   UNL d   1       0.275   1.473  -0.092  0.00  0.00    -0.211 NA
ATOM     17  H   UNL d   1      -0.744   1.482  -0.106  0.00  0.00     0.140 HD
BRANCH  16  18
ATOM     18  C   UNL d   1       0.874   2.480   0.788  0.00  0.00     0.143 C 
BRANCH  18  19
ATOM     19  C   UNL d   1       0.264   3.841   0.536  0.00  0.00    -0.044 A 
ATOM     20  C   UNL d   1      -0.373   4.544   1.568  0.00  0.00     0.010 A 
ATOM     21  C   UNL d   1      -0.898   5.816   1.337  0.00  0.00     0.025 A 
ATOM     22  C   UNL d   1      -0.780   6.391   0.070  0.00  0.00     0.074 A 
ATOM     23  C   UNL d   1      -0.180   5.693  -0.979  0.00  0.00     0.025 A 
ATOM     24  C   UNL d   1       0.346   4.423  -0.742  0.00  0.00     0.010 A 
BRANCH  22  25
ATOM     25  S   UNL d   1      -1.382   8.029  -0.204  0.00  0.00     0.239 S 
ATOM     26  O   UNL d   1      -1.627   8.223  -1.614  0.00  0.00    -0.206 OA
ATOM     27  O   UNL d   1      -2.361   8.354   0.807  0.00  0.00    -0.206 OA
BRANCH  25  28
ATOM     28  N   UNL d   1      -0.018   8.938   0.161  0.00  0.00    -0.225 NA
ATOM     29  H   UNL d   1       0.299   9.445  -0.664  0.00  0.00     0.136 HD
ATOM     30  H   UNL d   1      -0.193   9.524   0.977  0.00  0.00     0.136 HD
ENDBRANCH  25  28
ENDBRANCH  22  25
ENDBRANCH  18  19
ENDBRANCH  16  18
ENDBRANCH   1  16
TORSDOF 7
