REMARK  5 active torsions:
REMARK  status: ('A' for Active; 'I' for Inactive)
REMARK    1  A    between atoms: N_4  and  N_1 
REMARK       I    between atoms: C_3  and  N_4 
REMARK    2  A    between atoms: O_10  and  C_3 
REMARK    3  A    between atoms: C_6  and  C_5 
REMARK    4  A    between atoms: C_16  and  O_10 
REMARK    5  A    between atoms: O_14  and  C_11 
ROOT
ATOM      1  N   UNL d   1       0.928   0.050  -0.026  0.00  0.00    -0.300 N 
ATOM      2  HN  UNL d   1       0.460   0.802  -0.532  1.00  0.00     0.186 HD
ATOM      3  C   UNL d   1       2.227   0.025   0.022  0.00  0.00     0.032 C 
ATOM      4  C   UNL d   1       3.071  -1.014   0.732  0.00  0.00     0.070 C 
ENDROOT
BRANCH   3   5
ATOM      5  C   UNL d   1       2.956   1.116  -0.705  0.00  0.00    -0.012 A 
ATOM      6  C   UNL d   1       4.239   1.531  -0.330  0.00  0.00     0.016 A 
ATOM      7  C   UNL d   1       4.881   2.546  -1.044  0.00  0.00     0.037 A 
ATOM      8  C   UNL d   1       4.246   3.138  -2.130  0.00  0.00     0.065 A 
ATOM      9  C   UNL d   1       2.967   2.748  -2.508  0.00  0.00     0.037 A 
ATOM     10  C   UNL d   1       2.320   1.740  -1.790  0.00  0.00     0.016 A 
BRANCH   8  11
ATOM     11  O   UNL d   1       4.920   4.111  -2.806  0.00  0.00    -0.361 OA
ATOM     12  H   UNL d   1       4.366   4.414  -3.545  0.00  0.00     0.217 HD
ENDBRANCH   8  11
ENDBRANCH   3   5
BRANCH   1  13
ATOM     13  N   UNL d   1       0.186  -0.904   0.583  0.00  0.00    -0.245 N 
ATOM     14  C   UNL d   1      -1.167  -0.740   0.737  0.00  0.00     0.379 C 
ATOM     15  O   UNL d   1      -1.849   0.186   0.312  0.00  0.00    -0.237 OA
ATOM     16  H   UNL d   1       0.600  -1.677   1.080  0.00  0.00     0.192 HD
BRANCH  14  17
ATOM     17  O   UNL d   1      -1.637  -1.750   1.518  0.00  0.00    -0.303 OA
BRANCH  17  18
ATOM     18  C   UNL d   1      -2.951  -1.545   2.056  0.00  0.00     0.176 C 
ATOM     19  C   UNL d   1      -2.815  -0.807   3.376  0.00  0.00     0.034 C 
ENDBRANCH  17  18
ENDBRANCH  14  17
ENDBRANCH   1  13
TORSDOF 5
