REMARK  5 active torsions:
REMARK  status: ('A' for Active; 'I' for Inactive)
REMARK    1  A    between atoms: C_2  and  C_1 
REMARK       I    between atoms: N_6  and  C_2 
REMARK    2  A    between atoms: C_3  and  C_4 
REMARK    3  A    between atoms: S_14  and  C_5 
REMARK    4  A    between atoms: C_13  and  N_6 
REMARK    5  A    between atoms: C_23  and  S_14 
ROOT
ATOM      1  C   UNL d   1       0.861   1.526  -0.276  0.00  0.00     0.080 C 
ATOM      2  C   UNL d   1       1.404   0.241  -0.096  0.00  0.00     0.067 C 
ATOM      3  C   UNL d   1      -0.220   1.652  -1.167  0.00  0.00     0.086 C 
ATOM      4  N   UNL d   1      -0.883   0.579  -1.668  0.00  0.00    -0.360 N 
ATOM      5  HN  UNL d   1      -1.676   0.700  -2.299  1.00  0.00     0.166 HD
ATOM      6  C   UNL d   1      -0.468  -0.647  -1.310  0.00  0.00     0.089 C 
ATOM      7  C   UNL d   1       0.684  -0.863  -0.583  0.00  0.00     0.034 C 
ENDROOT
BRANCH   1   8
ATOM      8  C   UNL d   1       1.093   2.641   0.687  0.00  0.00     0.259 C 
ATOM      9  N   UNL d   1       2.375   2.966   1.080  0.00  0.00    -0.323 N 
ATOM     10  H   UNL d   1       3.156   2.436   0.711  0.00  0.00     0.169 HD
ATOM     11  O   UNL d   1       0.072   3.132   1.177  0.00  0.00    -0.267 OA
BRANCH   9  12
ATOM     12  C   UNL d   1       2.713   3.928   2.071  0.00  0.00     0.035 A 
ATOM     13  C   UNL d   1       1.833   4.918   2.522  0.00  0.00     0.031 A 
ATOM     14  C   UNL d   1       2.227   5.840   3.498  0.00  0.00     0.026 A 
ATOM     15  C   UNL d   1       3.507   5.773   4.034  0.00  0.00     0.034 A 
ATOM     16  C   UNL d   1       4.394   4.793   3.602  0.00  0.00     0.026 A 
ATOM     17 CL   UNL d   1       3.994   6.910   5.230  0.00  0.00    -0.084 Cl
ATOM     18  C   UNL d   1       4.003   3.878   2.615  0.00  0.00     0.031 A 
ENDBRANCH   9  12
ENDBRANCH   1   8
BRANCH   2  19
ATOM     19  C   UNL d   1       2.731  -0.020   0.550  0.00  0.00     0.418 C 
ATOM     20  F   UNL d   1       3.648   0.956   0.286  0.00  0.00    -0.166 F 
ATOM     21  F   UNL d   1       2.669  -0.132   1.897  0.00  0.00    -0.166 F 
ATOM     22  F   UNL d   1       3.314  -1.168   0.099  0.00  0.00    -0.166 F 
ENDBRANCH   2  19
BRANCH   3  23
ATOM     23  S   UNL d   1      -0.641   3.250  -1.881  0.00  0.00    -0.112 SA
BRANCH  23  24
ATOM     24  C   UNL d   1      -1.692   2.786  -3.301  0.00  0.00     0.076 C 
ATOM     25  C   UNL d   1      -3.159   2.928  -2.941  0.00  0.00     0.016 C 
ENDBRANCH  23  24
ENDBRANCH   3  23
TORSDOF 5
