REMARK  3 active torsions:
REMARK  status: ('A' for Active; 'I' for Inactive)
REMARK    1  A    between atoms: C_3  and  C_1 
REMARK    2  A    between atoms: C_8  and  C_2 
REMARK       I    between atoms: N_10  and  C_3 
REMARK    3  A    between atoms: N_11  and  N_10 
ROOT
ATOM      1  C   UNL d   1      -0.851  -1.169  -0.051  0.00  0.00     0.138 A 
ATOM      2  C   UNL d   1       0.531  -1.213   0.019  0.00  0.00     0.119 A 
ATOM      3  N   UNL d   1      -1.273   0.158  -0.089  0.00  0.00    -0.340 N 
ATOM      4  HN  UNL d   1      -2.224   0.516  -0.175  1.00  0.00     0.167 HD
ATOM      5  C   UNL d   1      -0.154   0.838   0.011  0.00  0.00     0.234 A 
ATOM      6  O   UNL d   1       0.977   0.087   0.083  0.00  0.00    -0.303 OA
ENDROOT
BRANCH   1   7
ATOM      7  C   UNL d   1      -1.774  -2.291  -0.104  0.00  0.00     0.285 C 
ATOM      8  O   UNL d   1      -1.483  -3.451   0.184  0.00  0.00    -0.265 OA
ATOM      9  N   UNL d   1      -3.043  -1.935  -0.544  0.00  0.00    -0.288 N 
ATOM     10  H   UNL d   1      -3.242  -0.947  -0.712  0.00  0.00     0.183 HD
BRANCH   9  11
ATOM     11  N   UNL d   1      -4.045  -2.917  -0.725  0.00  0.00    -0.247 NA
ATOM     12  H   UNL d   1      -3.826  -3.686  -0.075  0.00  0.00     0.143 HD
ATOM     13  H   UNL d   1      -3.899  -3.339  -1.647  0.00  0.00     0.143 HD
ENDBRANCH   9  11
ENDBRANCH   1   7
BRANCH   2  14
ATOM     14  C   UNL d   1       1.564  -2.239  -0.012  0.00  0.00     0.000 A 
ATOM     15  C   UNL d   1       1.392  -3.405  -0.771  0.00  0.00     0.014 A 
ATOM     16  C   UNL d   1       2.368  -4.403  -0.787  0.00  0.00     0.001 A 
ATOM     17  C   UNL d   1       3.540  -4.243  -0.056  0.00  0.00     0.000 A 
ATOM     18  C   UNL d   1       3.740  -3.079   0.685  0.00  0.00     0.001 A 
ATOM     19  C   UNL d   1       2.759  -2.083   0.706  0.00  0.00     0.014 A 
ENDBRANCH   2  14
TORSDOF 3
