REMARK  6 active torsions:
REMARK  status: ('A' for Active; 'I' for Inactive)
REMARK    1  A    between atoms: C_11  and  C_1 
REMARK    2  A    between atoms: C_2  and  C_11 
REMARK    3  A    between atoms: N_19  and  C_3 
REMARK    4  A    between atoms: N_20  and  C_4 
REMARK    5  A    between atoms: C_14  and  C_11 
REMARK    6  A    between atoms: O_26  and  C_23 
ROOT
ATOM      1  C   UNL d   1      -1.481   2.417  -0.201  0.00  0.00     0.102 C 
ENDROOT
BRANCH   1   2
ATOM      2  C   UNL d   1      -0.926   3.172  -1.422  0.00  0.00     0.061 C 
ATOM      3  C   UNL d   1      -0.341   4.393  -1.383  0.00  0.00     0.092 C 
ATOM      4  N   UNL d   1       0.069   4.983  -2.546  0.00  0.00    -0.323 N 
ATOM      5  C   UNL d   1      -0.051   4.434  -3.782  0.00  0.00     0.179 C 
ATOM      6  H   UNL d   1       0.470   5.912  -2.503  0.00  0.00     0.169 HD
ATOM      7  N   UNL d   1      -0.612   3.203  -3.842  0.00  0.00    -0.300 N 
ATOM      8  S   UNL d   1       0.478   5.223  -5.146  0.00  0.00    -0.040 SA
ATOM      9  C   UNL d   1      -0.989   2.482  -2.748  0.00  0.00     0.258 C 
ATOM     10  H   UNL d   1      -0.661   2.732  -4.734  0.00  0.00     0.171 HD
ATOM     11  O   UNL d   1      -1.326   1.310  -2.875  0.00  0.00    -0.267 OA
BRANCH   3  12
ATOM     12  N   UNL d   1      -0.104   5.104  -0.226  0.00  0.00    -0.288 NA
ATOM     13  H   UNL d   1       0.130   4.492   0.556  0.00  0.00     0.125 HD
ATOM     14  H   UNL d   1       0.656   5.768  -0.344  0.00  0.00     0.125 HD
ENDBRANCH   3  12
ENDBRANCH   1   2
BRANCH   1  15
ATOM     15  C   UNL d   1      -0.851   1.034  -0.002  0.00  0.00     0.061 C 
ATOM     16  C   UNL d   1      -1.395  -0.199   0.107  0.00  0.00     0.092 C 
ATOM     17  N   UNL d   1      -0.571  -1.293   0.151  0.00  0.00    -0.323 N 
ATOM     18  C   UNL d   1       0.783  -1.263   0.055  0.00  0.00     0.179 C 
ATOM     19  H   UNL d   1      -1.000  -2.210   0.140  0.00  0.00     0.169 HD
ATOM     20  N   UNL d   1       1.355  -0.037   0.008  0.00  0.00    -0.300 N 
ATOM     21  S   UNL d   1       1.692  -2.654   0.024  0.00  0.00    -0.040 SA
ATOM     22  C   UNL d   1       0.649   1.121   0.121  0.00  0.00     0.258 C 
ATOM     23  H   UNL d   1       2.362   0.028   0.045  0.00  0.00     0.171 HD
ATOM     24  O   UNL d   1       1.224   2.184   0.346  0.00  0.00    -0.267 OA
BRANCH  16  25
ATOM     25  N   UNL d   1      -2.732  -0.494   0.166  0.00  0.00    -0.288 NA
ATOM     26  H   UNL d   1      -3.326   0.269   0.480  0.00  0.00     0.125 HD
ATOM     27  H   UNL d   1      -2.938  -1.344   0.678  0.00  0.00     0.125 HD
ENDBRANCH  16  25
ENDBRANCH   1  15
BRANCH   1  28
ATOM     28  C   UNL d   1      -3.008   2.579  -0.113  0.00  0.00    -0.044 A 
ATOM     29  C   UNL d   1      -3.880   2.123  -1.116  0.00  0.00     0.011 A 
ATOM     30  C   UNL d   1      -5.256   2.370  -1.050  0.00  0.00     0.037 A 
ATOM     31  C   UNL d   1      -5.788   3.088   0.018  0.00  0.00     0.068 A 
ATOM     32  C   UNL d   1      -4.948   3.504   1.047  0.00  0.00     0.037 A 
ATOM     33  C   UNL d   1      -3.572   3.262   0.981  0.00  0.00     0.011 A 
BRANCH  31  34
ATOM     34  O   UNL d   1      -7.112   3.399   0.162  0.00  0.00    -0.356 OA
ATOM     35  C   UNL d   1      -7.794   3.667  -1.062  0.00  0.00     0.210 C 
ENDBRANCH  31  34
ENDBRANCH   1  28
TORSDOF 6
