REMARK  6 active torsions:
REMARK  status: ('A' for Active; 'I' for Inactive)
REMARK       I    between atoms: N_3  and  C_1 
REMARK    1  A    between atoms: C_5  and  C_1 
REMARK    2  A    between atoms: C_2  and  C_4 
REMARK    3  A    between atoms: C_7  and  N_3 
REMARK    4  A    between atoms: O_8  and  C_6 
REMARK    5  A    between atoms: C_15  and  O_8 
REMARK    6  A    between atoms: O_23  and  C_16 
ROOT
ATOM      1  C   UNL d   1       0.524  -2.315  -2.629  0.00  0.00     0.175 A 
ATOM      2  C   UNL d   1       0.888  -2.077  -1.296  0.00  0.00     0.087 A 
ATOM      3  N   UNL d   1       1.180  -3.193  -3.441  0.00  0.00    -0.345 N 
ATOM      4  HN  UNL d   1       0.844  -3.382  -4.386  1.00  0.00     0.167 HD
ATOM      5  C   UNL d   1       2.054  -2.727  -0.854  0.00  0.00     0.035 A 
ATOM      6  C   UNL d   1       2.278  -3.801  -2.967  0.00  0.00     0.090 A 
ATOM      7  C   UNL d   1       2.761  -3.588  -1.694  0.00  0.00     0.019 A 
ENDROOT
BRANCH   2   8
ATOM      8  N   UNL d   1       0.236  -1.260  -0.329  0.00  0.00    -0.319 N 
ATOM      9  C   UNL d   1      -0.962  -0.588  -0.434  0.00  0.00     0.257 C 
ATOM     10  O   UNL d   1      -1.720  -0.510  -1.389  0.00  0.00    -0.267 OA
ATOM     11  H   UNL d   1       0.679  -1.240   0.586  0.00  0.00     0.169 HD
BRANCH   9  12
ATOM     12  C   UNL d   1      -1.398   0.158   0.770  0.00  0.00     0.047 A 
ATOM     13  C   UNL d   1      -2.736   0.095   1.200  0.00  0.00     0.063 A 
ATOM     14  C   UNL d   1      -3.171   1.012   2.177  0.00  0.00     0.017 A 
ATOM     15  C   UNL d   1      -2.287   1.930   2.744  0.00  0.00     0.001 A 
ATOM     16  C   UNL d   1      -0.950   1.940   2.356  0.00  0.00     0.001 A 
ATOM     17  C   UNL d   1      -0.503   1.064   1.365  0.00  0.00     0.018 A 
BRANCH  13  18
ATOM     18  C   UNL d   1      -3.738  -0.901   0.662  0.00  0.00     0.418 C 
ATOM     19  F   UNL d   1      -3.214  -2.002   0.062  0.00  0.00    -0.166 F 
ATOM     20  F   UNL d   1      -4.503  -1.411   1.678  0.00  0.00    -0.166 F 
ATOM     21  F   UNL d   1      -4.627  -0.349  -0.206  0.00  0.00    -0.166 F 
ENDBRANCH  13  18
ENDBRANCH   9  12
ENDBRANCH   2   8
BRANCH   1  22
ATOM     22  O   UNL d   1      -0.551  -1.654  -3.185  0.00  0.00    -0.292 OA
BRANCH  22  23
ATOM     23  C   UNL d   1      -0.513  -1.336  -4.522  0.00  0.00     0.078 A 
ATOM     24  C   UNL d   1      -1.730  -1.375  -5.205  0.00  0.00     0.040 A 
ATOM     25  C   UNL d   1      -1.778  -1.095  -6.575  0.00  0.00     0.039 A 
ATOM     26  C   UNL d   1      -0.609  -0.765  -7.263  0.00  0.00     0.068 A 
ATOM     27  C   UNL d   1       0.594  -0.666  -6.559  0.00  0.00     0.039 A 
ATOM     28  C   UNL d   1       0.641  -0.930  -5.192  0.00  0.00     0.040 A 
BRANCH  26  29
ATOM     29  O   UNL d   1      -0.500  -0.517  -8.602  0.00  0.00    -0.356 OA
ATOM     30  C   UNL d   1      -1.685  -0.642  -9.376  0.00  0.00     0.210 C 
ENDBRANCH  26  29
ENDBRANCH  22  23
ENDBRANCH   1  22
TORSDOF 6
