REMARK  7 active torsions:
REMARK  status: ('A' for Active; 'I' for Inactive)
REMARK    1  A    between atoms: C_6  and  C_1 
REMARK    2  A    between atoms: C_11  and  N_2 
REMARK    3  A    between atoms: C_20  and  C_3 
REMARK       I    between atoms: N_10  and  C_6 
REMARK       I    between atoms: C_9  and  N_8 
REMARK    4  A    between atoms: O_19  and  C_9 
REMARK    5  A    between atoms: C_16  and  N_10 
REMARK    6  A    between atoms: C_23  and  O_19 
REMARK    7  A    between atoms: C_24  and  C_20 
ROOT
ATOM      1  C   UNL d   1      -0.323   0.923   0.318  0.00  0.00     0.073 C 
ATOM      2  N   UNL d   1       0.664  -1.076   0.193  0.00  0.00    -0.260 N 
ATOM      3  C   UNL d   1       0.881   0.298  -0.039  0.00  0.00     0.051 C 
ATOM      4  N   UNL d   1      -0.436  -1.274   0.953  0.00  0.00    -0.304 N 
ATOM      5  HN  UNL d   1      -0.712  -2.124   1.446  1.00  0.00     0.186 HD
ATOM      6  C   UNL d   1      -1.075  -0.115   0.914  0.00  0.00     0.126 C 
ENDROOT
BRANCH   1   7
ATOM      7  C   UNL d   1      -0.863   2.279   0.272  0.00  0.00     0.255 C 
ATOM      8  N   UNL d   1      -0.068   3.287  -0.209  0.00  0.00    -0.352 N 
ATOM      9  H   UNL d   1       0.866   3.039  -0.493  0.00  0.00     0.163 HD
ATOM     10  O   UNL d   1      -2.014   2.483   0.631  0.00  0.00    -0.268 OA
BRANCH   8  11
ATOM     11  C   UNL d   1      -0.540   4.614  -0.641  0.00  0.00     0.087 C 
ATOM     12  C   UNL d   1      -1.670   5.292   0.176  0.00  0.00     0.045 C 
ATOM     13  C   UNL d   1      -3.113   5.069  -0.324  0.00  0.00     0.130 C 
ATOM     14  N   UNL d   1      -3.186   5.037  -1.780  0.00  0.00    -0.328 N 
ATOM     15  C   UNL d   1      -2.250   4.140  -2.429  0.00  0.00     0.130 C 
ATOM     16  C   UNL d   1      -4.058   5.777  -2.556  0.00  0.00     0.362 C 
ATOM     17  C   UNL d   1      -0.836   4.613  -2.145  0.00  0.00     0.045 C 
ATOM     18  O   UNL d   1      -4.016   5.800  -3.781  0.00  0.00    -0.238 OA
BRANCH  16  19
ATOM     19  O   UNL d   1      -4.964   6.486  -1.826  0.00  0.00    -0.304 OA
BRANCH  19  20
ATOM     20  C   UNL d   1      -5.840   7.328  -2.592  0.00  0.00     0.176 C 
ATOM     21  C   UNL d   1      -6.989   6.540  -3.200  0.00  0.00     0.034 C 
ENDBRANCH  19  20
ENDBRANCH  16  19
ENDBRANCH   8  11
ENDBRANCH   1   7
BRANCH   3  22
ATOM     22  C   UNL d   1       2.250   0.840  -0.351  0.00  0.00     0.060 C 
BRANCH  22  23
ATOM     23  C   UNL d   1       2.526   1.221  -1.806  0.00  0.00     0.002 C 
ATOM     24  C   UNL d   1       4.028   1.367  -2.042  0.00  0.00     0.005 C 
ENDBRANCH  22  23
ENDBRANCH   3  22
BRANCH   2  25
ATOM     25  C   UNL d   1       1.365  -2.242  -0.242  0.00  0.00     0.056 A 
ATOM     26  C   UNL d   1       1.259  -3.416   0.524  0.00  0.00     0.031 A 
ATOM     27  C   UNL d   1       1.816  -4.616   0.077  0.00  0.00     0.002 A 
ATOM     28  C   UNL d   1       2.464  -4.663  -1.153  0.00  0.00     0.000 A 
ATOM     29  C   UNL d   1       2.568  -3.507  -1.925  0.00  0.00     0.002 A 
ATOM     30  C   UNL d   1       2.027  -2.297  -1.470  0.00  0.00     0.031 A 
ENDBRANCH   2  25
TORSDOF 7
