REMARK  7 active torsions:
REMARK  status: ('A' for Active; 'I' for Inactive)
REMARK    1  A    between atoms: N_6  and  C_1 
REMARK    2  A    between atoms: C_7  and  C_2 
REMARK    3  A    between atoms: C_10  and  C_5 
REMARK       I    between atoms: C_8  and  N_6 
REMARK    4  A    between atoms: O_14  and  C_7 
REMARK    5  A    between atoms: C_11  and  C_8 
REMARK    6  A    between atoms: N_9  and  C_11 
REMARK    7  A    between atoms: C_19  and  O_14 
ROOT
ATOM      1  C   UNL d   1       0.269   0.869  -0.543  0.00  0.00     0.093 A 
ATOM      2  C   UNL d   1       1.444   0.208  -0.224  0.00  0.00     0.074 A 
ATOM      3  S   UNL d   1      -1.056  -0.186  -0.686  0.00  0.00    -0.071 SA
ATOM      4  C   UNL d   1       1.185  -1.205  -0.051  0.00  0.00     0.040 A 
ATOM      5  C   UNL d   1      -0.142  -1.548  -0.217  0.00  0.00     0.018 A 
ENDROOT
BRANCH   1   6
ATOM      6  N   UNL d   1       0.048   2.229  -0.626  0.00  0.00    -0.319 N 
ATOM      7  C   UNL d   1      -1.040   2.833  -1.230  0.00  0.00     0.251 C 
ATOM      8  O   UNL d   1      -1.754   2.338  -2.101  0.00  0.00    -0.271 OA
ATOM      9  H   UNL d   1       0.720   2.856  -0.188  0.00  0.00     0.169 HD
BRANCH   7  10
ATOM     10  C   UNL d   1      -1.358   4.223  -0.680  0.00  0.00     0.374 C 
BRANCH  10  11
ATOM     11  N   UNL d   1      -0.291   4.746   0.214  0.00  0.00     0.097 N 
ATOM     12  C   UNL d   1       0.681   5.538  -0.552  0.00  0.00     0.273 C 
ATOM     13  C   UNL d   1       1.823   6.070   0.320  0.00  0.00     0.030 C 
ATOM     14  C   UNL d   1       1.548   6.008   1.819  0.00  0.00     0.003 C 
ATOM     15  C   UNL d   1       0.095   6.304   2.159  0.00  0.00     0.030 C 
ATOM     16  C   UNL d   1      -0.908   5.570   1.265  0.00  0.00     0.273 C 
ENDBRANCH  10  11
ENDBRANCH   7  10
ENDBRANCH   1   6
BRANCH   2  17
ATOM     17  C   UNL d   1       2.743   0.855  -0.077  0.00  0.00     0.296 C 
ATOM     18  O   UNL d   1       2.905   2.072  -0.065  0.00  0.00    -0.259 OA
BRANCH  17  19
ATOM     19  O   UNL d   1       3.748  -0.059   0.045  0.00  0.00    -0.318 OA
BRANCH  19  20
ATOM     20  C   UNL d   1       5.078   0.437   0.262  0.00  0.00     0.174 C 
ATOM     21  C   UNL d   1       5.813   0.594  -1.056  0.00  0.00     0.034 C 
ENDBRANCH  19  20
ENDBRANCH  17  19
ENDBRANCH   2  17
BRANCH   5  22
ATOM     22  C   UNL d   1      -0.812  -2.834   0.009  0.00  0.00    -0.019 A 
ATOM     23  C   UNL d   1      -1.793  -3.317  -0.871  0.00  0.00     0.013 A 
ATOM     24  C   UNL d   1      -2.467  -4.510  -0.603  0.00  0.00     0.001 A 
ATOM     25  C   UNL d   1      -2.165  -5.240   0.544  0.00  0.00     0.000 A 
ATOM     26  C   UNL d   1      -1.183  -4.782   1.420  0.00  0.00     0.001 A 
ATOM     27  C   UNL d   1      -0.509  -3.588   1.153  0.00  0.00     0.013 A 
ENDBRANCH   5  22
TORSDOF 7
