REMARK  4 active torsions:
REMARK  status: ('A' for Active; 'I' for Inactive)
REMARK    1  A    between atoms: C_2  and  N_1 
REMARK       I    between atoms: C_3  and  N_1 
REMARK    2  A    between atoms: N_4  and  C_2 
REMARK    3  A    between atoms: C_7  and  C_3 
REMARK    4  A    between atoms: C_10  and  N_4 
ROOT
ATOM      1  C   UNL d   1       0.750  -1.127   0.368  0.00  0.00     0.179 C 
ATOM      2  S   UNL d   1       0.977  -1.707   1.915  0.00  0.00    -0.040 SA
ENDROOT
BRANCH   1   3
ATOM      3  N   UNL d   1       1.670  -0.457  -0.420  0.00  0.00    -0.299 N 
ATOM      4  C   UNL d   1       3.059  -0.387  -0.366  0.00  0.00     0.257 C 
ATOM      5  O   UNL d   1       3.758  -0.921   0.486  0.00  0.00    -0.267 OA
ATOM      6  H   UNL d   1       1.223   0.062  -1.152  0.00  0.00     0.171 HD
BRANCH   4   7
ATOM      7  C   UNL d   1       3.720   0.323  -1.515  0.00  0.00     0.032 A 
ATOM      8  C   UNL d   1       3.042   1.165  -2.413  0.00  0.00     0.017 A 
ATOM      9  C   UNL d   1       3.717   1.730  -3.500  0.00  0.00     0.001 A 
ATOM     10  C   UNL d   1       5.072   1.476  -3.693  0.00  0.00     0.000 A 
ATOM     11  C   UNL d   1       5.761   0.660  -2.799  0.00  0.00     0.001 A 
ATOM     12  C   UNL d   1       5.088   0.087  -1.717  0.00  0.00     0.017 A 
ENDBRANCH   4   7
ENDBRANCH   1   3
BRANCH   1  13
ATOM     13  N   UNL d   1      -0.509  -1.240  -0.187  0.00  0.00    -0.333 N 
ATOM     14  H   UNL d   1      -1.234  -1.459   0.491  0.00  0.00     0.168 HD
BRANCH  13  15
ATOM     15  C   UNL d   1      -0.904  -1.183  -1.543  0.00  0.00     0.036 A 
ATOM     16  C   UNL d   1      -0.027  -1.410  -2.606  0.00  0.00     0.046 A 
ATOM     17  C   UNL d   1      -0.503  -1.269  -3.899  0.00  0.00     0.090 A 
ATOM     18  N   UNL d   1      -1.775  -0.945  -4.192  0.00  0.00    -0.375 N 
ATOM     19  C   UNL d   1      -2.621  -0.795  -3.149  0.00  0.00     0.090 A 
ATOM     20  HN  UNL d   1      -2.086  -0.817  -5.155  1.00  0.00     0.164 HD
ATOM     21  C   UNL d   1      -2.240  -0.916  -1.823  0.00  0.00     0.046 A 
ENDBRANCH  13  15
ENDBRANCH   1  13
TORSDOF 4
