REMARK  3 active torsions:
REMARK  status: ('A' for Active; 'I' for Inactive)
REMARK    1  A    between atoms: C_8  and  C_1 
REMARK    2  A    between atoms: O_12  and  C_8 
REMARK    3  A    between atoms: C_13  and  O_12 
ROOT
ATOM      1  C   UNL d   1      -0.646   1.212  -0.079  0.00  0.00     0.192 A 
ATOM      2  N   UNL d   1       1.241  -0.160   0.591  0.00  0.00    -0.297 N 
ATOM      3  N   UNL d   1      -1.140   0.229  -0.784  0.00  0.00    -0.288 N 
ATOM      4  HN  UNL d   1      -1.998   0.344  -1.324  1.00  0.00     0.187 HD
ATOM      5  C   UNL d   1       0.620   1.052   0.720  0.00  0.00     0.282 A 
ATOM      6  C   UNL d   1       0.709  -1.194  -0.112  0.00  0.00     0.193 A 
ATOM      7  N   UNL d   1      -0.465  -0.959  -0.772  0.00  0.00    -0.275 N 
ATOM      8  S   UNL d   1       1.452  -2.680  -0.159  0.00  0.00    -0.039 SA
ATOM      9  O   UNL d   1       1.016   1.941   1.457  0.00  0.00    -0.265 OA
ATOM     10  H   UNL d   1       2.090  -0.310   1.117  0.00  0.00     0.171 HD
ATOM     11  H   UNL d   1      -0.887  -1.720  -1.303  0.00  0.00     0.189 HD
ENDROOT
BRANCH   1  12
ATOM     12  C   UNL d   1      -1.399   2.517  -0.059  0.00  0.00     0.317 C 
ATOM     13  O   UNL d   1      -0.943   3.548  -0.516  0.00  0.00    -0.257 OA
BRANCH  12  14
ATOM     14  O   UNL d   1      -2.584   2.309   0.547  0.00  0.00    -0.317 OA
BRANCH  14  15
ATOM     15  C   UNL d   1      -3.395   3.465   0.794  0.00  0.00     0.175 C 
ATOM     16  C   UNL d   1      -3.558   3.586   2.295  0.00  0.00     0.034 C 
ENDBRANCH  14  15
ENDBRANCH  12  14
ENDBRANCH   1  12
TORSDOF 3
