REMARK  4 active torsions:
REMARK  status: ('A' for Active; 'I' for Inactive)
REMARK    1  A    between atoms: C_3  and  N_1 
REMARK    2  A    between atoms: N_6  and  C_3 
REMARK    3  A    between atoms: C_9  and  N_4 
REMARK    4  A    between atoms: C_11  and  N_6 
ROOT
ATOM      1  N   UNL d   1       0.060  -1.227  -0.140  0.00  0.00    -0.156 N 
ATOM      2  C   UNL d   1       0.693   0.031  -0.023  0.00  0.00     0.683 C 
ATOM      3  N   UNL d   1       1.976   0.164  -0.076  0.00  0.00    -0.192 N 
ATOM      4  HN  UNL d   1       2.550  -0.657  -0.266  1.00  0.00     0.184 HD
ATOM      5  N   UNL d   1      -0.264   0.998   0.181  0.00  0.00    -0.224 N 
ATOM      6  C   UNL d   1      -1.323  -1.043   0.292  0.00  0.00     0.170 C 
ATOM      7  C   UNL d   1      -1.593   0.442   0.070  0.00  0.00     0.159 C 
ATOM      8  H   UNL d   1      -0.072   1.911  -0.212  0.00  0.00     0.177 HD
ENDROOT
BRANCH   1   9
ATOM      9  C   UNL d   1       0.626  -2.476  -0.357  0.00  0.00     0.193 C 
ATOM     10  S   UNL d   1       0.021  -3.909   0.291  0.00  0.00    -0.040 SA
BRANCH   9  11
ATOM     11  N   UNL d   1       1.770  -2.583  -1.097  0.00  0.00    -0.333 N 
ATOM     12  H   UNL d   1       2.325  -3.401  -0.874  0.00  0.00     0.168 HD
BRANCH  11  13
ATOM     13  C   UNL d   1       2.110  -1.947  -2.310  0.00  0.00     0.034 A 
ATOM     14  C   UNL d   1       3.414  -2.131  -2.785  0.00  0.00     0.031 A 
ATOM     15  C   UNL d   1       3.809  -1.587  -4.011  0.00  0.00     0.026 A 
ATOM     16  C   UNL d   1       2.890  -0.877  -4.777  0.00  0.00     0.034 A 
ATOM     17  C   UNL d   1       1.584  -0.701  -4.324  0.00  0.00     0.026 A 
ATOM     18 CL   UNL d   1       3.365  -0.227  -6.297  0.00  0.00    -0.084 Cl
ATOM     19  C   UNL d   1       1.195  -1.232  -3.089  0.00  0.00     0.031 A 
ENDBRANCH  11  13
ENDBRANCH   9  11
ENDBRANCH   1   9
BRANCH   3  20
ATOM     20  C   UNL d   1       2.603   1.401   0.119  0.00  0.00     0.049 A 
ATOM     21  C   UNL d   1       2.275   2.273   1.167  0.00  0.00     0.032 A 
ATOM     22  C   UNL d   1       2.946   3.489   1.328  0.00  0.00     0.026 A 
ATOM     23  C   UNL d   1       3.986   3.820   0.464  0.00  0.00     0.034 A 
ATOM     24  C   UNL d   1       4.359   2.945  -0.553  0.00  0.00     0.026 A 
ATOM     25 CL   UNL d   1       4.820   5.311   0.664  0.00  0.00    -0.084 Cl
ATOM     26  C   UNL d   1       3.667   1.742  -0.722  0.00  0.00     0.032 A 
ENDBRANCH   3  20
TORSDOF 4
