REMARK  6 active torsions:
REMARK  status: ('A' for Active; 'I' for Inactive)
REMARK    1  A    between atoms: C_10  and  C_3 
REMARK    2  A    between atoms: C_4  and  C_9 
REMARK    3  A    between atoms: C_21  and  C_5 
REMARK    4  A    between atoms: C_8  and  O_12 
REMARK    5  A    between atoms: C_11  and  C_8 
REMARK    6  A    between atoms: O_12  and  C_21 
ROOT
ATOM      1  N   UNL d   1       1.522  -0.524  -0.137  0.00  0.00    -0.351 N 
ATOM      2  HN  UNL d   1       2.421  -1.002  -0.199  1.00  0.00     0.166 HD
ATOM      3  C   UNL d   1       1.357   0.851  -0.041  0.00  0.00     0.049 A 
ATOM      4  C   UNL d   1       0.346  -1.125  -0.136  0.00  0.00     0.075 A 
ATOM      5  S   UNL d   1      -1.013  -0.070  -0.027  0.00  0.00    -0.084 SA
ATOM      6  C   UNL d   1       0.044   1.275   0.017  0.00  0.00     0.082 A 
ENDROOT
BRANCH   3   7
ATOM      7  C   UNL d   1       2.503   1.756  -0.032  0.00  0.00    -0.009 A 
ATOM      8  C   UNL d   1       3.677   1.386  -0.701  0.00  0.00     0.014 A 
ATOM      9  C   UNL d   1       4.785   2.241  -0.727  0.00  0.00     0.017 A 
ATOM     10  C   UNL d   1       4.743   3.480  -0.074  0.00  0.00     0.048 A 
ATOM     11  C   UNL d   1       3.574   3.843   0.612  0.00  0.00     0.017 A 
ATOM     12  C   UNL d   1       2.466   2.988   0.633  0.00  0.00     0.014 A 
BRANCH  10  13
ATOM     13  C   UNL d   1       5.926   4.417  -0.092  0.00  0.00     0.417 C 
ATOM     14  F   UNL d   1       6.987   3.946  -0.805  0.00  0.00    -0.166 F 
ATOM     15  F   UNL d   1       5.620   5.628  -0.637  0.00  0.00    -0.166 F 
ATOM     16  F   UNL d   1       6.402   4.681   1.157  0.00  0.00    -0.166 F 
ENDBRANCH  10  13
ENDBRANCH   3   7
BRANCH   4  17
ATOM     17  C   UNL d   1       0.110  -2.605  -0.164  0.00  0.00     0.243 C 
BRANCH  17  18
ATOM     18  O   UNL d   1       1.187  -3.274  -0.838  0.00  0.00    -0.314 OA
BRANCH  18  19
ATOM     19  C   UNL d   1       1.079  -3.324  -2.190  0.00  0.00     0.266 C 
ATOM     20  O   UNL d   1       0.196  -2.767  -2.832  0.00  0.00    -0.264 OA
BRANCH  19  21
ATOM     21  C   UNL d   1       2.143  -4.226  -2.827  0.00  0.00     0.037 C 
ATOM     22  C   UNL d   1       3.112  -4.837  -1.803  0.00  0.00     0.025 C 
ATOM     23  C   UNL d   1       1.404  -5.363  -3.549  0.00  0.00     0.025 C 
ATOM     24  C   UNL d   1       2.945  -3.397  -3.839  0.00  0.00     0.025 C 
ENDBRANCH  19  21
ENDBRANCH  18  19
ENDBRANCH  17  18
ENDBRANCH   4  17
TORSDOF 6
