REMARK  4 active torsions:
REMARK  status: ('A' for Active; 'I' for Inactive)
REMARK    1  A    between atoms: C_8  and  C_1 
REMARK       I    between atoms: C_6  and  N_12 
REMARK       I    between atoms: N_11  and  C_6 
REMARK    2  A    between atoms: N_9  and  C_8 
REMARK    3  A    between atoms: N_12  and  N_9 
REMARK    4  A    between atoms: C_14  and  N_11 
ROOT
ATOM      1  N   UNL d   1      -0.297   4.965   0.102  0.00  0.00    -0.306 N 
ATOM      2  HN  UNL d   1      -1.176   4.629  -0.292  1.00  0.00     0.186 HD
ENDROOT
BRANCH   1   3
ATOM      3  C   UNL d   1      -0.211   6.149   0.626  0.00  0.00     0.139 C 
BRANCH   3   4
ATOM      4  C   UNL d   1      -1.353   7.012   0.557  0.00  0.00     0.083 A 
ATOM      5  C   UNL d   1      -1.570   8.287   1.018  0.00  0.00     0.057 A 
ATOM      6  C   UNL d   1      -2.880   8.618   0.642  0.00  0.00     0.128 A 
ATOM      7 BR   UNL d   1      -0.419   9.421   1.956  0.00  0.00    -0.047 Br
ATOM      8  N   UNL d   1      -3.473   7.622  -0.022  0.00  0.00    -0.310 N 
ATOM      9  N   UNL d   1      -2.522   6.669  -0.068  0.00  0.00    -0.298 N 
ATOM     10  HN  UNL d   1      -4.419   7.590  -0.403  1.00  0.00     0.186 HD
ATOM     11  H   UNL d   1      -2.720   5.794  -0.544  0.00  0.00     0.187 HD
ENDBRANCH   3   4
ENDBRANCH   1   3
BRANCH   1  12
ATOM     12  N   UNL d   1       0.831   4.173   0.091  0.00  0.00    -0.252 N 
ATOM     13  C   UNL d   1       2.120   4.660  -0.113  0.00  0.00     0.335 C 
ATOM     14  N   UNL d   1       3.037   3.633  -0.226  0.00  0.00    -0.334 N 
ATOM     15  O   UNL d   1       2.418   5.845  -0.168  0.00  0.00    -0.246 OA
ATOM     16  H   UNL d   1       2.718   2.737   0.114  0.00  0.00     0.165 HD
ATOM     17  H   UNL d   1       0.653   3.240  -0.260  0.00  0.00     0.191 HD
BRANCH  14  18
ATOM     18  C   UNL d   1       4.495   3.850  -0.196  0.00  0.00     0.023 C 
ATOM     19  C   UNL d   1       4.915   4.405   1.175  0.00  0.00     0.037 C 
ATOM     20  C   UNL d   1       5.182   2.492  -0.427  0.00  0.00     0.037 C 
ATOM     21  C   UNL d   1       4.974   4.804  -1.305  0.00  0.00     0.037 C 
ENDBRANCH  14  18
ENDBRANCH   1  12
TORSDOF 4
