REMARK  6 active torsions:
REMARK  status: ('A' for Active; 'I' for Inactive)
REMARK    1  A    between atoms: N_3  and  S_1 
REMARK    2  A    between atoms: C_4  and  S_1 
REMARK    3  A    between atoms: C_2  and  O_5 
REMARK    4  A    between atoms: C_15  and  N_3 
REMARK    5  A    between atoms: O_5  and  C_10 
REMARK       I    between atoms: C_11  and  N_12 
REMARK    6  A    between atoms: N_12  and  C_20 
ROOT
ATOM      1  N   UNL d   1      -0.106   2.314   4.205  0.00  0.00    -0.344 N 
ATOM      2  HN  UNL d   1      -0.807   2.162   4.930  1.00  0.00     0.167 HD
ATOM      3  C   UNL d   1       1.065   2.944   4.461  0.00  0.00     0.148 A 
ATOM      4  C   UNL d   1       0.619   2.102   1.899  0.00  0.00     0.058 A 
ATOM      5  C   UNL d   1      -0.292   1.897   2.930  0.00  0.00     0.120 A 
ATOM      6  C   UNL d   1       2.021   3.225   3.494  0.00  0.00     0.059 A 
ATOM      7  C   UNL d   1       1.799   2.779   2.192  0.00  0.00     0.036 A 
ENDROOT
BRANCH   4   8
ATOM      8  N   UNL d   1       0.384   1.621   0.579  0.00  0.00    -0.279 N 
ATOM      9  H   UNL d   1      -0.527   1.802   0.160  0.00  0.00     0.179 HD
BRANCH   8  10
ATOM     10  S   UNL d   1       1.028   0.132   0.109  0.00  0.00     0.263 S 
ATOM     11  O   UNL d   1       2.446   0.113   0.392  0.00  0.00    -0.200 OA
ATOM     12  O   UNL d   1       0.520  -0.118  -1.223  0.00  0.00    -0.200 OA
BRANCH  10  13
ATOM     13  C   UNL d   1       0.223  -1.024   1.198  0.00  0.00     0.080 A 
ATOM     14  C   UNL d   1      -1.013  -1.570   0.842  0.00  0.00     0.027 A 
ATOM     15  C   UNL d   1      -1.642  -2.478   1.704  0.00  0.00     0.031 A 
ATOM     16  C   UNL d   1      -1.043  -2.845   2.919  0.00  0.00     0.034 A 
ATOM     17  C   UNL d   1       0.209  -2.315   3.239  0.00  0.00     0.031 A 
ATOM     18  C   UNL d   1       0.849  -1.415   2.379  0.00  0.00     0.027 A 
BRANCH  16  19
ATOM     19  N   UNL d   1      -1.752  -3.740   3.749  0.00  0.00    -0.328 N 
ATOM     20  C   UNL d   1      -1.384  -4.188   5.006  0.00  0.00     0.218 C 
ATOM     21  O   UNL d   1      -0.370  -3.886   5.624  0.00  0.00    -0.274 OA
ATOM     22  C   UNL d   1      -2.387  -5.128   5.627  0.00  0.00     0.117 C 
ATOM     23  H   UNL d   1      -2.640  -4.067   3.390  0.00  0.00     0.169 HD
ENDBRANCH  16  19
ENDBRANCH  10  13
ENDBRANCH   8  10
ENDBRANCH   4   8
BRANCH   3  24
ATOM     24  O   UNL d   1       1.391   3.300   5.764  0.00  0.00    -0.290 OA
BRANCH  24  25
ATOM     25  C   UNL d   1       0.844   2.544   6.780  0.00  0.00     0.121 A 
ATOM     26  C   UNL d   1       0.993   1.150   6.876  0.00  0.00     0.069 A 
ATOM     27 CL   UNL d   1       1.937   0.222   5.760  0.00  0.00    -0.081 Cl
ATOM     28  C   UNL d   1       0.436   0.453   7.955  0.00  0.00     0.027 A 
ATOM     29  C   UNL d   1      -0.215   1.140   8.978  0.00  0.00     0.003 A 
ATOM     30  C   UNL d   1      -0.312   2.529   8.923  0.00  0.00     0.027 A 
ATOM     31  C   UNL d   1       0.209   3.227   7.828  0.00  0.00     0.069 A 
ATOM     32 CL   UNL d   1       0.072   4.951   7.830  0.00  0.00    -0.081 Cl
ENDBRANCH  24  25
ENDBRANCH   3  24
TORSDOF 6
