REMARK  3 active torsions:
REMARK  status: ('A' for Active; 'I' for Inactive)
REMARK       I    between atoms: C_9  and  N_1 
REMARK    1  A    between atoms: C_2  and  S_14 
REMARK    2  A    between atoms: C_15  and  C_9 
REMARK    3  A    between atoms: S_14  and  C_15 
ROOT
ATOM      1  N   UNL d   1      -0.050  -1.397   0.844  0.00  0.00    -0.279 N 
ATOM      2  S   UNL d   1      -0.046   1.689   0.448  0.00  0.00    -0.086 SA
ATOM      3  C   UNL d   1       1.190  -0.804   0.389  0.00  0.00     0.059 A 
ATOM      4  C   UNL d   1      -1.245  -0.818   0.280  0.00  0.00     0.059 A 
ATOM      5  C   UNL d   1      -0.025  -2.473   1.770  0.00  0.00     0.238 C 
ATOM      6  C   UNL d   1       1.299   0.574   0.113  0.00  0.00     0.033 A 
ATOM      7  C   UNL d   1      -1.373   0.568   0.072  0.00  0.00     0.033 A 
ATOM      8  O   UNL d   1       1.028  -2.980   2.177  0.00  0.00    -0.272 OA
ATOM      9  C   UNL d   1       2.324  -1.603   0.152  0.00  0.00     0.031 A 
ATOM     10  C   UNL d   1      -2.290  -1.635  -0.180  0.00  0.00     0.031 A 
ATOM     11  C   UNL d   1      -2.552   1.110  -0.467  0.00  0.00     0.021 A 
ATOM     12  C   UNL d   1       2.492   1.113  -0.389  0.00  0.00     0.021 A 
ATOM     13  C   UNL d   1      -3.461  -1.096  -0.723  0.00  0.00     0.002 A 
ATOM     14  C   UNL d   1       3.510  -1.063  -0.349  0.00  0.00     0.002 A 
ATOM     15  C   UNL d   1       3.595   0.294  -0.626  0.00  0.00     0.002 A 
ATOM     16  C   UNL d   1      -3.600   0.280  -0.848  0.00  0.00     0.002 A 
ENDROOT
BRANCH   5  17
ATOM     17  C   UNL d   1      -1.362  -2.933   2.359  0.00  0.00     0.185 C 
BRANCH  17  18
ATOM     18  S   UNL d   1      -1.155  -4.093   3.753  0.00  0.00    -0.096 SA
BRANCH  18  19
ATOM     19  C   UNL d   1      -2.833  -4.370   4.168  0.00  0.00     0.113 A 
ATOM     20  N   UNL d   1      -3.807  -3.747   3.546  0.00  0.00    -0.344 N 
ATOM     21  C   UNL d   1      -5.010  -4.031   4.170  0.00  0.00     0.050 A 
ATOM     22  HN  UNL d   1      -3.695  -3.147   2.729  1.00  0.00     0.167 HD
ATOM     23  C   UNL d   1      -6.262  -3.477   3.836  0.00  0.00     0.031 A 
ATOM     24  C   UNL d   1      -4.934  -4.928   5.239  0.00  0.00     0.034 A 
ATOM     25  C   UNL d   1      -7.391  -3.805   4.594  0.00  0.00     0.002 A 
ATOM     26  C   UNL d   1      -7.291  -4.697   5.657  0.00  0.00     0.002 A 
ATOM     27  C   UNL d   1      -6.067  -5.286   5.989  0.00  0.00     0.021 A 
ATOM     28  S   UNL d   1      -3.297  -5.429   5.429  0.00  0.00    -0.063 SA
ENDBRANCH  18  19
ENDBRANCH  17  18
ENDBRANCH   5  17
TORSDOF 3
