REMARK  5 active torsions:
REMARK  status: ('A' for Active; 'I' for Inactive)
REMARK    1  A    between atoms: C_7  and  C_1 
REMARK    2  A    between atoms: N_8  and  C_2 
REMARK    3  A    between atoms: O_13  and  C_7 
REMARK    4  A    between atoms: C_9  and  N_8 
REMARK    5  A    between atoms: C_19  and  O_13 
ROOT
ATOM      1  C   UNL d   1      -0.176  -1.149   0.117  0.00  0.00     0.105 A 
ATOM      2  C   UNL d   1       0.635   1.153   0.118  0.00  0.00     0.150 A 
ATOM      3  N   UNL d   1      -0.677   1.126   0.110  0.00  0.00    -0.339 N 
ATOM      4  HN  UNL d   1      -1.268   1.958   0.111  1.00  0.00     0.168 HD
ATOM      5  S   UNL d   1       1.365  -0.400   0.255  0.00  0.00    -0.046 SA
ATOM      6  C   UNL d   1      -1.158  -0.171   0.101  0.00  0.00     0.030 A 
ATOM      7  C   UNL d   1      -2.634  -0.342   0.018  0.00  0.00     0.070 C 
ENDROOT
BRANCH   2   8
ATOM      8  N   UNL d   1       1.417   2.256   0.034  0.00  0.00    -0.337 N 
ATOM      9  H   UNL d   1       2.413   2.107   0.143  0.00  0.00     0.168 HD
BRANCH   8  10
ATOM     10  C   UNL d   1       1.104   3.466  -0.623  0.00  0.00     0.035 A 
ATOM     11  C   UNL d   1      -0.095   3.691  -1.314  0.00  0.00     0.053 A 
ATOM     12  C   UNL d   1      -0.350   4.919  -1.926  0.00  0.00     0.036 A 
ATOM     13 CL   UNL d   1      -1.816   5.150  -2.800  0.00  0.00    -0.084 Cl
ATOM     14  C   UNL d   1       0.572   5.957  -1.843  0.00  0.00     0.024 A 
ATOM     15  C   UNL d   1       1.754   5.766  -1.134  0.00  0.00     0.004 A 
ATOM     16  C   UNL d   1       2.012   4.534  -0.525  0.00  0.00     0.029 A 
ENDBRANCH   8  10
ENDBRANCH   2   8
BRANCH   1  17
ATOM     17  C   UNL d   1      -0.258  -2.587  -0.009  0.00  0.00     0.302 C 
ATOM     18  O   UNL d   1       0.690  -3.361  -0.081  0.00  0.00    -0.259 OA
BRANCH  17  19
ATOM     19  O   UNL d   1      -1.561  -2.964  -0.128  0.00  0.00    -0.317 OA
BRANCH  19  20
ATOM     20  C   UNL d   1      -1.798  -4.279  -0.648  0.00  0.00     0.174 C 
ATOM     21  C   UNL d   1      -1.866  -4.186  -2.162  0.00  0.00     0.034 C 
ENDBRANCH  19  20
ENDBRANCH  17  19
ENDBRANCH   1  17
TORSDOF 5
