REMARK  5 active torsions:
REMARK  status: ('A' for Active; 'I' for Inactive)
REMARK    1  A    between atoms: C_16  and  C_1 
REMARK    2  A    between atoms: C_18  and  C_4 
REMARK    3  A    between atoms: N_14  and  C_5 
REMARK    4  A    between atoms: N_10  and  N_14 
REMARK    5  A    between atoms: C_12  and  C_13 
ROOT
ATOM      1  C   UNL d   1       2.196  -1.802  -0.562  0.00  0.00     0.086 A 
ATOM      2  N   UNL d   1       3.458  -1.316  -0.510  0.00  0.00    -0.295 N 
ATOM      3  HN  UNL d   1       4.245  -1.909  -0.774  1.00  0.00     0.187 HD
ATOM      4  C   UNL d   1       1.152  -0.974  -0.134  0.00  0.00     0.074 A 
ATOM      5  C   UNL d   1       2.643   0.768   0.225  0.00  0.00     0.191 A 
ATOM      6  N   UNL d   1       1.378   0.319   0.236  0.00  0.00    -0.328 N 
ATOM      7  HN  UNL d   1       0.608   0.927   0.513  1.00  0.00     0.168 HD
ATOM      8  N   UNL d   1       3.680  -0.027  -0.102  0.00  0.00    -0.274 N 
ATOM      9  HN  UNL d   1       4.633   0.331  -0.045  1.00  0.00     0.189 HD
ENDROOT
BRANCH   5  10
ATOM     10  N   UNL d   1       2.942   2.110   0.546  0.00  0.00    -0.174 NA
ATOM     11  H   UNL d   1       3.919   2.255   0.304  0.00  0.00     0.156 HD
BRANCH  10  12
ATOM     12  N   UNL d   1       2.022   3.060   0.180  0.00  0.00    -0.316 N 
ATOM     13  C   UNL d   1       2.322   4.314   0.380  0.00  0.00     0.051 C 
ATOM     14  C   UNL d   1       3.614   4.775   1.019  0.00  0.00     0.072 C 
ATOM     15  HN  UNL d   1       1.130   2.793  -0.236  1.00  0.00     0.181 HD
BRANCH  13  16
ATOM     16  C   UNL d   1       1.359   5.309  -0.049  0.00  0.00     0.098 A 
ATOM     17  O   UNL d   1       1.628   6.640   0.145  0.00  0.00    -0.321 OA
ATOM     18  C   UNL d   1       0.568   7.339  -0.335  0.00  0.00     0.142 A 
ATOM     19  C   UNL d   1      -0.383   6.488  -0.844  0.00  0.00     0.027 A 
ATOM     20  C   UNL d   1       0.127   5.179  -0.661  0.00  0.00     0.041 A 
ENDBRANCH  13  16
ENDBRANCH  10  12
ENDBRANCH   5  10
BRANCH   4  21
ATOM     21  C   UNL d   1      -0.279  -1.363  -0.024  0.00  0.00    -0.007 A 
ATOM     22  C   UNL d   1      -0.692  -2.632   0.423  0.00  0.00     0.014 A 
ATOM     23  C   UNL d   1      -2.041  -3.002   0.430  0.00  0.00     0.001 A 
ATOM     24  C   UNL d   1      -3.017  -2.087   0.053  0.00  0.00     0.000 A 
ATOM     25  C   UNL d   1      -2.646  -0.800  -0.324  0.00  0.00     0.001 A 
ATOM     26  C   UNL d   1      -1.293  -0.446  -0.365  0.00  0.00     0.014 A 
ENDBRANCH   4  21
BRANCH   1  27
ATOM     27  C   UNL d   1       2.096  -3.179  -1.096  0.00  0.00    -0.006 A 
ATOM     28  C   UNL d   1       3.054  -4.152  -0.753  0.00  0.00     0.014 A 
ATOM     29  C   UNL d   1       2.945  -5.475  -1.197  0.00  0.00     0.001 A 
ATOM     30  C   UNL d   1       1.868  -5.857  -1.989  0.00  0.00     0.000 A 
ATOM     31  C   UNL d   1       0.927  -4.909  -2.376  0.00  0.00     0.001 A 
ATOM     32  C   UNL d   1       1.060  -3.580  -1.961  0.00  0.00     0.014 A 
ENDBRANCH   1  27
TORSDOF 5
