REMARK  10 active torsions:
REMARK  status: ('A' for Active; 'I' for Inactive)
REMARK    1  A    between atoms: C_2  and  N_1 
REMARK    2  A    between atoms: C_7  and  C_3 
REMARK    3  A    between atoms: C_8  and  C_3 
REMARK    4  A    between atoms: N_4  and  N_9 
REMARK    5  A    between atoms: N_9  and  C_6 
REMARK    6  A    between atoms: O_18  and  C_7 
REMARK    7  A    between atoms: O_17  and  C_8 
REMARK    8  A    between atoms: O_20  and  C_16 
REMARK    9  A    between atoms: C_22  and  O_17 
REMARK   10  A    between atoms: C_21  and  O_18 
ROOT
ATOM      1  C   UNL d   1       3.660  -2.382   0.992  0.00  0.00     0.199 C 
ATOM      2  N   UNL d   1       2.550  -1.918   0.476  0.00  0.00    -0.290 N 
ATOM      3  HN  UNL d   1       2.163  -1.037   0.816  1.00  0.00     0.187 HD
ENDROOT
BRANCH   2   4
ATOM      4  N   UNL d   1       1.913  -2.597  -0.504  0.00  0.00    -0.298 N 
ATOM      5  H   UNL d   1       2.195  -3.544  -0.792  0.00  0.00     0.187 HD
BRANCH   4   6
ATOM      6  C   UNL d   1       1.158  -1.855  -1.435  0.00  0.00     0.081 A 
ATOM      7  C   UNL d   1       0.871  -2.303  -2.739  0.00  0.00     0.133 A 
ATOM      8  C   UNL d   1       0.200  -1.472  -3.656  0.00  0.00     0.075 A 
ATOM      9  C   UNL d   1      -0.206  -0.189  -3.287  0.00  0.00     0.070 A 
ATOM     10  C   UNL d   1       0.019   0.249  -1.987  0.00  0.00     0.039 A 
ATOM     11  C   UNL d   1       0.695  -0.574  -1.081  0.00  0.00     0.036 A 
BRANCH   7  12
ATOM     12  N   UNL d   1       1.291  -3.636  -3.199  0.00  0.00    -0.113 N 
ATOM     13  O   UNL d   1       1.860  -4.386  -2.392  0.00  0.00    -0.532 OA
ATOM     14  O   UNL d   1       1.055  -3.944  -4.376  0.00  0.00    -0.532 OA
ENDBRANCH   7  12
BRANCH   9  15
ATOM     15  O   UNL d   1      -0.798   0.535  -4.283  0.00  0.00    -0.356 OA
ATOM     16  C   UNL d   1      -1.141   1.883  -3.981  0.00  0.00     0.210 C 
ENDBRANCH   9  15
ENDBRANCH   4   6
ENDBRANCH   2   4
BRANCH   1  17
ATOM     17  C   UNL d   1       4.345  -3.663   0.580  0.00  0.00     0.317 C 
ATOM     18  O   UNL d   1       5.553  -3.740   0.455  0.00  0.00    -0.257 OA
BRANCH  17  19
ATOM     19  O   UNL d   1       3.432  -4.637   0.381  0.00  0.00    -0.317 OA
BRANCH  19  20
ATOM     20  C   UNL d   1       3.943  -5.916  -0.021  0.00  0.00     0.175 C 
ATOM     21  C   UNL d   1       4.229  -6.746   1.213  0.00  0.00     0.034 C 
ENDBRANCH  19  20
ENDBRANCH  17  19
ENDBRANCH   1  17
BRANCH   1  22
ATOM     22  C   UNL d   1       4.279  -1.547   2.091  0.00  0.00     0.317 C 
ATOM     23  O   UNL d   1       4.766  -2.048   3.090  0.00  0.00    -0.257 OA
BRANCH  22  24
ATOM     24  O   UNL d   1       4.060  -0.236   1.846  0.00  0.00    -0.317 OA
BRANCH  24  25
ATOM     25  C   UNL d   1       4.134   0.628   2.988  0.00  0.00     0.175 C 
ATOM     26  C   UNL d   1       2.805   0.586   3.722  0.00  0.00     0.034 C 
ENDBRANCH  24  25
ENDBRANCH  22  24
ENDBRANCH   1  22
TORSDOF 10
