REMARK  1 active torsions:
REMARK  status: ('A' for Active; 'I' for Inactive)
REMARK    1  A    between atoms: C_8  and  C_1 
ROOT
ATOM      1  C   UNL d   1       1.774  -1.342  -0.267  0.00  0.00     0.011 A 
ATOM      2  C   UNL d   1      -0.197   0.100  -0.084  0.00  0.00     0.053 A 
ATOM      3  C   UNL d   1       0.313  -1.141  -0.231  0.00  0.00    -0.017 A 
ATOM      4  C   UNL d   1       2.603  -0.274  -0.154  0.00  0.00     0.124 A 
ATOM      5  N   UNL d   1       0.652   1.166   0.050  0.00  0.00    -0.321 N 
ATOM      6  C   UNL d   1       2.018   1.083   0.030  0.00  0.00     0.267 A 
ATOM      7  C   UNL d   1      -1.664   0.316  -0.059  0.00  0.00    -0.003 A 
ATOM      8  C   UNL d   1       4.025  -0.361  -0.199  0.00  0.00     0.106 C 
ATOM      9  C   UNL d   1      -0.616  -2.332  -0.346  0.00  0.00     0.046 C 
ATOM     10  N   UNL d   1       5.179  -0.468  -0.255  0.00  0.00    -0.191 NA
ATOM     11  O   UNL d   1       2.706   2.091   0.157  0.00  0.00    -0.266 OA
ATOM     12  C   UNL d   1      -2.508  -0.780   0.214  0.00  0.00    -0.045 A 
ATOM     13  C   UNL d   1      -1.900  -2.136   0.467  0.00  0.00     0.044 C 
ATOM     14  C   UNL d   1      -2.253   1.568  -0.299  0.00  0.00     0.014 A 
ATOM     15  C   UNL d   1      -3.896  -0.604   0.299  0.00  0.00     0.008 A 
ATOM     16  C   UNL d   1      -3.639   1.732  -0.232  0.00  0.00     0.001 A 
ATOM     17  C   UNL d   1      -4.458   0.650   0.075  0.00  0.00     0.001 A 
ATOM     18  H   UNL d   1       0.289   2.096   0.213  0.00  0.00     0.169 HD
ENDROOT
BRANCH   1  19
ATOM     19  C   UNL d   1       2.377  -2.695  -0.415  0.00  0.00    -0.002 A 
ATOM     20  C   UNL d   1       2.715  -3.499   0.690  0.00  0.00     0.045 A 
ATOM     21 CL   UNL d   1       2.429  -2.977   2.314  0.00  0.00    -0.083 Cl
ATOM     22  C   UNL d   1       3.279  -4.764   0.501  0.00  0.00     0.024 A 
ATOM     23  C   UNL d   1       3.501  -5.244  -0.789  0.00  0.00     0.002 A 
ATOM     24  C   UNL d   1       3.156  -4.464  -1.891  0.00  0.00     0.001 A 
ATOM     25  C   UNL d   1       2.599  -3.196  -1.708  0.00  0.00     0.014 A 
ENDBRANCH   1  19
TORSDOF 1
