REMARK  3 active torsions:
REMARK  status: ('A' for Active; 'I' for Inactive)
REMARK    1  A    between atoms: C_5  and  C_3 
REMARK    2  A    between atoms: C_12  and  C_4 
REMARK       I    between atoms: N_8  and  C_5 
REMARK    3  A    between atoms: N_9  and  N_8 
REMARK       I    between atoms: C_10  and  N_9 
ROOT
ATOM      1  N   UNL d   1      -1.473   0.562   0.038  0.00  0.00    -0.329 N 
ATOM      2  HN  UNL d   1      -2.370   1.047   0.076  1.00  0.00     0.168 HD
ATOM      3  C   UNL d   1      -1.252  -0.743   0.013  0.00  0.00     0.219 A 
ATOM      4  C   UNL d   1      -0.205   1.116   0.002  0.00  0.00     0.074 A 
ATOM      5  O   UNL d   1       0.071  -1.088  -0.006  0.00  0.00    -0.291 OA
ATOM      6  C   UNL d   1       0.740   0.106   0.001  0.00  0.00     0.079 A 
ATOM      7  C   UNL d   1       2.211   0.002   0.028  0.00  0.00     0.079 C 
ENDROOT
BRANCH   3   8
ATOM      8  C   UNL d   1      -2.258  -1.795   0.005  0.00  0.00     0.311 C 
ATOM      9  N   UNL d   1      -3.566  -1.331   0.048  0.00  0.00    -0.260 N 
ATOM     10  H   UNL d   1      -3.785  -0.336   0.090  0.00  0.00     0.190 HD
ATOM     11  O   UNL d   1      -2.020  -3.004  -0.040  0.00  0.00    -0.262 OA
BRANCH   9  12
ATOM     12  N   UNL d   1      -4.625  -2.246   0.033  0.00  0.00    -0.267 N 
ATOM     13  C   UNL d   1      -5.912  -1.761   0.092  0.00  0.00     0.232 C 
ATOM     14  O   UNL d   1      -6.173  -0.563   0.164  0.00  0.00    -0.272 OA
ATOM     15  C   UNL d   1      -6.982  -2.818   0.060  0.00  0.00     0.119 C 
ATOM     16  H   UNL d   1      -4.384  -3.234  -0.040  0.00  0.00     0.190 HD
ENDBRANCH   9  12
ENDBRANCH   3   8
BRANCH   4  17
ATOM     17  C   UNL d   1       0.039   2.551   0.015  0.00  0.00    -0.007 A 
ATOM     18  C   UNL d   1      -0.851   3.401   0.685  0.00  0.00     0.014 A 
ATOM     19  C   UNL d   1      -0.617   4.780   0.743  0.00  0.00     0.001 A 
ATOM     20  C   UNL d   1       0.510   5.324   0.130  0.00  0.00     0.000 A 
ATOM     21  C   UNL d   1       1.388   4.496  -0.563  0.00  0.00     0.001 A 
ATOM     22  C   UNL d   1       1.145   3.121  -0.633  0.00  0.00     0.014 A 
ENDBRANCH   4  17
TORSDOF 3
