REMARK  5 active torsions:
REMARK  status: ('A' for Active; 'I' for Inactive)
REMARK    1  A    between atoms: N_4  and  C_1 
REMARK    2  A    between atoms: C_2  and  N_4 
REMARK    3  A    between atoms: N_10  and  C_2 
REMARK    4  A    between atoms: O_12  and  C_6 
REMARK    5  A    between atoms: O_13  and  C_8 
ROOT
ATOM      1  C   UNL d   1       2.358   0.191  -0.102  0.00  0.00     0.070 A 
ATOM      2  C   UNL d   1       1.675  -1.022  -0.009  0.00  0.00     0.071 A 
ATOM      3  C   UNL d   1       0.225   1.340   0.009  0.00  0.00     0.065 A 
ATOM      4  C   UNL d   1       1.619   1.389  -0.056  0.00  0.00     0.096 A 
ATOM      5  C   UNL d   1      -0.455   0.112   0.067  0.00  0.00     0.070 A 
ATOM      6  C   UNL d   1       0.269  -1.085   0.071  0.00  0.00     0.092 A 
ATOM      7 CL   UNL d   1      -2.176   0.242   0.164  0.00  0.00    -0.081 Cl
ENDROOT
BRANCH   1   8
ATOM      8  N   UNL d   1       3.764   0.324  -0.202  0.00  0.00    -0.331 N 
ATOM      9  H   UNL d   1       4.058   1.294  -0.176  0.00  0.00     0.168 HD
BRANCH   8  10
ATOM     10  C   UNL d   1       4.765  -0.559  -0.520  0.00  0.00     0.170 C 
ATOM     11  S   UNL d   1       4.705  -2.125  -1.071  0.00  0.00    -0.041 SA
BRANCH  10  12
ATOM     12  N   UNL d   1       6.002   0.013  -0.394  0.00  0.00    -0.376 N 
ATOM     13  H   UNL d   1       6.146   0.814   0.205  0.00  0.00     0.158 HD
ATOM     14  H   UNL d   1       6.800  -0.596  -0.536  0.00  0.00     0.158 HD
ENDBRANCH  10  12
ENDBRANCH   8  10
ENDBRANCH   1   8
BRANCH   4  15
ATOM     15  O   UNL d   1       2.361   2.547  -0.099  0.00  0.00    -0.354 OA
ATOM     16  C   UNL d   1       1.672   3.767   0.159  0.00  0.00     0.210 C 
ENDBRANCH   4  15
BRANCH   6  17
ATOM     17  O   UNL d   1      -0.158  -2.381   0.170  0.00  0.00    -0.354 OA
ATOM     18  C   UNL d   1      -1.530  -2.707   0.050  0.00  0.00     0.210 C 
ENDBRANCH   6  17
TORSDOF 5
