REMARK  4 active torsions:
REMARK  status: ('A' for Active; 'I' for Inactive)
REMARK    1  A    between atoms: C_6  and  C_1 
REMARK    2  A    between atoms: N_11  and  C_2 
REMARK    3  A    between atoms: C_10  and  C_6 
REMARK    4  A    between atoms: O_19  and  C_16 
ROOT
ATOM      1  C   UNL d   1       1.322  -1.571  -0.042  0.00  0.00     0.056 A 
ATOM      2  C   UNL d   1       2.435  -0.736  -0.086  0.00  0.00     0.083 A 
ATOM      3  C   UNL d   1       0.105  -0.789  -0.069  0.00  0.00    -0.025 A 
ATOM      4  C   UNL d   1       0.350   0.568  -0.029  0.00  0.00     0.020 A 
ATOM      5  S   UNL d   1       2.002   0.925  -0.030  0.00  0.00    -0.074 SA
ATOM      6  N   UNL d   1      -2.039   1.112   0.365  0.00  0.00     0.089 N 
ATOM      7  C   UNL d   1      -0.706   1.638  -0.017  0.00  0.00     0.318 C 
ATOM      8  C   UNL d   1      -1.311  -1.299  -0.066  0.00  0.00     0.071 C 
ATOM      9  C   UNL d   1      -2.315  -0.157  -0.346  0.00  0.00     0.277 C 
ATOM     10  C   UNL d   1      -2.156   0.958   1.815  0.00  0.00     0.310 C 
ENDROOT
BRANCH   1  11
ATOM     11  C   UNL d   1       1.328  -3.040  -0.018  0.00  0.00     0.195 C 
ATOM     12  O   UNL d   1       0.437  -3.696  -0.561  0.00  0.00    -0.287 OA
BRANCH  11  13
ATOM     13  C   UNL d   1       2.388  -3.800   0.702  0.00  0.00     0.015 A 
ATOM     14  C   UNL d   1       2.682  -5.104   0.269  0.00  0.00     0.018 A 
ATOM     15  C   UNL d   1       3.680  -5.850   0.900  0.00  0.00     0.037 A 
ATOM     16  C   UNL d   1       4.390  -5.304   1.968  0.00  0.00     0.068 A 
ATOM     17  C   UNL d   1       4.094  -4.012   2.405  0.00  0.00     0.037 A 
ATOM     18  C   UNL d   1       3.076  -3.273   1.800  0.00  0.00     0.018 A 
BRANCH  16  19
ATOM     19  O   UNL d   1       5.420  -5.918   2.628  0.00  0.00    -0.356 OA
ATOM     20  C   UNL d   1       5.294  -7.330   2.750  0.00  0.00     0.210 C 
ENDBRANCH  16  19
ENDBRANCH  11  13
ENDBRANCH   1  11
BRANCH   2  21
ATOM     21  N   UNL d   1       3.748  -1.044  -0.153  0.00  0.00    -0.393 N 
ATOM     22  H   UNL d   1       4.088  -1.963  -0.417  0.00  0.00     0.156 HD
ATOM     23  H   UNL d   1       4.427  -0.299  -0.281  0.00  0.00     0.156 HD
ENDBRANCH   2  21
TORSDOF 4
