REMARK  5 active torsions:
REMARK  status: ('A' for Active; 'I' for Inactive)
REMARK    1  A    between atoms: C_8  and  C_1 
REMARK    2  A    between atoms: S_15  and  C_5 
REMARK    3  A    between atoms: C_10  and  C_16 
REMARK    4  A    between atoms: C_23  and  S_15 
REMARK    5  A    between atoms: C_24  and  C_23 
ROOT
ATOM      1  S   UNL d   1       0.317  -2.756   0.000  0.00  0.00    -0.088 SA
ENDROOT
BRANCH   1   2
ATOM      2  C   UNL d   1       0.124  -1.042   0.073  0.00  0.00     0.162 A 
ATOM      3  N   UNL d   1      -1.099  -0.417   0.046  0.00  0.00    -0.312 N 
ATOM      4  C   UNL d   1      -0.831   0.923   0.229  0.00  0.00     0.209 A 
ATOM      5  C   UNL d   1      -2.364  -1.081  -0.147  0.00  0.00     0.160 C 
ATOM      6  N   UNL d   1       0.483   1.078   0.287  0.00  0.00    -0.279 N 
ATOM      7  N   UNL d   1       1.077  -0.153   0.189  0.00  0.00    -0.278 N 
ATOM      8  HN  UNL d   1       0.973   1.967   0.387  1.00  0.00     0.188 HD
ATOM      9  HN  UNL d   1       2.079  -0.342   0.205  1.00  0.00     0.189 HD
BRANCH   4  10
ATOM     10  C   UNL d   1      -1.826   2.026   0.359  0.00  0.00     0.450 C 
ATOM     11  F   UNL d   1      -3.117   1.605   0.355  0.00  0.00    -0.163 F 
ATOM     12  F   UNL d   1      -1.666   2.715   1.519  0.00  0.00    -0.163 F 
ATOM     13  F   UNL d   1      -1.721   2.927  -0.653  0.00  0.00    -0.163 F 
ENDBRANCH   4  10
ENDBRANCH   1   2
BRANCH   1  14
ATOM     14  C   UNL d   1       2.126  -2.914  -0.149  0.00  0.00     0.121 C 
BRANCH  14  15
ATOM     15  C   UNL d   1       2.608  -4.349  -0.272  0.00  0.00    -0.048 A 
ATOM     16  C   UNL d   1       1.911  -5.316  -1.012  0.00  0.00     0.009 A 
ATOM     17  C   UNL d   1       2.387  -6.627  -1.113  0.00  0.00     0.014 A 
ATOM     18  C   UNL d   1       3.594  -7.002  -0.513  0.00  0.00    -0.008 A 
ATOM     19  C   UNL d   1       4.319  -6.032   0.189  0.00  0.00     0.014 A 
ATOM     20  C   UNL d   1       3.833  -4.721   0.304  0.00  0.00     0.009 A 
BRANCH  18  21
ATOM     21  C   UNL d   1       4.045  -8.383  -0.631  0.00  0.00     0.063 A 
ATOM     22  N   UNL d   1       3.130  -9.424  -0.769  0.00  0.00    -0.292 N 
ATOM     23  N   UNL d   1       3.726 -10.600  -0.874  0.00  0.00    -0.061 NA
ATOM     24  HN  UNL d   1       2.119  -9.295  -0.786  1.00  0.00     0.183 HD
ATOM     25  S   UNL d   1       5.393 -10.487  -0.828  0.00  0.00    -0.010 SA
ATOM     26  C   UNL d   1       5.371  -8.779  -0.650  0.00  0.00     0.096 A 
ENDBRANCH  18  21
ENDBRANCH  14  15
ENDBRANCH   1  14
TORSDOF 5
