REMARK  4 active torsions:
REMARK  status: ('A' for Active; 'I' for Inactive)
REMARK    1  A    between atoms: N_2  and  S_1 
REMARK    2  A    between atoms: C_5  and  S_1 
REMARK    3  A    between atoms: C_4  and  N_2 
REMARK    4  A    between atoms: C_3  and  C_8 
ROOT
ATOM      1  S   UNL d   1       0.955  -0.002   0.033  0.00  0.00     0.263 S 
ATOM      2  O   UNL d   1       2.393   0.027  -0.122  0.00  0.00    -0.200 OA
ATOM      3  O   UNL d   1       0.301   0.762   1.074  0.00  0.00    -0.200 OA
ENDROOT
BRANCH   1   4
ATOM      4  N   UNL d   1       0.433  -1.596   0.235  0.00  0.00    -0.280 N 
ATOM      5  H   UNL d   1      -0.495  -1.653   0.651  0.00  0.00     0.179 HD
BRANCH   4   6
ATOM      6  C   UNL d   1       0.774  -2.572  -0.752  0.00  0.00     0.053 A 
ATOM      7  C   UNL d   1       2.001  -3.283  -0.693  0.00  0.00     0.001 A 
ATOM      8  C   UNL d   1       2.302  -4.188  -1.742  0.00  0.00    -0.024 A 
ATOM      9  C   UNL d   1       2.928  -3.167   0.367  0.00  0.00     0.014 A 
ATOM     10  C   UNL d   1       3.502  -4.919  -1.711  0.00  0.00     0.012 A 
ATOM     11  C   UNL d   1       1.396  -4.355  -2.800  0.00  0.00     0.012 A 
ATOM     12  C   UNL d   1       4.399  -4.783  -0.653  0.00  0.00     0.001 A 
ATOM     13  C   UNL d   1       4.111  -3.909   0.389  0.00  0.00     0.001 A 
ATOM     14  C   UNL d   1       0.188  -3.662  -2.827  0.00  0.00     0.003 A 
ATOM     15  C   UNL d   1      -0.127  -2.779  -1.800  0.00  0.00     0.031 A 
ENDBRANCH   4   6
ENDBRANCH   1   4
BRANCH   1  16
ATOM     16  C   UNL d   1       0.230   0.503  -1.517  0.00  0.00     0.079 A 
ATOM     17  C   UNL d   1      -1.039   1.090  -1.526  0.00  0.00     0.026 A 
ATOM     18  C   UNL d   1      -1.579   1.546  -2.731  0.00  0.00     0.018 A 
ATOM     19  C   UNL d   1      -0.855   1.431  -3.930  0.00  0.00     0.048 A 
ATOM     20  C   UNL d   1       0.419   0.839  -3.902  0.00  0.00     0.018 A 
ATOM     21  C   UNL d   1       0.966   0.385  -2.699  0.00  0.00     0.026 A 
BRANCH  19  22
ATOM     22  C   UNL d   1      -1.444   1.959  -5.219  0.00  0.00     0.417 C 
ATOM     23  F   UNL d   1      -0.627   1.805  -6.297  0.00  0.00    -0.166 F 
ATOM     24  F   UNL d   1      -2.613   1.341  -5.545  0.00  0.00    -0.166 F 
ATOM     25  F   UNL d   1      -1.730   3.288  -5.153  0.00  0.00    -0.166 F 
ENDBRANCH  19  22
ENDBRANCH   1  16
TORSDOF 4
