REMARK  4 active torsions:
REMARK  status: ('A' for Active; 'I' for Inactive)
REMARK    1  A    between atoms: C_2  and  C_1 
REMARK    2  A    between atoms: C_7  and  C_2 
REMARK    3  A    between atoms: C_10  and  C_9 
REMARK    4  A    between atoms: O_13  and  C_10 
ROOT
ATOM      1  C   UNL d   1      -2.519   1.613  -0.364  0.00  0.00     0.194 C 
ATOM      2  O   UNL d   1      -2.528   2.616  -1.070  0.00  0.00    -0.287 OA
ENDROOT
BRANCH   1   3
ATOM      3  C   UNL d   1      -1.228   0.860  -0.206  0.00  0.00     0.028 C 
ATOM      4  C   UNL d   1      -0.034   1.601   0.009  0.00  0.00    -0.041 C 
ATOM      5  C   UNL d   1       1.215   0.928  -0.001  0.00  0.00    -0.049 C 
ATOM      6  C   UNL d   1      -0.060   3.103   0.197  0.00  0.00     0.050 C 
ATOM      7  C   UNL d   1       2.524   1.693   0.012  0.00  0.00     0.049 C 
ATOM      8  C   UNL d   1       1.253  -0.490  -0.025  0.00  0.00    -0.049 C 
ATOM      9  C   UNL d   1       0.049  -1.229  -0.125  0.00  0.00    -0.049 C 
ATOM     10  C   UNL d   1       2.600  -1.185   0.024  0.00  0.00     0.049 C 
ATOM     11  C   UNL d   1      -1.179  -0.551  -0.345  0.00  0.00    -0.041 C 
ATOM     12  C   UNL d   1       0.091  -2.740  -0.043  0.00  0.00     0.049 C 
ATOM     13  C   UNL d   1      -2.392  -1.360  -0.747  0.00  0.00     0.050 C 
ENDBRANCH   1   3
BRANCH   1  14
ATOM     14  C   UNL d   1      -3.786   1.235   0.328  0.00  0.00     0.032 A 
ATOM     15  C   UNL d   1      -5.058   1.536  -0.201  0.00  0.00     0.051 A 
ATOM     16  C   UNL d   1      -6.206   1.058   0.467  0.00  0.00     0.019 A 
ATOM     17  C   UNL d   1      -6.106   0.311   1.639  0.00  0.00     0.001 A 
ATOM     18  C   UNL d   1      -4.855   0.048   2.179  0.00  0.00     0.001 A 
ATOM     19  C   UNL d   1      -3.704   0.521   1.540  0.00  0.00     0.016 A 
BRANCH  15  20
ATOM     20  C   UNL d   1      -5.368   2.262  -1.470  0.00  0.00     0.177 C 
ATOM     21  O   UNL d   1      -6.311   1.923  -2.170  0.00  0.00    -0.646 OA
BRANCH  20  22
ATOM     22  O   UNL d   1      -4.709   3.416  -1.675  0.00  0.00    -0.773 OA
ATOM     23  H   UNL d   1      -3.786   3.404  -1.325  0.00  0.00     0.167 HD
ENDBRANCH  20  22
ENDBRANCH  15  20
ENDBRANCH   1  14
TORSDOF 4
