REMARK  4 active torsions:
REMARK  status: ('A' for Active; 'I' for Inactive)
REMARK    1  A    between atoms: S1_11  and  C1_3 
REMARK    2  A    between atoms: C5_9  and  C2_6 
REMARK    3  A    between atoms: O3_13  and  C4_8 
REMARK    4  A    between atoms: O2_12  and  C5_9 
ROOT
ATOM      1  N1  <1> d   1      -0.268  -1.119   0.015  0.00  0.00    -0.318 N 
ATOM      2  H1  <1> d   1      -0.812  -1.982   0.013  1.00  0.00     0.170 HD
ATOM      3  C1  <1> d   1       1.071  -1.139   0.021  0.00  0.00     0.146 A 
ATOM      4  N2  <1> d   1       1.848  -0.046   0.024  0.00  0.00    -0.331 N 
ATOM      5  H2  <1> d   1       2.867  -0.099   0.029  1.00  0.00     0.168 HD
ATOM      6  C2  <1> d   1       1.180   1.133   0.020  0.00  0.00     0.112 A 
ATOM      7  C3  <1> d   1      -0.188   1.267   0.013  0.00  0.00     0.092 A 
ATOM      8  C4  <1> d   1      -0.860   0.079   0.011  0.00  0.00     0.144 A 
ENDROOT
BRANCH   6   9
ATOM      9  C5  <1> d   1       2.030   2.354   0.024  0.00  0.00     0.193 C 
ATOM     10  O1  <1> d   1       1.595   3.491   0.024  0.00  0.00    -0.645 OA
BRANCH   9  11
ATOM     11  O2  <1> d   1       3.345   2.034   0.026  0.00  0.00    -0.772 OA
ATOM     12  H2  <1> d   1       3.450   1.053   0.026  0.00  0.00     0.167 HD
ENDBRANCH   9  11
ENDBRANCH   6   9
BRANCH   8  13
ATOM     13  O3  <1> d   1      -2.222   0.034   0.003  0.00  0.00    -0.346 OA
ATOM     14  H3  <1> d   1      -2.571   0.937  -0.002  0.00  0.00     0.219 HD
ENDBRANCH   8  13
BRANCH   3  15
ATOM     15  S1  <1> d   1       1.907  -2.704   0.025  0.00  0.00    -0.098 SA
ATOM     16  C6  <1> d   1       0.482  -3.825   0.026  0.00  0.00     0.099 C 
ENDBRANCH   3  15
TORSDOF 4
