REMARK  3 active torsions:
REMARK  status: ('A' for Active; 'I' for Inactive)
REMARK    1  A    between atoms: C_2  and  C_1 
REMARK    2  A    between atoms: C_5  and  C_1 
REMARK    3  A    between atoms: O_7  and  N_3 
ROOT
ATOM      1  C   UNL d   1       0.862  -2.516  -0.211  0.00  0.00    -0.006 C 
ATOM      2  C   UNL d   1       2.207  -2.637  -0.258  0.00  0.00    -0.017 C 
ATOM      3  C   UNL d   1       3.296  -1.619  -0.159  0.00  0.00     0.037 C 
ENDROOT
BRANCH   1   4
ATOM      4  C   UNL d   1       0.090  -1.217  -0.040  0.00  0.00     0.038 C 
ATOM      5  N   UNL d   1       0.704  -0.073   0.070  0.00  0.00    -0.273 N 
ATOM      6  HN  UNL d   1       1.718   0.034   0.048  1.00  0.00     0.194 HD
ATOM      7  C   UNL d   1      -1.435  -1.281   0.002  0.00  0.00     0.071 C 
BRANCH   5   8
ATOM      8  O   UNL d   1      -0.192   0.993   0.223  0.00  0.00    -0.290 OA
ATOM      9  H   UNL d   1       0.407   1.759   0.298  0.00  0.00     0.244 HD
ENDBRANCH   5   8
ENDBRANCH   1   4
BRANCH   1  10
ATOM     10  C   UNL d   1       0.129  -3.793  -0.325  0.00  0.00    -0.024 A 
ATOM     11  C   UNL d   1      -0.161  -4.539   0.827  0.00  0.00     0.012 A 
ATOM     12  C   UNL d   1      -0.877  -5.732   0.726  0.00  0.00     0.001 A 
ATOM     13  C   UNL d   1      -1.301  -6.189  -0.522  0.00  0.00     0.000 A 
ATOM     14  C   UNL d   1      -1.004  -5.458  -1.673  0.00  0.00     0.001 A 
ATOM     15  C   UNL d   1      -0.286  -4.265  -1.577  0.00  0.00     0.012 A 
ENDBRANCH   1  10
TORSDOF 3
