REMARK  4 active torsions:
REMARK  status: ('A' for Active; 'I' for Inactive)
REMARK    1  A    between atoms: N_10  and  C_3 
REMARK    2  A    between atoms: C_8  and  C_7 
REMARK    3  A    between atoms: C_18  and  N_10 
REMARK    4  A    between atoms: C_19  and  C_18 
ROOT
ATOM      1  C   UNL d   1      -0.711   1.233  -0.011  0.00  0.00     0.141 A 
ATOM      2  N   UNL d   1      -0.795  -1.204  -0.033  0.00  0.00    -0.151 N 
ATOM      3  C   UNL d   1       0.587  -1.218   0.083  0.00  0.00     0.683 A 
ATOM      4  C   UNL d   1      -1.505  -0.010  -0.071  0.00  0.00     0.284 A 
ATOM      5  N   UNL d   1       1.274  -0.117   0.132  0.00  0.00    -0.189 N 
ATOM      6  HN  UNL d   1       2.290  -0.145   0.206  1.00  0.00     0.184 HD
ATOM      7  C   UNL d   1       0.615   1.080   0.083  0.00  0.00     0.092 A 
ATOM      8  C   UNL d   1      -1.375   2.486  -0.045  0.00  0.00     0.107 C 
ATOM      9  N   UNL d   1      -1.894   3.523  -0.073  0.00  0.00    -0.191 NA
ATOM     10  O   UNL d   1      -2.732   0.046  -0.146  0.00  0.00    -0.266 OA
ATOM     11  C   UNL d   1      -1.561  -2.441  -0.030  0.00  0.00     0.179 C 
ENDROOT
BRANCH   7  12
ATOM     12  C   UNL d   1       1.487   2.209   0.131  0.00  0.00     0.033 A 
ATOM     13  S   UNL d   1       1.975   2.870   1.645  0.00  0.00    -0.100 SA
ATOM     14  C   UNL d   1       2.913   4.085   0.893  0.00  0.00     0.050 A 
ATOM     15  C   UNL d   1       2.879   3.993  -0.478  0.00  0.00     0.008 A 
ATOM     16  C   UNL d   1       2.064   2.908  -0.918  0.00  0.00     0.021 A 
ENDBRANCH   7  12
BRANCH   3  17
ATOM     17  N   UNL d   1       1.236  -2.419   0.161  0.00  0.00    -0.222 N 
ATOM     18  H   UNL d   1       0.792  -3.269  -0.155  0.00  0.00     0.178 HD
BRANCH  17  19
ATOM     19  C   UNL d   1       2.624  -2.564   0.552  0.00  0.00     0.176 C 
BRANCH  19  20
ATOM     20  C   UNL d   1       2.800  -3.703   1.537  0.00  0.00    -0.040 A 
ATOM     21  C   UNL d   1       4.033  -4.370   1.605  0.00  0.00     0.009 A 
ATOM     22  C   UNL d   1       4.251  -5.373   2.553  0.00  0.00     0.001 A 
ATOM     23  C   UNL d   1       3.242  -5.721   3.448  0.00  0.00     0.000 A 
ATOM     24  C   UNL d   1       2.017  -5.061   3.403  0.00  0.00     0.001 A 
ATOM     25  C   UNL d   1       1.802  -4.050   2.463  0.00  0.00     0.009 A 
ENDBRANCH  19  20
ENDBRANCH  17  19
ENDBRANCH   3  17
TORSDOF 4
