REMARK  7 active torsions:
REMARK  status: ('A' for Active; 'I' for Inactive)
REMARK    1  A    between atoms: N_2  and  S_1 
REMARK    2  A    between atoms: C_4  and  S_1 
REMARK    3  A    between atoms: C_5  and  N_2 
REMARK    4  A    between atoms: C_6  and  C_3 
REMARK    5  A    between atoms: O_12  and  C_11 
REMARK    6  A    between atoms: C_22  and  O_12 
REMARK    7  A    between atoms: C_16  and  C_22 
ROOT
ATOM      1  C   UNL d   1       0.915  -2.506  -1.252  0.00  0.00     0.128 A 
ATOM      2  N   UNL d   1      -0.186  -2.966  -1.881  0.00  0.00    -0.354 N 
ATOM      3  HN  UNL d   1      -1.113  -2.906  -1.460  1.00  0.00     0.166 HD
ATOM      4  C   UNL d   1       2.215  -2.564  -1.761  0.00  0.00     0.108 A 
ATOM      5  C   UNL d   1       0.011  -3.509  -3.100  0.00  0.00     0.089 A 
ATOM      6  C   UNL d   1       2.377  -3.146  -3.015  0.00  0.00     0.041 A 
ATOM      7  C   UNL d   1       1.256  -3.614  -3.704  0.00  0.00     0.020 A 
ENDROOT
BRANCH   1   8
ATOM      8  N   UNL d   1       0.608  -1.825  -0.054  0.00  0.00    -0.164 NA
ATOM      9  H   UNL d   1      -0.140  -2.277   0.474  0.00  0.00     0.147 HD
BRANCH   8  10
ATOM     10  S   UNL d   1       0.297  -0.179  -0.234  0.00  0.00     0.247 S 
ATOM     11  O   UNL d   1       1.415   0.431  -0.933  0.00  0.00    -0.205 OA
ATOM     12  O   UNL d   1      -0.152   0.356   1.029  0.00  0.00    -0.205 OA
BRANCH  10  13
ATOM     13  C   UNL d   1      -1.117  -0.109  -1.334  0.00  0.00     0.089 A 
ATOM     14  C   UNL d   1      -2.363  -0.671  -0.998  0.00  0.00     0.070 A 
ATOM     15  C   UNL d   1      -3.409  -0.560  -1.941  0.00  0.00     0.018 A 
ATOM     16  C   UNL d   1      -3.223   0.074  -3.169  0.00  0.00     0.001 A 
ATOM     17  C   UNL d   1      -1.987   0.626  -3.483  0.00  0.00     0.002 A 
ATOM     18  C   UNL d   1      -0.938   0.541  -2.569  0.00  0.00     0.026 A 
BRANCH  14  19
ATOM     19  C   UNL d   1      -2.686  -1.415   0.275  0.00  0.00     0.418 C 
ATOM     20  F   UNL d   1      -1.644  -1.687   1.101  0.00  0.00    -0.166 F 
ATOM     21  F   UNL d   1      -3.615  -0.768   1.031  0.00  0.00    -0.166 F 
ATOM     22  F   UNL d   1      -3.227  -2.641   0.009  0.00  0.00    -0.166 F 
ENDBRANCH  14  19
ENDBRANCH  10  13
ENDBRANCH   8  10
ENDBRANCH   1   8
BRANCH   4  23
ATOM     23  O   UNL d   1       3.226  -2.109  -0.964  0.00  0.00    -0.343 OA
BRANCH  23  24
ATOM     24  C   UNL d   1       4.425  -1.695  -1.610  0.00  0.00     0.214 C 
BRANCH  24  25
ATOM     25  C   UNL d   1       5.134  -0.737  -0.688  0.00  0.00    -0.028 A 
ATOM     26  C   UNL d   1       6.078  -1.185   0.247  0.00  0.00     0.051 A 
ATOM     27  C   UNL d   1       6.691  -0.275   1.110  0.00  0.00     0.119 A 
ATOM     28  F   UNL d   1       7.598  -0.717   1.992  0.00  0.00    -0.206 F 
ATOM     29  C   UNL d   1       6.382   1.077   1.071  0.00  0.00     0.084 A 
ATOM     30  C   UNL d   1       5.439   1.517   0.155  0.00  0.00     0.119 A 
ATOM     31  C   UNL d   1       4.812   0.629  -0.716  0.00  0.00     0.051 A 
ATOM     32  F   UNL d   1       5.128   2.819   0.104  0.00  0.00    -0.206 F 
ENDBRANCH  24  25
ENDBRANCH  23  24
ENDBRANCH   4  23
TORSDOF 7
