REMARK  9 active torsions:
REMARK  status: ('A' for Active; 'I' for Inactive)
REMARK    1  A    between atoms: N_3  and  C_1 
REMARK    2  A    between atoms: N_4  and  C_1 
REMARK       I    between atoms: C_2  and  N_5 
REMARK    3  A    between atoms: C_14  and  C_2 
REMARK    4  A    between atoms: N_5  and  N_3 
REMARK    5  A    between atoms: C_11  and  N_4 
REMARK    6  A    between atoms: C_9  and  C_19 
REMARK    7  A    between atoms: S_10  and  C_14 
REMARK    8  A    between atoms: C_19  and  S_10 
REMARK    9  A    between atoms: O_20  and  C_13 
ROOT
ATOM      1  C   UNL d   1       0.219   3.767   0.258  0.00  0.00     0.245 C 
ATOM      2  N   UNL d   1       0.698   2.487   0.490  0.00  0.00    -0.267 N 
ATOM      3  O   UNL d   1      -0.816   3.997  -0.367  0.00  0.00    -0.271 OA
ATOM      4  H   UNL d   1       1.611   2.302   0.884  0.00  0.00     0.190 HD
ENDROOT
BRANCH   2   5
ATOM      5  N   UNL d   1       0.007   1.395  -0.036  0.00  0.00    -0.274 N 
ATOM      6  H   UNL d   1       0.207   1.163  -1.002  0.00  0.00     0.189 HD
BRANCH   5   7
ATOM      7  C   UNL d   1      -1.053   0.802   0.606  0.00  0.00     0.191 C 
ATOM      8  S   UNL d   1      -1.428   0.975   2.227  0.00  0.00    -0.039 SA
BRANCH   7   9
ATOM      9  N   UNL d   1      -1.782  -0.106  -0.112  0.00  0.00    -0.332 N 
ATOM     10  H   UNL d   1      -2.335  -0.727   0.471  0.00  0.00     0.168 HD
BRANCH   9  11
ATOM     11  C   UNL d   1      -1.902  -0.283  -1.502  0.00  0.00     0.034 A 
ATOM     12  C   UNL d   1      -2.314  -1.536  -1.958  0.00  0.00     0.032 A 
ATOM     13  C   UNL d   1      -2.403  -1.798  -3.329  0.00  0.00     0.039 A 
ATOM     14  C   UNL d   1      -2.104  -0.799  -4.254  0.00  0.00     0.068 A 
ATOM     15  C   UNL d   1      -1.761   0.473  -3.796  0.00  0.00     0.039 A 
ATOM     16  C   UNL d   1      -1.673   0.736  -2.427  0.00  0.00     0.032 A 
BRANCH  14  17
ATOM     17  O   UNL d   1      -2.127  -0.929  -5.614  0.00  0.00    -0.356 OA
ATOM     18  C   UNL d   1      -2.333  -2.240  -6.126  0.00  0.00     0.210 C 
ENDBRANCH  14  17
ENDBRANCH   9  11
ENDBRANCH   7   9
ENDBRANCH   5   7
ENDBRANCH   2   5
BRANCH   1  19
ATOM     19  C   UNL d   1       1.127   4.877   0.756  0.00  0.00     0.178 C 
BRANCH  19  20
ATOM     20  S   UNL d   1       1.033   5.123   2.555  0.00  0.00    -0.155 SA
BRANCH  20  21
ATOM     21  C   UNL d   1       2.201   3.849   3.113  0.00  0.00     0.113 C 
BRANCH  21  22
ATOM     22  C   UNL d   1       2.503   3.932   4.593  0.00  0.00    -0.038 A 
ATOM     23  C   UNL d   1       1.667   3.331   5.578  0.00  0.00    -0.019 A 
ATOM     24  C   UNL d   1       2.058   3.389   6.937  0.00  0.00    -0.025 A 
ATOM     25  C   UNL d   1       0.457   2.668   5.280  0.00  0.00     0.013 A 
ATOM     26  C   UNL d   1       1.264   2.779   7.925  0.00  0.00     0.012 A 
ATOM     27  C   UNL d   1       3.239   4.055   7.295  0.00  0.00     0.012 A 
ATOM     28  C   UNL d   1       0.083   2.115   7.591  0.00  0.00     0.001 A 
ATOM     29  C   UNL d   1      -0.324   2.065   6.268  0.00  0.00     0.001 A 
ATOM     30  C   UNL d   1       4.036   4.665   6.331  0.00  0.00     0.001 A 
ATOM     31  C   UNL d   1       3.672   4.605   4.991  0.00  0.00     0.009 A 
ENDBRANCH  21  22
ENDBRANCH  20  21
ENDBRANCH  19  20
ENDBRANCH   1  19
TORSDOF 9
