REMARK  9 active torsions:
REMARK  status: ('A' for Active; 'I' for Inactive)
REMARK    1  A    between atoms: C_9  and  N_1 
REMARK    2  A    between atoms: C_8  and  N_2 
REMARK    3  A    between atoms: C_7  and  C_3 
REMARK    4  A    between atoms: C_17  and  C_3 
REMARK    5  A    between atoms: C_6  and  O_13 
REMARK       I    between atoms: N_12  and  C_6 
REMARK    6  A    between atoms: O_13  and  C_7 
REMARK    7  A    between atoms: C_15  and  N_12 
REMARK    8  A    between atoms: C_27  and  C_17 
REMARK    9  A    between atoms: C_28  and  C_27 
ROOT
ATOM      1  N   UNL d   1       0.655   1.245  -0.180  0.00  0.00    -0.213 N 
ATOM      2  N   UNL d   1      -0.640   1.293   0.381  0.00  0.00    -0.213 N 
ATOM      3  C   UNL d   1      -0.131  -0.958  -0.092  0.00  0.00     0.147 C 
ATOM      4  C   UNL d   1       1.098  -0.083  -0.222  0.00  0.00     0.264 C 
ATOM      5  C   UNL d   1      -1.222   0.015   0.308  0.00  0.00     0.264 C 
ATOM      6  O   UNL d   1      -2.395  -0.279   0.490  0.00  0.00    -0.270 OA
ATOM      7  O   UNL d   1       2.235  -0.503  -0.393  0.00  0.00    -0.270 OA
ENDROOT
BRANCH   3   8
ATOM      8  C   UNL d   1       0.072  -2.061   0.947  0.00  0.00     0.210 C 
BRANCH   8   9
ATOM      9  O   UNL d   1       0.134  -1.581   2.309  0.00  0.00    -0.302 OA
BRANCH   9  10
ATOM     10  C   UNL d   1      -0.817  -2.075   3.152  0.00  0.00     0.365 C 
ATOM     11  N   UNL d   1      -0.612  -1.881   4.492  0.00  0.00    -0.303 N 
ATOM     12  H   UNL d   1      -1.374  -2.287   5.019  0.00  0.00     0.171 HD
ATOM     13  O   UNL d   1      -1.804  -2.702   2.790  0.00  0.00    -0.238 OA
BRANCH  11  14
ATOM     14  C   UNL d   1       0.473  -1.383   5.235  0.00  0.00     0.038 A 
ATOM     15  C   UNL d   1       1.631  -0.830   4.697  0.00  0.00     0.053 A 
ATOM     16  C   UNL d   1       2.667  -0.415   5.538  0.00  0.00     0.036 A 
ATOM     17 CL   UNL d   1       4.098   0.265   4.859  0.00  0.00    -0.084 Cl
ATOM     18  C   UNL d   1       2.564  -0.545   6.922  0.00  0.00     0.024 A 
ATOM     19  C   UNL d   1       1.408  -1.084   7.472  0.00  0.00     0.004 A 
ATOM     20  C   UNL d   1       0.369  -1.496   6.634  0.00  0.00     0.029 A 
ENDBRANCH  11  14
ENDBRANCH   9  10
ENDBRANCH   8   9
ENDBRANCH   3   8
BRANCH   3  21
ATOM     21  C   UNL d   1      -0.336  -1.512  -1.527  0.00  0.00     0.031 C 
BRANCH  21  22
ATOM     22  C   UNL d   1      -1.503  -2.479  -1.734  0.00  0.00     0.001 C 
BRANCH  22  23
ATOM     23  C   UNL d   1      -1.533  -2.982  -3.181  0.00  0.00    -0.005 C 
ATOM     24  C   UNL d   1      -2.687  -3.941  -3.410  0.00  0.00     0.005 C 
ENDBRANCH  22  23
ENDBRANCH  21  22
ENDBRANCH   3  21
BRANCH   1  25
ATOM     25  C   UNL d   1       1.568   2.330  -0.220  0.00  0.00     0.060 A 
ATOM     26  C   UNL d   1       2.544   2.373  -1.227  0.00  0.00     0.031 A 
ATOM     27  C   UNL d   1       3.444   3.441  -1.304  0.00  0.00     0.002 A 
ATOM     28  C   UNL d   1       3.390   4.466  -0.364  0.00  0.00     0.000 A 
ATOM     29  C   UNL d   1       2.434   4.428   0.647  0.00  0.00     0.002 A 
ATOM     30  C   UNL d   1       1.524   3.370   0.714  0.00  0.00     0.031 A 
ENDBRANCH   1  25
BRANCH   2  31
ATOM     31  C   UNL d   1      -1.472   2.431   0.265  0.00  0.00     0.060 A 
ATOM     32  C   UNL d   1      -1.879   3.054   1.450  0.00  0.00     0.031 A 
ATOM     33  C   UNL d   1      -2.584   4.255   1.408  0.00  0.00     0.002 A 
ATOM     34  C   UNL d   1      -2.931   4.813   0.180  0.00  0.00     0.000 A 
ATOM     35  C   UNL d   1      -2.569   4.170  -1.007  0.00  0.00     0.002 A 
ATOM     36  C   UNL d   1      -1.826   2.987  -0.969  0.00  0.00     0.031 A 
ENDBRANCH   2  31
TORSDOF 9
