REMARK  3 active torsions:
REMARK  status: ('A' for Active; 'I' for Inactive)
REMARK    1  A    between atoms: C_13  and  C_5 
REMARK    2  A    between atoms: N_11  and  C_6 
REMARK    3  A    between atoms: C_14  and  N_11 
ROOT
ATOM      1  C   UNL d   1       0.219   0.925  -0.001  0.00  0.00     0.043 A 
ATOM      2  C   UNL d   1      -0.076  -0.426  -0.046  0.00  0.00     0.089 A 
ATOM      3  C   UNL d   1      -0.987   1.704  -0.008  0.00  0.00     0.038 A 
ATOM      4  S   UNL d   1      -1.746  -0.736  -0.058  0.00  0.00    -0.071 SA
ATOM      5  C   UNL d   1      -2.140   0.936  -0.039  0.00  0.00     0.018 A 
ATOM      6  C   UNL d   1       1.586   1.264   0.009  0.00  0.00     0.119 A 
ATOM      7  N   UNL d   1       0.802  -1.439  -0.071  0.00  0.00    -0.346 N 
ATOM      8  HN  UNL d   1       0.534  -2.423  -0.089  1.00  0.00     0.167 HD
ATOM      9  N   UNL d   1       2.494   0.257  -0.049  0.00  0.00    -0.338 N 
ATOM     10  HN  UNL d   1       3.493   0.465  -0.077  1.00  0.00     0.168 HD
ATOM     11  C   UNL d   1       2.066  -1.011  -0.070  0.00  0.00     0.182 A 
ENDROOT
BRANCH   6  12
ATOM     12  N   UNL d   1       2.022   2.588   0.124  0.00  0.00    -0.342 N 
ATOM     13  H   UNL d   1       1.349   3.242   0.492  0.00  0.00     0.167 HD
BRANCH  12  14
ATOM     14  C   UNL d   1       3.187   3.170  -0.399  0.00  0.00     0.033 A 
ATOM     15  C   UNL d   1       3.818   2.669  -1.545  0.00  0.00     0.029 A 
ATOM     16  C   UNL d   1       4.991   3.248  -2.032  0.00  0.00     0.002 A 
ATOM     17  C   UNL d   1       5.569   4.319  -1.357  0.00  0.00     0.000 A 
ATOM     18  C   UNL d   1       4.969   4.814  -0.201  0.00  0.00     0.002 A 
ATOM     19  C   UNL d   1       3.781   4.247   0.270  0.00  0.00     0.029 A 
ENDBRANCH  12  14
ENDBRANCH   6  12
BRANCH   5  20
ATOM     20  C   UNL d   1      -3.544   1.380  -0.011  0.00  0.00    -0.019 A 
ATOM     21  C   UNL d   1      -4.567   0.664  -0.653  0.00  0.00     0.013 A 
ATOM     22  C   UNL d   1      -5.898   1.083  -0.570  0.00  0.00     0.001 A 
ATOM     23  C   UNL d   1      -6.226   2.232   0.146  0.00  0.00     0.000 A 
ATOM     24  C   UNL d   1      -5.222   2.970   0.767  0.00  0.00     0.001 A 
ATOM     25  C   UNL d   1      -3.893   2.549   0.686  0.00  0.00     0.013 A 
ENDBRANCH   5  20
TORSDOF 3
