REMARK  7 active torsions:
REMARK  status: ('A' for Active; 'I' for Inactive)
REMARK    1  A    between atoms: C_2  and  C_1 
REMARK       I    between atoms: N_5  and  C_2 
REMARK    2  A    between atoms: C_8  and  N_5 
REMARK    3  A    between atoms: C_17  and  N_5 
REMARK    4  A    between atoms: C_10  and  C_8 
REMARK    5  A    between atoms: C_11  and  C_8 
REMARK    6  A    between atoms: C_16  and  C_11 
REMARK    7  A    between atoms: O_22  and  C_15 
ROOT
ATOM      1  C   UNL d   1       6.205  -1.246  -0.109  0.00  0.00     0.124 C 
ENDROOT
BRANCH   1   2
ATOM      2  N   UNL d   1       4.729  -1.378   0.026  0.00  0.00    -0.339 N 
ATOM      3  C   UNL d   1       4.077  -2.577   0.398  0.00  0.00     0.263 C 
ATOM      4  O   UNL d   1       2.897  -2.746   0.069  0.00  0.00    -0.267 OA
BRANCH   3   5
ATOM      5  C   UNL d   1       4.727  -3.566   1.247  0.00  0.00     0.096 A 
ATOM      6  S   UNL d   1       4.030  -3.781   2.805  0.00  0.00    -0.082 SA
ATOM      7  C   UNL d   1       4.940  -5.202   3.124  0.00  0.00     0.017 A 
ATOM      8  C   UNL d   1       4.816  -6.062   4.234  0.00  0.00     0.020 A 
ATOM      9  C   UNL d   1       5.868  -5.446   2.112  0.00  0.00     0.004 A 
ATOM     10  C   UNL d   1       5.667  -7.165   4.341  0.00  0.00     0.001 A 
ATOM     11  C   UNL d   1       6.642  -7.395   3.382  0.00  0.00     0.001 A 
ATOM     12  C   UNL d   1       6.746  -6.552   2.274  0.00  0.00     0.014 A 
ATOM     13  C   UNL d   1       5.683  -4.532   1.007  0.00  0.00     0.068 A 
ATOM     14 CL   UNL d   1       6.526  -4.811  -0.459  0.00  0.00    -0.082 Cl
ENDBRANCH   3   5
BRANCH   2  15
ATOM     15  C   UNL d   1       3.877  -0.358  -0.615  0.00  0.00     0.122 C 
ATOM     16  C   UNL d   1       2.942   0.329   0.373  0.00  0.00     0.026 C 
ENDBRANCH   2  15
ENDBRANCH   1   2
BRANCH   1  17
ATOM     17  C   UNL d   1       6.714  -1.737  -1.482  0.00  0.00    -0.035 A 
ATOM     18  C   UNL d   1       5.856  -2.231  -2.481  0.00  0.00     0.012 A 
ATOM     19  C   UNL d   1       6.357  -2.846  -3.632  0.00  0.00     0.037 A 
ATOM     20  C   UNL d   1       7.728  -2.978  -3.830  0.00  0.00     0.068 A 
ATOM     21  C   UNL d   1       8.599  -2.443  -2.885  0.00  0.00     0.037 A 
ATOM     22  C   UNL d   1       8.098  -1.837  -1.722  0.00  0.00     0.012 A 
BRANCH  20  23
ATOM     23  O   UNL d   1       8.078  -3.659  -4.962  0.00  0.00    -0.356 OA
ATOM     24  C   UNL d   1       9.452  -3.989  -5.114  0.00  0.00     0.210 C 
ENDBRANCH  20  23
ENDBRANCH   1  17
BRANCH   1  25
ATOM     25  C   UNL d   1       6.764   0.175   0.219  0.00  0.00     0.068 C 
BRANCH  25  26
ATOM     26  C   UNL d   1       6.464   0.703   1.605  0.00  0.00    -0.056 A 
ATOM     27  C   UNL d   1       6.826  -0.018   2.751  0.00  0.00     0.007 A 
ATOM     28  C   UNL d   1       6.566   0.493   4.023  0.00  0.00     0.001 A 
ATOM     29  C   UNL d   1       5.950   1.734   4.166  0.00  0.00     0.000 A 
ATOM     30  C   UNL d   1       5.607   2.473   3.037  0.00  0.00     0.001 A 
ATOM     31  C   UNL d   1       5.873   1.966   1.764  0.00  0.00     0.007 A 
ENDBRANCH  25  26
ENDBRANCH   1  25
TORSDOF 7
