REMARK  4 active torsions:
REMARK  status: ('A' for Active; 'I' for Inactive)
REMARK    1  A    between atoms: C_6  and  C_1 
REMARK    2  A    between atoms: C_11  and  C_4 
REMARK    3  A    between atoms: O_7  and  C_6 
REMARK    4  A    between atoms: C_9  and  O_7 
ROOT
ATOM      1  C   UNL d   1       0.899   0.179   0.048  0.00  0.00     0.115 A 
ATOM      2  N   UNL d   1       0.507  -1.143   0.054  0.00  0.00    -0.354 N 
ATOM      3  C   UNL d   1      -0.280   0.921   0.037  0.00  0.00    -0.021 A 
ATOM      4  C   UNL d   1      -1.400  -0.025   0.039  0.00  0.00    -0.028 A 
ATOM      5  C   UNL d   1      -0.847  -1.293   0.039  0.00  0.00     0.012 A 
ATOM      6  C   UNL d   1      -0.459   2.401  -0.000  0.00  0.00     0.051 C 
ATOM      7  C   UNL d   1      -1.411  -2.669   0.023  0.00  0.00     0.068 C 
ATOM      8  H   UNL d   1       1.180  -1.900   0.049  0.00  0.00     0.166 HD
ENDROOT
BRANCH   1   9
ATOM      9  C   UNL d   1       2.331   0.395   0.030  0.00  0.00     0.311 C 
ATOM     10  O   UNL d   1       3.103  -0.558  -0.074  0.00  0.00    -0.258 OA
BRANCH   9  11
ATOM     11  O   UNL d   1       2.731   1.693   0.139  0.00  0.00    -0.306 OA
BRANCH  11  12
ATOM     12  C   UNL d   1       4.167   1.957   0.057  0.00  0.00     0.060 C 
ATOM     13  C   UNL d   1       4.715   1.572  -1.330  0.00  0.00     0.046 C 
ATOM     14  C   UNL d   1       4.346   3.474   0.233  0.00  0.00     0.046 C 
ATOM     15  C   UNL d   1       4.969   1.269   1.177  0.00  0.00     0.046 C 
ENDBRANCH  11  12
ENDBRANCH   9  11
ENDBRANCH   1   9
BRANCH   4  16
ATOM     16  C   UNL d   1      -2.856   0.381   0.024  0.00  0.00     0.036 C 
ATOM     17  C   UNL d   1      -3.886  -0.737   0.050  0.00  0.00     0.010 C 
ENDBRANCH   4  16
TORSDOF 4
