REMARK  3 active torsions:
REMARK  status: ('A' for Active; 'I' for Inactive)
REMARK    1  A    between atoms: N_2  and  C_1 
REMARK    2  A    between atoms: N_5  and  C_1 
REMARK    3  A    between atoms: C_3  and  N_2 
ROOT
ATOM      1  C   UNL d   1       0.900  -1.581  -2.082  0.00  0.00     0.040 A 
ATOM      2  C   UNL d   1       1.908  -2.540  -1.885  0.00  0.00    -0.035 A 
ATOM      3  C   UNL d   1       0.527  -1.226  -3.389  0.00  0.00     0.037 A 
ATOM      4  C   UNL d   1       2.525  -3.119  -3.008  0.00  0.00     0.009 A 
ATOM      5  C   UNL d   1       1.146  -1.808  -4.504  0.00  0.00    -0.060 A 
ATOM      6  C   UNL d   1       2.151  -2.755  -4.302  0.00  0.00     0.007 A 
ATOM      7  C   UNL d   1       2.344  -3.026  -0.530  0.00  0.00     0.050 C 
ATOM      8  C   UNL d   1       0.786  -1.382  -5.896  0.00  0.00     0.048 C 
ENDROOT
BRANCH   1   9
ATOM      9  N   UNL d   1       0.336  -0.924  -0.961  0.00  0.00    -0.333 N 
ATOM     10  H   UNL d   1       0.996  -0.720  -0.220  0.00  0.00     0.168 HD
BRANCH   9  11
ATOM     11  C   UNL d   1      -0.796  -0.151  -0.912  0.00  0.00     0.173 C 
ATOM     12  S   UNL d   1      -0.723   1.235   0.033  0.00  0.00    -0.041 SA
BRANCH  11  13
ATOM     13  N   UNL d   1      -1.932  -0.616  -1.563  0.00  0.00    -0.367 N 
ATOM     14  C   UNL d   1      -2.197  -2.048  -1.692  0.00  0.00     0.151 C 
ATOM     15  C   UNL d   1      -3.073   0.241  -1.868  0.00  0.00     0.151 C 
ENDBRANCH  11  13
ENDBRANCH   9  11
ENDBRANCH   1   9
TORSDOF 3
