REMARK  5 active torsions:
REMARK  status: ('A' for Active; 'I' for Inactive)
REMARK    1  A    between atoms: C_6  and  C_1 
REMARK       I    between atoms: N_7  and  C_1 
REMARK    2  A    between atoms: C_17  and  N_7 
REMARK    3  A    between atoms: C_18  and  N_7 
REMARK    4  A    between atoms: C_11  and  C_17 
REMARK    5  A    between atoms: C_12  and  C_18 
ROOT
ATOM      1  N   UNL d   1       0.857  -0.496  -4.343  0.00  0.00    -0.197 NA
ATOM      2  C   UNL d   1       1.431   0.177  -3.594  0.00  0.00     0.060 C 
ATOM      3  C   UNL d   1       2.141   1.040  -2.644  0.00  0.00     0.143 C 
ENDROOT
BRANCH   3   4
ATOM      4  C   UNL d   1       1.163   1.737  -1.687  0.00  0.00     0.140 C 
BRANCH   4   5
ATOM      5  N   UNL d   1       0.314   0.835  -0.884  0.00  0.00    -0.346 N 
ATOM      6  C   UNL d   1       0.982  -0.023   0.006  0.00  0.00     0.253 C 
ATOM      7  O   UNL d   1       2.207   0.032   0.133  0.00  0.00    -0.267 OA
BRANCH   6   8
ATOM      8  C   UNL d   1       0.268  -0.994   0.884  0.00  0.00     0.032 A 
ATOM      9  C   UNL d   1      -0.862  -1.721   0.495  0.00  0.00     0.018 A 
ATOM     10  C   UNL d   1      -1.512  -2.557   1.411  0.00  0.00     0.025 A 
ATOM     11  C   UNL d   1      -0.992  -2.728   2.692  0.00  0.00     0.034 A 
ATOM     12  C   UNL d   1       0.181  -2.078   3.064  0.00  0.00     0.025 A 
ATOM     13 CL   UNL d   1      -1.791  -3.759   3.812  0.00  0.00    -0.084 Cl
ATOM     14  C   UNL d   1       0.805  -1.211   2.164  0.00  0.00     0.018 A 
ENDBRANCH   6   8
BRANCH   5  15
ATOM     15  C   UNL d   1      -1.147   1.047  -0.969  0.00  0.00     0.140 C 
BRANCH  15  16
ATOM     16  C   UNL d   1      -1.793   1.591   0.307  0.00  0.00     0.143 C 
ATOM     17  C   UNL d   1      -3.253   1.667   0.141  0.00  0.00     0.060 C 
ATOM     18  N   UNL d   1      -4.401   1.710  -0.003  0.00  0.00    -0.197 NA
ENDBRANCH  15  16
ENDBRANCH   5  15
ENDBRANCH   4   5
ENDBRANCH   3   4
TORSDOF 5
