REMARK  3 active torsions:
REMARK  status: ('A' for Active; 'I' for Inactive)
REMARK    1  A    between atoms: N_8  and  N_1 
REMARK    2  A    between atoms: C_7  and  N_8 
REMARK    3  A    between atoms: C_11  and  N_10 
ROOT
ATOM      1  N   UNL d   1      -0.112   2.752  -0.434  0.00  0.00    -0.222 N 
ATOM      2  C   UNL d   1       0.626   4.877  -1.413  0.00  0.00     0.120 C 
ATOM      3  C   UNL d   1      -0.305   3.709  -1.448  0.00  0.00     0.288 C 
ATOM      4  C   UNL d   1       1.670   4.873  -0.557  0.00  0.00    -0.034 C 
ATOM      5  C   UNL d   1       1.027   2.703   0.356  0.00  0.00     0.034 C 
ATOM      6  C   UNL d   1       1.905   3.720   0.294  0.00  0.00     0.035 C 
ATOM      7  C   UNL d   1       0.333   5.974  -2.267  0.00  0.00     0.105 C 
ATOM      8  N   UNL d   1       0.148   6.903  -2.941  0.00  0.00    -0.191 NA
ATOM      9  O   UNL d   1      -1.178   3.631  -2.313  0.00  0.00    -0.265 OA
ATOM     10  C   UNL d   1       2.657   6.001  -0.406  0.00  0.00     0.050 C 
ATOM     11  C   UNL d   1       1.307   1.501   1.214  0.00  0.00     0.070 C 
ENDROOT
BRANCH   1  12
ATOM     12  N   UNL d   1      -1.126   1.786  -0.278  0.00  0.00    -0.267 N 
ATOM     13  H   UNL d   1      -0.817   0.835  -0.211  0.00  0.00     0.190 HD
BRANCH  12  14
ATOM     14  C   UNL d   1      -2.370   2.101   0.194  0.00  0.00     0.187 C 
ATOM     15  N   UNL d   1      -3.329   1.142   0.136  0.00  0.00    -0.361 N 
ATOM     16  H   UNL d   1      -4.222   1.529   0.430  0.00  0.00     0.162 HD
ATOM     17  S   UNL d   1      -2.848   3.580   0.827  0.00  0.00    -0.040 SA
BRANCH  15  18
ATOM     18  C   UNL d   1      -3.436  -0.198  -0.432  0.00  0.00     0.092 C 
ATOM     19  C   UNL d   1      -2.478  -1.304   0.088  0.00  0.00     0.031 C 
ATOM     20  C   UNL d   1      -3.231  -2.606  -0.140  0.00  0.00    -0.024 C 
ATOM     21  C   UNL d   1      -1.459  -1.484  -1.048  0.00  0.00     0.019 C 
ATOM     22  C   UNL d   1      -3.291  -2.796  -1.470  0.00  0.00    -0.026 C 
ATOM     23  C   UNL d   1      -2.528  -1.665  -2.125  0.00  0.00     0.010 C 
ATOM     24  C   UNL d   1      -3.306  -0.332  -1.974  0.00  0.00     0.034 C 
ENDBRANCH  15  18
ENDBRANCH  12  14
ENDBRANCH   1  12
TORSDOF 3
