REMARK  5 active torsions:
REMARK  status: ('A' for Active; 'I' for Inactive)
REMARK    1  A    between atoms: C_8  and  N_1 
REMARK    2  A    between atoms: C_7  and  C_2 
REMARK    3  A    between atoms: N_12  and  C_9 
REMARK    4  A    between atoms: C_13  and  N_12 
REMARK    5  A    between atoms: O_23  and  C_15 
ROOT
ATOM      1  N   UNL d   1       4.957  -1.043  -0.027  0.00  0.00    -0.225 N 
ATOM      2  C   UNL d   1       3.652  -0.597  -0.252  0.00  0.00     0.139 C 
ATOM      3  N   UNL d   1       4.927   1.084   0.185  0.00  0.00    -0.007 NA
ATOM      4  N   UNL d   1       5.694   0.021   0.372  0.00  0.00     0.001 NA
ATOM      5  N   UNL d   1       3.667   0.723  -0.214  0.00  0.00    -0.270 N 
ATOM      6  HN  UNL d   1       2.894   1.350  -0.439  1.00  0.00     0.185 HD
ENDROOT
BRANCH   2   7
ATOM      7  C   UNL d   1       2.567  -1.504  -0.326  0.00  0.00     0.068 C 
ATOM      8  C   UNL d   1       1.392  -1.236  -0.909  0.00  0.00     0.092 C 
BRANCH   8   9
ATOM      9  N   UNL d   1       0.947  -0.114  -1.557  0.00  0.00    -0.366 N 
ATOM     10  H   UNL d   1       1.577   0.688  -1.528  0.00  0.00     0.165 HD
BRANCH   9  11
ATOM     11  C   UNL d   1      -0.311   0.104  -2.150  0.00  0.00     0.031 A 
ATOM     12  C   UNL d   1      -1.359  -0.830  -2.106  0.00  0.00     0.031 A 
ATOM     13  C   UNL d   1      -2.577  -0.595  -2.755  0.00  0.00     0.021 A 
ATOM     14  C   UNL d   1      -2.761   0.583  -3.470  0.00  0.00     0.011 A 
ATOM     15  C   UNL d   1      -1.739   1.524  -3.537  0.00  0.00     0.021 A 
ATOM     16 BR   UNL d   1      -4.401   0.894  -4.355  0.00  0.00    -0.051 Br
ATOM     17  C   UNL d   1      -0.524   1.281  -2.883  0.00  0.00     0.031 A 
ENDBRANCH   9  11
ENDBRANCH   8   9
ENDBRANCH   2   7
BRANCH   1  18
ATOM     18  C   UNL d   1       5.532  -2.334  -0.159  0.00  0.00     0.056 A 
ATOM     19  C   UNL d   1       5.012  -3.267  -1.069  0.00  0.00     0.034 A 
ATOM     20  C   UNL d   1       5.540  -4.560  -1.135  0.00  0.00     0.039 A 
ATOM     21  C   UNL d   1       6.583  -4.933  -0.289  0.00  0.00     0.068 A 
ATOM     22  C   UNL d   1       7.153  -3.982   0.559  0.00  0.00     0.039 A 
ATOM     23  C   UNL d   1       6.641  -2.682   0.622  0.00  0.00     0.034 A 
BRANCH  21  24
ATOM     24  O   UNL d   1       7.134  -6.183  -0.231  0.00  0.00    -0.356 OA
ATOM     25  C   UNL d   1       6.267  -7.252  -0.600  0.00  0.00     0.210 C 
ENDBRANCH  21  24
ENDBRANCH   1  18
TORSDOF 5
