REMARK  5 active torsions:
REMARK  status: ('A' for Active; 'I' for Inactive)
REMARK    1  A    between atoms: C_4  and  C_1 
REMARK    2  A    between atoms: S_5  and  C_13 
REMARK    3  A    between atoms: C_18  and  S_5 
REMARK    4  A    between atoms: C_13  and  C_6 
REMARK    5  A    between atoms: C_19  and  C_18 
ROOT
ATOM      1  C   UNL d   1       0.051  -0.869   0.777  0.00  0.00     0.186 C 
ATOM      2  N   UNL d   1       0.190   0.363   1.229  0.00  0.00    -0.322 N 
ATOM      3  HN  UNL d   1       0.193   0.690   2.195  1.00  0.00     0.169 HD
ATOM      4  C   UNL d   1       0.327   1.094   0.077  0.00  0.00     0.118 C 
ATOM      5  N   UNL d   1       0.108   0.403  -1.048  0.00  0.00    -0.246 N 
ATOM      6  HN  UNL d   1       0.062   0.750  -2.007  1.00  0.00     0.196 HD
ATOM      7  O   UNL d   1      -0.040  -0.908  -0.591  0.00  0.00    -0.217 OA
ENDROOT
BRANCH   4   8
ATOM      8  C   UNL d   1       0.728   2.514   0.083  0.00  0.00     0.218 C 
BRANCH   8   9
ATOM      9  S   UNL d   1       2.516   2.615   0.030  0.00  0.00     0.155 S 
ATOM     10  O   UNL d   1       3.043   1.938   1.202  0.00  0.00    -0.227 OA
ATOM     11  O   UNL d   1       2.942   2.241  -1.305  0.00  0.00    -0.227 OA
BRANCH   9  12
ATOM     12  C   UNL d   1       2.831   4.366   0.237  0.00  0.00     0.179 C 
BRANCH  12  13
ATOM     13  C   UNL d   1       4.321   4.612   0.171  0.00  0.00    -0.044 A 
ATOM     14  C   UNL d   1       4.949   4.851  -1.062  0.00  0.00     0.010 A 
ATOM     15  C   UNL d   1       6.329   5.060  -1.130  0.00  0.00     0.024 A 
ATOM     16  C   UNL d   1       7.094   5.030   0.032  0.00  0.00     0.034 A 
ATOM     17  C   UNL d   1       6.491   4.785   1.263  0.00  0.00     0.024 A 
ATOM     18 CL   UNL d   1       8.793   5.292  -0.053  0.00  0.00    -0.084 Cl
ATOM     19  C   UNL d   1       5.109   4.575   1.333  0.00  0.00     0.010 A 
ENDBRANCH  12  13
ENDBRANCH   9  12
ENDBRANCH   8   9
ENDBRANCH   4   8
BRANCH   1  20
ATOM     20  C   UNL d   1       0.040  -2.070   1.641  0.00  0.00     0.073 A 
ATOM     21  C   UNL d   1       0.067  -2.079   3.014  0.00  0.00     0.089 A 
ATOM     22  O   UNL d   1       0.066  -3.370   3.446  0.00  0.00    -0.242 OA
ATOM     23  C   UNL d   1       0.097  -1.039   4.059  0.00  0.00     0.080 C 
ATOM     24  N   UNL d   1       0.050  -4.223   2.357  0.00  0.00    -0.265 N 
ATOM     25  C   UNL d   1       0.044  -3.436   1.273  0.00  0.00     0.045 A 
ATOM     26  HN  UNL d   1       0.045  -5.243   2.376  1.00  0.00     0.194 HD
ATOM     27  C   UNL d   1       0.078  -4.043  -0.077  0.00  0.00     0.071 C 
ENDBRANCH   1  20
TORSDOF 5
