REMARK  4 active torsions:
REMARK  status: ('A' for Active; 'I' for Inactive)
REMARK    1  A    between atoms: C_9  and  C_1 
REMARK    2  A    between atoms: O_13  and  C_2 
REMARK    3  A    between atoms: C_7  and  O_11 
REMARK    4  A    between atoms: O_11  and  C_12 
ROOT
ATOM      1  C   UNL d   1      -1.808  -0.906   0.032  0.00  0.00     0.076 A 
ATOM      2  C   UNL d   1      -0.549  -1.387   0.009  0.00  0.00     0.094 A 
ATOM      3  C   UNL d   1      -2.031   0.579   0.057  0.00  0.00     0.259 A 
ATOM      4  C   UNL d   1       0.608  -0.473   0.015  0.00  0.00     0.028 A 
ATOM      5  N   UNL d   1      -0.930   1.385   0.041  0.00  0.00    -0.322 N 
ATOM      6  C   UNL d   1       0.380   0.906   0.018  0.00  0.00     0.048 A 
ATOM      7  C   UNL d   1       1.935  -0.924   0.016  0.00  0.00     0.053 A 
ATOM      8  O   UNL d   1      -3.158   1.073   0.086  0.00  0.00    -0.267 OA
ATOM      9  C   UNL d   1       3.010  -0.024   0.026  0.00  0.00     0.079 A 
ATOM     10  C   UNL d   1       1.438   1.813  -0.007  0.00  0.00     0.033 A 
ATOM     11  C   UNL d   1       2.755   1.346  -0.026  0.00  0.00     0.039 A 
ATOM     12  H   UNL d   1      -1.116   2.378   0.053  0.00  0.00     0.169 HD
ENDROOT
BRANCH   1  13
ATOM     13  C   UNL d   1      -2.987  -1.791   0.033  0.00  0.00    -0.018 A 
ATOM     14  C   UNL d   1      -3.515  -2.267   1.240  0.00  0.00     0.012 A 
ATOM     15  C   UNL d   1      -4.659  -3.068   1.239  0.00  0.00     0.001 A 
ATOM     16  C   UNL d   1      -5.276  -3.401   0.034  0.00  0.00     0.000 A 
ATOM     17  C   UNL d   1      -4.744  -2.947  -1.173  0.00  0.00     0.001 A 
ATOM     18  C   UNL d   1      -3.600  -2.146  -1.175  0.00  0.00     0.012 A 
ENDBRANCH   1  13
BRANCH   2  19
ATOM     19  O   UNL d   1      -0.232  -2.733  -0.032  0.00  0.00    -0.359 OA
ATOM     20  H   UNL d   1      -1.056  -3.252  -0.073  0.00  0.00     0.217 HD
ENDBRANCH   2  19
BRANCH   9  21
ATOM     21  O   UNL d   1       4.238  -0.609   0.034  0.00  0.00    -0.255 OA
BRANCH  21  22
ATOM     22  C   UNL d   1       5.344   0.068   0.615  0.00  0.00     0.530 C 
ATOM     23  F   UNL d   1       5.018   1.187   1.294  0.00  0.00    -0.144 F 
ATOM     24  F   UNL d   1       5.953  -0.774   1.481  0.00  0.00    -0.144 F 
ATOM     25  F   UNL d   1       6.230   0.388  -0.352  0.00  0.00    -0.144 F 
ENDBRANCH  21  22
ENDBRANCH   9  21
TORSDOF 4
