REMARK  5 active torsions:
REMARK  status: ('A' for Active; 'I' for Inactive)
REMARK    1  A    between atoms: C_4  and  C_1 
REMARK    2  A    between atoms: C_3  and  C_2 
REMARK    3  A    between atoms: O_14  and  C_4 
REMARK    4  A    between atoms: O_15  and  C_9 
REMARK    5  A    between atoms: O_16  and  C_11 
ROOT
ATOM      1  C   UNL d   1       1.014   0.351  -0.705  0.00  0.00     0.118 C 
ATOM      2  C   UNL d   1       0.482  -0.885  -0.766  0.00  0.00     0.042 C 
ATOM      3  C   UNL d   1       2.235   0.682  -1.344  0.00  0.00     0.106 C 
ATOM      4  N   UNL d   1       3.217   1.042  -1.833  0.00  0.00    -0.191 NA
ENDROOT
BRANCH   1   5
ATOM      5  C   UNL d   1       0.310   1.395   0.086  0.00  0.00     0.187 C 
ATOM      6  O   UNL d   1      -0.721   1.180   0.706  0.00  0.00    -0.645 OA
BRANCH   5   7
ATOM      7  O   UNL d   1       0.881   2.622   0.085  0.00  0.00    -0.772 OA
ATOM      8  H   UNL d   1       1.704   2.772  -0.423  0.00  0.00     0.167 HD
ENDBRANCH   5   7
ENDBRANCH   1   5
BRANCH   2   9
ATOM      9  C   UNL d   1       1.144  -2.004  -1.461  0.00  0.00    -0.014 A 
ATOM     10  C   UNL d   1       2.080  -2.826  -0.826  0.00  0.00     0.024 A 
ATOM     11  C   UNL d   1       2.851  -3.730  -1.565  0.00  0.00     0.059 A 
ATOM     12 BR   UNL d   1       2.336  -2.790   1.058  0.00  0.00    -0.050 Br
ATOM     13  C   UNL d   1       2.649  -3.899  -2.941  0.00  0.00     0.102 A 
ATOM     14  C   UNL d   1       1.633  -3.156  -3.569  0.00  0.00     0.102 A 
ATOM     15  C   UNL d   1       0.913  -2.197  -2.829  0.00  0.00     0.052 A 
BRANCH  13  16
ATOM     16  O   UNL d   1       3.394  -4.761  -3.698  0.00  0.00    -0.353 OA
ATOM     17  C   UNL d   1       4.435  -5.499  -3.070  0.00  0.00     0.210 C 
ENDBRANCH  13  16
BRANCH  14  18
ATOM     18  O   UNL d   1       1.214  -3.221  -4.875  0.00  0.00    -0.353 OA
ATOM     19  C   UNL d   1       1.805  -4.181  -5.740  0.00  0.00     0.210 C 
ENDBRANCH  14  18
ENDBRANCH   2   9
TORSDOF 5
