REMARK  6 active torsions:
REMARK  status: ('A' for Active; 'I' for Inactive)
REMARK    1  A    between atoms: C1*_3  and  N_1 
REMARK    2  A    between atoms: C2*_8  and  O2*_19 
REMARK    3  A    between atoms: C3*_10  and  O3*_21 
REMARK    4  A    between atoms: C4*_12  and  C5*_22 
REMARK    5  A    between atoms: N_20  and  C_15 
REMARK    6  A    between atoms: O5*_25  and  C5*_22 
ROOT
ATOM      1  N   UNL d   1       1.613   1.216   0.111  0.00  0.00    -0.136 N 
ATOM      2  C   UNL d   1       2.489   0.121   0.151  0.00  0.00     0.687 C 
ATOM      3  C   UNL d   1       0.339   0.701   0.236  0.00  0.00     0.158 A 
ATOM      4  N   UNL d   1       1.817  -1.013   0.146  0.00  0.00    -0.184 N 
ATOM      5  HN  UNL d   1       2.207  -1.956   0.131  1.00  0.00     0.184 HD
ATOM      6  C   UNL d   1       0.486  -0.671   0.164  0.00  0.00     0.137 A 
ATOM      7  N   UNL d   1       3.843   0.240   0.039  0.00  0.00    -0.217 N 
ATOM      8  N   UNL d   1      -0.833   1.369   0.302  0.00  0.00    -0.336 N 
ATOM      9  HN  UNL d   1      -0.910   2.383   0.382  1.00  0.00     0.168 HD
ATOM     10  C   UNL d   1      -0.693  -1.438   0.089  0.00  0.00     0.131 A 
ATOM     11  N   UNL d   1      -1.886  -0.808   0.146  0.00  0.00    -0.337 N 
ATOM     12  HN  UNL d   1      -2.760  -1.333   0.113  1.00  0.00     0.168 HD
ATOM     13  C   UNL d   1      -1.889   0.533   0.247  0.00  0.00     0.183 A 
ATOM     14  C   UNL d   1       4.583  -0.847  -0.623  0.00  0.00     0.141 C 
ATOM     15  C   UNL d   1       4.609   1.058   0.981  0.00  0.00     0.141 C 
ATOM     16  C   UNL d   1       5.426  -1.665   0.356  0.00  0.00     0.020 C 
ATOM     17  C   UNL d   1       5.479   0.247   1.930  0.00  0.00     0.020 C 
ATOM     18  C   UNL d   1       6.330  -0.767   1.188  0.00  0.00     0.003 C 
ENDROOT
BRANCH   1  19
ATOM     19  C1* UNL d   1       1.943   2.520  -0.463  0.00  0.00     0.279 C 
ATOM     20  C2* UNL d   1       2.617   3.580   0.416  0.00  0.00     0.199 C 
ATOM     21  C3* UNL d   1       1.536   4.594   0.720  0.00  0.00     0.182 C 
ATOM     22  C4* UNL d   1       0.608   4.479  -0.474  0.00  0.00     0.179 C 
ATOM     23  O4* UNL d   1       0.765   3.156  -1.026  0.00  0.00    -0.353 OA
BRANCH  20  24
ATOM     24  O2* UNL d   1       3.693   4.247  -0.286  0.00  0.00    -0.388 OA
ATOM     25  H2* UNL d   1       3.436   4.346  -1.223  0.00  0.00     0.210 HD
ENDBRANCH  20  24
BRANCH  21  26
ATOM     26  O3* UNL d   1       2.065   5.912   0.855  0.00  0.00    -0.390 OA
ATOM     27  H3* UNL d   1       2.988   5.876   0.531  0.00  0.00     0.210 HD
ENDBRANCH  21  26
BRANCH  22  28
ATOM     28  C5* UNL d   1      -0.854   4.737  -0.094  0.00  0.00     0.198 C 
BRANCH  28  29
ATOM     29  O5* UNL d   1      -1.268   3.930   1.008  0.00  0.00    -0.398 OA
ATOM     30  H5* UNL d   1      -1.095   3.001   0.744  0.00  0.00     0.209 HD
ENDBRANCH  28  29
ENDBRANCH  22  28
ENDBRANCH   1  19
BRANCH  10  31
ATOM     31  N   UNL d   1      -0.712  -2.819  -0.063  0.00  0.00    -0.383 N 
ATOM     32  H   UNL d   1       0.139  -3.275   0.237  0.00  0.00     0.157 HD
ATOM     33  H   UNL d   1      -1.601  -3.222   0.202  0.00  0.00     0.157 HD
ENDBRANCH  10  31
TORSDOF 6
