REMARK  6 active torsions:
REMARK  status: ('A' for Active; 'I' for Inactive)
REMARK    1  A    between atoms: C_4  and  C_1 
REMARK    2  A    between atoms: C_6  and  C_1 
REMARK    3  A    between atoms: C_3  and  C_2 
REMARK    4  A    between atoms: C_9  and  C_3 
REMARK    5  A    between atoms: C_5  and  C_4 
REMARK    6  A    between atoms: C_10  and  C_5 
ROOT
ATOM      1  C   UNL d   1       0.968   0.086  -0.015  0.00  0.00    -0.037 C 
ATOM      2  C   UNL d   1       0.306   1.244  -0.237  0.00  0.00     0.064 C 
ENDROOT
BRANCH   1   3
ATOM      3  C   UNL d   1       2.483  -0.029   0.090  0.00  0.00     0.123 C 
BRANCH   3   4
ATOM      4  C   UNL d   1       3.152  -0.122  -1.284  0.00  0.00     0.163 C 
ATOM      5  O   UNL d   1       2.511  -0.281  -2.324  0.00  0.00    -0.292 OA
BRANCH   4   6
ATOM      6  C   UNL d   1       4.646  -0.088  -1.370  0.00  0.00     0.010 A 
ATOM      7  C   UNL d   1       5.470   0.021  -0.244  0.00  0.00     0.015 A 
ATOM      8  C   UNL d   1       6.860   0.076  -0.394  0.00  0.00     0.001 A 
ATOM      9  C   UNL d   1       7.434   0.014  -1.664  0.00  0.00     0.000 A 
ATOM     10  C   UNL d   1       6.623  -0.118  -2.787  0.00  0.00     0.001 A 
ATOM     11  C   UNL d   1       5.236  -0.173  -2.641  0.00  0.00     0.015 A 
ENDBRANCH   4   6
ENDBRANCH   3   4
ENDBRANCH   1   3
BRANCH   1  12
ATOM     12  C   UNL d   1       0.192  -1.194   0.059  0.00  0.00    -0.029 A 
ATOM     13  C   UNL d   1       0.719  -2.387  -0.467  0.00  0.00     0.013 A 
ATOM     14  C   UNL d   1       0.002  -3.589  -0.421  0.00  0.00     0.024 A 
ATOM     15  C   UNL d   1      -1.264  -3.616   0.147  0.00  0.00     0.034 A 
ATOM     16  C   UNL d   1      -1.812  -2.454   0.682  0.00  0.00     0.024 A 
ATOM     17 CL   UNL d   1      -2.154  -5.085   0.188  0.00  0.00    -0.084 Cl
ATOM     18  C   UNL d   1      -1.083  -1.256   0.650  0.00  0.00     0.013 A 
ENDBRANCH   1  12
BRANCH   2  19
ATOM     19  C   UNL d   1       0.936   2.590  -0.418  0.00  0.00     0.182 C 
ATOM     20  O   UNL d   1       2.091   2.808  -0.062  0.00  0.00    -0.288 OA
BRANCH  19  21
ATOM     21  C   UNL d   1       0.138   3.708  -1.027  0.00  0.00     0.014 A 
ATOM     22  C   UNL d   1      -1.182   3.580  -1.484  0.00  0.00     0.015 A 
ATOM     23  C   UNL d   1      -1.846   4.675  -2.052  0.00  0.00     0.001 A 
ATOM     24  C   UNL d   1      -1.200   5.901  -2.182  0.00  0.00     0.000 A 
ATOM     25  C   UNL d   1       0.112   6.041  -1.740  0.00  0.00     0.001 A 
ATOM     26  C   UNL d   1       0.774   4.952  -1.164  0.00  0.00     0.015 A 
ENDBRANCH  19  21
ENDBRANCH   2  19
TORSDOF 6
