REMARK  4 active torsions:
REMARK  status: ('A' for Active; 'I' for Inactive)
REMARK    1  A    between atoms: C_7  and  C_4 
REMARK    2  A    between atoms: O_15  and  C_6 
REMARK    3  A    between atoms: O_17  and  C_8 
REMARK    4  A    between atoms: O_16  and  C_9 
ROOT
ATOM      1  S   UNL d   1       1.124   2.612   0.655  0.00  0.00    -0.118 SA
ATOM      2  C   UNL d   1       1.157  -0.686   0.754  0.00  0.00     0.079 C 
ATOM      3  N   UNL d   1      -0.155  -0.415   0.927  0.00  0.00    -0.349 N 
ATOM      4  C   UNL d   1       1.835   1.487  -0.597  0.00  0.00     0.092 C 
ATOM      5  C   UNL d   1       2.220   0.210   0.138  0.00  0.00     0.089 C 
ATOM      6  C   UNL d   1      -0.563   2.047   0.605  0.00  0.00     0.028 A 
ATOM      7  C   UNL d   1      -0.975   0.716   0.745  0.00  0.00     0.050 A 
ATOM      8  S   UNL d   1       1.637  -2.235   1.245  0.00  0.00    -0.065 SA
ATOM      9  C   UNL d   1      -1.528   3.054   0.410  0.00  0.00     0.021 A 
ATOM     10  C   UNL d   1      -2.358   0.434   0.717  0.00  0.00     0.031 A 
ATOM     11  C   UNL d   1      -2.888   2.751   0.343  0.00  0.00     0.002 A 
ATOM     12  C   UNL d   1      -3.303   1.441   0.504  0.00  0.00     0.002 A 
ATOM     13  H   UNL d   1      -0.654  -1.248   1.230  0.00  0.00     0.166 HD
ENDROOT
BRANCH   4  14
ATOM     14  C   UNL d   1       1.012   1.394  -1.879  0.00  0.00    -0.038 A 
ATOM     15  C   UNL d   1       0.670   2.577  -2.568  0.00  0.00     0.048 A 
ATOM     16  C   UNL d   1      -0.240   2.568  -3.630  0.00  0.00     0.104 A 
ATOM     17  C   UNL d   1      -0.801   1.344  -4.044  0.00  0.00     0.135 A 
ATOM     18  C   UNL d   1      -0.419   0.149  -3.421  0.00  0.00     0.104 A 
ATOM     19  C   UNL d   1       0.514   0.185  -2.375  0.00  0.00     0.048 A 
BRANCH  16  20
ATOM     20  O   UNL d   1      -0.648   3.692  -4.306  0.00  0.00    -0.353 OA
ATOM     21  C   UNL d   1      -0.184   4.947  -3.822  0.00  0.00     0.210 C 
ENDBRANCH  16  20
BRANCH  17  22
ATOM     22  O   UNL d   1      -1.802   1.359  -4.984  0.00  0.00    -0.351 OA
ATOM     23  C   UNL d   1      -1.286   1.201  -6.301  0.00  0.00     0.210 C 
ENDBRANCH  17  22
BRANCH  18  24
ATOM     24  O   UNL d   1      -0.833  -1.124  -3.715  0.00  0.00    -0.353 OA
ATOM     25  C   UNL d   1      -2.147  -1.285  -4.231  0.00  0.00     0.210 C 
ENDBRANCH  18  24
ENDBRANCH   4  14
TORSDOF 4
