REMARK  3 active torsions:
REMARK  status: ('A' for Active; 'I' for Inactive)
REMARK    1  A    between atoms: C_3  and  N_1 
REMARK    2  A    between atoms: C_2  and  O_6 
REMARK    3  A    between atoms: O_6  and  C_4 
ROOT
ATOM      1  C   UNL d   1       2.457   0.920  -1.874  0.00  0.00     0.163 A 
ATOM      2  C   UNL d   1       3.820   0.994  -1.578  0.00  0.00     0.043 A 
ATOM      3  N   UNL d   1       1.853  -0.154  -2.423  0.00  0.00    -0.332 N 
ATOM      4  HN  UNL d   1       0.875  -0.145  -2.712  1.00  0.00     0.168 HD
ATOM      5  C   UNL d   1       4.518  -0.199  -1.785  0.00  0.00     0.047 A 
ATOM      6  N   UNL d   1       3.934  -1.309  -2.257  0.00  0.00    -0.352 N 
ATOM      7  HN  UNL d   1       4.458  -2.175  -2.380  1.00  0.00     0.166 HD
ATOM      8  C   UNL d   1       2.631  -1.228  -2.561  0.00  0.00     0.182 A 
ATOM      9  C   UNL d   1       4.500   2.149  -1.113  0.00  0.00     0.025 A 
ATOM     10  C   UNL d   1       5.876  -0.223  -1.494  0.00  0.00     0.031 A 
ATOM     11  C   UNL d   1       5.871   2.113  -0.847  0.00  0.00    -0.061 A 
ATOM     12  C   UNL d   1       6.555   0.912  -1.036  0.00  0.00     0.009 A 
ATOM     13  C   UNL d   1       6.614   3.343  -0.420  0.00  0.00     0.048 C 
ENDROOT
BRANCH   1  14
ATOM     14  O   UNL d   1       1.690   2.058  -1.664  0.00  0.00    -0.273 OA
BRANCH  14  15
ATOM     15  C   UNL d   1       0.404   1.852  -1.197  0.00  0.00     0.183 A 
ATOM     16  C   UNL d   1      -0.618   2.691  -1.606  0.00  0.00     0.154 A 
ATOM     17  C   UNL d   1      -1.926   2.460  -1.170  0.00  0.00     0.042 A 
ATOM     18  C   UNL d   1      -2.161   1.391  -0.310  0.00  0.00     0.020 A 
ATOM     19  C   UNL d   1      -1.079   0.624   0.095  0.00  0.00     0.090 A 
ATOM     20  N   UNL d   1       0.193   0.847  -0.306  0.00  0.00    -0.344 N 
ATOM     21  HN  UNL d   1       0.965   0.282   0.047  1.00  0.00     0.167 HD
BRANCH  16  22
ATOM     22  N   UNL d   1      -0.346   3.816  -2.467  0.00  0.00    -0.111 N 
ATOM     23  O   UNL d   1       0.607   4.551  -2.174  0.00  0.00    -0.532 OA
ATOM     24  O   UNL d   1      -1.125   4.003  -3.411  0.00  0.00    -0.532 OA
ENDBRANCH  16  22
ENDBRANCH  14  15
ENDBRANCH   1  14
TORSDOF 3
