REMARK  4 active torsions:
REMARK  status: ('A' for Active; 'I' for Inactive)
REMARK    1  A    between atoms: C_8  and  C_1 
REMARK    2  A    between atoms: C_11  and  C_8 
REMARK    3  A    between atoms: C_12  and  C_8 
REMARK    4  A    between atoms: O_14  and  C_8 
ROOT
ATOM      1  C   UNL d   1       3.607   1.561  -0.137  0.00  0.00     0.178 C 
ENDROOT
BRANCH   1   2
ATOM      2  C   UNL d   1       2.274   0.752  -0.063  0.00  0.00     0.172 A 
ATOM      3  N   UNL d   1       2.275  -0.546   0.035  0.00  0.00    -0.336 N 
ATOM      4  C   UNL d   1       1.041  -1.163   0.228  0.00  0.00     0.050 A 
ATOM      5  HN  UNL d   1       3.138  -1.086  -0.026  1.00  0.00     0.168 HD
ATOM      6  C   UNL d   1       0.987  -2.538   0.456  0.00  0.00     0.031 A 
ATOM      7  C   UNL d   1      -0.141  -0.438   0.248  0.00  0.00     0.067 A 
ATOM      8  C   UNL d   1      -0.237  -3.174   0.691  0.00  0.00     0.009 A 
ATOM      9  C   UNL d   1      -1.431  -2.442   0.688  0.00  0.00    -0.061 A 
ATOM     10  C   UNL d   1      -1.376  -1.062   0.471  0.00  0.00     0.026 A 
ATOM     11  C   UNL d   1      -2.738  -3.132   0.948  0.00  0.00     0.048 C 
ATOM     12  C   UNL d   1      -0.053   1.011   0.060  0.00  0.00     0.302 A 
ATOM     13  O   UNL d   1       1.179   1.552  -0.050  0.00  0.00    -0.257 OA
ATOM     14  O   UNL d   1      -1.064   1.706   0.034  0.00  0.00    -0.259 OA
ENDBRANCH   1   2
BRANCH   1  15
ATOM     15  C   UNL d   1       3.578   2.409  -1.425  0.00  0.00    -0.011 A 
ATOM     16  C   UNL d   1       2.994   3.691  -1.452  0.00  0.00     0.011 A 
ATOM     17  C   UNL d   1       2.962   4.450  -2.623  0.00  0.00     0.001 A 
ATOM     18  C   UNL d   1       3.464   3.923  -3.808  0.00  0.00     0.000 A 
ATOM     19  C   UNL d   1       4.000   2.638  -3.821  0.00  0.00     0.001 A 
ATOM     20  C   UNL d   1       4.060   1.890  -2.642  0.00  0.00     0.011 A 
ENDBRANCH   1  15
BRANCH   1  21
ATOM     21  C   UNL d   1       3.835   2.331   1.184  0.00  0.00    -0.011 C 
ATOM     22  C   UNL d   1       3.308   1.849   2.402  0.00  0.00     0.011 C 
ATOM     23  C   UNL d   1       3.396   2.597   3.579  0.00  0.00     0.001 C 
ATOM     24  C   UNL d   1       4.041   3.829   3.574  0.00  0.00     0.000 C 
ATOM     25  C   UNL d   1       4.653   4.281   2.409  0.00  0.00     0.001 C 
ATOM     26  C   UNL d   1       4.580   3.523   1.236  0.00  0.00     0.011 C 
ENDBRANCH   1  21
BRANCH   1  27
ATOM     27  O   UNL d   1       4.728   0.666  -0.222  0.00  0.00    -0.372 OA
ATOM     28  H   UNL d   1       4.359  -0.193  -0.500  0.00  0.00     0.212 HD
ENDBRANCH   1  27
TORSDOF 4
