REMARK  3 active torsions:
REMARK  status: ('A' for Active; 'I' for Inactive)
REMARK    1  A    between atoms: C_8  and  N_1 
REMARK    2  A    between atoms: C_7  and  C_2 
REMARK    3  A    between atoms: N_10  and  C_9 
ROOT
ATOM      1  N   UNL d   1      -0.161  -1.351  -0.070  0.00  0.00    -0.225 N 
ATOM      2  C   UNL d   1       1.062  -0.694   0.069  0.00  0.00     0.139 C 
ATOM      3  N   UNL d   1      -0.498   0.755  -0.266  0.00  0.00    -0.007 NA
ATOM      4  N   UNL d   1      -1.089  -0.419  -0.405  0.00  0.00     0.001 NA
ATOM      5  N   UNL d   1       0.827   0.606   0.036  0.00  0.00    -0.270 N 
ATOM      6  HN  UNL d   1       1.502   1.352   0.204  1.00  0.00     0.185 HD
ENDROOT
BRANCH   1   7
ATOM      7  C   UNL d   1      -0.544  -2.703   0.143  0.00  0.00     0.056 A 
ATOM      8  C   UNL d   1       0.199  -3.551   0.977  0.00  0.00     0.032 A 
ATOM      9  C   UNL d   1      -0.237  -4.859   1.217  0.00  0.00     0.021 A 
ATOM     10  C   UNL d   1      -1.410  -5.322   0.624  0.00  0.00     0.011 A 
ATOM     11  C   UNL d   1      -2.156  -4.490  -0.207  0.00  0.00     0.021 A 
ATOM     12 BR   UNL d   1      -2.005  -7.081   0.973  0.00  0.00    -0.051 Br
ATOM     13  C   UNL d   1      -1.731  -3.178  -0.439  0.00  0.00     0.032 A 
ENDBRANCH   1   7
BRANCH   2  14
ATOM     14  C   UNL d   1       2.294  -1.393   0.096  0.00  0.00     0.068 C 
ATOM     15  C   UNL d   1       3.378  -0.865   0.683  0.00  0.00     0.088 C 
BRANCH  15  16
ATOM     16  N   UNL d   1       4.659  -1.387   0.798  0.00  0.00    -0.398 N 
ATOM     17  C   UNL d   1       5.126  -2.608   0.145  0.00  0.00     0.148 C 
ATOM     18  C   UNL d   1       5.716  -0.661   1.510  0.00  0.00     0.148 C 
ENDBRANCH  15  16
ENDBRANCH   2  14
TORSDOF 3
