REMARK  3 active torsions:
REMARK  status: ('A' for Active; 'I' for Inactive)
REMARK    1  A    between atoms: C_2  and  S_1 
REMARK    2  A    between atoms: C_11  and  S_1 
REMARK    3  A    between atoms: C_3  and  C_4 
ROOT
ATOM      1  C   UNL d   1       0.453   0.996   1.324  0.00  0.00     0.142 C 
ATOM      2  C   UNL d   1      -0.330   2.043   0.998  0.00  0.00     0.067 C 
ATOM      3  C   UNL d   1       0.998   0.085   0.376  0.00  0.00     0.111 C 
ATOM      4  N   UNL d   1       1.440  -0.661  -0.395  0.00  0.00    -0.191 NA
ENDROOT
BRANCH   1   5
ATOM      5  S   UNL d   1       0.927   0.774   2.981  0.00  0.00     0.193 S 
ATOM      6  O   UNL d   1       0.736   2.028   3.694  0.00  0.00    -0.221 OA
ATOM      7  O   UNL d   1       2.238   0.151   3.017  0.00  0.00    -0.221 OA
BRANCH   5   8
ATOM      8  C   UNL d   1      -0.270  -0.426   3.673  0.00  0.00     0.058 C 
ATOM      9  C   UNL d   1      -0.245  -1.751   2.898  0.00  0.00     0.031 C 
ATOM     10  C   UNL d   1       0.134  -0.710   5.134  0.00  0.00     0.031 C 
ATOM     11  C   UNL d   1      -1.690   0.156   3.663  0.00  0.00     0.031 C 
ENDBRANCH   5   8
ENDBRANCH   1   5
BRANCH   2  12
ATOM     12  C   UNL d   1      -0.816   2.319  -0.322  0.00  0.00     0.073 A 
ATOM     13  N   UNL d   1      -1.089   1.337  -1.190  0.00  0.00    -0.298 N 
ATOM     14  N   UNL d   1      -1.379   1.971  -2.336  0.00  0.00    -0.306 N 
ATOM     15  HN  UNL d   1      -1.079   0.332  -1.019  1.00  0.00     0.187 HD
ATOM     16  C   UNL d   1      -1.551   1.205  -3.546  0.00  0.00     0.177 C 
ATOM     17  C   UNL d   1      -1.435   3.325  -2.204  0.00  0.00     0.135 A 
ATOM     18  C   UNL d   1      -1.075   3.589  -0.902  0.00  0.00     0.079 A 
ATOM     19 CL   UNL d   1      -0.913   5.114  -0.182  0.00  0.00    -0.080 Cl
ENDBRANCH   2  12
TORSDOF 3
