REMARK  9 active torsions:
REMARK  status: ('A' for Active; 'I' for Inactive)
REMARK    1  A    between atoms: N_2  and  C_1 
REMARK    2  A    between atoms: N_3  and  C_1 
REMARK    3  A    between atoms: C_4  and  N_3 
REMARK    4  A    between atoms: C_5  and  C_19 
REMARK       I    between atoms: N_20  and  C_5 
REMARK    5  A    between atoms: N_11  and  N_20 
REMARK    6  A    between atoms: N_22  and  C_15 
REMARK    7  A    between atoms: C_33  and  N_22 
REMARK    8  A    between atoms: C_30  and  C_28 
REMARK    9  A    between atoms: C_29  and  C_33 
ROOT
ATOM      1  N   UNL d   1      -4.030 -14.880  -1.608  0.00  0.00    -0.197 NA
ATOM      2  C   UNL d   1      -3.512 -14.037  -1.012  0.00  0.00     0.060 C 
ATOM      3  C   UNL d   1      -2.860 -12.967  -0.241  0.00  0.00     0.143 C 
ENDROOT
BRANCH   3   4
ATOM      4  C   UNL d   1      -3.104 -13.169   1.257  0.00  0.00     0.136 C 
BRANCH   4   5
ATOM      5  N   UNL d   1      -2.360 -12.205   2.088  0.00  0.00    -0.384 N 
ATOM      6  C   UNL d   1      -1.324 -12.782   2.949  0.00  0.00     0.149 C 
BRANCH   5   7
ATOM      7  C   UNL d   1      -2.620 -10.842   2.114  0.00  0.00     0.029 A 
ATOM      8  C   UNL d   1      -3.867 -10.287   1.772  0.00  0.00     0.030 A 
ATOM      9  C   UNL d   1      -4.104  -8.891   1.789  0.00  0.00     0.015 A 
ATOM     10  C   UNL d   1      -3.083  -8.013   2.155  0.00  0.00    -0.019 A 
ATOM     11  C   UNL d   1      -1.846  -8.541   2.516  0.00  0.00     0.015 A 
ATOM     12  C   UNL d   1      -1.626  -9.923   2.486  0.00  0.00     0.030 A 
BRANCH  10  13
ATOM     13  C   UNL d   1      -3.260  -6.535   2.131  0.00  0.00     0.118 C 
ATOM     14  N   UNL d   1      -2.297  -5.760   2.526  0.00  0.00    -0.308 N 
ATOM     15  HN  UNL d   1      -1.435  -6.154   2.902  1.00  0.00     0.186 HD
BRANCH  14  16
ATOM     16  N   UNL d   1      -2.460  -4.410   2.430  0.00  0.00    -0.270 N 
ATOM     17  C   UNL d   1      -1.407  -3.574   2.815  0.00  0.00     0.240 C 
ATOM     18  O   UNL d   1      -0.370  -3.963   3.359  0.00  0.00    -0.271 OA
ATOM     19  H   UNL d   1      -3.292  -4.039   1.985  0.00  0.00     0.190 HD
BRANCH  17  20
ATOM     20  C   UNL d   1      -1.647  -2.093   2.502  0.00  0.00     0.082 C 
ATOM     21  C   UNL d   1      -0.529  -1.168   3.036  0.00  0.00     0.034 C 
ATOM     22  C   UNL d   1       0.760  -1.186   2.196  0.00  0.00     0.126 C 
ATOM     23  N   UNL d   1       0.458  -1.035   0.766  0.00  0.00    -0.358 N 
ATOM     24  C   UNL d   1      -0.514  -1.995   0.255  0.00  0.00     0.126 C 
ATOM     25  C   UNL d   1      -1.840  -1.867   0.995  0.00  0.00     0.034 C 
BRANCH  23  26
ATOM     26  C   UNL d   1       0.877   0.093   0.046  0.00  0.00     0.170 C 
ATOM     27  S   UNL d   1      -0.087   0.939  -1.028  0.00  0.00    -0.041 SA
BRANCH  26  28
ATOM     28  N   UNL d   1       2.195   0.388   0.319  0.00  0.00    -0.362 N 
ATOM     29  H   UNL d   1       2.702  -0.474   0.475  0.00  0.00     0.162 HD
BRANCH  28  30
ATOM     30  C   UNL d   1       3.031   1.470  -0.206  0.00  0.00     0.092 C 
ATOM     31  C   UNL d   1       2.616   2.932   0.140  0.00  0.00     0.031 C 
ATOM     32  C   UNL d   1       2.514   3.115   1.639  0.00  0.00    -0.024 C 
ATOM     33  C   UNL d   1       3.957   3.655  -0.075  0.00  0.00     0.019 C 
ATOM     34  C   UNL d   1       3.758   3.037   2.136  0.00  0.00    -0.026 C 
ATOM     35  C   UNL d   1       4.691   2.813   0.970  0.00  0.00     0.010 C 
ATOM     36  C   UNL d   1       4.468   1.393   0.409  0.00  0.00     0.034 C 
ENDBRANCH  28  30
ENDBRANCH  26  28
ENDBRANCH  23  26
ENDBRANCH  17  20
ENDBRANCH  14  16
ENDBRANCH  10  13
ENDBRANCH   5   7
ENDBRANCH   4   5
ENDBRANCH   3   4
TORSDOF 9
