REMARK  5 active torsions:
REMARK  status: ('A' for Active; 'I' for Inactive)
REMARK    1  A    between atoms: C_6  and  N_1 
REMARK    2  A    between atoms: S_9  and  C_2 
REMARK    3  A    between atoms: C_8  and  C_6 
REMARK    4  A    between atoms: C_15  and  S_9 
REMARK    5  A    between atoms: C_12  and  C_15 
ROOT
ATOM      1  N   UNL d   1       1.646  -0.915  -0.195  0.00  0.00    -0.321 N 
ATOM      2  C   UNL d   1       2.304   0.268  -0.416  0.00  0.00     0.148 A 
ATOM      3  N   UNL d   1       1.495   1.299  -0.358  0.00  0.00    -0.335 N 
ATOM      4  HN  UNL d   1       1.741   2.285  -0.453  1.00  0.00     0.168 HD
ATOM      5  C   UNL d   1       0.303  -0.620  -0.057  0.00  0.00     0.063 A 
ATOM      6  C   UNL d   1       0.251   0.770  -0.143  0.00  0.00     0.061 A 
ATOM      7  C   UNL d   1      -0.842  -1.408   0.113  0.00  0.00     0.032 A 
ATOM      8  C   UNL d   1      -0.984   1.424  -0.031  0.00  0.00     0.032 A 
ATOM      9  C   UNL d   1      -2.068  -0.738   0.201  0.00  0.00     0.002 A 
ATOM     10  C   UNL d   1      -2.140   0.655   0.137  0.00  0.00     0.002 A 
ENDROOT
BRANCH   2  11
ATOM     11  S   UNL d   1       3.982   0.371  -0.839  0.00  0.00    -0.089 SA
BRANCH  11  12
ATOM     12  C   UNL d   1       3.950   1.947  -1.748  0.00  0.00     0.122 C 
BRANCH  12  13
ATOM     13  C   UNL d   1       5.275   2.251  -2.405  0.00  0.00    -0.027 A 
ATOM     14  C   UNL d   1       5.596   1.827  -3.707  0.00  0.00     0.042 A 
ATOM     15  C   UNL d   1       6.830   2.150  -4.279  0.00  0.00     0.048 A 
ATOM     16 CL   UNL d   1       4.495   0.898  -4.663  0.00  0.00    -0.084 Cl
ATOM     17  C   UNL d   1       7.758   2.888  -3.550  0.00  0.00     0.035 A 
ATOM     18  C   UNL d   1       7.469   3.302  -2.253  0.00  0.00     0.024 A 
ATOM     19 CL   UNL d   1       9.274   3.291  -4.255  0.00  0.00    -0.084 Cl
ATOM     20  C   UNL d   1       6.235   2.984  -1.683  0.00  0.00     0.011 A 
ENDBRANCH  12  13
ENDBRANCH  11  12
ENDBRANCH   2  11
BRANCH   1  21
ATOM     21  C   UNL d   1       2.223  -2.250  -0.106  0.00  0.00     0.171 C 
BRANCH  21  22
ATOM     22  C   UNL d   1       2.263  -3.020  -1.413  0.00  0.00    -0.018 A 
ATOM     23  C   UNL d   1       2.675  -4.368  -1.416  0.00  0.00     0.043 A 
ATOM     24  C   UNL d   1       2.753  -5.102  -2.603  0.00  0.00     0.048 A 
ATOM     25 CL   UNL d   1       3.109  -5.184   0.048  0.00  0.00    -0.084 Cl
ATOM     26  C   UNL d   1       2.422  -4.495  -3.810  0.00  0.00     0.035 A 
ATOM     27  C   UNL d   1       2.011  -3.168  -3.838  0.00  0.00     0.024 A 
ATOM     28 CL   UNL d   1       2.525  -5.390  -5.274  0.00  0.00    -0.084 Cl
ATOM     29  C   UNL d   1       1.932  -2.436  -2.651  0.00  0.00     0.012 A 
ENDBRANCH  21  22
ENDBRANCH   1  21
TORSDOF 5
