REMARK  3 active torsions:
REMARK  status: ('A' for Active; 'I' for Inactive)
REMARK    1  A    between atoms: C_9  and  C_3 
REMARK    2  A    between atoms: C_10  and  C_4 
REMARK    3  A    between atoms: C_8  and  C_6 
ROOT
ATOM      1  N   UNL d   1      -1.071  -1.085   0.140  0.00  0.00    -0.354 N 
ATOM      2  HN  UNL d   1      -1.622  -1.941   0.203  1.00  0.00     0.166 HD
ATOM      3  C   UNL d   1       0.288  -1.148   0.080  0.00  0.00     0.049 A 
ATOM      4  C   UNL d   1       0.450   1.272  -0.006  0.00  0.00    -0.016 A 
ATOM      5  C   UNL d   1       1.084   0.007  -0.071  0.00  0.00    -0.023 A 
ATOM      6  C   UNL d   1      -1.687   0.115   0.115  0.00  0.00     0.043 A 
ATOM      7  C   UNL d   1      -0.952   1.295   0.088  0.00  0.00     0.043 A 
ATOM      8  C   UNL d   1       2.563  -0.109  -0.344  0.00  0.00     0.051 C 
ENDROOT
BRANCH   6   9
ATOM      9  C   UNL d   1      -3.166   0.088   0.062  0.00  0.00    -0.009 A 
ATOM     10  C   UNL d   1      -3.958   1.111   0.624  0.00  0.00     0.017 A 
ATOM     11  C   UNL d   1      -5.353   1.093   0.511  0.00  0.00     0.043 A 
ATOM     12  C   UNL d   1      -5.974   0.049  -0.159  0.00  0.00     0.116 A 
ATOM     13  C   UNL d   1      -5.231  -0.982  -0.712  0.00  0.00     0.043 A 
ATOM     14  F   UNL d   1      -7.310   0.041  -0.273  0.00  0.00    -0.206 F 
ATOM     15  C   UNL d   1      -3.838  -0.963  -0.598  0.00  0.00     0.017 A 
ENDBRANCH   6   9
BRANCH   3  16
ATOM     16  C   UNL d   1       0.805  -2.535   0.190  0.00  0.00    -0.009 A 
ATOM     17  C   UNL d   1       0.158  -3.594  -0.480  0.00  0.00     0.014 A 
ATOM     18  C   UNL d   1       0.617  -4.912  -0.390  0.00  0.00     0.001 A 
ATOM     19  C   UNL d   1       1.740  -5.204   0.380  0.00  0.00     0.000 A 
ATOM     20  C   UNL d   1       2.384  -4.184   1.075  0.00  0.00     0.001 A 
ATOM     21  C   UNL d   1       1.910  -2.871   0.994  0.00  0.00     0.014 A 
ENDBRANCH   3  16
BRANCH   4  22
ATOM     22  C   UNL d   1       1.172   2.572  -0.054  0.00  0.00    -0.025 A 
ATOM     23  C   UNL d   1       2.299   2.826   0.747  0.00  0.00     0.012 A 
ATOM     24  C   UNL d   1       2.968   4.055   0.697  0.00  0.00     0.001 A 
ATOM     25  C   UNL d   1       2.499   5.073  -0.126  0.00  0.00     0.000 A 
ATOM     26  C   UNL d   1       1.368   4.861  -0.906  0.00  0.00     0.001 A 
ATOM     27  C   UNL d   1       0.720   3.621  -0.878  0.00  0.00     0.012 A 
ENDBRANCH   4  22
TORSDOF 3
