REMARK  5 active torsions:
REMARK  status: ('A' for Active; 'I' for Inactive)
REMARK    1  A    between atoms: C_8  and  C_3 
REMARK    2  A    between atoms: C_12  and  C_4 
REMARK    3  A    between atoms: C_7  and  O_10 
REMARK    4  A    between atoms: C_9  and  C_7 
REMARK    5  A    between atoms: O_10  and  C_12 
ROOT
ATOM      1  N   UNL d   1       1.420  -0.494   0.431  0.00  0.00    -0.351 N 
ATOM      2  HN  UNL d   1       2.200  -0.950   0.904  1.00  0.00     0.166 HD
ATOM      3  C   UNL d   1       1.276   0.877   0.279  0.00  0.00     0.049 A 
ATOM      4  C   UNL d   1       0.402  -1.122  -0.126  0.00  0.00     0.075 A 
ATOM      5  S   UNL d   1      -0.780  -0.100  -0.852  0.00  0.00    -0.084 SA
ATOM      6  C   UNL d   1       0.143   1.269  -0.408  0.00  0.00     0.082 A 
ENDROOT
BRANCH   4   7
ATOM      7  C   UNL d   1       0.168  -2.603  -0.126  0.00  0.00     0.243 C 
BRANCH   7   8
ATOM      8  O   UNL d   1       1.416  -3.312  -0.056  0.00  0.00    -0.314 OA
BRANCH   8   9
ATOM      9  C   UNL d   1       2.045  -3.507  -1.246  0.00  0.00     0.266 C 
ATOM     10  O   UNL d   1       1.669  -3.026  -2.308  0.00  0.00    -0.264 OA
BRANCH   9  11
ATOM     11  C   UNL d   1       3.232  -4.471  -1.121  0.00  0.00     0.037 C 
ATOM     12  C   UNL d   1       3.473  -4.945   0.321  0.00  0.00     0.025 C 
ATOM     13  C   UNL d   1       2.921  -5.692  -2.002  0.00  0.00     0.025 C 
ATOM     14  C   UNL d   1       4.501  -3.778  -1.633  0.00  0.00     0.025 C 
ENDBRANCH   9  11
ENDBRANCH   8   9
ENDBRANCH   7   8
ENDBRANCH   4   7
BRANCH   3  15
ATOM     15  C   UNL d   1       2.278   1.810   0.788  0.00  0.00    -0.009 A 
ATOM     16  C   UNL d   1       3.613   1.393   0.905  0.00  0.00     0.017 A 
ATOM     17  C   UNL d   1       4.596   2.271   1.370  0.00  0.00     0.043 A 
ATOM     18  C   UNL d   1       4.242   3.566   1.730  0.00  0.00     0.116 A 
ATOM     19  C   UNL d   1       2.925   3.997   1.638  0.00  0.00     0.043 A 
ATOM     20  F   UNL d   1       5.183   4.408   2.174  0.00  0.00    -0.206 F 
ATOM     21  C   UNL d   1       1.943   3.121   1.170  0.00  0.00     0.017 A 
ENDBRANCH   3  15
TORSDOF 5
