REMARK  4 active torsions:
REMARK  status: ('A' for Active; 'I' for Inactive)
REMARK    1  A    between atoms: C_2  and  C_1 
REMARK    2  A    between atoms: C_21  and  C_7 
REMARK    3  A    between atoms: C_14  and  S_20 
REMARK    4  A    between atoms: S_20  and  C_21 
ROOT
ATOM      1  C   UNL d   1       0.001  -0.871   0.733  0.00  0.00     0.186 A 
ATOM      2  N   UNL d   1       0.083   0.356   1.208  0.00  0.00    -0.322 N 
ATOM      3  HN  UNL d   1      -0.035   0.675   2.170  1.00  0.00     0.169 HD
ATOM      4  C   UNL d   1       0.367   1.102   0.087  0.00  0.00     0.113 A 
ATOM      5  N   UNL d   1       0.378   0.403  -1.057  0.00  0.00    -0.246 N 
ATOM      6  HN  UNL d   1       0.517   0.746  -2.007  1.00  0.00     0.196 HD
ATOM      7  O   UNL d   1       0.153  -0.906  -0.632  0.00  0.00    -0.217 OA
ENDROOT
BRANCH   4   8
ATOM      8  C   UNL d   1       0.700   2.554   0.147  0.00  0.00     0.158 C 
BRANCH   8   9
ATOM      9  S   UNL d   1       2.499   2.755   0.450  0.00  0.00    -0.122 SA
BRANCH   9  10
ATOM     10  C   UNL d   1       2.688   4.535   0.391  0.00  0.00     0.007 A 
ATOM     11  C   UNL d   1       2.031   5.316   1.359  0.00  0.00     0.027 A 
ATOM     12  C   UNL d   1       2.247   6.703   1.461  0.00  0.00    -0.039 A 
ATOM     13  C   UNL d   1       1.512   7.499   2.503  0.00  0.00     0.050 C 
ATOM     14  C   UNL d   1       3.162   7.302   0.589  0.00  0.00     0.040 A 
ATOM     15  C   UNL d   1       3.812   6.540  -0.382  0.00  0.00     0.032 A 
ATOM     16 CL   UNL d   1       3.536   8.986   0.681  0.00  0.00    -0.084 Cl
ATOM     17  C   UNL d   1       3.574   5.158  -0.508  0.00  0.00    -0.044 A 
ATOM     18  C   UNL d   1       4.327   4.437  -1.594  0.00  0.00     0.049 C 
ENDBRANCH   9  10
ENDBRANCH   8   9
ENDBRANCH   4   8
BRANCH   1  19
ATOM     19  C   UNL d   1      -0.200  -2.072   1.570  0.00  0.00     0.073 A 
ATOM     20  C   UNL d   1      -0.175  -3.381   1.142  0.00  0.00     0.089 A 
ATOM     21  O   UNL d   1      -0.373  -4.194   2.217  0.00  0.00    -0.242 OA
ATOM     22  C   UNL d   1       0.029  -4.053  -0.152  0.00  0.00     0.080 C 
ATOM     23  N   UNL d   1      -0.539  -3.430   3.357  0.00  0.00    -0.265 N 
ATOM     24  C   UNL d   1      -0.437  -2.154   2.962  0.00  0.00     0.045 A 
ATOM     25  HN  UNL d   1      -0.706  -3.768   4.305  1.00  0.00     0.194 HD
ATOM     26  C   UNL d   1      -0.590  -1.058   3.947  0.00  0.00     0.071 C 
ENDBRANCH   1  19
TORSDOF 4
