REMARK  5 active torsions:
REMARK  status: ('A' for Active; 'I' for Inactive)
REMARK       I    between atoms: N_2  and  C_1 
REMARK    1  A    between atoms: C_4  and  C_1 
REMARK    2  A    between atoms: C_5  and  N_2 
REMARK    3  A    between atoms: O_7  and  C_3 
REMARK    4  A    between atoms: C_18  and  O_7 
REMARK    5  A    between atoms: C_10  and  C_11 
ROOT
ATOM      1  C   UNL d   1       0.528   0.142   4.617  0.00  0.00     0.175 A 
ATOM      2  C   UNL d   1       1.549   1.078   4.817  0.00  0.00     0.087 A 
ATOM      3  N   UNL d   1       0.577  -1.133   5.085  0.00  0.00    -0.345 N 
ATOM      4  HN  UNL d   1      -0.204  -1.777   4.955  1.00  0.00     0.167 HD
ATOM      5  C   UNL d   1       2.680   0.646   5.521  0.00  0.00     0.035 A 
ATOM      6  C   UNL d   1       1.699  -1.510   5.726  0.00  0.00     0.090 A 
ATOM      7  C   UNL d   1       2.765  -0.666   5.972  0.00  0.00     0.019 A 
ENDROOT
BRANCH   1   8
ATOM      8  O   UNL d   1      -0.572   0.521   3.852  0.00  0.00    -0.292 OA
BRANCH   8   9
ATOM      9  C   UNL d   1      -1.159  -0.437   3.045  0.00  0.00     0.077 A 
ATOM     10  C   UNL d   1      -2.536  -0.354   2.867  0.00  0.00     0.038 A 
ATOM     11  C   UNL d   1      -3.200  -1.251   2.015  0.00  0.00     0.011 A 
ATOM     12  C   UNL d   1      -2.505  -2.251   1.306  0.00  0.00    -0.050 A 
ATOM     13  C   UNL d   1      -1.117  -2.319   1.504  0.00  0.00     0.011 A 
ATOM     14  C   UNL d   1      -0.449  -1.414   2.344  0.00  0.00     0.038 A 
BRANCH  12  15
ATOM     15  C   UNL d   1      -3.251  -3.190   0.337  0.00  0.00    -0.024 C 
ATOM     16  C   UNL d   1      -2.332  -4.219  -0.363  0.00  0.00     0.019 C 
ATOM     17  C   UNL d   1      -4.340  -3.990   1.085  0.00  0.00     0.019 C 
ATOM     18  C   UNL d   1      -3.923  -2.357  -0.778  0.00  0.00     0.019 C 
ENDBRANCH  12  15
ENDBRANCH   8   9
ENDBRANCH   1   8
BRANCH   2  19
ATOM     19  N   UNL d   1       1.452   2.409   4.346  0.00  0.00    -0.319 N 
ATOM     20  C   UNL d   1       2.535   3.119   3.847  0.00  0.00     0.263 C 
ATOM     21  O   UNL d   1       3.633   2.591   3.643  0.00  0.00    -0.267 OA
ATOM     22  H   UNL d   1       0.526   2.773   4.147  0.00  0.00     0.169 HD
BRANCH  20  23
ATOM     23  C   UNL d   1       2.312   4.519   3.516  0.00  0.00     0.072 A 
ATOM     24  S   UNL d   1       0.929   5.395   4.013  0.00  0.00    -0.097 SA
ATOM     25  C   UNL d   1       1.523   6.852   3.334  0.00  0.00     0.050 A 
ATOM     26  C   UNL d   1       2.739   6.676   2.714  0.00  0.00     0.009 A 
ATOM     27  C   UNL d   1       3.191   5.330   2.817  0.00  0.00     0.025 A 
ENDBRANCH  20  23
ENDBRANCH   2  19
TORSDOF 5
