REMARK  4 active torsions:
REMARK  status: ('A' for Active; 'I' for Inactive)
REMARK    1  A    between atoms: C_6  and  N_1 
REMARK    2  A    between atoms: C_2  and  C_8 
REMARK    3  A    between atoms: C_10  and  C_3 
REMARK    4  A    between atoms: O_17  and  C_16 
ROOT
ATOM      1  C   UNL d   1      -1.987   4.853  -0.940  0.00  0.00     0.055 C 
ATOM      2  C   UNL d   1      -3.056   5.125  -0.161  0.00  0.00     0.035 C 
ATOM      3  C   UNL d   1      -1.237   3.642  -0.743  0.00  0.00     0.100 C 
ATOM      4  N   UNL d   1      -0.632   2.661  -0.618  0.00  0.00    -0.191 NA
ENDROOT
BRANCH   1   5
ATOM      5  C   UNL d   1      -1.591   5.791  -2.033  0.00  0.00    -0.015 A 
ATOM      6  C   UNL d   1      -1.830   7.178  -1.944  0.00  0.00     0.015 A 
ATOM      7  C   UNL d   1      -1.440   8.056  -2.964  0.00  0.00     0.037 A 
ATOM      8  C   UNL d   1      -0.783   7.557  -4.091  0.00  0.00     0.102 A 
ATOM      9  C   UNL d   1      -0.520   6.189  -4.202  0.00  0.00     0.037 A 
ATOM     10  C   UNL d   1      -0.924   5.318  -3.180  0.00  0.00     0.015 A 
BRANCH   8  11
ATOM     11  N   UNL d   1      -0.361   8.474  -5.157  0.00  0.00    -0.116 N 
ATOM     12  O   UNL d   1       0.227   7.990  -6.134  0.00  0.00    -0.532 OA
ATOM     13  O   UNL d   1      -0.621   9.678  -5.017  0.00  0.00    -0.532 OA
ENDBRANCH   8  11
ENDBRANCH   1   5
BRANCH   2  14
ATOM     14  C   UNL d   1      -3.514   4.291   0.956  0.00  0.00    -0.032 A 
ATOM     15  C   UNL d   1      -4.450   3.272   0.735  0.00  0.00     0.048 A 
ATOM     16  C   UNL d   1      -4.885   2.478   1.798  0.00  0.00     0.069 A 
ATOM     17  C   UNL d   1      -4.374   2.707   3.078  0.00  0.00     0.037 A 
ATOM     18  C   UNL d   1      -3.442   3.721   3.302  0.00  0.00     0.004 A 
ATOM     19  C   UNL d   1      -3.014   4.516   2.242  0.00  0.00     0.011 A 
BRANCH  16  20
ATOM     20  O   UNL d   1      -5.796   1.460   1.719  0.00  0.00    -0.356 OA
ATOM     21  C   UNL d   1      -6.343   1.188   0.435  0.00  0.00     0.210 C 
ENDBRANCH  16  20
ENDBRANCH   2  14
TORSDOF 4
