REMARK  2 active torsions:
REMARK  status: ('A' for Active; 'I' for Inactive)
REMARK    1  A    between atoms: C_3  and  C_1 
REMARK    2  A    between atoms: C_8  and  C_2 
ROOT
ATOM      1  C   UNL d   1       0.303   0.186   1.149  0.00  0.00     0.144 A 
ATOM      2  C   UNL d   1       0.993   0.824   0.062  0.00  0.00     0.024 A 
ATOM      3  N   UNL d   1      -0.716  -0.571   0.686  0.00  0.00    -0.296 N 
ATOM      4  HN  UNL d   1      -1.374  -1.129   1.231  1.00  0.00     0.187 HD
ATOM      5  N   UNL d   1      -0.672  -0.428  -0.642  0.00  0.00    -0.311 N 
ATOM      6  C   UNL d   1       0.328   0.388  -1.066  0.00  0.00     0.121 A 
ATOM      7  H   UNL d   1      -1.364  -0.917  -1.203  0.00  0.00     0.186 HD
ENDROOT
BRANCH   2   8
ATOM      8  C   UNL d   1       2.125   1.740  -0.005  0.00  0.00    -0.022 A 
ATOM      9  C   UNL d   1       3.073   1.627  -1.034  0.00  0.00     0.012 A 
ATOM     10  C   UNL d   1       4.151   2.514  -1.119  0.00  0.00     0.001 A 
ATOM     11  C   UNL d   1       4.303   3.517  -0.167  0.00  0.00     0.000 A 
ATOM     12  C   UNL d   1       3.370   3.643   0.860  0.00  0.00     0.001 A 
ATOM     13  C   UNL d   1       2.281   2.768   0.932  0.00  0.00     0.012 A 
ENDBRANCH   2   8
BRANCH   1  14
ATOM     14  C   UNL d   1       0.578   0.265   2.632  0.00  0.00     0.434 C 
ATOM     15  F   UNL d   1       1.755   0.872   2.943  0.00  0.00    -0.165 F 
ATOM     16  F   UNL d   1      -0.391   0.963   3.287  0.00  0.00    -0.165 F 
ATOM     17  F   UNL d   1       0.632  -0.965   3.215  0.00  0.00    -0.165 F 
ENDBRANCH   1  14
TORSDOF 2
