REMARK  3 active torsions:
REMARK  status: ('A' for Active; 'I' for Inactive)
REMARK       I    between atoms: N_2  and  C_1 
REMARK    1  A    between atoms: C_4  and  C_1 
REMARK       I    between atoms: C_3  and  N_2 
REMARK    2  A    between atoms: C_5  and  C_3 
REMARK    3  A    between atoms: O_13  and  C_7 
ROOT
ATOM      1  C   UNL d   1       1.151   0.041  -0.152  0.00  0.00     0.261 C 
ATOM      2  N   UNL d   1       0.560  -1.173   0.123  0.00  0.00    -0.289 N 
ATOM      3  C   UNL d   1       1.220  -2.393   0.069  0.00  0.00     0.265 C 
ATOM      4  O   UNL d   1       2.288   0.202  -0.589  0.00  0.00    -0.267 OA
ATOM      5  O   UNL d   1       2.422  -2.505  -0.144  0.00  0.00    -0.267 OA
ATOM      6  H   UNL d   1      -0.433  -1.210   0.298  0.00  0.00     0.172 HD
ENDROOT
BRANCH   1   7
ATOM      7  C   UNL d   1       0.314   1.259   0.013  0.00  0.00     0.065 A 
ATOM      8  C   UNL d   1       0.588   2.386  -0.782  0.00  0.00     0.081 A 
ATOM      9  C   UNL d   1      -0.164   3.550  -0.653  0.00  0.00     0.037 A 
ATOM     10  C   UNL d   1      -1.182   3.614   0.297  0.00  0.00     0.003 A 
ATOM     11  C   UNL d   1      -1.448   2.512   1.111  0.00  0.00     0.001 A 
ATOM     12  C   UNL d   1      -0.706   1.334   0.971  0.00  0.00     0.020 A 
BRANCH   8  13
ATOM     13  O   UNL d   1       1.595   2.420  -1.711  0.00  0.00    -0.360 OA
ATOM     14  H   UNL d   1       2.187   1.650  -1.544  0.00  0.00     0.217 HD
ENDBRANCH   8  13
ENDBRANCH   1   7
BRANCH   3  15
ATOM     15  C   UNL d   1       0.387  -3.571   0.304  0.00  0.00     0.072 A 
ATOM     16  S   UNL d   1      -1.266  -3.475   0.746  0.00  0.00    -0.097 SA
ATOM     17  C   UNL d   1      -1.416  -5.178   0.822  0.00  0.00     0.050 A 
ATOM     18  C   UNL d   1      -0.236  -5.815   0.515  0.00  0.00     0.009 A 
ATOM     19  C   UNL d   1       0.804  -4.889   0.222  0.00  0.00     0.025 A 
ENDBRANCH   3  15
TORSDOF 3
