REMARK  5 active torsions:
REMARK  status: ('A' for Active; 'I' for Inactive)
REMARK    1  A    between atoms: C_10  and  C_2 
REMARK    2  A    between atoms: C_13  and  C_12 
REMARK    3  A    between atoms: C_15  and  C_13 
REMARK    4  A    between atoms: O_21  and  C_15 
REMARK    5  A    between atoms: C_22  and  O_21 
ROOT
ATOM      1  N   UNL d   1      -0.544  -0.791   0.071  0.00  0.00    -0.213 N 
ATOM      2  C   UNL d   1      -1.898  -1.063  -0.040  0.00  0.00     0.161 A 
ATOM      3  C   UNL d   1      -0.471   0.579  -0.034  0.00  0.00     0.182 A 
ATOM      4  N   UNL d   1      -2.555   0.069  -0.234  0.00  0.00    -0.281 N 
ATOM      5  HN  UNL d   1      -3.561   0.157  -0.378  1.00  0.00     0.188 HD
ATOM      6  N   UNL d   1       0.474  -1.692   0.291  0.00  0.00    -0.297 N 
ATOM      7  HN  UNL d   1       0.289  -2.644   0.605  1.00  0.00     0.187 HD
ATOM      8  N   UNL d   1      -1.653   1.108  -0.210  0.00  0.00    -0.277 N 
ATOM      9  HN  UNL d   1      -1.866   2.100  -0.311  1.00  0.00     0.189 HD
ATOM     10  S   UNL d   1       1.037   1.401   0.106  0.00  0.00    -0.085 SA
ATOM     11  C   UNL d   1       1.689  -1.265   0.077  0.00  0.00     0.023 C 
ATOM     12  C   UNL d   1       2.073   0.074  -0.536  0.00  0.00     0.137 C 
ENDROOT
BRANCH  11  13
ATOM     13  C   UNL d   1       2.821  -2.225   0.378  0.00  0.00     0.165 C 
BRANCH  13  14
ATOM     14  C   UNL d   1       3.501  -2.730  -0.860  0.00  0.00     0.264 C 
ATOM     15  O   UNL d   1       3.291  -2.312  -1.990  0.00  0.00    -0.265 OA
BRANCH  14  16
ATOM     16  O   UNL d   1       4.379  -3.715  -0.529  0.00  0.00    -0.322 OA
BRANCH  16  17
ATOM     17  C   UNL d   1       4.959  -4.436  -1.628  0.00  0.00     0.174 C 
ATOM     18  C   UNL d   1       4.067  -5.620  -1.954  0.00  0.00     0.034 C 
ENDBRANCH  16  17
ENDBRANCH  14  16
ENDBRANCH  13  14
ENDBRANCH  11  13
BRANCH   2  19
ATOM     19  C   UNL d   1      -2.509  -2.363   0.013  0.00  0.00     0.052 A 
ATOM     20  S   UNL d   1      -3.985  -2.667  -0.813  0.00  0.00    -0.098 SA
ATOM     21  C   UNL d   1      -4.024  -4.295  -0.298  0.00  0.00     0.050 A 
ATOM     22  C   UNL d   1      -2.949  -4.609   0.502  0.00  0.00     0.009 A 
ATOM     23  C   UNL d   1      -2.076  -3.495   0.679  0.00  0.00     0.023 A 
ENDBRANCH   2  19
TORSDOF 5
