REMARK  3 active torsions:
REMARK  status: ('A' for Active; 'I' for Inactive)
REMARK    1  A    between atoms: C_7  and  C_1 
REMARK    2  A    between atoms: C_16  and  N_2 
REMARK    3  A    between atoms: N_3  and  C_7 
ROOT
ATOM      1  N   UNL d   1       1.875  -2.968  -0.031  0.00  0.00    -0.309 N 
ATOM      2  C   UNL d   1       1.019  -3.541  -0.979  0.00  0.00     0.234 C 
ATOM      3  C   UNL d   1       2.453  -3.709   1.060  0.00  0.00     0.054 A 
ATOM      4  S   UNL d   1       0.571  -5.734   0.606  0.00  0.00    -0.118 SA
ATOM      5  C   UNL d   1       1.962  -4.982   1.424  0.00  0.00     0.028 A 
ATOM      6  C   UNL d   1       0.896  -5.046  -1.016  0.00  0.00     0.182 C 
ATOM      7  O   UNL d   1       0.484  -2.867  -1.869  0.00  0.00    -0.272 OA
ATOM      8  C   UNL d   1       3.533  -3.201   1.803  0.00  0.00     0.031 A 
ATOM      9  C   UNL d   1       2.540  -5.706   2.478  0.00  0.00     0.021 A 
ATOM     10  C   UNL d   1       4.119  -3.938   2.841  0.00  0.00     0.002 A 
ATOM     11  C   UNL d   1       3.624  -5.189   3.179  0.00  0.00     0.002 A 
ENDROOT
BRANCH   1  12
ATOM     12  C   UNL d   1       2.093  -1.527  -0.175  0.00  0.00     0.210 C 
BRANCH  12  13
ATOM     13  C   UNL d   1       1.032  -0.652   0.478  0.00  0.00     0.119 A 
ATOM     14  N   UNL d   1       1.109   0.706   0.414  0.00  0.00    -0.310 N 
ATOM     15  C   UNL d   1      -0.011   1.160   1.070  0.00  0.00     0.194 A 
ATOM     16  S   UNL d   1      -0.535   2.706   1.343  0.00  0.00    -0.039 SA
ATOM     17  N   UNL d   1      -0.685   0.027   1.497  0.00  0.00    -0.275 N 
ATOM     18  N   UNL d   1      -0.014  -1.099   1.117  0.00  0.00    -0.285 N 
ATOM     19  H   UNL d   1      -1.576  -0.006   1.978  0.00  0.00     0.189 HD
ATOM     20  HN  UNL d   1      -0.272  -2.070   1.292  1.00  0.00     0.188 HD
BRANCH  14  21
ATOM     21  C   UNL d   1       2.147   1.519  -0.213  0.00  0.00     0.128 C 
ATOM     22  C   UNL d   1       3.233   1.918   0.776  0.00  0.00     0.027 C 
ENDBRANCH  14  21
ENDBRANCH  12  13
ENDBRANCH   1  12
TORSDOF 3
