REMARK  2 active torsions:
REMARK  status: ('A' for Active; 'I' for Inactive)
REMARK    1  A    between atoms: C_7  and  C_6 
REMARK    2  A    between atoms: O_16  and  C_8 
ROOT
ATOM      1  C   UNL d   1      -3.894   0.344   0.016  0.00  0.00     0.002 A 
ATOM      2  C   UNL d   1      -4.842   0.441  -1.016  0.00  0.00     0.097 A 
ATOM      3  C   UNL d   1      -6.000  -0.349  -0.983  0.00  0.00     0.069 A 
ATOM      4  C   UNL d   1      -6.220  -1.237   0.069  0.00  0.00     0.050 A 
ATOM      5  C   UNL d   1      -4.129  -0.542   1.077  0.00  0.00     0.038 A 
ATOM      6  C   UNL d   1      -5.284  -1.327   1.094  0.00  0.00     0.036 A 
ATOM      7 CL   UNL d   1      -7.187  -0.257  -2.235  0.00  0.00    -0.081 Cl
ATOM      8 CL   UNL d   1      -5.548  -2.422   2.395  0.00  0.00    -0.084 Cl
ENDROOT
BRANCH   1   9
ATOM      9  C   UNL d   1      -2.650   1.126   0.023  0.00  0.00     0.039 C 
ATOM     10  C   UNL d   1      -1.491   0.724  -0.518  0.00  0.00     0.076 A 
ATOM     11  C   UNL d   1      -0.265   1.564  -0.478  0.00  0.00     0.264 A 
ATOM     12  S   UNL d   1      -1.159  -0.757  -1.338  0.00  0.00    -0.055 SA
ATOM     13  N   UNL d   1       0.766   0.902  -1.081  0.00  0.00    -0.307 N 
ATOM     14  O   UNL d   1      -0.194   2.681   0.008  0.00  0.00    -0.267 OA
ATOM     15  C   UNL d   1       0.519  -0.333  -1.599  0.00  0.00     0.146 A 
ATOM     16  H   UNL d   1       1.679   1.328  -1.141  0.00  0.00     0.170 HD
ATOM     17  S   UNL d   1       1.664  -1.258  -2.355  0.00  0.00    -0.052 SA
ENDBRANCH   1   9
BRANCH   2  18
ATOM     18  O   UNL d   1      -4.668   1.299  -2.072  0.00  0.00    -0.358 OA
ATOM     19  H   UNL d   1      -3.821   1.764  -1.990  0.00  0.00     0.217 HD
ENDBRANCH   2  18
TORSDOF 2
