REMARK  2 active torsions:
REMARK  status: ('A' for Active; 'I' for Inactive)
REMARK    1  A    between atoms: C_10  and  C_3 
REMARK    2  A    between atoms: C_12  and  C_7 
ROOT
ATOM      1  N   UNL d   1      -5.489  -5.878   0.148  0.00  0.00    -0.191 NA
ATOM      2  C   UNL d   1      -4.541  -5.205   0.117  0.00  0.00     0.099 C 
ATOM      3  C   UNL d   1      -1.013  -2.862   0.009  0.00  0.00    -0.034 A 
ATOM      4  C   UNL d   1      -3.361  -4.394   0.081  0.00  0.00     0.044 A 
ATOM      5  C   UNL d   1      -1.636  -3.250  -1.182  0.00  0.00     0.013 A 
ATOM      6  C   UNL d   1      -1.578  -3.226   1.236  0.00  0.00     0.013 A 
ATOM      7  C   UNL d   1      -2.748  -3.991   1.272  0.00  0.00     0.023 A 
ATOM      8  C   UNL d   1      -2.806  -4.014  -1.146  0.00  0.00     0.023 A 
ENDROOT
BRANCH   3   9
ATOM      9  C   UNL d   1       0.234  -2.100  -0.029  0.00  0.00     0.047 C 
ATOM     10  C   UNL d   1       0.337  -0.766   0.000  0.00  0.00     0.111 A 
ATOM     11  N   UNL d   1       1.537  -0.100  -0.045  0.00  0.00    -0.331 N 
ATOM     12  C   UNL d   1      -0.789   0.210   0.071  0.00  0.00     0.316 A 
ATOM     13  C   UNL d   1       1.176   1.143  -0.010  0.00  0.00     0.162 A 
ATOM     14  HN  UNL d   1       2.479  -0.488  -0.094  1.00  0.00     0.168 HD
ATOM     15  O   UNL d   1      -0.148   1.412   0.061  0.00  0.00    -0.256 OA
ATOM     16  O   UNL d   1      -1.987   0.031   0.121  0.00  0.00    -0.257 OA
BRANCH  13  17
ATOM     17  C   UNL d   1       2.052   2.324  -0.060  0.00  0.00     0.015 A 
ATOM     18  C   UNL d   1       3.436   2.142  -0.176  0.00  0.00     0.016 A 
ATOM     19  C   UNL d   1       4.282   3.249  -0.267  0.00  0.00     0.001 A 
ATOM     20  C   UNL d   1       3.750   4.538  -0.238  0.00  0.00     0.000 A 
ATOM     21  C   UNL d   1       2.375   4.725  -0.110  0.00  0.00     0.001 A 
ATOM     22  C   UNL d   1       1.524   3.620  -0.018  0.00  0.00     0.016 A 
ENDBRANCH  13  17
ENDBRANCH   3   9
TORSDOF 2
