REMARK  4 active torsions:
REMARK  status: ('A' for Active; 'I' for Inactive)
REMARK    1  A    between atoms: C_4  and  C_1 
REMARK    2  A    between atoms: C_2  and  C_3 
REMARK    3  A    between atoms: N_13  and  C_4 
REMARK    4  A    between atoms: O_14  and  N_5 
ROOT
ATOM      1  C   UNL d   1       2.791   2.556   0.018  0.00  0.00     0.034 A 
ATOM      2  C   UNL d   1       3.637   1.440   0.027  0.00  0.00     0.064 A 
ATOM      3  N   UNL d   1       4.734   4.041   0.052  0.00  0.00    -0.374 N 
ATOM      4  HN  UNL d   1       5.118   4.986   0.067  1.00  0.00     0.164 HD
ATOM      5  C   UNL d   1       3.397   3.818   0.041  0.00  0.00     0.103 A 
ATOM      6  C   UNL d   1       5.032   1.665   0.029  0.00  0.00     0.034 A 
ATOM      7  C   UNL d   1       5.526   2.958   0.042  0.00  0.00     0.088 A 
ENDROOT
BRANCH   1   8
ATOM      8  C   UNL d   1       1.297   2.562  -0.036  0.00  0.00     0.110 C 
ATOM      9  N   UNL d   1       0.677   3.534   0.571  0.00  0.00    -0.257 N 
ATOM     10  HN  UNL d   1       1.141   4.274   1.099  1.00  0.00     0.195 HD
BRANCH   9  11
ATOM     11  O   UNL d   1      -0.718   3.431   0.404  0.00  0.00    -0.289 OA
ATOM     12  H   UNL d   1      -1.034   4.255   0.821  0.00  0.00     0.244 HD
ENDBRANCH   9  11
BRANCH   8  13
ATOM     13  N   UNL d   1       0.606   1.621  -0.759  0.00  0.00    -0.286 NA
ATOM     14  H   UNL d   1       0.800   0.654  -0.512  0.00  0.00     0.125 HD
ATOM     15  H   UNL d   1      -0.391   1.790  -0.618  0.00  0.00     0.125 HD
ENDBRANCH   8  13
ENDBRANCH   1   8
BRANCH   2  16
ATOM     16  C   UNL d   1       3.204   0.004   0.062  0.00  0.00     0.418 C 
ATOM     17  F   UNL d   1       1.877  -0.220   0.258  0.00  0.00    -0.166 F 
ATOM     18  F   UNL d   1       3.526  -0.656  -1.084  0.00  0.00    -0.166 F 
ATOM     19  F   UNL d   1       3.826  -0.685   1.063  0.00  0.00    -0.166 F 
ENDBRANCH   2  16
TORSDOF 4
