REMARK  3 active torsions:
REMARK  status: ('A' for Active; 'I' for Inactive)
REMARK    1  A    between atoms: C_6  and  C_1 
REMARK    2  A    between atoms: O_12  and  C_1 
REMARK    3  A    between atoms: C_14  and  C_6 
ROOT
ATOM      1  C   UNL d   1      -1.307  -1.505  -0.030  0.00  0.00     0.172 C 
ATOM      2  C   UNL d   1      -2.369  -0.344   0.084  0.00  0.00     0.262 C 
ATOM      3  C   UNL d   1      -0.019  -0.714   0.101  0.00  0.00     0.015 A 
ATOM      4  N   UNL d   1      -1.672   0.859   0.091  0.00  0.00    -0.324 N 
ATOM      5  C   UNL d   1      -0.304   0.653   0.124  0.00  0.00     0.044 A 
ATOM      6  C   UNL d   1       1.292  -1.158   0.166  0.00  0.00     0.055 A 
ATOM      7  O   UNL d   1      -3.581  -0.436   0.203  0.00  0.00    -0.269 OA
ATOM      8  C   UNL d   1       0.680   1.618   0.196  0.00  0.00     0.033 A 
ATOM      9  C   UNL d   1       2.296  -0.196   0.237  0.00  0.00     0.117 A 
ATOM     10  C   UNL d   1       2.004   1.177   0.247  0.00  0.00     0.044 A 
ATOM     11  F   UNL d   1       3.576  -0.589   0.292  0.00  0.00    -0.206 F 
ATOM     12  H   UNL d   1      -2.137   1.751   0.170  0.00  0.00     0.169 HD
ENDROOT
BRANCH   1  13
ATOM     13  C   UNL d   1      -1.347  -2.174  -1.419  0.00  0.00     0.091 C 
BRANCH  13  14
ATOM     14  C   UNL d   1      -2.655  -2.841  -1.772  0.00  0.00    -0.052 A 
ATOM     15  C   UNL d   1      -3.634  -2.156  -2.497  0.00  0.00     0.024 A 
ATOM     16  C   UNL d   1      -4.829  -2.801  -2.777  0.00  0.00     0.088 A 
ATOM     17  N   UNL d   1      -5.105  -4.069  -2.406  0.00  0.00    -0.375 N 
ATOM     18  C   UNL d   1      -4.149  -4.711  -1.704  0.00  0.00     0.088 A 
ATOM     19  HN  UNL d   1      -5.990  -4.518  -2.644  1.00  0.00     0.164 HD
ATOM     20  C   UNL d   1      -2.926  -4.150  -1.365  0.00  0.00     0.024 A 
ENDBRANCH  13  14
ENDBRANCH   1  13
BRANCH   1  21
ATOM     21  O   UNL d   1      -1.344  -2.476   1.002  0.00  0.00    -0.375 OA
ATOM     22  H   UNL d   1      -1.486  -1.996   1.836  0.00  0.00     0.211 HD
ENDBRANCH   1  21
TORSDOF 3
