REMARK  3 active torsions:
REMARK  status: ('A' for Active; 'I' for Inactive)
REMARK    1  A    between atoms: C_5  and  C_3 
REMARK    2  A    between atoms: C_11  and  C_4 
REMARK    3  A    between atoms: C_8  and  C_10 
ROOT
ATOM      1  N   UNL d   1       1.259   0.141   0.207  0.00  0.00    -0.318 N 
ATOM      2  HN  UNL d   1       2.237   0.292   0.453  1.00  0.00     0.169 HD
ATOM      3  C   UNL d   1       0.272   1.077  -0.011  0.00  0.00     0.140 A 
ATOM      4  C   UNL d   1       0.625  -0.998   0.019  0.00  0.00     0.182 A 
ATOM      5  N   UNL d   1      -0.912   0.552  -0.358  0.00  0.00    -0.242 N 
ATOM      6  HN  UNL d   1      -1.772   1.042  -0.603  1.00  0.00     0.196 HD
ATOM      7  O   UNL d   1      -0.690  -0.822  -0.304  0.00  0.00    -0.217 OA
ENDROOT
BRANCH   3   8
ATOM      8  C   UNL d   1       0.553   2.501  -0.003  0.00  0.00     0.040 A 
ATOM      9  C   UNL d   1      -0.310   3.496   0.481  0.00  0.00     0.064 A 
ATOM     10  C   UNL d   1       0.075   4.844   0.327  0.00  0.00     0.034 A 
ATOM     11  C   UNL d   1       1.294   5.147  -0.254  0.00  0.00     0.088 A 
ATOM     12  N   UNL d   1       2.155   4.211  -0.686  0.00  0.00    -0.374 N 
ATOM     13  C   UNL d   1       1.767   2.919  -0.552  0.00  0.00     0.103 A 
ATOM     14  HN  UNL d   1       3.055   4.460  -1.096  1.00  0.00     0.164 HD
BRANCH   9  15
ATOM     15  C   UNL d   1      -1.622   3.244   1.180  0.00  0.00     0.418 C 
ATOM     16  F   UNL d   1      -1.868   1.968   1.567  0.00  0.00    -0.166 F 
ATOM     17  F   UNL d   1      -1.711   3.975   2.333  0.00  0.00    -0.166 F 
ATOM     18  F   UNL d   1      -2.687   3.635   0.426  0.00  0.00    -0.166 F 
ENDBRANCH   9  15
ENDBRANCH   3   8
BRANCH   4  19
ATOM     19  C   UNL d   1       1.132  -2.364   0.031  0.00  0.00     0.019 A 
ATOM     20  C   UNL d   1       2.502  -2.598   0.230  0.00  0.00     0.041 A 
ATOM     21  C   UNL d   1       3.029  -3.892   0.179  0.00  0.00     0.056 A 
ATOM     22 CL   UNL d   1       4.731  -4.079   0.410  0.00  0.00    -0.083 Cl
ATOM     23  C   UNL d   1       2.184  -4.981  -0.066  0.00  0.00     0.055 A 
ATOM     24  C   UNL d   1       0.816  -4.764  -0.245  0.00  0.00     0.026 A 
ATOM     25 CL   UNL d   1       2.764  -6.603  -0.172  0.00  0.00    -0.083 Cl
ATOM     26  C   UNL d   1       0.294  -3.468  -0.195  0.00  0.00     0.017 A 
ENDBRANCH   4  19
TORSDOF 3
