REMARK  2 active torsions:
REMARK  status: ('A' for Active; 'I' for Inactive)
REMARK    1  A    between atoms: N_14  and  C_5 
REMARK    2  A    between atoms: C_17  and  N_14 
ROOT
ATOM      1  C   UNL d   1       0.765   0.489  -0.086  0.00  0.00     0.049 A 
ATOM      2  C   UNL d   1       1.259  -0.785  -0.085  0.00  0.00     0.091 A 
ATOM      3  N   UNL d   1       3.037   1.255   0.011  0.00  0.00    -0.319 N 
ATOM      4  HN  UNL d   1       3.718   2.012   0.062  1.00  0.00     0.170 HD
ATOM      5  C   UNL d   1       1.768   1.543  -0.023  0.00  0.00     0.117 A 
ATOM      6  N   UNL d   1       2.583  -1.089  -0.059  0.00  0.00    -0.327 N 
ATOM      7  C   UNL d   1      -0.678   0.444  -0.120  0.00  0.00    -0.028 A 
ATOM      8  C   UNL d   1       3.481  -0.048  -0.019  0.00  0.00     0.178 A 
ATOM      9  C   UNL d   1      -1.134  -0.871  -0.071  0.00  0.00    -0.008 A 
ATOM     10  S   UNL d   1       0.130  -2.019  -0.090  0.00  0.00    -0.075 SA
ATOM     11  C   UNL d   1      -1.648   1.593  -0.127  0.00  0.00     0.041 C 
ATOM     12  S   UNL d   1       5.114  -0.447   0.006  0.00  0.00    -0.040 SA
ATOM     13  C   UNL d   1      -2.572  -1.296  -0.014  0.00  0.00     0.051 C 
ATOM     14  C   UNL d   1      -3.103   1.150  -0.344  0.00  0.00     0.009 C 
ATOM     15  C   UNL d   1      -3.470  -0.125   0.439  0.00  0.00    -0.014 C 
ATOM     16  C   UNL d   1      -3.393   0.095   1.955  0.00  0.00     0.010 C 
ATOM     17  H   UNL d   1       2.907  -2.045  -0.063  0.00  0.00     0.169 HD
ENDROOT
BRANCH   5  18
ATOM     18  N   UNL d   1       1.273   2.820   0.028  0.00  0.00    -0.376 N 
ATOM     19  H   UNL d   1       0.283   2.911   0.185  0.00  0.00     0.161 HD
BRANCH  18  20
ATOM     20  C   UNL d   1       2.038   3.898   0.627  0.00  0.00     0.116 C 
ATOM     21  C   UNL d   1       1.249   5.194   0.519  0.00  0.00     0.026 C 
ENDBRANCH  18  20
ENDBRANCH   5  18
TORSDOF 2
