REMARK  6 active torsions:
REMARK  status: ('A' for Active; 'I' for Inactive)
REMARK    1  A    between atoms: C_13  and  N_2 
REMARK    2  A    between atoms: C_11  and  C_4 
REMARK    3  A    between atoms: C_14  and  N_5 
REMARK    4  A    between atoms: O_18  and  C_11 
REMARK    5  A    between atoms: C_17  and  C_12 
REMARK    6  A    between atoms: C_23  and  O_18 
ROOT
ATOM      1  C   UNL d   1      -0.009  -0.241  -0.344  0.00  0.00     0.247 C 
ATOM      2  N   UNL d   1       1.138  -1.071  -0.654  0.00  0.00    -0.265 N 
ATOM      3  S   UNL d   1      -0.701  -0.659   1.322  0.00  0.00    -0.037 SA
ATOM      4  C   UNL d   1      -2.228  -0.124   0.720  0.00  0.00     0.166 C 
ATOM      5  N   UNL d   1      -1.220  -0.275  -1.214  0.00  0.00    -0.241 N 
ATOM      6  N   UNL d   1      -2.423  -0.010  -0.548  0.00  0.00    -0.283 N 
ATOM      7  HN  UNL d   1      -3.308   0.233  -0.994  1.00  0.00     0.188 HD
ATOM      8  S   UNL d   1       0.666   1.475  -0.178  0.00  0.00    -0.056 SA
ATOM      9  C   UNL d   1       2.308  -0.616  -0.035  0.00  0.00     0.268 C 
ATOM     10  C   UNL d   1       2.253   0.867   0.146  0.00  0.00     0.074 C 
ATOM     11  C   UNL d   1       3.274   1.675   0.447  0.00  0.00     0.035 C 
ATOM     12  O   UNL d   1       3.247  -1.315   0.330  0.00  0.00    -0.266 OA
ENDROOT
BRANCH   2  13
ATOM     13  C   UNL d   1       1.137  -2.368  -1.227  0.00  0.00     0.041 A 
ATOM     14  C   UNL d   1       0.150  -3.314  -0.968  0.00  0.00     0.030 A 
ATOM     15  C   UNL d   1       0.175  -4.554  -1.617  0.00  0.00     0.002 A 
ATOM     16  C   UNL d   1       1.157  -4.838  -2.564  0.00  0.00     0.000 A 
ATOM     17  C   UNL d   1       2.184  -3.928  -2.787  0.00  0.00     0.002 A 
ATOM     18  C   UNL d   1       2.192  -2.716  -2.097  0.00  0.00     0.030 A 
ENDBRANCH   2  13
BRANCH   5  19
ATOM     19  C   UNL d   1      -1.296  -0.230  -2.600  0.00  0.00     0.055 C 
ATOM     20  C   UNL d   1      -2.361  -0.903  -3.240  0.00  0.00     0.031 C 
ATOM     21  C   UNL d   1      -2.424  -1.040  -4.629  0.00  0.00     0.002 C 
ATOM     22  C   UNL d   1      -1.471  -0.418  -5.423  0.00  0.00     0.000 C 
ATOM     23  C   UNL d   1      -0.494   0.373  -4.824  0.00  0.00     0.002 C 
ATOM     24  C   UNL d   1      -0.399   0.450  -3.426  0.00  0.00     0.031 C 
ENDBRANCH   5  19
BRANCH   4  25
ATOM     25  C   UNL d   1      -3.176   0.120   1.870  0.00  0.00     0.318 C 
ATOM     26  O   UNL d   1      -2.795   0.456   2.968  0.00  0.00    -0.257 OA
BRANCH  25  27
ATOM     27  O   UNL d   1      -4.442  -0.201   1.518  0.00  0.00    -0.316 OA
BRANCH  27  28
ATOM     28  C   UNL d   1      -5.287  -0.547   2.627  0.00  0.00     0.175 C 
ATOM     29  C   UNL d   1      -5.138  -2.043   2.844  0.00  0.00     0.034 C 
ENDBRANCH  27  28
ENDBRANCH  25  27
ENDBRANCH   4  25
BRANCH  11  30
ATOM     30  C   UNL d   1       4.667   1.276   0.662  0.00  0.00    -0.035 A 
ATOM     31  C   UNL d   1       5.556   1.214  -0.416  0.00  0.00     0.011 A 
ATOM     32  C   UNL d   1       6.888   0.844  -0.212  0.00  0.00     0.001 A 
ATOM     33  C   UNL d   1       7.339   0.543   1.072  0.00  0.00     0.000 A 
ATOM     34  C   UNL d   1       6.460   0.611   2.152  0.00  0.00     0.001 A 
ATOM     35  C   UNL d   1       5.123   0.976   1.951  0.00  0.00     0.011 A 
ENDBRANCH  11  30
TORSDOF 6
