REMARK  4 active torsions:
REMARK  status: ('A' for Active; 'I' for Inactive)
REMARK    1  A    between atoms: C_11  and  N_1 
REMARK    2  A    between atoms: C_7  and  C_2 
REMARK    3  A    between atoms: N_13  and  C_9 
REMARK    4  A    between atoms: C_14  and  N_13 
ROOT
ATOM      1  N   UNL d   1       0.949   0.605  -0.116  0.00  0.00    -0.225 N 
ATOM      2  C   UNL d   1       1.120  -0.769   0.029  0.00  0.00     0.139 C 
ATOM      3  N   UNL d   1      -0.955  -0.267   0.328  0.00  0.00    -0.007 NA
ATOM      4  N   UNL d   1      -0.337   0.897   0.202  0.00  0.00     0.001 NA
ATOM      5  N   UNL d   1      -0.073  -1.305   0.214  0.00  0.00    -0.270 N 
ATOM      6  HN  UNL d   1      -0.294  -2.300   0.261  1.00  0.00     0.185 HD
ENDROOT
BRANCH   2   7
ATOM      7  C   UNL d   1       2.400  -1.378   0.103  0.00  0.00     0.068 C 
ATOM      8  C   UNL d   1       2.542  -2.680  -0.171  0.00  0.00     0.092 C 
BRANCH   8   9
ATOM      9  N   UNL d   1       3.688  -3.426  -0.065  0.00  0.00    -0.366 N 
ATOM     10  H   UNL d   1       4.471  -2.993   0.417  0.00  0.00     0.165 HD
BRANCH   9  11
ATOM     11  C   UNL d   1       3.857  -4.771  -0.434  0.00  0.00     0.033 A 
ATOM     12  C   UNL d   1       4.804  -5.554   0.243  0.00  0.00     0.056 A 
ATOM     13  C   UNL d   1       4.942  -6.915  -0.047  0.00  0.00     0.074 A 
ATOM     14 CL   UNL d   1       6.103  -7.850   0.815  0.00  0.00    -0.081 Cl
ATOM     15  C   UNL d   1       4.138  -7.504  -1.018  0.00  0.00     0.138 A 
ATOM     16  C   UNL d   1       3.195  -6.748  -1.702  0.00  0.00     0.046 A 
ATOM     17  F   UNL d   1       4.253  -8.808  -1.309  0.00  0.00    -0.204 F 
ATOM     18  C   UNL d   1       3.051  -5.391  -1.403  0.00  0.00     0.032 A 
ENDBRANCH   9  11
ENDBRANCH   8   9
ENDBRANCH   2   7
BRANCH   1  19
ATOM     19  C   UNL d   1       1.843   1.621  -0.538  0.00  0.00     0.056 A 
ATOM     20  C   UNL d   1       2.918   1.334  -1.391  0.00  0.00     0.031 A 
ATOM     21  C   UNL d   1       3.794   2.352  -1.775  0.00  0.00     0.002 A 
ATOM     22  C   UNL d   1       3.604   3.652  -1.309  0.00  0.00     0.000 A 
ATOM     23  C   UNL d   1       2.519   3.947  -0.485  0.00  0.00     0.002 A 
ATOM     24  C   UNL d   1       1.626   2.940  -0.114  0.00  0.00     0.031 A 
ENDBRANCH   1  19
TORSDOF 4
