REMARK  7 active torsions:
REMARK  status: ('A' for Active; 'I' for Inactive)
REMARK    1  A    between atoms: N_3  and  C_1 
REMARK    2  A    between atoms: C_2  and  N_3 
REMARK    3  A    between atoms: N_6  and  C_2 
REMARK    4  A    between atoms: C_11  and  C_4 
REMARK    5  A    between atoms: C_10  and  C_5 
REMARK    6  A    between atoms: C_8  and  N_6 
REMARK    7  A    between atoms: S_13  and  C_12 
ROOT
ATOM      1  N   UNL d   1       2.993  -0.461   1.201  0.00  0.00    -0.355 N 
ATOM      2  H   UNL d   1       2.389  -0.858   1.919  0.00  0.00     0.163 HD
ENDROOT
BRANCH   1   3
ATOM      3  C   UNL d   1       4.266  -0.318   1.670  0.00  0.00     0.173 C 
ATOM      4  S   UNL d   1       4.414  -0.729   3.289  0.00  0.00    -0.041 SA
BRANCH   3   5
ATOM      5  N   UNL d   1       5.231   0.052   0.777  0.00  0.00    -0.333 N 
ATOM      6  H   UNL d   1       4.869   0.128  -0.168  0.00  0.00     0.168 HD
BRANCH   5   7
ATOM      7  C   UNL d   1       6.635   0.267   0.896  0.00  0.00     0.035 A 
ATOM      8  C   UNL d   1       7.394   0.144   2.064  0.00  0.00     0.048 A 
ATOM      9  C   UNL d   1       8.788   0.374   2.092  0.00  0.00     0.002 A 
ATOM     10  C   UNL d   1       9.426   0.745   0.910  0.00  0.00     0.018 A 
ATOM     11  C   UNL d   1       8.690   0.879  -0.267  0.00  0.00     0.004 A 
ATOM     12  C   UNL d   1       7.312   0.641  -0.272  0.00  0.00     0.029 A 
BRANCH   9  13
ATOM     13  S   UNL d   1       9.617   0.132   3.664  0.00  0.00    -0.134 SA
ATOM     14  C   UNL d   1      11.240   0.905   3.425  0.00  0.00     0.095 C 
ENDBRANCH   9  13
ENDBRANCH   5   7
ENDBRANCH   3   5
ENDBRANCH   1   3
BRANCH   1  15
ATOM     15  C   UNL d   1       2.256  -0.064   0.048  0.00  0.00     0.143 C 
ATOM     16  C   UNL d   1       1.375  -1.114  -0.329  0.00  0.00    -0.050 C 
ATOM     17  C   UNL d   1      -0.018  -0.944  -0.204  0.00  0.00     0.006 C 
ATOM     18  C   UNL d   1      -0.551   0.288   0.133  0.00  0.00     0.001 C 
ATOM     19  C   UNL d   1       0.297   1.383   0.210  0.00  0.00     0.006 C 
ATOM     20  C   UNL d   1       1.700   1.238   0.095  0.00  0.00    -0.050 C 
BRANCH  16  21
ATOM     21  C   UNL d   1       1.869  -2.439  -0.898  0.00  0.00     0.009 C 
ATOM     22  C   UNL d   1       3.262  -2.373  -1.532  0.00  0.00     0.014 C 
ATOM     23  C   UNL d   1       1.783  -3.590   0.106  0.00  0.00     0.014 C 
ENDBRANCH  16  21
BRANCH  20  24
ATOM     24  C   UNL d   1       2.479   2.530  -0.117  0.00  0.00     0.009 C 
ATOM     25  C   UNL d   1       3.061   3.098   1.169  0.00  0.00     0.014 C 
ATOM     26  C   UNL d   1       3.502   2.456  -1.252  0.00  0.00     0.014 C 
ENDBRANCH  20  24
ENDBRANCH   1  15
TORSDOF 7
