REMARK  9 active torsions:
REMARK  status: ('A' for Active; 'I' for Inactive)
REMARK    1  A    between atoms: C_27  and  N_8 
REMARK    2  A    between atoms: C_10  and  C_25 
REMARK    3  A    between atoms: O_22  and  C_10 
REMARK    4  A    between atoms: C_11  and  O_21 
REMARK    5  A    between atoms: C_26  and  C_11 
REMARK    6  A    between atoms: S_18  and  C_26 
REMARK    7  A    between atoms: C_25  and  S_18 
REMARK    8  A    between atoms: O_21  and  C_28 
REMARK    9  A    between atoms: C_28  and  C_27 
ROOT
ATOM      1  C   UNL d   1      -3.112   0.269   0.069  0.00  0.00     0.148 A 
ATOM      2  N   UNL d   1      -2.360  -0.680   0.585  0.00  0.00    -0.336 N 
ATOM      3  HN  UNL d   1      -2.719  -1.498   1.076  1.00  0.00     0.168 HD
ATOM      4  S   UNL d   1      -2.213   1.591  -0.597  0.00  0.00    -0.052 SA
ATOM      5  N   UNL d   1      -4.468   0.233   0.064  0.00  0.00    -0.358 N 
ATOM      6  C   UNL d   1      -0.737   0.798  -0.241  0.00  0.00     0.036 A 
ATOM      7  C   UNL d   1      -1.019  -0.420   0.373  0.00  0.00     0.051 A 
ATOM      8  N   UNL d   1      -7.234  -0.655  -0.429  0.00  0.00     0.093 N 
ATOM      9  C   UNL d   1       0.574   1.226  -0.498  0.00  0.00     0.045 A 
ATOM     10  C   UNL d   1      -5.197  -0.460   1.130  0.00  0.00     0.155 C 
ATOM     11  C   UNL d   1      -5.274   0.904  -0.954  0.00  0.00     0.155 C 
ATOM     12  C   UNL d   1       0.056  -1.267   0.718  0.00  0.00     0.032 A 
ATOM     13  C   UNL d   1       1.618   0.373  -0.138  0.00  0.00     0.035 A 
ATOM     14  C   UNL d   1      -6.367  -0.058  -1.475  0.00  0.00     0.292 C 
ATOM     15  C   UNL d   1      -6.340  -1.331   0.552  0.00  0.00     0.292 C 
ATOM     16  C   UNL d   1       1.371  -0.862   0.453  0.00  0.00     0.026 A 
ATOM     17 CL   UNL d   1       3.242   0.861  -0.439  0.00  0.00    -0.084 Cl
ENDROOT
BRANCH   8  18
ATOM     18  C   UNL d   1      -8.086   0.345   0.237  0.00  0.00     0.299 C 
BRANCH  18  19
ATOM     19  C   UNL d   1      -9.124   1.009  -0.687  0.00  0.00     0.209 C 
BRANCH  19  20
ATOM     20  O   UNL d   1      -9.842   2.034   0.023  0.00  0.00    -0.319 OA
BRANCH  20  21
ATOM     21  C   UNL d   1      -9.187   3.228   0.095  0.00  0.00     0.268 C 
ATOM     22  O   UNL d   1      -8.079   3.443  -0.385  0.00  0.00    -0.264 OA
BRANCH  21  23
ATOM     23  C   UNL d   1      -9.992   4.252   0.853  0.00  0.00     0.185 C 
BRANCH  23  24
ATOM     24  S   UNL d   1      -9.219   4.705   2.450  0.00  0.00    -0.149 SA
BRANCH  24  25
ATOM     25  C   UNL d   1      -7.610   5.393   1.890  0.00  0.00     0.184 C 
BRANCH  25  26
ATOM     26  C   UNL d   1      -7.769   6.598   0.987  0.00  0.00     0.149 C 
ATOM     27  O   UNL d   1      -6.966   6.919   0.124  0.00  0.00    -0.649 OA
BRANCH  26  28
ATOM     28  O   UNL d   1      -8.861   7.352   1.268  0.00  0.00    -0.776 OA
ATOM     29  H   UNL d   1      -9.379   6.965   2.007  0.00  0.00     0.167 HD
ENDBRANCH  26  28
ENDBRANCH  25  26
ENDBRANCH  24  25
ENDBRANCH  23  24
ENDBRANCH  21  23
ENDBRANCH  20  21
ENDBRANCH  19  20
ENDBRANCH  18  19
ENDBRANCH   8  18
TORSDOF 9
