REMARK  7 active torsions:
REMARK  status: ('A' for Active; 'I' for Inactive)
REMARK    1  A    between atoms: C_3  and  C_1 
REMARK       I    between atoms: N_4  and  C_1 
REMARK    2  A    between atoms: O_7  and  C_2 
REMARK    3  A    between atoms: N_10  and  C_3 
REMARK    4  A    between atoms: C_9  and  N_4 
REMARK    5  A    between atoms: C_6  and  O_7 
REMARK    6  A    between atoms: C_18  and  N_10 
REMARK    7  A    between atoms: C_21  and  C_18 
ROOT
ATOM      1  C   UNL d   1      -1.699  -0.509   2.611  0.00  0.00     0.175 A 
ATOM      2  C   UNL d   1      -1.023  -0.639   1.391  0.00  0.00     0.087 A 
ATOM      3  N   UNL d   1      -3.006  -0.830   2.776  0.00  0.00    -0.345 N 
ATOM      4  HN  UNL d   1      -3.479  -0.694   3.669  1.00  0.00     0.167 HD
ATOM      5  C   UNL d   1      -1.726  -1.159   0.305  0.00  0.00     0.035 A 
ATOM      6  C   UNL d   1      -3.652  -1.337   1.706  0.00  0.00     0.090 A 
ATOM      7  C   UNL d   1      -3.060  -1.528   0.469  0.00  0.00     0.019 A 
ENDROOT
BRANCH   2   8
ATOM      8  N   UNL d   1       0.349  -0.344   1.293  0.00  0.00    -0.317 N 
ATOM      9  C   UNL d   1       0.965   0.483   0.376  0.00  0.00     0.283 C 
ATOM     10  O   UNL d   1       2.189   0.561   0.310  0.00  0.00    -0.265 OA
ATOM     11  H   UNL d   1       0.890  -0.414   2.149  0.00  0.00     0.169 HD
BRANCH   9  12
ATOM     12  C   UNL d   1       0.137   1.450  -0.460  0.00  0.00     0.165 C 
ATOM     13  S   UNL d   1      -0.731   2.634   0.341  0.00  0.00    -0.055 SA
BRANCH  12  14
ATOM     14  N   UNL d   1       0.214   1.459  -1.829  0.00  0.00    -0.372 N 
ATOM     15  H   UNL d   1      -0.325   2.185  -2.284  0.00  0.00     0.161 HD
BRANCH  14  16
ATOM     16  C   UNL d   1       1.064   0.636  -2.664  0.00  0.00     0.159 C 
BRANCH  16  17
ATOM     17  C   UNL d   1       0.348  -0.618  -3.087  0.00  0.00    -0.041 A 
ATOM     18  C   UNL d   1      -0.809  -0.542  -3.877  0.00  0.00     0.009 A 
ATOM     19  C   UNL d   1      -1.483  -1.705  -4.255  0.00  0.00     0.001 A 
ATOM     20  C   UNL d   1      -1.004  -2.948  -3.851  0.00  0.00     0.000 A 
ATOM     21  C   UNL d   1       0.149  -3.033  -3.073  0.00  0.00     0.001 A 
ATOM     22  C   UNL d   1       0.826  -1.874  -2.692  0.00  0.00     0.009 A 
ENDBRANCH  16  17
ENDBRANCH  14  16
ENDBRANCH  12  14
ENDBRANCH   9  12
ENDBRANCH   2   8
BRANCH   1  23
ATOM     23  O   UNL d   1      -0.975   0.068   3.660  0.00  0.00    -0.291 OA
BRANCH  23  24
ATOM     24  C   UNL d   1      -1.595   0.188   4.876  0.00  0.00     0.084 A 
ATOM     25  C   UNL d   1      -1.648   1.429   5.496  0.00  0.00    -0.017 A 
ATOM     26  C   UNL d   1      -2.277   1.583   6.742  0.00  0.00    -0.043 A 
ATOM     27  C   UNL d   1      -1.162   2.749   4.982  0.00  0.00     0.042 C 
ATOM     28  C   UNL d   1      -2.268   3.020   7.165  0.00  0.00     0.040 C 
ATOM     29  C   UNL d   1      -2.863   0.499   7.394  0.00  0.00    -0.055 A 
ATOM     30  C   UNL d   1      -1.173   3.599   6.262  0.00  0.00     0.009 C 
ATOM     31  C   UNL d   1      -2.744  -0.763   6.797  0.00  0.00     0.010 A 
ATOM     32  C   UNL d   1      -3.579   0.661   8.700  0.00  0.00     0.049 C 
ATOM     33  C   UNL d   1      -2.106  -0.919   5.558  0.00  0.00     0.038 A 
ENDBRANCH  23  24
ENDBRANCH   1  23
TORSDOF 7
