REMARK  5 active torsions:
REMARK  status: ('A' for Active; 'I' for Inactive)
REMARK       I    between atoms: N_2  and  C_1 
REMARK    1  A    between atoms: C_4  and  C_1 
REMARK    2  A    between atoms: C_3  and  N_2 
REMARK    3  A    between atoms: N_5  and  C_3 
REMARK    4  A    between atoms: C_9  and  N_5 
REMARK    5  A    between atoms: O_17  and  C_11 
ROOT
ATOM      1  C   UNL d   1       0.813   0.678  -2.178  0.00  0.00     0.179 C 
ATOM      2  S   UNL d   1      -0.133  -0.570  -1.580  0.00  0.00    -0.040 SA
ENDROOT
BRANCH   1   3
ATOM      3  N   UNL d   1       0.121   1.679  -2.830  0.00  0.00    -0.299 N 
ATOM      4  C   UNL d   1       0.565   2.823  -3.474  0.00  0.00     0.259 C 
ATOM      5  O   UNL d   1       1.752   3.030  -3.709  0.00  0.00    -0.267 OA
ATOM      6  H   UNL d   1      -0.879   1.534  -2.773  0.00  0.00     0.171 HD
BRANCH   4   7
ATOM      7  C   UNL d   1      -0.479   3.828  -3.882  0.00  0.00     0.054 A 
ATOM      8  C   UNL d   1      -1.866   3.600  -3.963  0.00  0.00     0.049 A 
ATOM      9 CL   UNL d   1      -2.623   2.066  -3.705  0.00  0.00    -0.083 Cl
ATOM     10  C   UNL d   1      -2.740   4.646  -4.298  0.00  0.00     0.025 A 
ATOM     11  C   UNL d   1      -2.251   5.920  -4.573  0.00  0.00     0.002 A 
ATOM     12  C   UNL d   1      -0.882   6.155  -4.523  0.00  0.00     0.001 A 
ATOM     13  C   UNL d   1      -0.005   5.120  -4.181  0.00  0.00     0.019 A 
ENDBRANCH   4   7
ENDBRANCH   1   3
BRANCH   1  14
ATOM     14  N   UNL d   1       2.179   0.823  -2.127  0.00  0.00    -0.333 N 
ATOM     15  H   UNL d   1       2.562   1.424  -2.859  0.00  0.00     0.168 HD
BRANCH  14  16
ATOM     16  C   UNL d   1       3.113   0.103  -1.348  0.00  0.00     0.034 A 
ATOM     17  C   UNL d   1       4.406  -0.080  -1.846  0.00  0.00     0.032 A 
ATOM     18  C   UNL d   1       5.347  -0.841  -1.132  0.00  0.00     0.039 A 
ATOM     19  C   UNL d   1       5.011  -1.392   0.105  0.00  0.00     0.068 A 
ATOM     20  C   UNL d   1       3.750  -1.138   0.638  0.00  0.00     0.039 A 
ATOM     21  C   UNL d   1       2.810  -0.395  -0.080  0.00  0.00     0.032 A 
BRANCH  19  22
ATOM     22  O   UNL d   1       5.815  -2.165   0.893  0.00  0.00    -0.356 OA
ATOM     23  C   UNL d   1       6.965  -2.727   0.275  0.00  0.00     0.210 C 
ENDBRANCH  19  22
ENDBRANCH  14  16
ENDBRANCH   1  14
TORSDOF 5
