REMARK  5 active torsions:
REMARK  status: ('A' for Active; 'I' for Inactive)
REMARK    1  A    between atoms: C_5  and  C_1 
REMARK    2  A    between atoms: C_10  and  C_4 
REMARK       I    between atoms: N_8  and  C_5 
REMARK    3  A    between atoms: C_13  and  N_8 
REMARK    4  A    between atoms: C_14  and  C_13 
REMARK    5  A    between atoms: C_15  and  C_14 
ROOT
ATOM      1  C   UNL d   1      -0.363  -1.276  -0.177  0.00  0.00     0.092 A 
ATOM      2  N   UNL d   1      -0.972   0.887   0.185  0.00  0.00    -0.259 N 
ATOM      3  HN  UNL d   1      -1.071   1.816   0.595  1.00  0.00     0.195 HD
ATOM      4  C   UNL d   1      -0.156  -0.095   0.613  0.00  0.00     0.083 A 
ATOM      5  O   UNL d   1      -1.644   0.401  -0.906  0.00  0.00    -0.241 OA
ATOM      6  C   UNL d   1      -1.257  -0.872  -1.150  0.00  0.00     0.090 A 
ATOM      7  C   UNL d   1      -1.829  -1.485  -2.364  0.00  0.00     0.080 C 
ENDROOT
BRANCH   1   8
ATOM      8  C   UNL d   1       0.308  -2.560  -0.114  0.00  0.00     0.258 C 
ATOM      9  N   UNL d   1      -0.471  -3.722  -0.019  0.00  0.00    -0.352 N 
ATOM     10  C   UNL d   1      -1.922  -3.758   0.138  0.00  0.00     0.152 C 
ATOM     11  O   UNL d   1       1.535  -2.612  -0.145  0.00  0.00    -0.267 OA
BRANCH   9  12
ATOM     12  C   UNL d   1       0.203  -5.028  -0.053  0.00  0.00     0.131 C 
BRANCH  12  13
ATOM     13  C   UNL d   1       0.091  -5.725  -1.413  0.00  0.00     0.077 C 
BRANCH  13  14
ATOM     14  C   UNL d   1       0.711  -7.097  -1.356  0.00  0.00     0.010 A 
ATOM     15  N   UNL d   1      -0.092  -8.115  -0.958  0.00  0.00    -0.369 N 
ATOM     16  C   UNL d   1       0.460  -9.347  -0.874  0.00  0.00     0.088 A 
ATOM     17  HN  UNL d   1      -1.074  -7.957  -0.731  1.00  0.00     0.165 HD
ATOM     18  C   UNL d   1       1.786  -9.618  -1.160  0.00  0.00     0.017 A 
ATOM     19  C   UNL d   1       2.598  -8.564  -1.559  0.00  0.00     0.003 A 
ATOM     20  C   UNL d   1       2.058  -7.284  -1.659  0.00  0.00     0.025 A 
ENDBRANCH  13  14
ENDBRANCH  12  13
ENDBRANCH   9  12
ENDBRANCH   1   8
BRANCH   4  21
ATOM     21  C   UNL d   1       0.753   0.168   1.737  0.00  0.00    -0.006 A 
ATOM     22  C   UNL d   1       1.159  -0.837   2.625  0.00  0.00     0.014 A 
ATOM     23  C   UNL d   1       2.011  -0.539   3.696  0.00  0.00     0.001 A 
ATOM     24  C   UNL d   1       2.464   0.764   3.897  0.00  0.00     0.000 A 
ATOM     25  C   UNL d   1       2.070   1.774   3.026  0.00  0.00     0.001 A 
ATOM     26  C   UNL d   1       1.219   1.476   1.958  0.00  0.00     0.014 A 
ENDBRANCH   4  21
TORSDOF 5
