REMARK  4 active torsions:
REMARK  status: ('A' for Active; 'I' for Inactive)
REMARK       I    between atoms: N_3  and  C_1 
REMARK       I    between atoms: N_4  and  C_1 
REMARK    1  A    between atoms: C_2  and  O_6 
REMARK    2  A    between atoms: C_7  and  N_3 
REMARK    3  A    between atoms: C_8  and  N_4 
REMARK    4  A    between atoms: O_6  and  C_12 
ROOT
ATOM      1  C   UNL d   1       0.872   0.155  -0.218  0.00  0.00     0.322 C 
ATOM      2  N   UNL d   1       0.426   0.575   1.054  0.00  0.00    -0.334 N 
ATOM      3  N   UNL d   1       2.201   0.435  -0.495  0.00  0.00    -0.309 N 
ATOM      4  O   UNL d   1       0.119  -0.419  -1.004  0.00  0.00    -0.247 OA
ATOM      5  C   UNL d   1       1.247   1.241   2.066  0.00  0.00     0.155 C 
ATOM      6  H   UNL d   1       2.772   0.770   0.261  0.00  0.00     0.170 HD
ENDROOT
BRANCH   3   7
ATOM      7  C   UNL d   1       2.958   0.068  -1.626  0.00  0.00     0.036 C 
ATOM      8  C   UNL d   1       2.412  -0.489  -2.783  0.00  0.00     0.032 C 
ATOM      9  C   UNL d   1       3.248  -0.994  -3.784  0.00  0.00     0.039 C 
ATOM     10  C   UNL d   1       4.632  -0.989  -3.621  0.00  0.00     0.078 C 
ATOM     11  C   UNL d   1       5.182  -0.303  -2.537  0.00  0.00     0.039 C 
ATOM     12  C   UNL d   1       4.348   0.223  -1.549  0.00  0.00     0.032 C 
BRANCH  10  13
ATOM     13  O   UNL d   1       5.511  -1.550  -4.494  0.00  0.00    -0.255 OA
BRANCH  13  14
ATOM     14  C   UNL d   1       5.208  -2.851  -4.988  0.00  0.00     0.530 C 
ATOM     15  F   UNL d   1       3.974  -3.308  -4.676  0.00  0.00    -0.144 F 
ATOM     16  F   UNL d   1       5.326  -2.843  -6.332  0.00  0.00    -0.144 F 
ATOM     17  F   UNL d   1       6.110  -3.737  -4.495  0.00  0.00    -0.144 F 
ENDBRANCH  13  14
ENDBRANCH  10  13
ENDBRANCH   3   7
BRANCH   2  18
ATOM     18  C   UNL d   1      -1.009   0.324   1.378  0.00  0.00     0.088 C 
ATOM     19  C   UNL d   1      -1.675   1.331   2.344  0.00  0.00     0.025 C 
ATOM     20  C   UNL d   1      -1.442   1.064   3.834  0.00  0.00     0.002 C 
ATOM     21  C   UNL d   1      -1.713  -0.386   4.216  0.00  0.00     0.000 C 
ATOM     22  C   UNL d   1      -0.969  -1.365   3.314  0.00  0.00     0.002 C 
ATOM     23  C   UNL d   1      -1.287  -1.123   1.841  0.00  0.00     0.025 C 
ENDBRANCH   2  18
TORSDOF 4
