REMARK  4 active torsions:
REMARK  status: ('A' for Active; 'I' for Inactive)
REMARK    1  A    between atoms: C_8  and  C_1 
REMARK    2  A    between atoms: N_3  and  C_2 
REMARK       I    between atoms: C_4  and  N_3 
REMARK    3  A    between atoms: C_9  and  C_4 
REMARK    4  A    between atoms: O_12  and  C_8 
ROOT
ATOM      1  C   UNL d   1       0.385  -1.207   0.151  0.00  0.00     0.079 C 
ATOM      2  C   UNL d   1      -1.021  -1.185   0.486  0.00  0.00     0.058 C 
ATOM      3  S   UNL d   1      -0.258   1.275   0.512  0.00  0.00    -0.103 SA
ATOM      4  C   UNL d   1       0.882   0.094   0.037  0.00  0.00    -0.003 C 
ATOM      5  C   UNL d   1      -1.437   0.091   0.810  0.00  0.00     0.080 C 
ATOM      6  C   UNL d   1       2.244   0.549  -0.388  0.00  0.00     0.057 C 
ENDROOT
BRANCH   2   7
ATOM      7  N   UNL d   1      -1.976  -2.203   0.540  0.00  0.00    -0.325 N 
ATOM      8  C   UNL d   1      -1.975  -3.376  -0.199  0.00  0.00     0.229 C 
ATOM      9  O   UNL d   1      -1.073  -3.739  -0.947  0.00  0.00    -0.272 OA
ATOM     10  H   UNL d   1      -2.858  -1.926   0.944  0.00  0.00     0.169 HD
BRANCH   8  11
ATOM     11  C   UNL d   1      -3.312  -4.157  -0.080  0.00  0.00     0.030 C 
ATOM     12  C   UNL d   1      -4.451  -3.334  -0.717  0.00  0.00     0.025 C 
ATOM     13  C   UNL d   1      -3.222  -5.499  -0.827  0.00  0.00     0.025 C 
ATOM     14  C   UNL d   1      -3.636  -4.442   1.396  0.00  0.00     0.025 C 
ENDBRANCH   8  11
ENDBRANCH   2   7
BRANCH   1  15
ATOM     15  C   UNL d   1       1.270  -2.367  -0.011  0.00  0.00     0.296 C 
ATOM     16  O   UNL d   1       2.231  -2.373  -0.772  0.00  0.00    -0.259 OA
BRANCH  15  17
ATOM     17  O   UNL d   1       1.009  -3.341   0.911  0.00  0.00    -0.322 OA
ATOM     18  C   UNL d   1       1.910  -4.452   0.931  0.00  0.00     0.213 C 
ENDBRANCH  15  17
ENDBRANCH   1  15
TORSDOF 4
