REMARK  5 active torsions:
REMARK  status: ('A' for Active; 'I' for Inactive)
REMARK    1  A    between atoms: N_2  and  S_1 
REMARK    2  A    between atoms: C_5  and  S_1 
REMARK    3  A    between atoms: C_3  and  N_2 
REMARK    4  A    between atoms: S_6  and  C_4 
REMARK    5  A    between atoms: C_13  and  S_6 
ROOT
ATOM      1  C   UNL d   1       0.925  -2.111   1.697  0.00  0.00     0.076 A 
ATOM      2  C   UNL d   1      -0.108  -2.869   2.274  0.00  0.00     0.102 A 
ATOM      3  N   UNL d   1       0.061  -4.173   2.626  0.00  0.00    -0.358 N 
ATOM      4  HN  UNL d   1      -0.700  -4.707   3.046  1.00  0.00     0.166 HD
ATOM      5  C   UNL d   1       2.151  -2.738   1.459  0.00  0.00     0.034 A 
ATOM      6  C   UNL d   1       1.266  -4.736   2.402  0.00  0.00     0.089 A 
ATOM      7  C   UNL d   1       2.330  -4.067   1.825  0.00  0.00     0.019 A 
ENDROOT
BRANCH   1   8
ATOM      8  N   UNL d   1       0.815  -0.720   1.387  0.00  0.00    -0.278 N 
ATOM      9  H   UNL d   1       1.056  -0.411   0.447  0.00  0.00     0.179 HD
BRANCH   8  10
ATOM     10  S   UNL d   1       1.134   0.431   2.577  0.00  0.00     0.263 S 
ATOM     11  O   UNL d   1       0.336   0.166   3.753  0.00  0.00    -0.200 OA
ATOM     12  O   UNL d   1       1.087   1.714   1.907  0.00  0.00    -0.200 OA
BRANCH  10  13
ATOM     13  C   UNL d   1       2.838   0.140   3.023  0.00  0.00     0.080 A 
ATOM     14  C   UNL d   1       3.856   0.870   2.397  0.00  0.00     0.028 A 
ATOM     15  C   UNL d   1       5.182   0.680   2.793  0.00  0.00     0.044 A 
ATOM     16  C   UNL d   1       5.475  -0.226   3.807  0.00  0.00     0.116 A 
ATOM     17  C   UNL d   1       4.465  -0.944   4.444  0.00  0.00     0.044 A 
ATOM     18  F   UNL d   1       6.747  -0.404   4.186  0.00  0.00    -0.206 F 
ATOM     19  C   UNL d   1       3.137  -0.753   4.061  0.00  0.00     0.028 A 
ENDBRANCH  10  13
ENDBRANCH   8  10
ENDBRANCH   1   8
BRANCH   2  20
ATOM     20  S   UNL d   1      -1.720  -2.196   2.627  0.00  0.00    -0.070 SA
BRANCH  20  21
ATOM     21  C   UNL d   1      -2.717  -2.721   1.244  0.00  0.00     0.007 A 
ATOM     22  C   UNL d   1      -2.773  -4.046   0.803  0.00  0.00     0.019 A 
ATOM     23  C   UNL d   1      -3.652  -4.421  -0.222  0.00  0.00     0.008 A 
ATOM     24  C   UNL d   1      -4.497  -3.476  -0.817  0.00  0.00    -0.062 A 
ATOM     25  C   UNL d   1      -4.445  -2.151  -0.375  0.00  0.00     0.008 A 
ATOM     26  C   UNL d   1      -5.481  -3.897  -1.869  0.00  0.00     0.048 C 
ATOM     27  C   UNL d   1      -3.563  -1.779   0.645  0.00  0.00     0.019 A 
ENDBRANCH  20  21
ENDBRANCH   2  20
TORSDOF 5
