REMARK  1 active torsions:
REMARK  status: ('A' for Active; 'I' for Inactive)
REMARK    1  A    between atoms: N_10  and  C_3 
ROOT
ATOM      1  N   UNL d   1       0.640   0.446   0.012  0.00  0.00    -0.280 N 
ATOM      2  C   UNL d   1       1.019  -0.906   0.088  0.00  0.00     0.136 A 
ATOM      3  C   UNL d   1       1.604   1.502  -0.026  0.00  0.00     0.112 A 
ATOM      4  C   UNL d   1       2.406  -1.241   0.084  0.00  0.00     0.095 A 
ATOM      5  N   UNL d   1      -0.017  -1.714   0.143  0.00  0.00    -0.339 N 
ATOM      6  HN  UNL d   1      -0.002  -2.731   0.223  1.00  0.00     0.167 HD
ATOM      7  C   UNL d   1       2.909   1.146  -0.007  0.00  0.00     0.057 A 
ATOM      8  C   UNL d   1       3.330  -0.252   0.043  0.00  0.00    -0.034 A 
ATOM      9  C   UNL d   1      -0.757   0.434  -0.040  0.00  0.00     0.069 A 
ATOM     10  C   UNL d   1      -1.111  -0.911   0.071  0.00  0.00     0.061 A 
ATOM     11  C   UNL d   1       2.791  -2.617   0.097  0.00  0.00     0.104 C 
ATOM     12  N   UNL d   1       3.166  -3.720   0.096  0.00  0.00    -0.191 NA
ATOM     13  C   UNL d   1       4.813  -0.520   0.024  0.00  0.00     0.050 C 
ATOM     14  C   UNL d   1      -1.751   1.415  -0.184  0.00  0.00     0.032 A 
ATOM     15  C   UNL d   1      -2.461  -1.297   0.079  0.00  0.00     0.032 A 
ATOM     16  C   UNL d   1      -3.095   1.021  -0.135  0.00  0.00     0.002 A 
ATOM     17  C   UNL d   1      -3.450  -0.317  -0.005  0.00  0.00     0.002 A 
ENDROOT
BRANCH   3  18
ATOM     18  N   UNL d   1       1.260   2.856  -0.142  0.00  0.00    -0.363 N 
ATOM     19  C   UNL d   1       0.564   3.642   0.896  0.00  0.00     0.150 C 
ATOM     20  C   UNL d   1       1.221   5.019   1.087  0.00  0.00     0.187 C 
ATOM     21  O   UNL d   1       1.316   5.730  -0.159  0.00  0.00    -0.388 OA
ATOM     22  C   UNL d   1       2.124   4.991  -1.085  0.00  0.00     0.187 C 
ATOM     23  C   UNL d   1       1.523   3.611  -1.386  0.00  0.00     0.150 C 
ENDBRANCH   3  18
TORSDOF 1
