REMARK  11 active torsions:
REMARK  status: ('A' for Active; 'I' for Inactive)
REMARK    1  A    between atoms: N_3  and  C_1 
REMARK       I    between atoms: C_9  and  N_3 
REMARK    2  A    between atoms: S_22  and  C_4 
REMARK    3  A    between atoms: C_14  and  C_9 
REMARK    4  A    between atoms: C_10  and  C_13 
REMARK    5  A    between atoms: C_11  and  C_12 
REMARK       I    between atoms: N_15  and  C_20 
REMARK    6  A    between atoms: C_19  and  N_15 
REMARK    7  A    between atoms: C_20  and  C_33 
REMARK    8  A    between atoms: C_33  and  S_22 
REMARK    9  A    between atoms: C_37  and  C_34 
REMARK   10  A    between atoms: C_38  and  C_37 
REMARK   11  A    between atoms: C_39  and  C_38 
ROOT
ATOM      1  C   UNL d   1      -0.155   1.323   0.940  0.00  0.00     0.168 A 
ATOM      2  S   UNL d   1      -1.153  -0.015   0.574  0.00  0.00    -0.026 SA
ATOM      3  C   UNL d   1       0.255  -0.987   0.529  0.00  0.00     0.130 A 
ATOM      4  N   UNL d   1       1.128   1.029   0.986  0.00  0.00    -0.278 N 
ATOM      5  HN  UNL d   1       1.862   1.714   1.167  1.00  0.00     0.189 HD
ATOM      6  N   UNL d   1       1.367  -0.321   0.757  0.00  0.00    -0.286 N 
ATOM      7  HN  UNL d   1       2.294  -0.745   0.766  1.00  0.00     0.188 HD
ENDROOT
BRANCH   1   8
ATOM      8  N   UNL d   1      -0.639   2.601   1.171  0.00  0.00    -0.302 N 
ATOM      9  C   UNL d   1      -1.974   2.953   1.221  0.00  0.00     0.257 C 
ATOM     10  O   UNL d   1      -2.923   2.204   1.024  0.00  0.00    -0.267 OA
ATOM     11  H   UNL d   1       0.088   3.285   1.307  0.00  0.00     0.171 HD
BRANCH   9  12
ATOM     12  C   UNL d   1      -2.307   4.376   1.562  0.00  0.00     0.034 A 
ATOM     13  C   UNL d   1      -3.575   4.844   1.168  0.00  0.00     0.033 A 
ATOM     14  C   UNL d   1      -4.047   6.109   1.553  0.00  0.00     0.049 A 
ATOM     15  C   UNL d   1      -3.221   6.920   2.341  0.00  0.00     0.032 A 
ATOM     16  C   UNL d   1      -1.954   6.475   2.757  0.00  0.00     0.049 A 
ATOM     17  C   UNL d   1      -1.494   5.203   2.348  0.00  0.00     0.033 A 
BRANCH  14  18
ATOM     18  C   UNL d   1      -5.441   6.547   1.161  0.00  0.00     0.417 C 
ATOM     19  F   UNL d   1      -5.794   7.753   1.687  0.00  0.00    -0.166 F 
ATOM     20  F   UNL d   1      -5.590   6.667  -0.185  0.00  0.00    -0.166 F 
ATOM     21  F   UNL d   1      -6.395   5.669   1.572  0.00  0.00    -0.166 F 
ENDBRANCH  14  18
BRANCH  16  22
ATOM     22  C   UNL d   1      -1.118   7.321   3.695  0.00  0.00     0.417 C 
ATOM     23  F   UNL d   1      -1.736   8.470   4.087  0.00  0.00    -0.166 F 
ATOM     24  F   UNL d   1      -0.807   6.655   4.840  0.00  0.00    -0.166 F 
ATOM     25  F   UNL d   1       0.065   7.697   3.141  0.00  0.00    -0.166 F 
ENDBRANCH  16  22
ENDBRANCH   9  12
ENDBRANCH   1   8
BRANCH   3  26
ATOM     26  S   UNL d   1       0.203  -2.712   0.195  0.00  0.00    -0.094 SA
BRANCH  26  27
ATOM     27  C   UNL d   1       1.891  -3.203   0.634  0.00  0.00     0.184 C 
BRANCH  27  28
ATOM     28  C   UNL d   1       2.174  -4.702   0.570  0.00  0.00     0.231 C 
ATOM     29  N   UNL d   1       1.259  -5.494  -0.083  0.00  0.00    -0.326 N 
ATOM     30  H   UNL d   1       0.586  -5.027  -0.675  0.00  0.00     0.169 HD
ATOM     31  O   UNL d   1       3.239  -5.130   1.034  0.00  0.00    -0.272 OA
BRANCH  29  32
ATOM     32  C   UNL d   1       1.336  -6.909  -0.181  0.00  0.00     0.040 A 
ATOM     33  C   UNL d   1       0.963  -7.549  -1.371  0.00  0.00    -0.035 A 
ATOM     34  C   UNL d   1       0.899  -8.958  -1.404  0.00  0.00     0.016 A 
ATOM     35  C   UNL d   1       0.722  -6.818  -2.664  0.00  0.00     0.050 C 
ATOM     36  C   UNL d   1       1.198  -9.729  -0.275  0.00  0.00    -0.058 A 
ATOM     37  C   UNL d   1       1.639  -9.080   0.880  0.00  0.00     0.009 A 
ATOM     38  C   UNL d   1       1.712  -7.680   0.925  0.00  0.00     0.030 A 
BRANCH  36  39
ATOM     39  C   UNL d   1       1.017 -11.231  -0.308  0.00  0.00     0.038 C 
BRANCH  39  40
ATOM     40  C   UNL d   1      -0.044 -11.745   0.673  0.00  0.00     0.004 C 
BRANCH  40  41
ATOM     41  C   UNL d   1      -1.441 -11.167   0.417  0.00  0.00    -0.004 C 
ATOM     42  C   UNL d   1      -2.454 -11.696   1.421  0.00  0.00     0.005 C 
ENDBRANCH  40  41
ENDBRANCH  39  40
ENDBRANCH  36  39
ENDBRANCH  29  32
ENDBRANCH  27  28
ENDBRANCH  26  27
ENDBRANCH   3  26
TORSDOF 11
