REMARK  4 active torsions:
REMARK  status: ('A' for Active; 'I' for Inactive)
REMARK       I    between atoms: C_2  and  N_1 
REMARK    1  A    between atoms: C_4  and  N_1 
REMARK    2  A    between atoms: C_3  and  C_2 
REMARK    3  A    between atoms: C_5  and  C_6 
REMARK    4  A    between atoms: O_11  and  C_5 
ROOT
ATOM      1  N   UNL d   1       1.149  -0.206   0.308  0.00  0.00    -0.322 N 
ATOM      2  C   UNL d   1       0.524  -1.341  -0.166  0.00  0.00     0.245 C 
ATOM      3  O   UNL d   1       1.059  -2.331  -0.651  0.00  0.00    -0.268 OA
ATOM      4  H   UNL d   1       0.589   0.636   0.344  0.00  0.00     0.169 HD
ENDROOT
BRANCH   1   5
ATOM      5  C   UNL d   1       2.554  -0.023   0.357  0.00  0.00     0.056 A 
ATOM      6  C   UNL d   1       3.501  -1.012   0.680  0.00  0.00     0.060 A 
ATOM      7 CL   UNL d   1       3.092  -2.519   1.429  0.00  0.00    -0.082 Cl
ATOM      8  C   UNL d   1       4.871  -0.735   0.571  0.00  0.00     0.026 A 
ATOM      9  C   UNL d   1       5.309   0.534   0.194  0.00  0.00     0.002 A 
ATOM     10  C   UNL d   1       4.380   1.543  -0.036  0.00  0.00     0.002 A 
ATOM     11  C   UNL d   1       3.012   1.270   0.056  0.00  0.00     0.031 A 
ENDBRANCH   1   5
BRANCH   2  12
ATOM     12  C   UNL d   1      -0.955  -1.227  -0.149  0.00  0.00     0.081 C 
ATOM     13  C   UNL d   1      -1.679  -2.311  -0.464  0.00  0.00     0.086 C 
BRANCH  13  14
ATOM     14  C   UNL d   1      -3.143  -2.209  -0.487  0.00  0.00     0.165 C 
ATOM     15  O   UNL d   1      -3.756  -1.156  -0.464  0.00  0.00    -0.647 OA
BRANCH  14  16
ATOM     16  O   UNL d   1      -3.736  -3.417  -0.525  0.00  0.00    -0.773 OA
ATOM     17  H   UNL d   1      -3.131  -4.181  -0.489  0.00  0.00     0.167 HD
ENDBRANCH  14  16
ENDBRANCH  13  14
ENDBRANCH   2  12
TORSDOF 4
