REMARK  6 active torsions:
REMARK  status: ('A' for Active; 'I' for Inactive)
REMARK    1  A    between atoms: C_20  and  C_1 
REMARK    2  A    between atoms: C_7  and  O_9 
REMARK    3  A    between atoms: C_19  and  C_7 
REMARK    4  A    between atoms: O_9  and  C_8 
REMARK    5  A    between atoms: O_25  and  C_20 
REMARK    6  A    between atoms: O_24  and  C_22 
ROOT
ATOM      1  C   UNL d   1      -5.027  -0.638   1.793  0.00  0.00     0.008 C 
ATOM      2  C   UNL d   1      -7.071   0.226  -2.048  0.00  0.00    -0.013 C 
ATOM      3  C   UNL d   1      -3.509  -0.775   1.657  0.00  0.00    -0.070 C 
ATOM      4  C   UNL d   1      -5.702  -0.416   0.393  0.00  0.00     0.005 C 
ATOM      5  C   UNL d   1      -5.571  -0.225  -2.133  0.00  0.00     0.001 C 
ATOM      6  C   UNL d   1      -5.078  -1.036  -0.871  0.00  0.00    -0.001 C 
ATOM      7  C   UNL d   1      -6.961   1.739  -1.734  0.00  0.00     0.140 C 
ATOM      8  C   UNL d   1      -2.892  -1.027   0.492  0.00  0.00    -0.023 C 
ATOM      9  C   UNL d   1      -7.895  -0.514  -0.985  0.00  0.00     0.012 C 
ATOM     10  C   UNL d   1      -3.551  -1.206  -0.837  0.00  0.00     0.033 C 
ATOM     11  C   UNL d   1      -7.219  -0.700   0.375  0.00  0.00     0.007 C 
ATOM     12  C   UNL d   1      -5.341   0.663   2.621  0.00  0.00     0.019 C 
ATOM     13  C   UNL d   1      -4.792   1.107  -2.398  0.00  0.00     0.008 C 
ATOM     14  C   UNL d   1      -2.687  -0.586   2.921  0.00  0.00     0.066 C 
ATOM     15  C   UNL d   1      -5.830   2.213  -2.626  0.00  0.00     0.034 C 
ATOM     16  C   UNL d   1      -4.511   0.857   3.889  0.00  0.00     0.033 C 
ATOM     17  C   UNL d   1      -3.016   0.740   3.608  0.00  0.00     0.122 C 
ATOM     18  C   UNL d   1      -7.760  -0.001  -3.413  0.00  0.00     0.018 C 
ENDROOT
BRANCH   7  19
ATOM     19  O   UNL d   1      -8.193   2.443  -1.631  0.00  0.00    -0.311 OA
BRANCH  19  20
ATOM     20  C   UNL d   1      -8.671   3.295  -2.551  0.00  0.00     0.293 C 
ATOM     21  O   UNL d   1      -8.346   3.400  -3.716  0.00  0.00    -0.259 OA
BRANCH  20  22
ATOM     22  C   UNL d   1      -9.702   4.115  -1.860  0.00  0.00     0.039 A 
ATOM     23  C   UNL d   1     -10.803   4.589  -2.578  0.00  0.00     0.017 A 
ATOM     24  C   UNL d   1     -11.778   5.357  -1.935  0.00  0.00     0.001 A 
ATOM     25  C   UNL d   1     -11.645   5.667  -0.579  0.00  0.00     0.000 A 
ATOM     26  C   UNL d   1     -10.541   5.211   0.137  0.00  0.00     0.001 A 
ATOM     27  C   UNL d   1      -9.574   4.438  -0.499  0.00  0.00     0.017 A 
ENDBRANCH  20  22
ENDBRANCH  19  20
ENDBRANCH   7  19
BRANCH   1  28
ATOM     28  C   UNL d   1      -5.603  -1.858   2.569  0.00  0.00     0.178 C 
BRANCH  28  29
ATOM     29  O   UNL d   1      -5.546  -3.054   1.800  0.00  0.00    -0.400 OA
ATOM     30  H   UNL d   1      -6.016  -3.739   2.305  0.00  0.00     0.209 HD
ENDBRANCH  28  29
ENDBRANCH   1  28
BRANCH  17  31
ATOM     31  O   UNL d   1      -2.583   1.847   2.809  0.00  0.00    -0.395 OA
ATOM     32  H   UNL d   1      -2.805   1.655   1.883  0.00  0.00     0.210 HD
ENDBRANCH  17  31
TORSDOF 6
