REMARK  3 active torsions:
REMARK  status: ('A' for Active; 'I' for Inactive)
REMARK    1  A    between atoms: C_10  and  N_1 
REMARK       I    between atoms: C_12  and  N_11 
REMARK    2  A    between atoms: O_24  and  C_12 
REMARK    3  A    between atoms: C_27  and  O_24 
ROOT
ATOM      1  N   UNL d   1       2.961   1.215   0.039  0.00  0.00    -0.229 N 
ATOM      2  C   UNL d   1       0.683   0.437   0.063  0.00  0.00     0.074 A 
ATOM      3  C   UNL d   1       1.192  -0.820  -0.042  0.00  0.00     0.095 A 
ATOM      4  C   UNL d   1       1.595   1.563   0.136  0.00  0.00     0.270 A 
ATOM      5  C   UNL d   1       3.446  -0.098  -0.129  0.00  0.00     0.335 A 
ATOM      6  N   UNL d   1       2.515  -1.113  -0.131  0.00  0.00    -0.301 N 
ATOM      7  C   UNL d   1      -0.746   0.397   0.057  0.00  0.00    -0.023 A 
ATOM      8  C   UNL d   1      -1.218  -0.911   0.025  0.00  0.00     0.010 A 
ATOM      9  S   UNL d   1       0.054  -2.055  -0.066  0.00  0.00    -0.074 SA
ATOM     10  N   UNL d   1      -3.486  -0.137   0.328  0.00  0.00    -0.323 N 
ATOM     11  C   UNL d   1      -4.376  -0.087   1.382  0.00  0.00     0.363 C 
ATOM     12  C   UNL d   1      -2.667  -1.320   0.030  0.00  0.00     0.174 C 
ATOM     13  C   UNL d   1      -1.697   1.561   0.098  0.00  0.00     0.061 C 
ATOM     14  O   UNL d   1       4.636  -0.398  -0.234  0.00  0.00    -0.246 OA
ATOM     15  O   UNL d   1       1.169   2.707   0.237  0.00  0.00    -0.266 OA
ATOM     16  C   UNL d   1      -3.106   1.113  -0.334  0.00  0.00     0.133 C 
ATOM     17  O   UNL d   1      -4.913   0.941   1.772  0.00  0.00    -0.238 OA
ATOM     18  H   UNL d   1       2.839  -2.068  -0.214  0.00  0.00     0.171 HD
ENDROOT
BRANCH   1  19
ATOM     19  C   UNL d   1       3.910   2.283   0.105  0.00  0.00     0.049 A 
ATOM     20  C   UNL d   1       4.834   2.485  -0.928  0.00  0.00     0.056 A 
ATOM     21  C   UNL d   1       5.711   3.576  -0.886  0.00  0.00     0.058 A 
ATOM     22 CL   UNL d   1       6.759   3.815  -2.240  0.00  0.00    -0.082 Cl
ATOM     23  C   UNL d   1       5.701   4.443   0.212  0.00  0.00     0.055 A 
ATOM     24  C   UNL d   1       4.802   4.227   1.258  0.00  0.00     0.028 A 
ATOM     25 CL   UNL d   1       6.763   5.800   0.336  0.00  0.00    -0.083 Cl
ATOM     26  C   UNL d   1       3.899   3.163   1.196  0.00  0.00     0.032 A 
ENDBRANCH   1  19
BRANCH  11  27
ATOM     27  O   UNL d   1      -4.545  -1.299   1.974  0.00  0.00    -0.304 OA
BRANCH  27  28
ATOM     28  C   UNL d   1      -5.076  -1.262   3.305  0.00  0.00     0.176 C 
ATOM     29  C   UNL d   1      -3.910  -1.077   4.261  0.00  0.00     0.034 C 
ENDBRANCH  27  28
ENDBRANCH  11  27
TORSDOF 3
