REMARK  3 active torsions:
REMARK  status: ('A' for Active; 'I' for Inactive)
REMARK    1  A    between atoms: N_6  and  C_1 
REMARK       I    between atoms: C_9  and  N_6 
REMARK    2  A    between atoms: N_7  and  C_11 
REMARK    3  A    between atoms: C_13  and  C_9 
ROOT
ATOM      1  C   UNL d   1      -3.196   0.805  -0.215  0.00  0.00     0.152 A 
ATOM      2  C   UNL d   1      -1.071   0.236  -0.109  0.00  0.00     0.058 A 
ATOM      3  N   UNL d   1      -1.969   1.290  -0.201  0.00  0.00    -0.335 N 
ATOM      4  HN  UNL d   1      -1.721   2.278  -0.250  1.00  0.00     0.168 HD
ATOM      5  C   UNL d   1      -1.645  -1.014  -0.024  0.00  0.00     0.014 A 
ATOM      6  S   UNL d   1      -3.325  -0.901  -0.157  0.00  0.00    -0.056 SA
ATOM      7  C   UNL d   1       0.385   0.338  -0.052  0.00  0.00    -0.002 A 
ATOM      8  C   UNL d   1      -0.913  -2.288   0.195  0.00  0.00     0.053 C 
ATOM      9  C   UNL d   1       1.157  -0.849  -0.153  0.00  0.00    -0.045 A 
ATOM     10  C   UNL d   1       0.488  -2.187  -0.417  0.00  0.00     0.044 C 
ATOM     11  C   UNL d   1       1.029   1.566   0.117  0.00  0.00     0.014 A 
ATOM     12  C   UNL d   1       2.554  -0.778  -0.091  0.00  0.00     0.008 A 
ATOM     13  C   UNL d   1       2.425   1.619   0.192  0.00  0.00     0.001 A 
ATOM     14  C   UNL d   1       3.183   0.451   0.090  0.00  0.00     0.001 A 
ENDROOT
BRANCH   1  15
ATOM     15  N   UNL d   1      -4.313   1.616  -0.202  0.00  0.00    -0.303 N 
ATOM     16  C   UNL d   1      -5.617   1.173  -0.146  0.00  0.00     0.257 C 
ATOM     17  O   UNL d   1      -6.029   0.026  -0.281  0.00  0.00    -0.267 OA
ATOM     18  H   UNL d   1      -4.090   2.595  -0.102  0.00  0.00     0.171 HD
BRANCH  16  19
ATOM     19  C   UNL d   1      -6.642   2.199   0.168  0.00  0.00     0.032 A 
ATOM     20  C   UNL d   1      -6.652   3.467  -0.422  0.00  0.00     0.019 A 
ATOM     21  C   UNL d   1      -7.673   4.372  -0.102  0.00  0.00     0.037 A 
ATOM     22  C   UNL d   1      -8.678   4.003   0.810  0.00  0.00     0.102 A 
ATOM     23  C   UNL d   1      -8.676   2.732   1.394  0.00  0.00     0.037 A 
ATOM     24  C   UNL d   1      -7.661   1.833   1.065  0.00  0.00     0.019 A 
BRANCH  22  25
ATOM     25  N   UNL d   1      -9.747   4.952   1.149  0.00  0.00    -0.116 N 
ATOM     26  O   UNL d   1      -9.703   6.074   0.624  0.00  0.00    -0.532 OA
ATOM     27  O   UNL d   1     -10.621   4.578   1.940  0.00  0.00    -0.532 OA
ENDBRANCH  22  25
ENDBRANCH  16  19
ENDBRANCH   1  15
TORSDOF 3
