REMARK  4 active torsions:
REMARK  status: ('A' for Active; 'I' for Inactive)
REMARK    1  A    between atoms: C_6  and  N_1 
REMARK    2  A    between atoms: C_8  and  C_6 
REMARK    3  A    between atoms: C_7  and  C_9 
REMARK    4  A    between atoms: C_12  and  C_8 
ROOT
ATOM      1  C   UNL d   1       3.284  -0.027  -0.262  0.00  0.00     0.219 C 
ENDROOT
BRANCH   1   2
ATOM      2  N   UNL d   1       1.838  -0.072  -0.117  0.00  0.00    -0.273 N 
ATOM      3  C   UNL d   1       0.987  -0.224  -1.176  0.00  0.00     0.262 C 
ATOM      4  C   UNL d   1      -0.364  -0.283  -0.637  0.00  0.00     0.048 A 
ATOM      5  O   UNL d   1       1.241  -0.350  -2.358  0.00  0.00    -0.267 OA
ATOM      6  C   UNL d   1      -1.577  -0.318  -1.296  0.00  0.00     0.018 A 
ATOM      7  C   UNL d   1      -0.257  -0.322   0.739  0.00  0.00     0.048 A 
ATOM      8  C   UNL d   1      -2.724  -0.415  -0.506  0.00  0.00     0.001 A 
ATOM      9  C   UNL d   1      -2.623  -0.494   0.899  0.00  0.00     0.001 A 
ATOM     10  C   UNL d   1      -1.376  -0.449   1.539  0.00  0.00     0.018 A 
ATOM     11  C   UNL d   1       1.172  -0.232   1.071  0.00  0.00     0.262 C 
ATOM     12  O   UNL d   1       1.612  -0.340   2.195  0.00  0.00    -0.267 OA
ENDBRANCH   1   2
BRANCH   1  13
ATOM     13  C   UNL d   1       3.891   1.360  -0.044  0.00  0.00     0.177 C 
ATOM     14  O   UNL d   1       4.261   1.733   1.070  0.00  0.00    -0.291 OA
BRANCH  13  15
ATOM     15  C   UNL d   1       4.049   2.314  -1.186  0.00  0.00     0.011 A 
ATOM     16  C   UNL d   1       3.183   2.323  -2.279  0.00  0.00     0.016 A 
ATOM     17  C   UNL d   1       3.270   3.320  -3.256  0.00  0.00     0.017 A 
ATOM     18  C   UNL d   1       4.237   4.328  -3.165  0.00  0.00     0.048 A 
ATOM     19  C   UNL d   1       5.148   4.287  -2.099  0.00  0.00     0.017 A 
ATOM     20  C   UNL d   1       5.049   3.294  -1.114  0.00  0.00     0.016 A 
BRANCH  18  21
ATOM     21  C   UNL d   1       4.273   5.457  -4.167  0.00  0.00     0.417 C 
ATOM     22  F   UNL d   1       3.285   5.384  -5.103  0.00  0.00    -0.166 F 
ATOM     23  F   UNL d   1       4.131   6.677  -3.576  0.00  0.00    -0.166 F 
ATOM     24  F   UNL d   1       5.442   5.509  -4.862  0.00  0.00    -0.166 F 
ENDBRANCH  18  21
ENDBRANCH  13  15
ENDBRANCH   1  13
TORSDOF 4
