REMARK  4 active torsions:
REMARK  status: ('A' for Active; 'I' for Inactive)
REMARK    1  A    between atoms: N_2  and  S_1 
REMARK    2  A    between atoms: C_5  and  S_1 
REMARK    3  A    between atoms: C_3  and  N_4 
REMARK    4  A    between atoms: C_16  and  C_5 
ROOT
ATOM      1  N   UNL d   1       0.408  -1.232   0.544  0.00  0.00    -0.207 NA
ATOM      2  N   UNL d   1       0.991  -3.902  -0.407  0.00  0.00    -0.215 N 
ATOM      3  C   UNL d   1       1.421  -2.114   1.243  0.00  0.00     0.127 C 
ATOM      4  C   UNL d   1      -0.598  -2.094  -0.163  0.00  0.00     0.127 C 
ATOM      5  C   UNL d   1       0.051  -3.072  -1.150  0.00  0.00     0.157 C 
ATOM      6  C   UNL d   1       2.047  -3.183   0.312  0.00  0.00     0.157 C 
ENDROOT
BRANCH   1   7
ATOM      7  S   UNL d   1       1.092   0.079  -0.303  0.00  0.00     0.215 S 
ATOM      8  O   UNL d   1       1.819  -0.472  -1.430  0.00  0.00    -0.211 OA
ATOM      9  O   UNL d   1       1.768   0.891   0.684  0.00  0.00    -0.211 OA
BRANCH   7  10
ATOM     10  C   UNL d   1      -0.354   0.953  -0.917  0.00  0.00     0.196 C 
BRANCH  10  11
ATOM     11  C   UNL d   1       0.040   2.155  -1.737  0.00  0.00    -0.043 A 
ATOM     12  C   UNL d   1      -0.176   2.157  -3.126  0.00  0.00     0.010 A 
ATOM     13  C   UNL d   1       0.108   3.292  -3.888  0.00  0.00     0.024 A 
ATOM     14  C   UNL d   1       0.616   4.430  -3.268  0.00  0.00     0.034 A 
ATOM     15  C   UNL d   1       0.851   4.439  -1.895  0.00  0.00     0.024 A 
ATOM     16 CL   UNL d   1       0.944   5.837  -4.203  0.00  0.00    -0.084 Cl
ATOM     17  C   UNL d   1       0.561   3.307  -1.131  0.00  0.00     0.010 A 
ENDBRANCH  10  11
ENDBRANCH   7  10
ENDBRANCH   1   7
BRANCH   2  18
ATOM     18  C   UNL d   1       1.186  -5.201  -0.811  0.00  0.00     0.679 A 
ATOM     19  N   UNL d   1       0.358  -5.717  -1.737  0.00  0.00    -0.202 N 
ATOM     20  C   UNL d   1       0.472  -7.025  -2.033  0.00  0.00     0.107 A 
ATOM     21  HN  UNL d   1      -0.338  -5.133  -2.202  1.00  0.00     0.183 HD
ATOM     22  C   UNL d   1       1.380  -7.854  -1.433  0.00  0.00     0.035 A 
ATOM     23  C   UNL d   1       2.193  -7.248  -0.512  0.00  0.00     0.107 A 
ATOM     24  N   UNL d   1       2.120  -5.941  -0.193  0.00  0.00    -0.202 N 
ATOM     25  HN  UNL d   1       2.751  -5.529   0.493  1.00  0.00     0.183 HD
ENDBRANCH   2  18
TORSDOF 4
