REMARK  3 active torsions:
REMARK  status: ('A' for Active; 'I' for Inactive)
REMARK    1  A    between atoms: S_12  and  C_2 
REMARK       I    between atoms: C_3  and  N_10 
REMARK       I    between atoms: N_13  and  C_3 
REMARK    2  A    between atoms: C_9  and  C_4 
REMARK    3  A    between atoms: N_10  and  N_5 
ROOT
ATOM      1  N   UNL d   1       0.945  -3.544  -0.034  0.00  0.00    -0.307 N 
ATOM      2  HN  UNL d   1       1.919  -3.239  -0.027  1.00  0.00     0.186 HD
ATOM      3  C   UNL d   1      -0.033  -2.696  -0.036  0.00  0.00     0.126 C 
ENDROOT
BRANCH   1   4
ATOM      4  N   UNL d   1       0.607  -4.867  -0.043  0.00  0.00    -0.252 N 
ATOM      5  C   UNL d   1       1.575  -5.841  -0.041  0.00  0.00     0.332 C 
ATOM      6  O   UNL d   1       1.324  -7.038  -0.010  0.00  0.00    -0.246 OA
ATOM      7  N   UNL d   1       2.843  -5.358  -0.089  0.00  0.00    -0.351 N 
ATOM      8  H   UNL d   1       2.942  -4.361   0.051  0.00  0.00     0.160 HD
ATOM      9  H   UNL d   1       3.625  -5.984   0.018  0.00  0.00     0.160 HD
ATOM     10  H   UNL d   1      -0.359  -5.173  -0.022  0.00  0.00     0.191 HD
ENDBRANCH   1   4
BRANCH   3  11
ATOM     11  C   UNL d   1       0.274  -1.288  -0.028  0.00  0.00     0.023 A 
ATOM     12  S   UNL d   1      -0.977  -0.130  -0.035  0.00  0.00    -0.082 SA
ATOM     13  C   UNL d   1       0.134   1.177  -0.024  0.00  0.00     0.041 A 
ATOM     14  C   UNL d   1       1.438   0.728   0.002  0.00  0.00     0.027 A 
ATOM     15  C   UNL d   1       1.518  -0.692  -0.009  0.00  0.00     0.022 A 
BRANCH  13  16
ATOM     16  S   UNL d   1      -0.427   2.843  -0.010  0.00  0.00    -0.127 SA
ATOM     17  C   UNL d   1       0.907   3.698  -0.877  0.00  0.00     0.096 C 
ENDBRANCH  13  16
ENDBRANCH   3  11
TORSDOF 3
