REMARK  4 active torsions:
REMARK  status: ('A' for Active; 'I' for Inactive)
REMARK    1  A    between atoms: C_2  and  S_1 
REMARK    2  A    between atoms: N_3  and  S_1 
REMARK    3  A    between atoms: C_8  and  C_10 
REMARK    4  A    between atoms: C_12  and  N_11 
ROOT
ATOM      1  N   UNL d   1       0.463   0.826   1.382  0.00  0.00    -0.205 NA
ATOM      2  N   UNL d   1      -0.916   2.948   3.014  0.00  0.00    -0.366 N 
ATOM      3  C   UNL d   1       0.570   2.326   1.144  0.00  0.00     0.127 C 
ATOM      4  C   UNL d   1       0.400   3.177   2.414  0.00  0.00     0.140 C 
ATOM      5  C   UNL d   1      -1.168   0.511   3.308  0.00  0.00     0.035 C 
ATOM      6  C   UNL d   1      -0.934   0.438   1.801  0.00  0.00     0.109 C 
ATOM      7  C   UNL d   1      -1.002   1.867   3.978  0.00  0.00     0.125 C 
ENDROOT
BRANCH   1   8
ATOM      8  S   UNL d   1       0.934  -0.067  -0.031  0.00  0.00     0.248 S 
ATOM      9  O   UNL d   1       0.829  -1.478   0.273  0.00  0.00    -0.206 OA
ATOM     10  O   UNL d   1       0.240   0.508  -1.165  0.00  0.00    -0.206 OA
BRANCH   8  11
ATOM     11  C   UNL d   1       2.595   0.150  -0.350  0.00  0.00     0.130 A 
ATOM     12  C   UNL d   1       3.641  -0.306   0.418  0.00  0.00     0.097 A 
ATOM     13  O   UNL d   1       4.809   0.007  -0.202  0.00  0.00    -0.241 OA
ATOM     14  C   UNL d   1       3.773  -1.036   1.691  0.00  0.00     0.081 C 
ATOM     15  N   UNL d   1       4.546   0.688  -1.373  0.00  0.00    -0.264 N 
ATOM     16  C   UNL d   1       3.210   0.774  -1.460  0.00  0.00     0.054 A 
ATOM     17  HN  UNL d   1       5.228   1.053  -2.037  1.00  0.00     0.194 HD
ATOM     18  C   UNL d   1       2.612   1.470  -2.625  0.00  0.00     0.072 C 
ENDBRANCH   8  11
ENDBRANCH   1   8
BRANCH   2  19
ATOM     19  C   UNL d   1      -1.915   3.891   2.897  0.00  0.00     0.102 A 
ATOM     20  N   UNL d   1      -1.579   5.181   2.686  0.00  0.00    -0.352 N 
ATOM     21  C   UNL d   1      -2.562   6.112   2.605  0.00  0.00     0.106 A 
ATOM     22  HN  UNL d   1      -0.600   5.452   2.589  1.00  0.00     0.166 HD
ATOM     23  C   UNL d   1      -3.914   5.826   2.679  0.00  0.00     0.063 A 
ATOM     24  C   UNL d   1      -4.262   4.490   2.855  0.00  0.00     0.021 A 
ATOM     25  C   UNL d   1      -3.259   3.526   2.974  0.00  0.00     0.049 A 
BRANCH  23  26
ATOM     26  C   UNL d   1      -4.948   6.901   2.558  0.00  0.00     0.418 C 
ATOM     27  F   UNL d   1      -4.426   8.152   2.430  0.00  0.00    -0.166 F 
ATOM     28  F   UNL d   1      -5.758   6.723   1.478  0.00  0.00    -0.166 F 
ATOM     29  F   UNL d   1      -5.775   6.951   3.638  0.00  0.00    -0.166 F 
ENDBRANCH  23  26
ENDBRANCH   2  19
TORSDOF 4
