REMARK  3 active torsions:
REMARK  status: ('A' for Active; 'I' for Inactive)
REMARK    1  A    between atoms: N_2  and  S_1 
REMARK    2  A    between atoms: C_4  and  S_1 
REMARK    3  A    between atoms: C_7  and  C_3 
ROOT
ATOM      1  N   UNL d   1       0.431  -1.255  -0.591  0.00  0.00    -0.298 N 
ATOM      2  C   UNL d   1      -1.007  -0.988  -0.852  0.00  0.00     0.130 C 
ATOM      3  C   UNL d   1       0.547  -2.697  -0.255  0.00  0.00     0.136 C 
ATOM      4  C   UNL d   1      -1.708  -1.898   0.162  0.00  0.00     0.033 C 
ATOM      5  C   UNL d   1      -0.845  -3.150   0.176  0.00  0.00     0.023 C 
ENDROOT
BRANCH   1   6
ATOM      6  S   UNL d   1       1.469  -0.179   0.198  0.00  0.00     0.261 S 
ATOM      7  O   UNL d   1       1.479   1.069  -0.537  0.00  0.00    -0.200 OA
ATOM      8  O   UNL d   1       2.711  -0.871   0.470  0.00  0.00    -0.200 OA
BRANCH   6   9
ATOM      9  C   UNL d   1       0.696   0.124   1.775  0.00  0.00     0.079 A 
ATOM     10  C   UNL d   1       0.569  -0.913   2.706  0.00  0.00     0.027 A 
ATOM     11  C   UNL d   1      -0.118  -0.686   3.901  0.00  0.00     0.025 A 
ATOM     12  C   UNL d   1      -0.627   0.582   4.180  0.00  0.00     0.034 A 
ATOM     13  C   UNL d   1      -0.441   1.633   3.282  0.00  0.00     0.025 A 
ATOM     14 CL   UNL d   1      -1.498   0.849   5.639  0.00  0.00    -0.084 Cl
ATOM     15  C   UNL d   1       0.224   1.406   2.075  0.00  0.00     0.027 A 
ENDBRANCH   6   9
ENDBRANCH   1   6
BRANCH   2  16
ATOM     16  C   UNL d   1      -1.525   0.420  -0.980  0.00  0.00    -0.019 A 
ATOM     17  C   UNL d   1      -2.456   0.985  -0.111  0.00  0.00     0.096 A 
ATOM     18  N   UNL d   1      -3.023   2.204  -0.274  0.00  0.00    -0.375 N 
ATOM     19  C   UNL d   1      -2.652   2.906  -1.365  0.00  0.00     0.087 A 
ATOM     20  HN  UNL d   1      -3.697   2.574   0.395  1.00  0.00     0.164 HD
ATOM     21  C   UNL d   1      -1.730   2.452  -2.289  0.00  0.00     0.018 A 
ATOM     22  C   UNL d   1      -1.162   1.196  -2.088  0.00  0.00     0.012 A 
ENDBRANCH   2  16
TORSDOF 3
