REMARK  3 active torsions:
REMARK  status: ('A' for Active; 'I' for Inactive)
REMARK    1  A    between atoms: C_2  and  C_1 
REMARK       I    between atoms: N_5  and  C_2 
REMARK    2  A    between atoms: N_4  and  C_8 
REMARK    3  A    between atoms: C_10  and  N_5 
ROOT
ATOM      1  C   UNL d   1      -1.023  -5.787  -0.196  0.00  0.00     0.030 A 
ATOM      2  C   UNL d   1       1.401  -4.258  -0.128  0.00  0.00     0.035 A 
ATOM      3  C   UNL d   1       0.018  -6.072   0.697  0.00  0.00     0.031 A 
ATOM      4  C   UNL d   1      -0.781  -4.744  -1.101  0.00  0.00     0.031 A 
ATOM      5  C   UNL d   1       1.204  -5.328   0.737  0.00  0.00     0.032 A 
ATOM      6  C   UNL d   1       0.404  -3.982  -1.065  0.00  0.00     0.032 A 
ENDROOT
BRANCH   2   7
ATOM      7  N   UNL d   1       2.523  -3.397  -0.059  0.00  0.00    -0.323 N 
ATOM      8  C   UNL d   1       3.639  -3.578   0.737  0.00  0.00     0.259 C 
ATOM      9  O   UNL d   1       3.938  -4.618   1.317  0.00  0.00    -0.267 OA
ATOM     10  H   UNL d   1       2.465  -2.548  -0.611  0.00  0.00     0.169 HD
BRANCH   8  11
ATOM     11  C   UNL d   1       4.560  -2.419   0.920  0.00  0.00     0.071 A 
ATOM     12  C   UNL d   1       4.308  -1.144   0.407  0.00  0.00     0.135 A 
ATOM     13  C   UNL d   1       5.163  -0.076   0.678  0.00  0.00     0.085 A 
ATOM     14  F   UNL d   1       3.229  -0.909  -0.356  0.00  0.00    -0.205 F 
ATOM     15  C   UNL d   1       6.285  -0.287   1.468  0.00  0.00     0.119 A 
ATOM     16  C   UNL d   1       6.573  -1.544   1.982  0.00  0.00     0.043 A 
ATOM     17  F   UNL d   1       7.101   0.738   1.745  0.00  0.00    -0.206 F 
ATOM     18  C   UNL d   1       5.711  -2.609   1.709  0.00  0.00     0.023 A 
ENDBRANCH   8  11
ENDBRANCH   2   7
BRANCH   1  19
ATOM     19  N   UNL d   1      -2.210  -6.495  -0.160  0.00  0.00    -0.381 N 
ATOM     20  C   UNL d   1      -3.069  -6.681  -1.330  0.00  0.00     0.123 C 
ATOM     21  C   UNL d   1      -4.431  -6.032  -1.086  0.00  0.00     0.020 C 
ATOM     22  C   UNL d   1      -5.063  -6.542   0.208  0.00  0.00     0.003 C 
ATOM     23  C   UNL d   1      -4.108  -6.372   1.386  0.00  0.00     0.020 C 
ATOM     24  C   UNL d   1      -2.747  -7.011   1.105  0.00  0.00     0.123 C 
ENDBRANCH   1  19
TORSDOF 3
