REMARK  3 active torsions:
REMARK  status: ('A' for Active; 'I' for Inactive)
REMARK    1  A    between atoms: N_14  and  C_4 
REMARK    2  A    between atoms: C_13  and  C_6 
REMARK    3  A    between atoms: C_15  and  C_10 
ROOT
ATOM      1  C   UNL d   1      -0.242  -0.580   0.085  0.00  0.00     0.173 A 
ATOM      2  C   UNL d   1      -0.287   0.790   0.118  0.00  0.00     0.032 A 
ATOM      3  C   UNL d   1       2.178   0.636  -0.177  0.00  0.00     0.080 A 
ATOM      4  C   UNL d   1       2.060  -0.719  -0.214  0.00  0.00     0.140 A 
ATOM      5  O   UNL d   1       0.823  -1.363  -0.034  0.00  0.00    -0.279 OA
ATOM      6  C   UNL d   1       0.984   1.572   0.048  0.00  0.00     0.105 A 
ATOM      7  N   UNL d   1      -1.523  -1.023   0.133  0.00  0.00    -0.279 N 
ATOM      8  N   UNL d   1      -2.420  -0.018   0.176  0.00  0.00    -0.302 N 
ATOM      9  HN  UNL d   1      -3.437  -0.090   0.209  1.00  0.00     0.186 HD
ATOM     10  C   UNL d   1      -1.674   1.101   0.167  0.00  0.00     0.037 A 
ATOM     11  C   UNL d   1       3.461   1.245  -0.319  0.00  0.00     0.100 C 
ATOM     12  N   UNL d   1       4.510   1.731  -0.404  0.00  0.00    -0.191 NA
ATOM     13  H   UNL d   1      -1.858  -1.979   0.106  0.00  0.00     0.189 HD
ENDROOT
BRANCH   4  14
ATOM     14  N   UNL d   1       3.091  -1.606  -0.423  0.00  0.00    -0.282 NA
ATOM     15  H   UNL d   1       4.027  -1.266  -0.214  0.00  0.00     0.126 HD
ATOM     16  H   UNL d   1       2.898  -2.529  -0.044  0.00  0.00     0.126 HD
ENDBRANCH   4  14
BRANCH   6  17
ATOM     17  C   UNL d   1       0.836   2.618  -1.049  0.00  0.00    -0.044 A 
ATOM     18  C   UNL d   1       1.408   3.888  -0.849  0.00  0.00     0.008 A 
ATOM     19  C   UNL d   1       1.320   4.875  -1.830  0.00  0.00     0.001 A 
ATOM     20  C   UNL d   1       0.645   4.617  -3.020  0.00  0.00     0.000 A 
ATOM     21  C   UNL d   1       0.086   3.362  -3.244  0.00  0.00     0.001 A 
ATOM     22  C   UNL d   1       0.205   2.361  -2.280  0.00  0.00     0.008 A 
ENDBRANCH   6  17
BRANCH  10  23
ATOM     23  C   UNL d   1      -2.316   2.454   0.094  0.00  0.00     0.055 C 
ATOM     24  C   UNL d   1      -3.679   2.559   0.760  0.00  0.00     0.011 C 
ENDBRANCH  10  23
TORSDOF 3
