REMARK  1 active torsions:
REMARK  status: ('A' for Active; 'I' for Inactive)
REMARK       I    between atoms: N_2  and  C_1 
REMARK    1  A    between atoms: C_3  and  C_1 
ROOT
ATOM      1  C   UNL d   1       0.277  -0.836  -1.112  0.00  0.00     0.035 A 
ATOM      2  C   UNL d   1      -1.761  -1.086  -2.403  0.00  0.00     0.103 A 
ATOM      3  C   UNL d   1      -0.950  -0.330  -1.553  0.00  0.00     0.056 A 
ATOM      4  C   UNL d   1      -1.319  -2.340  -2.849  0.00  0.00     0.102 A 
ATOM      5  O   UNL d   1      -2.952  -0.496  -2.739  0.00  0.00    -0.348 OA
ATOM      6  C   UNL d   1       0.739  -2.063  -1.594  0.00  0.00     0.020 A 
ATOM      7  O   UNL d   1      -2.018  -3.186  -3.672  0.00  0.00    -0.348 OA
ATOM      8  C   UNL d   1      -0.073  -2.824  -2.437  0.00  0.00     0.040 A 
ATOM      9  C   UNL d   1      -4.112  -2.060  -4.200  0.00  0.00     0.053 C 
ATOM     10  C   UNL d   1      -4.042  -1.411  -2.829  0.00  0.00     0.178 C 
ATOM     11  C   UNL d   1      -2.750  -2.512  -4.695  0.00  0.00     0.178 C 
ENDROOT
BRANCH   1  12
ATOM     12  C   UNL d   1       1.063  -0.017  -0.156  0.00  0.00     0.254 C 
ATOM     13  N   UNL d   1       1.517  -0.581   1.036  0.00  0.00    -0.344 N 
ATOM     14  C   UNL d   1       2.353   0.238   1.917  0.00  0.00     0.152 C 
ATOM     15  C   UNL d   1       1.421  -1.992   1.436  0.00  0.00     0.152 C 
ATOM     16  C   UNL d   1       2.003   0.001   3.388  0.00  0.00     0.187 C 
ATOM     17  O   UNL d   1       2.103  -1.393   3.717  0.00  0.00    -0.388 OA
ATOM     18  C   UNL d   1       1.170  -2.151   2.939  0.00  0.00     0.187 C 
ATOM     19  O   UNL d   1       1.234   1.165  -0.442  0.00  0.00    -0.267 OA
ENDBRANCH   1  12
TORSDOF 1
