REMARK  7 active torsions:
REMARK  status: ('A' for Active; 'I' for Inactive)
REMARK    1  A    between atoms: O_3  and  C_1 
REMARK       I    between atoms: C_2  and  N_7 
REMARK       I    between atoms: N_8  and  C_2 
REMARK    2  A    between atoms: C_6  and  O_3 
REMARK    3  A    between atoms: N_7  and  C_12 
REMARK    4  A    between atoms: C_13  and  N_8 
REMARK    5  A    between atoms: O_14  and  C_16 
REMARK    6  A    between atoms: C_20  and  O_14 
REMARK    7  A    between atoms: C_26  and  C_20 
ROOT
ATOM      1  C   UNL d   1      -5.857   4.604   0.981  0.00  0.00     0.325 C 
ATOM      2  N   UNL d   1      -4.823   5.255   0.351  0.00  0.00    -0.307 N 
ATOM      3  N   UNL d   1      -5.532   3.985   2.164  0.00  0.00    -0.309 N 
ATOM      4  O   UNL d   1      -7.038   4.635   0.638  0.00  0.00    -0.247 OA
ATOM      5  H   UNL d   1      -3.990   5.376   0.913  0.00  0.00     0.170 HD
ATOM      6  H   UNL d   1      -6.325   3.898   2.789  0.00  0.00     0.170 HD
ENDROOT
BRANCH   2   7
ATOM      7  C   UNL d   1      -4.861   5.957  -0.871  0.00  0.00     0.051 A 
ATOM      8  C   UNL d   1      -5.920   5.893  -1.768  0.00  0.00     0.035 A 
ATOM      9  C   UNL d   1      -5.836   6.570  -2.982  0.00  0.00     0.059 A 
ATOM     10  C   UNL d   1      -4.684   7.288  -3.269  0.00  0.00     0.148 A 
ATOM     11  N   UNL d   1      -3.655   7.428  -2.408  0.00  0.00    -0.344 N 
ATOM     12  C   UNL d   1      -3.766   6.746  -1.239  0.00  0.00     0.119 A 
ATOM     13  HN  UNL d   1      -2.844   8.008  -2.621  1.00  0.00     0.167 HD
BRANCH  10  14
ATOM     14  O   UNL d   1      -4.636   7.844  -4.543  0.00  0.00    -0.290 OA
BRANCH  14  15
ATOM     15  C   UNL d   1      -3.416   8.185  -5.080  0.00  0.00     0.121 A 
ATOM     16  C   UNL d   1      -2.340   7.295  -5.226  0.00  0.00     0.069 A 
ATOM     17 CL   UNL d   1      -2.411   5.630  -4.753  0.00  0.00    -0.081 Cl
ATOM     18  C   UNL d   1      -1.166   7.708  -5.872  0.00  0.00     0.027 A 
ATOM     19  C   UNL d   1      -1.073   8.983  -6.427  0.00  0.00     0.003 A 
ATOM     20  C   UNL d   1      -2.155   9.854  -6.336  0.00  0.00     0.027 A 
ATOM     21  C   UNL d   1      -3.317   9.458  -5.664  0.00  0.00     0.069 A 
ATOM     22 CL   UNL d   1      -4.640  10.573  -5.625  0.00  0.00    -0.081 Cl
ENDBRANCH  14  15
ENDBRANCH  10  14
ENDBRANCH   2   7
BRANCH   3  23
ATOM     23  C   UNL d   1      -4.267   3.614   2.641  0.00  0.00     0.036 C 
ATOM     24  C   UNL d   1      -4.000   3.742   4.005  0.00  0.00     0.032 C 
ATOM     25  C   UNL d   1      -2.696   3.562   4.472  0.00  0.00     0.039 C 
ATOM     26  C   UNL d   1      -1.676   3.213   3.586  0.00  0.00     0.069 C 
ATOM     27  C   UNL d   1      -1.989   2.906   2.261  0.00  0.00     0.039 C 
ATOM     28  C   UNL d   1      -3.277   3.131   1.783  0.00  0.00     0.032 C 
BRANCH  26  29
ATOM     29  O   UNL d   1      -0.402   3.220   4.091  0.00  0.00    -0.347 OA
BRANCH  29  30
ATOM     30  C   UNL d   1       0.601   3.556   3.123  0.00  0.00     0.214 C 
BRANCH  30  31
ATOM     31  C   UNL d   1       1.741   4.308   3.765  0.00  0.00    -0.034 A 
ATOM     32  C   UNL d   1       2.568   3.688   4.709  0.00  0.00     0.009 A 
ATOM     33  C   UNL d   1       3.665   4.370   5.240  0.00  0.00     0.001 A 
ATOM     34  C   UNL d   1       3.940   5.676   4.838  0.00  0.00     0.000 A 
ATOM     35  C   UNL d   1       3.114   6.309   3.913  0.00  0.00     0.001 A 
ATOM     36  C   UNL d   1       2.018   5.630   3.380  0.00  0.00     0.009 A 
ENDBRANCH  30  31
ENDBRANCH  29  30
ENDBRANCH  26  29
ENDBRANCH   3  23
TORSDOF 7
