REMARK  5 active torsions:
REMARK  status: ('A' for Active; 'I' for Inactive)
REMARK    1  A    between atoms: S_2  and  C_1 
REMARK    2  A    between atoms: C_17  and  S_2 
REMARK    3  A    between atoms: C_8  and  C_4 
REMARK    4  A    between atoms: C_6  and  N_12 
REMARK    5  A    between atoms: C_16  and  C_7 
REMARK       I    between atoms: N_12  and  C_8 
ROOT
ATOM      1  C   UNL d   1       0.685   1.285   0.119  0.00  0.00     0.078 A 
ATOM      2  C   UNL d   1       1.256  -0.041   0.029  0.00  0.00    -0.017 A 
ATOM      3  C   UNL d   1       0.260  -1.027   0.048  0.00  0.00     0.080 A 
ATOM      4  S   UNL d   1      -1.299  -0.350   0.248  0.00  0.00    -0.094 SA
ATOM      5  C   UNL d   1      -0.686   1.241   0.274  0.00  0.00     0.075 A 
ATOM      6  C   UNL d   1       2.716  -0.386  -0.085  0.00  0.00     0.051 C 
ENDROOT
BRANCH   3   7
ATOM      7  C   UNL d   1       0.474  -2.483  -0.044  0.00  0.00     0.265 C 
ATOM      8  N   UNL d   1      -0.647  -3.286  -0.181  0.00  0.00    -0.301 N 
ATOM      9  H   UNL d   1      -1.571  -2.887  -0.251  0.00  0.00     0.171 HD
ATOM     10  O   UNL d   1       1.615  -2.939  -0.001  0.00  0.00    -0.267 OA
BRANCH   8  11
ATOM     11  C   UNL d   1      -0.506  -4.654  -0.177  0.00  0.00     0.168 A 
ATOM     12  S   UNL d   1      -1.938  -5.584  -0.287  0.00  0.00    -0.037 SA
ATOM     13  C   UNL d   1      -0.943  -6.978  -0.105  0.00  0.00     0.074 A 
ATOM     14  N   UNL d   1       0.343  -6.716  -0.031  0.00  0.00    -0.296 N 
ATOM     15  N   UNL d   1       0.592  -5.364  -0.070  0.00  0.00    -0.279 N 
ATOM     16  HN  UNL d   1       1.068  -7.429   0.046  1.00  0.00     0.187 HD
ATOM     17  HN  UNL d   1       1.526  -4.959  -0.021  1.00  0.00     0.189 HD
BRANCH  13  18
ATOM     18  C   UNL d   1      -1.480  -8.406   0.010  0.00  0.00     0.044 A 
ATOM     19  C   UNL d   1      -0.727  -9.355   0.932  0.00  0.00     0.012 A 
ATOM     20  C   UNL d   1      -0.659  -9.558  -0.541  0.00  0.00     0.012 A 
ENDBRANCH  13  18
ENDBRANCH   8  11
ENDBRANCH   3   7
BRANCH   1  21
ATOM     21  S   UNL d   1       1.532   2.818   0.076  0.00  0.00     0.207 S 
ATOM     22  O   UNL d   1       2.792   2.592  -0.591  0.00  0.00    -0.217 OA
ATOM     23  O   UNL d   1       0.546   3.744  -0.452  0.00  0.00    -0.217 OA
BRANCH  21  24
ATOM     24  C   UNL d   1       1.848   3.244   1.767  0.00  0.00     0.064 A 
ATOM     25  C   UNL d   1       2.686   2.437   2.542  0.00  0.00     0.025 A 
ATOM     26  C   UNL d   1       2.889   2.749   3.889  0.00  0.00     0.025 A 
ATOM     27  C   UNL d   1       2.271   3.870   4.444  0.00  0.00     0.034 A 
ATOM     28  C   UNL d   1       1.466   4.697   3.660  0.00  0.00     0.025 A 
ATOM     29 CL   UNL d   1       2.497   4.231   6.111  0.00  0.00    -0.084 Cl
ATOM     30  C   UNL d   1       1.255   4.388   2.315  0.00  0.00     0.025 A 
ENDBRANCH  21  24
ENDBRANCH   1  21
TORSDOF 5
