REMARK  0 active torsions:
REMARK  status: ('A' for Active; 'I' for Inactive)
ROOT
ATOM      1  C   UNL d   1       0.018   0.746   0.049  0.00  0.00     0.046 A 
ATOM      2  C   UNL d   1      -1.254   1.491  -0.015  0.00  0.00     0.164 C 
ATOM      3  C   UNL d   1      -0.021  -0.650  -0.016  0.00  0.00     0.082 A 
ATOM      4  C   UNL d   1       1.236   1.425   0.114  0.00  0.00     0.060 A 
ATOM      5  O   UNL d   1      -1.179  -1.378  -0.088  0.00  0.00    -0.350 OA
ATOM      6  O   UNL d   1      -1.284   2.709   0.125  0.00  0.00    -0.292 OA
ATOM      7  C   UNL d   1       1.172  -1.374  -0.050  0.00  0.00     0.041 A 
ATOM      8  C   UNL d   1       2.414   0.689   0.087  0.00  0.00     0.117 A 
ATOM      9  C   UNL d   1      -2.470   0.675  -0.342  0.00  0.00     0.110 C 
ATOM     10  C   UNL d   1      -2.332  -0.658   0.362  0.00  0.00     0.183 C 
ATOM     11  C   UNL d   1       2.395  -0.701   0.002  0.00  0.00     0.045 A 
ATOM     12  F   UNL d   1       3.590   1.328   0.127  0.00  0.00    -0.206 F 
ENDROOT
TORSDOF 0
