REMARK  3 active torsions:
REMARK  status: ('A' for Active; 'I' for Inactive)
REMARK    1  A    between atoms: C_10  and  N_5 
REMARK    2  A    between atoms: C_12  and  C_10 
REMARK    3  A    between atoms: C_16  and  C_12 
ROOT
ATOM      1  N   UNL d   1       0.640   0.384   0.065  0.00  0.00    -0.251 N 
ATOM      2  C   UNL d   1       1.250  -0.849  -0.005  0.00  0.00     0.174 A 
ATOM      3  C   UNL d   1       1.393   1.536   0.086  0.00  0.00     0.324 C 
ATOM      4  C   UNL d   1       2.913   1.326   0.146  0.00  0.00     0.331 C 
ATOM      5  N   UNL d   1       3.355   0.013   0.002  0.00  0.00    -0.243 N 
ATOM      6  N   UNL d   1       2.516  -1.072  -0.064  0.00  0.00    -0.274 N 
ATOM      7  HN  UNL d   1       2.883  -2.020  -0.156  1.00  0.00     0.189 HD
ATOM      8  S   UNL d   1       0.076  -2.154  -0.043  0.00  0.00    -0.050 SA
ATOM      9  C   UNL d   1      -0.775   0.324   0.038  0.00  0.00     0.062 A 
ATOM     10  C   UNL d   1      -1.257  -0.990  -0.003  0.00  0.00     0.035 A 
ATOM     11  O   UNL d   1       3.657   2.292   0.260  0.00  0.00    -0.260 OA
ATOM     12  O   UNL d   1       0.963   2.684   0.020  0.00  0.00    -0.261 OA
ATOM     13  C   UNL d   1      -1.675   1.385   0.046  0.00  0.00     0.031 A 
ATOM     14  C   UNL d   1      -2.614  -1.274  -0.018  0.00  0.00     0.021 A 
ATOM     15  C   UNL d   1      -3.047   1.111   0.021  0.00  0.00     0.002 A 
ATOM     16  C   UNL d   1      -3.515  -0.209  -0.004  0.00  0.00     0.002 A 
ENDROOT
BRANCH   5  17
ATOM     17  C   UNL d   1       4.784  -0.255  -0.092  0.00  0.00     0.236 C 
BRANCH  17  18
ATOM     18  C   UNL d   1       5.442  -0.598   1.243  0.00  0.00     0.179 C 
ATOM     19  O   UNL d   1       4.811  -0.754   2.286  0.00  0.00    -0.290 OA
BRANCH  18  20
ATOM     20  C   UNL d   1       6.936  -0.740   1.255  0.00  0.00     0.011 A 
ATOM     21  C   UNL d   1       7.703  -0.668   0.083  0.00  0.00     0.015 A 
ATOM     22  C   UNL d   1       9.098  -0.736   0.144  0.00  0.00     0.001 A 
ATOM     23  C   UNL d   1       9.737  -0.886   1.372  0.00  0.00     0.000 A 
ATOM     24  C   UNL d   1       8.984  -0.990   2.540  0.00  0.00     0.001 A 
ATOM     25  C   UNL d   1       7.588  -0.921   2.483  0.00  0.00     0.015 A 
ENDBRANCH  18  20
ENDBRANCH  17  18
ENDBRANCH   5  17
TORSDOF 3
