REMARK  8 active torsions:
REMARK  status: ('A' for Active; 'I' for Inactive)
REMARK    1  A    between atoms: C_13  and  C_1 
REMARK    2  A    between atoms: C_6  and  O_12 
REMARK    3  A    between atoms: C_14  and  C_6 
REMARK    4  A    between atoms: C_8  and  C_20 
REMARK    5  A    between atoms: N_21  and  C_8 
REMARK    6  A    between atoms: O_12  and  N_9 
REMARK    7  A    between atoms: C_20  and  O_22 
REMARK    8  A    between atoms: O_22  and  C_23 
ROOT
ATOM      1  C   UNL d   1      -2.928  -8.509  -0.919  0.00  0.00     0.100 C 
ATOM      2  N   UNL d   1      -1.655  -8.496  -1.177  0.00  0.00    -0.248 N 
ATOM      3  HN  UNL d   1      -1.233  -8.953  -1.986  1.00  0.00     0.196 HD
ENDROOT
BRANCH   1   4
ATOM      4  C   UNL d   1      -3.858  -9.237  -1.909  0.00  0.00     0.247 C 
BRANCH   4   5
ATOM      5  O   UNL d   1      -4.078 -10.563  -1.432  0.00  0.00    -0.344 OA
BRANCH   5   6
ATOM      6  C   UNL d   1      -4.843 -11.368  -2.235  0.00  0.00     0.069 A 
ATOM      7  C   UNL d   1      -4.522 -12.726  -2.207  0.00  0.00     0.038 A 
ATOM      8  C   UNL d   1      -5.283 -13.658  -2.927  0.00  0.00     0.018 A 
ATOM      9  C   UNL d   1      -6.397 -13.252  -3.672  0.00  0.00     0.017 A 
ATOM     10  C   UNL d   1      -6.708 -11.883  -3.700  0.00  0.00     0.018 A 
ATOM     11  C   UNL d   1      -5.939 -10.948  -2.987  0.00  0.00     0.038 A 
BRANCH   9  12
ATOM     12  C   UNL d   1      -7.241 -14.210  -4.381  0.00  0.00     0.173 A 
ATOM     13  N   UNL d   1      -8.337 -14.020  -5.090  0.00  0.00    -0.278 N 
ATOM     14  N   UNL d   1      -8.759 -15.269  -5.507  0.00  0.00    -0.288 N 
ATOM     15  HN  UNL d   1      -8.785 -13.126  -5.292  1.00  0.00     0.189 HD
ATOM     16  C   UNL d   1      -7.892 -16.123  -5.022  0.00  0.00     0.251 A 
ATOM     17  HN  UNL d   1      -9.578 -15.482  -6.076  1.00  0.00     0.188 HD
ATOM     18  O   UNL d   1      -6.898 -15.539  -4.297  0.00  0.00    -0.286 OA
ENDBRANCH   9  12
ENDBRANCH   5   6
ENDBRANCH   4   5
ENDBRANCH   1   4
BRANCH   1  19
ATOM     19  N   UNL d   1      -3.506  -7.928   0.190  0.00  0.00    -0.289 NA
ATOM     20  H   UNL d   1      -4.360  -8.368   0.515  0.00  0.00     0.125 HD
ATOM     21  H   UNL d   1      -2.842  -7.751   0.935  0.00  0.00     0.125 HD
ENDBRANCH   1  19
BRANCH   2  22
ATOM     22  O   UNL d   1      -0.920  -7.774  -0.206  0.00  0.00    -0.194 OA
BRANCH  22  23
ATOM     23  C   UNL d   1       0.413  -7.813  -0.515  0.00  0.00     0.315 C 
ATOM     24  O   UNL d   1       0.944  -8.433  -1.427  0.00  0.00    -0.257 OA
BRANCH  23  25
ATOM     25  C   UNL d   1       1.210  -6.974   0.427  0.00  0.00     0.041 A 
ATOM     26  C   UNL d   1       2.611  -6.968   0.274  0.00  0.00     0.019 A 
ATOM     27  C   UNL d   1       3.419  -6.191   1.110  0.00  0.00     0.025 A 
ATOM     28  C   UNL d   1       2.835  -5.412   2.105  0.00  0.00     0.034 A 
ATOM     29  C   UNL d   1       1.450  -5.406   2.270  0.00  0.00     0.025 A 
ATOM     30 CL   UNL d   1       3.826  -4.450   3.130  0.00  0.00    -0.084 Cl
ATOM     31  C   UNL d   1       0.637  -6.184   1.434  0.00  0.00     0.019 A 
ENDBRANCH  23  25
ENDBRANCH  22  23
ENDBRANCH   2  22
TORSDOF 8
