REMARK  2 active torsions:
REMARK  status: ('A' for Active; 'I' for Inactive)
REMARK    1  A    between atoms: N_2  and  S_1 
REMARK    2  A    between atoms: C_5  and  S_1 
REMARK       I    between atoms: C_3  and  N_2 
REMARK       I    between atoms: N_4  and  C_3 
ROOT
ATOM      1  S   UNL d   1       1.064  -0.027   0.015  0.00  0.00     0.266 S 
ATOM      2  O   UNL d   1       0.411   1.249   0.205  0.00  0.00    -0.200 OA
ATOM      3  O   UNL d   1       2.492  -0.171   0.212  0.00  0.00    -0.200 OA
ENDROOT
BRANCH   1   4
ATOM      4  N   UNL d   1       0.761  -0.575  -1.530  0.00  0.00    -0.232 N 
ATOM      5  C   UNL d   1      -0.516  -0.834  -2.014  0.00  0.00     0.332 C 
ATOM      6  N   UNL d   1      -0.614  -1.319  -3.296  0.00  0.00    -0.333 N 
ATOM      7  O   UNL d   1      -1.513  -0.646  -1.329  0.00  0.00    -0.246 OA
ATOM      8  C   UNL d   1       0.411  -1.339  -4.320  0.00  0.00     0.127 C 
ATOM      9  C   UNL d   1      -1.933  -1.448  -3.898  0.00  0.00     0.127 C 
ATOM     10  C   UNL d   1      -0.299  -0.702  -5.501  0.00  0.00     0.022 C 
ATOM     11  C   UNL d   1      -1.710  -1.274  -5.397  0.00  0.00     0.022 C 
ATOM     12  H   UNL d   1       1.585  -0.909  -2.005  0.00  0.00     0.183 HD
ENDBRANCH   1   4
BRANCH   1  13
ATOM     13  C   UNL d   1       0.269  -1.264   1.007  0.00  0.00     0.080 A 
ATOM     14  C   UNL d   1       0.788  -2.561   0.987  0.00  0.00     0.026 A 
ATOM     15  C   UNL d   1       0.066  -3.591   1.581  0.00  0.00     0.008 A 
ATOM     16  C   UNL d   1      -1.164  -3.329   2.202  0.00  0.00    -0.062 A 
ATOM     17  C   UNL d   1      -1.634  -2.010   2.277  0.00  0.00     0.008 A 
ATOM     18  C   UNL d   1      -1.983  -4.470   2.727  0.00  0.00     0.048 C 
ATOM     19  C   UNL d   1      -0.916  -0.974   1.683  0.00  0.00     0.026 A 
ENDBRANCH   1  13
TORSDOF 2
