REMARK  4 active torsions:
REMARK  status: ('A' for Active; 'I' for Inactive)
REMARK       I    between atoms: C_2  and  N_12 
REMARK    1  A    between atoms: C_3  and  C_2 
REMARK    2  A    between atoms: N_12  and  C_11 
REMARK    3  A    between atoms: O_16  and  C_13 
REMARK    4  A    between atoms: C_18  and  O_16 
ROOT
ATOM      1  C   UNL d   1      -4.674  -0.519   0.568  0.00  0.00     0.259 C 
ATOM      2  N   UNL d   1      -5.816  -1.254   0.846  0.00  0.00    -0.323 N 
ATOM      3  O   UNL d   1      -3.511  -0.833   0.788  0.00  0.00    -0.267 OA
ATOM      4  H   UNL d   1      -6.696  -0.856   0.544  0.00  0.00     0.169 HD
ENDROOT
BRANCH   1   5
ATOM      5  C   UNL d   1      -4.946   0.830   0.017  0.00  0.00     0.066 A 
ATOM      6  C   UNL d   1      -4.326   1.326  -1.137  0.00  0.00     0.091 A 
ATOM      7  C   UNL d   1      -4.490   2.679  -1.468  0.00  0.00     0.038 A 
ATOM      8  C   UNL d   1      -5.287   3.518  -0.687  0.00  0.00     0.003 A 
ATOM      9  C   UNL d   1      -5.936   3.013   0.436  0.00  0.00     0.001 A 
ATOM     10  C   UNL d   1      -5.764   1.675   0.792  0.00  0.00     0.020 A 
BRANCH   6  11
ATOM     11  O   UNL d   1      -3.456   0.650  -1.959  0.00  0.00    -0.310 OA
BRANCH  11  12
ATOM     12  C   UNL d   1      -3.728  -0.633  -2.369  0.00  0.00     0.076 A 
ATOM     13  C   UNL d   1      -5.004  -1.145  -2.613  0.00  0.00     0.037 A 
ATOM     14  C   UNL d   1      -5.151  -2.479  -3.004  0.00  0.00     0.003 A 
ATOM     15  C   UNL d   1      -4.028  -3.285  -3.194  0.00  0.00     0.000 A 
ATOM     16  C   UNL d   1      -2.752  -2.756  -3.008  0.00  0.00     0.003 A 
ATOM     17  C   UNL d   1      -2.605  -1.431  -2.600  0.00  0.00     0.037 A 
ENDBRANCH  11  12
ENDBRANCH   6  11
ENDBRANCH   1   5
BRANCH   2  18
ATOM     18  C   UNL d   1      -5.891  -2.482   1.546  0.00  0.00     0.037 A 
ATOM     19  C   UNL d   1      -4.747  -3.144   2.029  0.00  0.00     0.061 A 
ATOM     20  C   UNL d   1      -4.963  -4.324   2.784  0.00  0.00     0.069 A 
ATOM     21  C   UNL d   1      -6.354  -4.837   3.035  0.00  0.00     0.067 A 
ATOM     22  N   UNL d   1      -4.013  -5.087   3.347  0.00  0.00    -0.310 N 
ATOM     23  N   UNL d   1      -6.383  -5.953   3.780  0.00  0.00    -0.310 N 
ATOM     24  C   UNL d   1      -7.478  -4.160   2.513  0.00  0.00     0.035 A 
ATOM     25  S   UNL d   1      -4.800  -6.321   4.129  0.00  0.00     0.068 SA
ATOM     26  HN  UNL d   1      -7.211  -6.472   4.072  1.00  0.00     0.176 HD
ATOM     27  C   UNL d   1      -7.203  -2.990   1.776  0.00  0.00     0.032 A 
ATOM     28  HN  UNL d   1      -3.005  -4.937   3.303  1.00  0.00     0.176 HD
ENDBRANCH   2  18
TORSDOF 4
