REMARK  6 active torsions:
REMARK  status: ('A' for Active; 'I' for Inactive)
REMARK    1  A    between atoms: C_9  and  N_1 
REMARK    2  A    between atoms: C_12  and  C_6 
REMARK    3  A    between atoms: C_19  and  C_12 
REMARK    4  A    between atoms: N_20  and  N_14 
REMARK    5  A    between atoms: C_18  and  N_20 
REMARK    6  A    between atoms: C_28  and  C_27 
ROOT
ATOM      1  N   UNL d   1      -0.404  -1.248  -0.029  0.00  0.00    -0.227 N 
ATOM      2  N   UNL d   1       0.679   0.611   0.073  0.00  0.00    -0.226 N 
ATOM      3  HN  UNL d   1       1.444   1.283   0.125  1.00  0.00     0.210 HD
ATOM      4  N   UNL d   1       0.831  -0.698   0.110  0.00  0.00    -0.220 N 
ATOM      5  HN  UNL d   1       1.711  -1.203   0.221  1.00  0.00     0.210 HD
ATOM      6  C   UNL d   1      -1.315  -0.189  -0.090  0.00  0.00     0.125 A 
ATOM      7  N   UNL d   1      -0.634   0.944  -0.045  0.00  0.00    -0.271 N 
ATOM      8  HN  UNL d   1      -1.020   1.887  -0.089  1.00  0.00     0.190 HD
ENDROOT
BRANCH   6   9
ATOM      9  C   UNL d   1      -2.796  -0.228  -0.125  0.00  0.00     0.126 C 
BRANCH   9  10
ATOM     10  C   UNL d   1      -3.344  -0.665   1.210  0.00  0.00     0.087 C 
ATOM     11  N   UNL d   1      -4.616  -0.873   1.359  0.00  0.00    -0.315 N 
ATOM     12  HN  UNL d   1      -5.285  -0.769   0.597  1.00  0.00     0.185 HD
BRANCH  11  13
ATOM     13  N   UNL d   1      -4.983  -1.242   2.616  0.00  0.00    -0.301 N 
ATOM     14  H   UNL d   1      -4.347  -1.101   3.400  0.00  0.00     0.187 HD
BRANCH  13  15
ATOM     15  C   UNL d   1      -6.347  -1.212   2.979  0.00  0.00     0.049 A 
ATOM     16  C   UNL d   1      -7.378  -1.028   2.050  0.00  0.00     0.056 A 
ATOM     17  C   UNL d   1      -8.723  -1.088   2.442  0.00  0.00     0.058 A 
ATOM     18 CL   UNL d   1      -9.931  -0.837   1.228  0.00  0.00    -0.082 Cl
ATOM     19  C   UNL d   1      -9.053  -1.352   3.775  0.00  0.00     0.055 A 
ATOM     20  C   UNL d   1      -8.036  -1.552   4.708  0.00  0.00     0.028 A 
ATOM     21 CL   UNL d   1     -10.685  -1.459   4.330  0.00  0.00    -0.083 Cl
ATOM     22  C   UNL d   1      -6.697  -1.491   4.310  0.00  0.00     0.033 A 
ENDBRANCH  13  15
ENDBRANCH  11  13
ENDBRANCH   9  10
ENDBRANCH   6   9
BRANCH   1  23
ATOM     23  C   UNL d   1      -0.553  -2.663  -0.036  0.00  0.00     0.059 A 
ATOM     24  C   UNL d   1       0.568  -3.462   0.258  0.00  0.00     0.032 A 
ATOM     25  C   UNL d   1       0.465  -4.856   0.313  0.00  0.00     0.009 A 
ATOM     26  C   UNL d   1      -0.758  -5.484   0.071  0.00  0.00    -0.058 A 
ATOM     27  C   UNL d   1      -1.862  -4.694  -0.269  0.00  0.00     0.009 A 
ATOM     28  C   UNL d   1      -1.765  -3.297  -0.321  0.00  0.00     0.032 A 
BRANCH  26  29
ATOM     29  C   UNL d   1      -0.897  -6.981   0.172  0.00  0.00     0.034 C 
ATOM     30  C   UNL d   1      -0.646  -7.687  -1.151  0.00  0.00     0.010 C 
ENDBRANCH  26  29
ENDBRANCH   1  23
TORSDOF 6
