REMARK  4 active torsions:
REMARK  status: ('A' for Active; 'I' for Inactive)
REMARK    1  A    between atoms: C_4  and  C_1 
REMARK    2  A    between atoms: O_12  and  C_1 
REMARK    3  A    between atoms: C_2  and  C_7 
REMARK    4  A    between atoms: C_5  and  C_2 
ROOT
ATOM      1  C   UNL d   1       0.403  -0.635  -1.137  0.00  0.00     0.048 A 
ATOM      2  C   UNL d   1       0.875  -1.956  -1.258  0.00  0.00    -0.019 A 
ATOM      3  C   UNL d   1      -0.736  -0.240  -1.864  0.00  0.00     0.019 A 
ATOM      4  C   UNL d   1       0.198  -2.843  -2.117  0.00  0.00     0.012 A 
ATOM      5  C   UNL d   1      -1.394  -1.133  -2.710  0.00  0.00     0.001 A 
ATOM      6  C   UNL d   1      -0.927  -2.435  -2.836  0.00  0.00     0.001 A 
ENDROOT
BRANCH   2   7
ATOM      7  C   UNL d   1       2.017  -2.514  -0.524  0.00  0.00     0.014 C 
BRANCH   7   8
ATOM      8  C   UNL d   1       3.217  -2.644  -1.113  0.00  0.00     0.019 C 
ATOM      9  C   UNL d   1       4.325  -3.270  -0.472  0.00  0.00     0.004 A 
ATOM     10  S   UNL d   1       5.886  -3.150  -1.201  0.00  0.00    -0.102 SA
ATOM     11  C   UNL d   1       4.399  -4.032   0.684  0.00  0.00     0.019 A 
ATOM     12  C   UNL d   1       6.611  -4.134  -0.011  0.00  0.00     0.050 A 
ATOM     13  C   UNL d   1       5.706  -4.541   0.941  0.00  0.00     0.008 A 
ENDBRANCH   7   8
ENDBRANCH   2   7
BRANCH   1  14
ATOM     14  C   UNL d   1       0.975   0.396  -0.230  0.00  0.00     0.177 C 
ATOM     15  O   UNL d   1       0.265   1.204   0.355  0.00  0.00    -0.646 OA
BRANCH  14  16
ATOM     16  O   UNL d   1       2.317   0.443  -0.167  0.00  0.00    -0.773 OA
ATOM     17  H   UNL d   1       2.785  -0.189  -0.739  0.00  0.00     0.167 HD
ENDBRANCH  14  16
ENDBRANCH   1  14
TORSDOF 4
