REMARK  0 active torsions:
REMARK  status: ('A' for Active; 'I' for Inactive)
ROOT
ATOM      1  C   UNL d   1      -0.113   0.006   0.041  0.00  0.00     0.051 A 
ATOM      2  C   UNL d   1       1.251   0.528   0.032  0.00  0.00     0.143 A 
ATOM      3  C   UNL d   1      -0.201  -1.384   0.005  0.00  0.00     0.090 A 
ATOM      4  N   UNL d   1       2.263  -0.384  -0.010  0.00  0.00    -0.233 N 
ATOM      5  N   UNL d   1       1.723   1.745   0.056  0.00  0.00    -0.329 N 
ATOM      6  HN  UNL d   1       1.217   2.630   0.089  1.00  0.00     0.168 HD
ATOM      7  N   UNL d   1       0.840  -2.285  -0.036  0.00  0.00    -0.344 N 
ATOM      8  HN  UNL d   1       0.684  -3.293  -0.059  1.00  0.00     0.167 HD
ATOM      9  N   UNL d   1       3.461   0.230  -0.014  0.00  0.00    -0.280 N 
ATOM     10  HN  UNL d   1       4.398  -0.172  -0.041  1.00  0.00     0.189 HD
ATOM     11  S   UNL d   1      -1.865  -1.866   0.016  0.00  0.00    -0.075 SA
ATOM     12  C   UNL d   1      -1.343   0.648   0.071  0.00  0.00    -0.028 A 
ATOM     13  C   UNL d   1      -2.363  -0.262   0.059  0.00  0.00    -0.008 A 
ATOM     14  C   UNL d   1       2.046  -1.765  -0.043  0.00  0.00     0.209 A 
ATOM     15  C   UNL d   1       3.081   1.523   0.026  0.00  0.00     0.093 A 
ATOM     16  C   UNL d   1      -1.840   2.040   0.104  0.00  0.00     0.041 C 
ATOM     17  C   UNL d   1      -3.706   0.366   0.080  0.00  0.00     0.047 C 
ATOM     18  C   UNL d   1       4.038   2.647   0.037  0.00  0.00     0.090 C 
ATOM     19  C   UNL d   1      -3.342   1.847  -0.270  0.00  0.00     0.010 C 
ENDROOT
TORSDOF 0
