REMARK  3 active torsions:
REMARK  status: ('A' for Active; 'I' for Inactive)
REMARK    1  A    between atoms: C_6  and  C_1 
REMARK    2  A    between atoms: C_10  and  N_2 
REMARK    3  A    between atoms: C_11  and  C_10 
ROOT
ATOM      1  C   UNL d   1       0.873  -0.731  -0.061  0.00  0.00     0.136 A 
ATOM      2  N   UNL d   1       0.998   0.637  -0.061  0.00  0.00    -0.304 N 
ATOM      3  N   UNL d   1      -0.359  -1.150  -0.114  0.00  0.00    -0.282 N 
ATOM      4  HN  UNL d   1      -0.688  -2.115  -0.139  1.00  0.00     0.188 HD
ATOM      5  C   UNL d   1      -0.300   1.103  -0.087  0.00  0.00     0.194 A 
ATOM      6  N   UNL d   1      -1.111  -0.016  -0.130  0.00  0.00    -0.274 N 
ATOM      7  S   UNL d   1      -0.892   2.652  -0.064  0.00  0.00    -0.039 SA
ATOM      8  H   UNL d   1      -2.123  -0.038  -0.124  0.00  0.00     0.189 HD
ENDROOT
BRANCH   1   9
ATOM      9  C   UNL d   1       2.017  -1.666  -0.012  0.00  0.00     0.031 A 
ATOM     10  C   UNL d   1       2.017  -2.778   0.847  0.00  0.00     0.048 A 
ATOM     11 CL   UNL d   1       0.785  -3.071   2.024  0.00  0.00    -0.083 Cl
ATOM     12  C   UNL d   1       3.074  -3.697   0.803  0.00  0.00     0.025 A 
ATOM     13  C   UNL d   1       4.137  -3.510  -0.079  0.00  0.00     0.002 A 
ATOM     14  C   UNL d   1       4.142  -2.411  -0.933  0.00  0.00     0.001 A 
ATOM     15  C   UNL d   1       3.078  -1.507  -0.915  0.00  0.00     0.017 A 
ENDBRANCH   1   9
BRANCH   2  16
ATOM     16  C   UNL d   1       2.190   1.471   0.059  0.00  0.00     0.160 C 
BRANCH  16  17
ATOM     17  C   UNL d   1       2.623   1.933  -1.306  0.00  0.00    -0.017 C 
ATOM     18  C   UNL d   1       3.898   2.122  -1.671  0.00  0.00     0.008 C 
ENDBRANCH  16  17
ENDBRANCH   2  16
TORSDOF 3
