REMARK  9 active torsions:
REMARK  status: ('A' for Active; 'I' for Inactive)
REMARK    1  A    between atoms: C_17  and  N_1 
REMARK    2  A    between atoms: C_11  and  C_2 
REMARK    3  A    between atoms: S_5  and  C_9 
REMARK    4  A    between atoms: N_16  and  S_5 
REMARK    5  A    between atoms: S_10  and  C_6 
REMARK    6  A    between atoms: C_21  and  S_10 
REMARK    7  A    between atoms: C_14  and  C_21 
REMARK       I    between atoms: N_15  and  C_14 
REMARK    8  A    between atoms: C_26  and  N_15 
REMARK    9  A    between atoms: C_22  and  C_17 
ROOT
ATOM      1  S   UNL d   1      -2.751  -0.669   1.218  0.00  0.00    -0.083 SA
ENDROOT
BRANCH   1   2
ATOM      2  C   UNL d   1      -1.310  -0.283   0.327  0.00  0.00     0.163 C 
ATOM      3  N   UNL d   1      -0.279   0.481   0.812  0.00  0.00    -0.307 N 
ATOM      4  C   UNL d   1       0.565   0.705  -0.266  0.00  0.00     0.135 C 
ATOM      5  N   UNL d   1       0.128  -0.036  -1.273  0.00  0.00    -0.283 N 
ATOM      6  N   UNL d   1      -1.051  -0.636  -0.908  0.00  0.00    -0.278 N 
ATOM      7  HN  UNL d   1       0.593  -0.142  -2.175  1.00  0.00     0.188 HD
ATOM      8  HN  UNL d   1      -1.623  -1.246  -1.492  1.00  0.00     0.189 HD
BRANCH   3   9
ATOM      9  C   UNL d   1      -0.037   0.805   2.209  0.00  0.00     0.159 C 
BRANCH   9  10
ATOM     10  C   UNL d   1      -0.698   2.086   2.638  0.00  0.00    -0.017 C 
ATOM     11  C   UNL d   1      -0.179   2.916   3.553  0.00  0.00     0.008 C 
ENDBRANCH   9  10
ENDBRANCH   3   9
BRANCH   4  12
ATOM     12  C   UNL d   1       1.747   1.577  -0.322  0.00  0.00     0.010 A 
ATOM     13  C   UNL d   1       2.834   1.232  -1.142  0.00  0.00     0.017 A 
ATOM     14  C   UNL d   1       3.969   2.052  -1.220  0.00  0.00     0.025 A 
ATOM     15  C   UNL d   1       4.027   3.227  -0.477  0.00  0.00     0.034 A 
ATOM     16  C   UNL d   1       2.948   3.606   0.312  0.00  0.00     0.025 A 
ATOM     17 CL   UNL d   1       5.425   4.226  -0.545  0.00  0.00    -0.084 Cl
ATOM     18  C   UNL d   1       1.810   2.796   0.368  0.00  0.00     0.017 A 
ENDBRANCH   4  12
ENDBRANCH   1   2
BRANCH   1  19
ATOM     19  C   UNL d   1      -3.527  -1.833   0.066  0.00  0.00     0.185 C 
BRANCH  19  20
ATOM     20  C   UNL d   1      -4.933  -2.293   0.425  0.00  0.00     0.231 C 
ATOM     21  N   UNL d   1      -5.531  -1.732   1.538  0.00  0.00    -0.327 N 
ATOM     22  H   UNL d   1      -5.056  -0.938   1.952  0.00  0.00     0.169 HD
ATOM     23  O   UNL d   1      -5.470  -3.127  -0.308  0.00  0.00    -0.272 OA
BRANCH  21  24
ATOM     24  C   UNL d   1      -6.754  -2.133   2.128  0.00  0.00     0.034 A 
ATOM     25  C   UNL d   1      -7.428  -3.308   1.771  0.00  0.00     0.031 A 
ATOM     26  C   UNL d   1      -8.610  -3.688   2.414  0.00  0.00     0.027 A 
ATOM     27  C   UNL d   1      -9.137  -2.883   3.420  0.00  0.00     0.074 A 
ATOM     28  C   UNL d   1      -8.482  -1.709   3.797  0.00  0.00     0.027 A 
ATOM     29  C   UNL d   1      -7.293  -1.338   3.150  0.00  0.00     0.031 A 
BRANCH  27  30
ATOM     30  S   UNL d   1     -10.607  -3.392   4.253  0.00  0.00     0.239 S 
ATOM     31  O   UNL d   1     -10.765  -4.824   4.120  0.00  0.00    -0.206 OA
ATOM     32  O   UNL d   1     -10.690  -2.721   5.530  0.00  0.00    -0.206 OA
BRANCH  30  33
ATOM     33  N   UNL d   1     -11.801  -2.706   3.293  0.00  0.00    -0.225 NA
ATOM     34  H   UNL d   1     -12.366  -3.437   2.860  0.00  0.00     0.136 HD
ATOM     35  H   UNL d   1     -12.341  -2.031   3.836  0.00  0.00     0.136 HD
ENDBRANCH  30  33
ENDBRANCH  27  30
ENDBRANCH  21  24
ENDBRANCH  19  20
ENDBRANCH   1  19
TORSDOF 9
