REMARK  3 active torsions:
REMARK  status: ('A' for Active; 'I' for Inactive)
REMARK    1  A    between atoms: N_2  and  C_1 
REMARK    2  A    between atoms: N_5  and  C_1 
REMARK    3  A    between atoms: C_3  and  N_2 
ROOT
ATOM      1  C   UNL d   1       0.975  -2.132   1.273  0.00  0.00     0.073 A 
ATOM      2  C   UNL d   1       0.315  -3.351   1.467  0.00  0.00     0.143 A 
ATOM      3  F   UNL d   1      -0.671  -3.714   0.630  0.00  0.00    -0.204 F 
ATOM      4  C   UNL d   1       1.974  -1.760   2.175  0.00  0.00     0.033 A 
ATOM      5  C   UNL d   1       0.672  -4.216   2.496  0.00  0.00     0.044 A 
ATOM      6  C   UNL d   1       2.332  -2.620   3.219  0.00  0.00     0.002 A 
ATOM      7  C   UNL d   1       1.689  -3.849   3.373  0.00  0.00     0.003 A 
ENDROOT
BRANCH   1   8
ATOM      8  N   UNL d   1       0.545  -1.320   0.198  0.00  0.00    -0.331 N 
ATOM      9  H   UNL d   1      -0.408  -1.506  -0.104  0.00  0.00     0.168 HD
BRANCH   8  10
ATOM     10  C   UNL d   1       1.078  -0.180  -0.330  0.00  0.00     0.173 C 
ATOM     11  S   UNL d   1      -0.032   0.934  -0.928  0.00  0.00    -0.041 SA
BRANCH  10  12
ATOM     12  N   UNL d   1       2.457  -0.054  -0.423  0.00  0.00    -0.367 N 
ATOM     13  C   UNL d   1       3.314  -1.216  -0.658  0.00  0.00     0.151 C 
ATOM     14  C   UNL d   1       3.095   1.221  -0.748  0.00  0.00     0.151 C 
ENDBRANCH  10  12
ENDBRANCH   8  10
ENDBRANCH   1   8
TORSDOF 3
