REMARK  2 active torsions:
REMARK  status: ('A' for Active; 'I' for Inactive)
REMARK    1  A    between atoms: N_8  and  C_6 
REMARK    2  A    between atoms: C_11  and  N_8 
ROOT
ATOM      1  C   UNL d   1      -2.392   0.518  -0.518  0.00  0.00     0.098 C 
ATOM      2  C   UNL d   1      -2.358  -0.916  -0.145  0.00  0.00     0.261 C 
ATOM      3  C   UNL d   1      -1.205   1.386  -0.330  0.00  0.00     0.201 C 
ATOM      4  N   UNL d   1      -1.118  -1.436   0.101  0.00  0.00    -0.322 N 
ATOM      5  C   UNL d   1       0.071   0.679  -0.110  0.00  0.00     0.042 A 
ATOM      6  C   UNL d   1      -3.458   1.037  -1.151  0.00  0.00     0.109 C 
ATOM      7  C   UNL d   1       0.075  -0.707   0.063  0.00  0.00     0.049 A 
ATOM      8  O   UNL d   1      -3.361  -1.625  -0.093  0.00  0.00    -0.267 OA
ATOM      9  O   UNL d   1      -1.246   2.608  -0.388  0.00  0.00    -0.286 OA
ATOM     10  C   UNL d   1       1.274   1.394  -0.115  0.00  0.00     0.018 A 
ATOM     11  C   UNL d   1       1.287  -1.385   0.202  0.00  0.00     0.030 A 
ATOM     12  C   UNL d   1       2.483   0.713   0.017  0.00  0.00     0.001 A 
ATOM     13  C   UNL d   1       2.490  -0.674   0.164  0.00  0.00     0.002 A 
ATOM     14  H   UNL d   1      -1.098  -2.431   0.289  0.00  0.00     0.169 HD
ENDROOT
BRANCH   6  15
ATOM     15  N   UNL d   1      -4.641   0.419  -1.482  0.00  0.00    -0.365 N 
ATOM     16  H   UNL d   1      -4.746  -0.534  -1.121  0.00  0.00     0.165 HD
BRANCH  15  17
ATOM     17  C   UNL d   1      -5.522   0.752  -2.525  0.00  0.00     0.031 A 
ATOM     18  C   UNL d   1      -5.209   1.673  -3.534  0.00  0.00     0.029 A 
ATOM     19  C   UNL d   1      -6.145   2.011  -4.517  0.00  0.00     0.002 A 
ATOM     20  C   UNL d   1      -7.419   1.452  -4.489  0.00  0.00     0.000 A 
ATOM     21  C   UNL d   1      -7.755   0.549  -3.484  0.00  0.00     0.002 A 
ATOM     22  C   UNL d   1      -6.812   0.204  -2.511  0.00  0.00     0.029 A 
ENDBRANCH  15  17
ENDBRANCH   6  15
TORSDOF 2
