REMARK  3 active torsions:
REMARK  status: ('A' for Active; 'I' for Inactive)
REMARK       I    between atoms: C_2  and  N_1 
REMARK    1  A    between atoms: C_5  and  C_2 
REMARK    2  A    between atoms: C_4  and  C_3 
REMARK    3  A    between atoms: O_9  and  C_4 
ROOT
ATOM      1  N   UNL d   1      -1.025   0.488   0.334  0.00  0.00    -0.337 N 
ATOM      2  C   UNL d   1      -2.224   1.162   0.313  0.00  0.00     0.228 C 
ATOM      3  C   UNL d   1      -0.935  -0.945  -0.038  0.00  0.00     0.185 C 
ATOM      4  O   UNL d   1      -3.222   0.547  -0.091  0.00  0.00    -0.273 OA
ATOM      5  C   UNL d   1       0.306   1.089   0.333  0.00  0.00     0.127 C 
ATOM      6  C   UNL d   1       0.561  -1.257   0.119  0.00  0.00     0.038 C 
ATOM      7  C   UNL d   1       1.228   0.044  -0.278  0.00  0.00     0.022 C 
ENDROOT
BRANCH   2   8
ATOM      8  C   UNL d   1      -2.364   2.631   0.791  0.00  0.00     0.030 C 
ATOM      9  C   UNL d   1      -2.020   3.606  -0.341  0.00  0.00     0.025 C 
ATOM     10  C   UNL d   1      -3.853   2.853   1.159  0.00  0.00     0.025 C 
ATOM     11  C   UNL d   1      -1.553   2.951   2.055  0.00  0.00     0.025 C 
ENDBRANCH   2   8
BRANCH   3  12
ATOM     12  C   UNL d   1      -1.743  -1.987   0.765  0.00  0.00     0.163 C 
ATOM     13  O   UNL d   1      -1.291  -3.063   1.131  0.00  0.00    -0.648 OA
BRANCH  12  14
ATOM     14  O   UNL d   1      -3.059  -1.708   0.920  0.00  0.00    -0.775 OA
ATOM     15  H   UNL d   1      -3.326  -0.873   0.459  0.00  0.00     0.167 HD
ENDBRANCH  12  14
ENDBRANCH   3  12
TORSDOF 3
