REMARK  13 active torsions:
REMARK  status: ('A' for Active; 'I' for Inactive)
REMARK    1  A    between atoms: C_4  and  C_1 
REMARK    2  A    between atoms: C_5  and  C_1 
REMARK    3  A    between atoms: C_2  and  C_6 
REMARK    4  A    between atoms: N_7  and  C_3 
REMARK    5  A    between atoms: O_22  and  C_4 
REMARK    6  A    between atoms: O_23  and  C_5 
REMARK    7  A    between atoms: C_8  and  N_7 
REMARK    8  A    between atoms: N_20  and  C_10 
REMARK    9  A    between atoms: C_25  and  N_20 
REMARK   10  A    between atoms: C_21  and  C_24 
REMARK   11  A    between atoms: C_28  and  O_22 
REMARK   12  A    between atoms: C_27  and  O_23 
REMARK   13  A    between atoms: C_24  and  C_25 
ROOT
ATOM      1  C   UNL d   1      -1.332  -3.722  -3.426  0.00  0.00     0.050 A 
ATOM      2  C   UNL d   1       0.494  -2.920  -1.957  0.00  0.00     0.054 A 
ATOM      3  C   UNL d   1      -0.617  -2.688  -2.805  0.00  0.00     0.047 A 
ATOM      4  C   UNL d   1       0.858  -4.269  -1.698  0.00  0.00     0.035 A 
ATOM      5  C   UNL d   1      -0.897  -5.033  -3.238  0.00  0.00     0.018 A 
ATOM      6  C   UNL d   1       0.184  -5.294  -2.397  0.00  0.00     0.026 A 
ENDROOT
BRANCH   2   7
ATOM      7  N   UNL d   1       1.155  -1.734  -1.543  0.00  0.00    -0.363 N 
ATOM      8  H   UNL d   1       0.508  -0.961  -1.353  0.00  0.00     0.165 HD
BRANCH   7   9
ATOM      9  C   UNL d   1       2.410  -1.550  -1.016  0.00  0.00     0.112 C 
ATOM     10  C   UNL d   1       2.903  -0.521  -0.295  0.00  0.00     0.129 C 
BRANCH  10  11
ATOM     11  C   UNL d   1       4.229  -0.628   0.369  0.00  0.00     0.300 C 
ATOM     12  O   UNL d   1       4.641   0.150   1.217  0.00  0.00    -0.259 OA
BRANCH  11  13
ATOM     13  O   UNL d   1       4.917  -1.714  -0.075  0.00  0.00    -0.318 OA
BRANCH  13  14
ATOM     14  C   UNL d   1       6.257  -1.855   0.416  0.00  0.00     0.174 C 
ATOM     15  C   UNL d   1       7.193  -1.178  -0.565  0.00  0.00     0.034 C 
ENDBRANCH  13  14
ENDBRANCH  11  13
ENDBRANCH  10  11
BRANCH  10  16
ATOM     16  C   UNL d   1       2.091   0.713  -0.163  0.00  0.00     0.300 C 
ATOM     17  O   UNL d   1       0.877   0.765  -0.316  0.00  0.00    -0.259 OA
BRANCH  16  18
ATOM     18  O   UNL d   1       2.910   1.781  -0.000  0.00  0.00    -0.318 OA
BRANCH  18  19
ATOM     19  C   UNL d   1       2.317   3.085  -0.037  0.00  0.00     0.174 C 
ATOM     20  C   UNL d   1       1.751   3.463   1.317  0.00  0.00     0.034 C 
ENDBRANCH  18  19
ENDBRANCH  16  18
ENDBRANCH  10  16
ENDBRANCH   7   9
ENDBRANCH   2   7
BRANCH   4  21
ATOM     21  N   UNL d   1       1.885  -4.752  -0.847  0.00  0.00    -0.291 NA
ATOM     22  H   UNL d   1       2.764  -4.696  -1.360  0.00  0.00     0.127 HD
BRANCH  21  23
ATOM     23  C   UNL d   1       2.002  -4.106   0.465  0.00  0.00     0.098 C 
BRANCH  23  24
ATOM     24  C   UNL d   1       2.065  -5.088   1.633  0.00  0.00     0.071 C 
BRANCH  24  25
ATOM     25  C   UNL d   1       2.481  -4.326   2.878  0.00  0.00     0.010 A 
ATOM     26  N   UNL d   1       2.121  -3.017   2.952  0.00  0.00    -0.369 N 
ATOM     27  C   UNL d   1       2.541  -2.298   4.013  0.00  0.00     0.088 A 
ATOM     28  HN  UNL d   1       1.548  -2.590   2.224  1.00  0.00     0.165 HD
ATOM     29  C   UNL d   1       3.306  -2.828   5.033  0.00  0.00     0.017 A 
ATOM     30  C   UNL d   1       3.647  -4.173   4.964  0.00  0.00     0.003 A 
ATOM     31  C   UNL d   1       3.227  -4.942   3.876  0.00  0.00     0.025 A 
ENDBRANCH  24  25
ENDBRANCH  23  24
ENDBRANCH  21  23
ENDBRANCH   4  21
BRANCH   1  32
ATOM     32  C   UNL d   1      -2.526  -3.432  -4.297  0.00  0.00     0.417 C 
ATOM     33  F   UNL d   1      -2.919  -2.128  -4.270  0.00  0.00    -0.166 F 
ATOM     34  F   UNL d   1      -2.300  -3.726  -5.608  0.00  0.00    -0.166 F 
ATOM     35  F   UNL d   1      -3.624  -4.156  -3.937  0.00  0.00    -0.166 F 
ENDBRANCH   1  32
TORSDOF 13
