REMARK  0 active torsions:
REMARK  status: ('A' for Active; 'I' for Inactive)
ROOT
ATOM      1  C   UNL d   1      -0.120   1.111  -0.025  0.00  0.00     0.072 A 
ATOM      2  C   UNL d   1      -1.149   0.218  -0.010  0.00  0.00     0.035 A 
ATOM      3  C   UNL d   1      -0.920  -1.141   0.006  0.00  0.00     0.030 A 
ATOM      4  N   UNL d   1      -0.752   2.322  -0.031  0.00  0.00    -0.299 N 
ATOM      5  C   UNL d   1       0.463  -1.651   0.009  0.00  0.00     0.194 A 
ATOM      6  N   UNL d   1      -2.110   2.240  -0.019  0.00  0.00    -0.299 N 
ATOM      7  HN  UNL d   1      -2.778   3.011  -0.022  1.00  0.00     0.187 HD
ATOM      8  C   UNL d   1       1.285   0.747  -0.015  0.00  0.00     0.007 A 
ATOM      9  C   UNL d   1       1.582  -0.641   0.009  0.00  0.00     0.027 A 
ATOM     10  C   UNL d   1      -2.382   0.921  -0.002  0.00  0.00     0.061 A 
ATOM     11  C   UNL d   1      -2.123  -1.863   0.028  0.00  0.00     0.016 A 
ATOM     12  C   UNL d   1      -3.407  -1.213   0.037  0.00  0.00     0.003 A 
ATOM     13  O   UNL d   1       0.676  -2.857   0.014  0.00  0.00    -0.287 OA
ATOM     14  C   UNL d   1      -3.588   0.201   0.023  0.00  0.00     0.032 A 
ATOM     15  C   UNL d   1       2.327   1.675  -0.017  0.00  0.00     0.015 A 
ATOM     16  C   UNL d   1       2.907  -1.078   0.040  0.00  0.00     0.016 A 
ATOM     17  C   UNL d   1       3.651   1.227   0.014  0.00  0.00     0.001 A 
ATOM     18  C   UNL d   1       3.940  -0.141   0.045  0.00  0.00     0.001 A 
ATOM     19  H   UNL d   1      -0.335   3.247  -0.040  0.00  0.00     0.187 HD
ENDROOT
TORSDOF 0
