REMARK  3 active torsions:
REMARK  status: ('A' for Active; 'I' for Inactive)
REMARK    1  A    between atoms: C_3  and  C_1 
REMARK       I    between atoms: N_9  and  C_3 
REMARK    2  A    between atoms: C_14  and  C_5 
REMARK    3  A    between atoms: C_12  and  N_9 
ROOT
ATOM      1  C   UNL d   1       0.170  -2.656   0.097  0.00  0.00     0.258 C 
ATOM      2  N   UNL d   1      -0.878  -3.543  -0.099  0.00  0.00    -0.323 N 
ATOM      3  O   UNL d   1       1.342  -2.985   0.244  0.00  0.00    -0.267 OA
ATOM      4  H   UNL d   1      -1.776  -3.157  -0.345  0.00  0.00     0.169 HD
ENDROOT
BRANCH   1   5
ATOM      5  C   UNL d   1      -0.213  -1.245   0.107  0.00  0.00     0.064 A 
ATOM      6  C   UNL d   1      -1.494  -0.634  -0.053  0.00  0.00     0.057 A 
ATOM      7  C   UNL d   1      -1.311   0.733  -0.006  0.00  0.00     0.087 A 
ATOM      8  O   UNL d   1      -0.000   1.004   0.236  0.00  0.00    -0.314 OA
ATOM      9  C   UNL d   1       0.661  -0.185   0.320  0.00  0.00     0.065 A 
ATOM     10  C   UNL d   1       2.107  -0.070   0.623  0.00  0.00     0.077 C 
BRANCH   7  11
ATOM     11  C   UNL d   1      -2.203   1.878  -0.162  0.00  0.00    -0.002 A 
ATOM     12  C   UNL d   1      -1.825   3.165   0.247  0.00  0.00     0.014 A 
ATOM     13  C   UNL d   1      -2.702   4.245   0.108  0.00  0.00     0.001 A 
ATOM     14  C   UNL d   1      -3.965   4.053  -0.447  0.00  0.00     0.000 A 
ATOM     15  C   UNL d   1      -4.351   2.785  -0.869  0.00  0.00     0.001 A 
ATOM     16  C   UNL d   1      -3.473   1.706  -0.731  0.00  0.00     0.014 A 
ENDBRANCH   7  11
ENDBRANCH   1   5
BRANCH   2  17
ATOM     17  C   UNL d   1      -0.824  -4.948   0.040  0.00  0.00     0.035 A 
ATOM     18  C   UNL d   1       0.295  -5.629   0.517  0.00  0.00     0.043 A 
ATOM     19  C   UNL d   1       0.262  -7.015   0.735  0.00  0.00    -0.007 A 
ATOM     20  C   UNL d   1       1.373  -7.685   1.256  0.00  0.00     0.015 A 
ATOM     21  C   UNL d   1      -0.899  -7.758   0.461  0.00  0.00     0.042 A 
ATOM     22  C   UNL d   1       1.296  -9.045   1.513  0.00  0.00     0.025 A 
ATOM     23  C   UNL d   1       0.106  -9.703   1.236  0.00  0.00     0.005 A 
ATOM     24  N   UNL d   1      -0.974  -9.080   0.701  0.00  0.00    -0.359 N 
ATOM     25  C   UNL d   1      -0.022 -11.165   1.543  0.00  0.00     0.068 C 
ATOM     26  HN  UNL d   1      -1.823  -9.602   0.485  1.00  0.00     0.166 HD
ATOM     27  C   UNL d   1      -1.993  -7.075  -0.058  0.00  0.00     0.033 A 
ATOM     28  C   UNL d   1      -1.970  -5.686  -0.262  0.00  0.00     0.032 A 
ENDBRANCH   2  17
TORSDOF 3
