REMARK  6 active torsions:
REMARK  status: ('A' for Active; 'I' for Inactive)
REMARK    1  A    between atoms: C_13  and  N_1 
REMARK    2  A    between atoms: C_18  and  N_4 
REMARK    3  A    between atoms: C_5  and  C_17 
REMARK    4  A    between atoms: C_19  and  C_6 
REMARK    5  A    between atoms: C_14  and  C_13 
REMARK       I    between atoms: N_20  and  C_14 
REMARK    6  A    between atoms: N_15  and  N_20 
ROOT
ATOM      1  N   UNL d   1       1.717  -0.734   1.248  0.00  0.00    -0.308 N 
ATOM      2  HN  UNL d   1       0.826  -0.237   1.256  1.00  0.00     0.186 HD
ATOM      3  C   UNL d   1       2.585  -0.632   0.295  0.00  0.00     0.122 C 
ENDROOT
BRANCH   1   4
ATOM      4  N   UNL d   1       2.126  -1.590   2.255  0.00  0.00    -0.269 N 
ATOM      5  C   UNL d   1       1.419  -1.672   3.451  0.00  0.00     0.249 C 
ATOM      6  O   UNL d   1       0.622  -0.826   3.841  0.00  0.00    -0.270 OA
ATOM      7  H   UNL d   1       2.682  -2.392   1.972  0.00  0.00     0.190 HD
BRANCH   5   8
ATOM      8  C   UNL d   1       1.778  -2.917   4.290  0.00  0.00     0.206 C 
BRANCH   8   9
ATOM      9  N   UNL d   1       0.891  -4.097   4.048  0.00  0.00    -0.239 NA
ATOM     10  C   UNL d   1      -0.451  -3.808   4.431  0.00  0.00     0.033 A 
ATOM     11  C   UNL d   1      -1.468  -3.590   3.481  0.00  0.00     0.027 A 
ATOM     12  C   UNL d   1      -0.781  -3.810   5.797  0.00  0.00     0.025 A 
ATOM     13  C   UNL d   1      -2.782  -3.368   3.909  0.00  0.00     0.021 A 
ATOM     14  S   UNL d   1      -1.125  -3.556   1.725  0.00  0.00    -0.087 SA
ATOM     15  C   UNL d   1      -3.097  -3.386   5.268  0.00  0.00     0.001 A 
ATOM     16  C   UNL d   1      -2.097  -3.607   6.212  0.00  0.00     0.002 A 
ATOM     17  C   UNL d   1       0.375  -4.520   1.663  0.00  0.00     0.027 A 
ATOM     18  C   UNL d   1       1.177  -4.717   2.801  0.00  0.00     0.033 A 
ATOM     19  C   UNL d   1       0.745  -5.102   0.444  0.00  0.00     0.021 A 
ATOM     20  C   UNL d   1       2.268  -5.599   2.721  0.00  0.00     0.025 A 
ATOM     21  C   UNL d   1       2.592  -6.226   1.518  0.00  0.00     0.002 A 
ATOM     22  C   UNL d   1       1.850  -5.952   0.372  0.00  0.00     0.001 A 
ENDBRANCH   8   9
ENDBRANCH   5   8
ENDBRANCH   1   4
BRANCH   3  23
ATOM     23  C   UNL d   1       2.332  -0.057  -1.006  0.00  0.00     0.027 C 
ATOM     24  C   UNL d   1       1.327   0.745  -1.645  0.00  0.00     0.072 C 
ATOM     25  N   UNL d   1       1.591   0.825  -2.969  0.00  0.00    -0.292 N 
ATOM     26  N   UNL d   1       2.609  -0.018  -3.201  0.00  0.00    -0.266 N 
ATOM     27  HN  UNL d   1       1.112   1.410  -3.654  1.00  0.00     0.187 HD
ATOM     28  C   UNL d   1       3.212  -0.376  -2.030  0.00  0.00     0.132 C 
BRANCH  24  29
ATOM     29  C   UNL d   1       0.124   1.447  -1.151  0.00  0.00    -0.007 A 
ATOM     30  C   UNL d   1      -0.808   1.955  -2.085  0.00  0.00     0.014 A 
ATOM     31  C   UNL d   1      -1.967   2.635  -1.688  0.00  0.00     0.001 A 
ATOM     32  C   UNL d   1      -2.222   2.813  -0.338  0.00  0.00     0.000 A 
ATOM     33  C   UNL d   1      -1.313   2.333   0.604  0.00  0.00     0.001 A 
ATOM     34  C   UNL d   1      -0.148   1.664   0.202  0.00  0.00     0.014 A 
ENDBRANCH  24  29
BRANCH  26  35
ATOM     35  C   UNL d   1       2.899  -0.508  -4.505  0.00  0.00     0.056 A 
ATOM     36  C   UNL d   1       3.834  -1.539  -4.690  0.00  0.00     0.031 A 
ATOM     37  C   UNL d   1       4.034  -2.085  -5.960  0.00  0.00     0.002 A 
ATOM     38  C   UNL d   1       3.315  -1.602  -7.050  0.00  0.00     0.000 A 
ATOM     39  C   UNL d   1       2.395  -0.568  -6.876  0.00  0.00     0.002 A 
ATOM     40  C   UNL d   1       2.183  -0.021  -5.608  0.00  0.00     0.031 A 
ENDBRANCH  26  35
ENDBRANCH   3  23
TORSDOF 6
