REMARK  5 active torsions:
REMARK  status: ('A' for Active; 'I' for Inactive)
REMARK    1  A    between atoms: C_11  and  C_3 
REMARK    2  A    between atoms: C_17  and  N_6 
REMARK    3  A    between atoms: C_14  and  C_11 
REMARK    4  A    between atoms: C_16  and  C_12 
REMARK    5  A    between atoms: C_23  and  C_16 
ROOT
ATOM      1  N   UNL d   1      -0.249   0.544   0.050  0.00  0.00    -0.062 N 
ATOM      2  C   UNL d   1       0.064  -0.816   0.142  0.00  0.00     0.730 A 
ATOM      3  C   UNL d   1      -1.633   0.669  -0.066  0.00  0.00     0.212 A 
ATOM      4  N   UNL d   1       1.236  -1.334   0.245  0.00  0.00    -0.151 N 
ATOM      5  HN  UNL d   1       1.402  -2.339   0.297  1.00  0.00     0.188 HD
ATOM      6  N   UNL d   1      -1.194  -1.416   0.039  0.00  0.00    -0.083 N 
ATOM      7  N   UNL d   1      -2.247  -0.508  -0.112  0.00  0.00    -0.259 N 
ATOM      8  HN  UNL d   1      -3.242  -0.702  -0.229  1.00  0.00     0.190 HD
ATOM      9  N   UNL d   1       0.707   1.531  -0.042  0.00  0.00    -0.276 N 
ATOM     10  HN  UNL d   1       0.479   2.516  -0.177  1.00  0.00     0.188 HD
ATOM     11  C   UNL d   1       1.937   1.090   0.060  0.00  0.00     0.099 A 
ATOM     12  C   UNL d   1       2.241  -0.401   0.278  0.00  0.00     0.284 A 
ATOM     13  O   UNL d   1       3.411  -0.719   0.444  0.00  0.00    -0.265 OA
ENDROOT
BRANCH  11  14
ATOM     14  C   UNL d   1       3.125   2.011  -0.050  0.00  0.00     0.103 C 
BRANCH  14  15
ATOM     15  C   UNL d   1       3.616   2.494   1.292  0.00  0.00    -0.052 A 
ATOM     16  C   UNL d   1       4.581   1.771   2.010  0.00  0.00     0.009 A 
ATOM     17  C   UNL d   1       5.015   2.215   3.262  0.00  0.00     0.024 A 
ATOM     18  C   UNL d   1       4.493   3.388   3.798  0.00  0.00     0.034 A 
ATOM     19  C   UNL d   1       3.537   4.118   3.094  0.00  0.00     0.024 A 
ATOM     20 CL   UNL d   1       5.027   3.938   5.338  0.00  0.00    -0.084 Cl
ATOM     21  C   UNL d   1       3.095   3.670   1.848  0.00  0.00     0.009 A 
ENDBRANCH  14  15
ENDBRANCH  11  14
BRANCH   3  22
ATOM     22  C   UNL d   1      -2.391   1.974  -0.052  0.00  0.00     0.236 C 
ATOM     23  O   UNL d   1      -1.914   2.891   0.610  0.00  0.00    -0.283 OA
BRANCH  22  24
ATOM     24  C   UNL d   1      -3.666   2.013  -0.749  0.00  0.00     0.059 A 
ATOM     25  S   UNL d   1      -4.861   3.123  -0.205  0.00  0.00    -0.098 SA
ATOM     26  C   UNL d   1      -6.001   2.574  -1.353  0.00  0.00     0.050 A 
ATOM     27  C   UNL d   1      -5.478   1.598  -2.169  0.00  0.00     0.009 A 
ATOM     28  C   UNL d   1      -4.130   1.275  -1.823  0.00  0.00     0.023 A 
ENDBRANCH  22  24
ENDBRANCH   3  22
BRANCH   6  29
ATOM     29  C   UNL d   1      -1.419  -2.811   0.024  0.00  0.00     0.074 A 
ATOM     30  C   UNL d   1      -0.617  -3.674   0.793  0.00  0.00     0.032 A 
ATOM     31  C   UNL d   1      -0.753  -5.060   0.716  0.00  0.00     0.002 A 
ATOM     32  C   UNL d   1      -1.698  -5.612  -0.140  0.00  0.00     0.000 A 
ATOM     33  C   UNL d   1      -2.527  -4.778  -0.889  0.00  0.00     0.002 A 
ATOM     34  C   UNL d   1      -2.402  -3.386  -0.793  0.00  0.00     0.032 A 
ENDBRANCH   6  29
TORSDOF 5
