REMARK  5 active torsions:
REMARK  status: ('A' for Active; 'I' for Inactive)
REMARK    1  A    between atoms: N_2  and  C_1 
REMARK    2  A    between atoms: N_4  and  C_3 
REMARK    3  A    between atoms: C_6  and  C_9 
REMARK    4  A    between atoms: C_13  and  C_17 
REMARK    5  A    between atoms: O_24  and  C_19 
ROOT
ATOM      1  C   UNL d   1       1.211  -0.159   0.144  0.00  0.00     0.130 A 
ATOM      2  C   UNL d   1       0.349  -1.285   0.110  0.00  0.00     0.063 A 
ATOM      3  C   UNL d   1       0.741   1.169   0.118  0.00  0.00     0.050 A 
ATOM      4  C   UNL d   1      -0.628   1.436   0.068  0.00  0.00    -0.001 A 
ATOM      5  C   UNL d   1      -1.017  -0.959  -0.019  0.00  0.00     0.032 A 
ATOM      6  C   UNL d   1      -1.501   0.357  -0.035  0.00  0.00     0.014 A 
ENDROOT
BRANCH   2   7
ATOM      7  N   UNL d   1       0.697  -2.639   0.281  0.00  0.00    -0.379 N 
ATOM      8  C   UNL d   1      -0.014  -3.635  -0.542  0.00  0.00     0.123 C 
ATOM      9  C   UNL d   1       0.349  -5.106  -0.330  0.00  0.00     0.029 C 
ATOM     10  C   UNL d   1       1.693  -5.426   0.325  0.00  0.00     0.024 C 
ATOM     11  C   UNL d   1       1.923  -4.432   1.464  0.00  0.00     0.029 C 
ATOM     12  C   UNL d   1       1.932  -2.997   0.975  0.00  0.00     0.123 C 
BRANCH  10  13
ATOM     13  C   UNL d   1       2.883  -5.598  -0.610  0.00  0.00    -0.021 A 
ATOM     14  C   UNL d   1       3.835  -6.632  -0.464  0.00  0.00     0.074 A 
ATOM     15  C   UNL d   1       4.864  -6.790  -1.407  0.00  0.00     0.037 A 
ATOM     16  C   UNL d   1       4.986  -5.927  -2.493  0.00  0.00     0.003 A 
ATOM     17  C   UNL d   1       4.073  -4.895  -2.643  0.00  0.00     0.001 A 
ATOM     18  C   UNL d   1       3.042  -4.731  -1.714  0.00  0.00     0.010 A 
BRANCH  14  19
ATOM     19  O   UNL d   1       3.785  -7.648   0.462  0.00  0.00    -0.355 OA
ATOM     20  C   UNL d   1       3.738  -7.258   1.828  0.00  0.00     0.210 C 
ENDBRANCH  14  19
ENDBRANCH  10  13
ENDBRANCH   2   7
BRANCH   1  21
ATOM     21  N   UNL d   1       2.655  -0.264   0.140  0.00  0.00    -0.113 N 
ATOM     22  O   UNL d   1       3.187  -0.727  -0.880  0.00  0.00    -0.532 OA
ATOM     23  O   UNL d   1       3.256   0.168   1.128  0.00  0.00    -0.532 OA
ENDBRANCH   1  21
BRANCH   4  24
ATOM     24  C   UNL d   1      -1.143   2.842   0.221  0.00  0.00     0.294 C 
ATOM     25  O   UNL d   1      -0.746   3.263   1.522  0.00  0.00    -0.356 OA
ATOM     26  C   UNL d   1      -1.190   4.582   1.792  0.00  0.00     0.182 C 
ATOM     27  C   UNL d   1      -0.675   5.564   0.732  0.00  0.00    -0.004 C 
ATOM     28  C   UNL d   1      -1.022   5.004  -0.656  0.00  0.00     0.182 C 
ATOM     29  C   UNL d   1       0.854   5.707   0.859  0.00  0.00     0.019 C 
ATOM     30  C   UNL d   1      -1.340   6.929   0.931  0.00  0.00     0.019 C 
ATOM     31  O   UNL d   1      -0.571   3.659  -0.793  0.00  0.00    -0.356 OA
ENDBRANCH   4  24
TORSDOF 5
