REMARK  7 active torsions:
REMARK  status: ('A' for Active; 'I' for Inactive)
REMARK    1  A    between atoms: C_14  and  N_9 
REMARK       I    between atoms: C_12  and  N_11 
REMARK    2  A    between atoms: O_26  and  C_12 
REMARK    3  A    between atoms: N_13  and  C_21 
REMARK    4  A    between atoms: C_18  and  C_14 
REMARK    5  A    between atoms: C_21  and  C_18 
REMARK    6  A    between atoms: O_27  and  C_18 
REMARK    7  A    between atoms: C_28  and  O_26 
ROOT
ATOM      1  C   UNL d   1       3.722   3.693   0.095  0.00  0.00     0.163 C 
ENDROOT
BRANCH   1   2
ATOM      2  N   UNL d   1       3.108   4.321   1.255  0.00  0.00    -0.333 N 
ATOM      3  C   UNL d   1       3.731   4.979   2.285  0.00  0.00     0.149 C 
ATOM      4  C   UNL d   1       2.759   5.770   2.827  0.00  0.00     0.145 C 
ATOM      5  C   UNL d   1       5.063   4.961   2.776  0.00  0.00     0.282 C 
ATOM      6  N   UNL d   1       3.046   6.708   3.791  0.00  0.00    -0.287 N 
ATOM      7  N   UNL d   1       1.538   5.517   2.285  0.00  0.00    -0.336 N 
ATOM      8  C   UNL d   1       4.311   6.715   4.382  0.00  0.00     0.332 C 
ATOM      9  C   UNL d   1       2.054   7.666   4.240  0.00  0.00     0.163 C 
ATOM     10  N   UNL d   1       5.237   5.763   3.913  0.00  0.00    -0.269 N 
ATOM     11  O   UNL d   1       4.600   7.516   5.273  0.00  0.00    -0.246 OA
ATOM     12  C   UNL d   1       6.492   5.627   4.623  0.00  0.00     0.164 C 
ATOM     13  C   UNL d   1       1.766   4.578   1.388  0.00  0.00     0.185 C 
ATOM     14  HN  UNL d   1       0.647   5.955   2.519  1.00  0.00     0.168 HD
ATOM     15  O   UNL d   1       5.960   4.289   2.265  0.00  0.00    -0.265 OA
ENDBRANCH   1   2
BRANCH   1  16
ATOM     16  C   UNL d   1       3.598   2.161   0.040  0.00  0.00     0.164 C 
BRANCH  16  17
ATOM     17  C   UNL d   1       4.220   1.609  -1.286  0.00  0.00     0.305 C 
BRANCH  17  18
ATOM     18  N   UNL d   1       3.932   0.186  -1.584  0.00  0.00     0.094 N 
ATOM     19  C   UNL d   1       4.572  -0.738  -0.616  0.00  0.00     0.292 C 
ATOM     20  C   UNL d   1       4.233  -2.211  -0.912  0.00  0.00     0.158 C 
ATOM     21  N   UNL d   1       4.604  -2.566  -2.275  0.00  0.00    -0.325 N 
ATOM     22  C   UNL d   1       4.090  -1.667  -3.303  0.00  0.00     0.158 C 
ATOM     23  C   UNL d   1       5.497  -3.596  -2.489  0.00  0.00     0.362 C 
ATOM     24  C   UNL d   1       4.382  -0.184  -2.954  0.00  0.00     0.292 C 
ATOM     25  O   UNL d   1       5.987  -4.271  -1.595  0.00  0.00    -0.238 OA
BRANCH  23  26
ATOM     26  O   UNL d   1       5.819  -3.736  -3.803  0.00  0.00    -0.304 OA
BRANCH  26  27
ATOM     27  C   UNL d   1       7.005  -4.501  -4.061  0.00  0.00     0.176 C 
ATOM     28  C   UNL d   1       8.191  -3.553  -4.007  0.00  0.00     0.034 C 
ENDBRANCH  26  27
ENDBRANCH  23  26
ENDBRANCH  17  18
ENDBRANCH  16  17
BRANCH  16  29
ATOM     29  O   UNL d   1       4.252   1.613   1.188  0.00  0.00    -0.392 OA
ATOM     30  H   UNL d   1       5.182   1.904   1.190  0.00  0.00     0.210 HD
ENDBRANCH  16  29
ENDBRANCH   1  16
TORSDOF 7
