REMARK  7 active torsions:
REMARK  status: ('A' for Active; 'I' for Inactive)
REMARK    1  A    between atoms: N_4  and  C_1 
REMARK       I    between atoms: C_5  and  N_4 
REMARK       I    between atoms: N_10  and  C_5 
REMARK    2  A    between atoms: C_8  and  C_6 
REMARK    3  A    between atoms: C_11  and  C_8 
REMARK    4  A    between atoms: C_13  and  N_10 
REMARK    5  A    between atoms: O_17  and  C_11 
REMARK    6  A    between atoms: O_18  and  C_16 
REMARK    7  A    between atoms: C_22  and  O_17 
ROOT
ATOM      1  N   UNL d   1      -0.109  -1.820  -0.700  0.00  0.00    -0.288 N 
ATOM      2  C   UNL d   1       0.499  -3.025  -0.691  0.00  0.00     0.326 C 
ATOM      3  N   UNL d   1       1.800  -3.098  -0.274  0.00  0.00    -0.309 N 
ATOM      4  O   UNL d   1      -0.224  -3.984  -0.961  0.00  0.00    -0.247 OA
ATOM      5  H   UNL d   1      -1.111  -1.890  -0.812  0.00  0.00     0.172 HD
ATOM      6  H   UNL d   1       2.251  -2.210  -0.082  0.00  0.00     0.170 HD
ENDROOT
BRANCH   1   7
ATOM      7  C   UNL d   1       0.386  -0.558  -0.604  0.00  0.00     0.152 A 
ATOM      8  N   UNL d   1       1.613  -0.100  -0.667  0.00  0.00    -0.339 N 
ATOM      9  C   UNL d   1       1.567   1.309  -0.689  0.00  0.00     0.027 A 
ATOM     10  HN  UNL d   1       2.459  -0.668  -0.695  1.00  0.00     0.168 HD
ATOM     11  C   UNL d   1       0.296   1.837  -0.521  0.00  0.00     0.078 A 
ATOM     12  S   UNL d   1      -0.864   0.592  -0.433  0.00  0.00    -0.064 SA
BRANCH   9  13
ATOM     13  C   UNL d   1       2.825   2.078  -0.989  0.00  0.00     0.168 C 
BRANCH  13  14
ATOM     14  C   UNL d   1       2.843   3.520  -0.506  0.00  0.00     0.264 C 
ATOM     15  O   UNL d   1       2.091   4.017   0.321  0.00  0.00    -0.265 OA
BRANCH  14  16
ATOM     16  O   UNL d   1       3.867   4.192  -1.116  0.00  0.00    -0.322 OA
BRANCH  16  17
ATOM     17  C   UNL d   1       4.093   5.548  -0.691  0.00  0.00     0.174 C 
ATOM     18  C   UNL d   1       3.416   6.525  -1.634  0.00  0.00     0.034 C 
ENDBRANCH  16  17
ENDBRANCH  14  16
ENDBRANCH  13  14
ENDBRANCH   9  13
ENDBRANCH   1   7
BRANCH   3  19
ATOM     19  C   UNL d   1       2.456  -4.284   0.155  0.00  0.00     0.039 A 
ATOM     20  C   UNL d   1       1.957  -5.578  -0.073  0.00  0.00     0.066 A 
ATOM     21  C   UNL d   1       2.553  -6.702   0.511  0.00  0.00     0.070 A 
ATOM     22  C   UNL d   1       3.694  -6.535   1.293  0.00  0.00     0.037 A 
ATOM     23  C   UNL d   1       4.237  -5.265   1.483  0.00  0.00     0.005 A 
ATOM     24  C   UNL d   1       3.624  -4.145   0.911  0.00  0.00     0.030 A 
BRANCH  21  25
ATOM     25  O   UNL d   1       2.111  -7.994   0.406  0.00  0.00    -0.356 OA
ATOM     26  C   UNL d   1       0.867  -8.201  -0.253  0.00  0.00     0.210 C 
ENDBRANCH  21  25
ENDBRANCH   3  19
TORSDOF 7
