REMARK  3 active torsions:
REMARK  status: ('A' for Active; 'I' for Inactive)
REMARK    1  A    between atoms: C_9  and  C_1 
REMARK    2  A    between atoms: C_8  and  C_4 
REMARK    3  A    between atoms: O_18  and  C_9 
ROOT
ATOM      1  C   UNL d   1      -2.417   1.685   0.003  0.00  0.00     0.052 A 
ATOM      2  N   UNL d   1      -3.253  -0.942  -0.153  0.00  0.00    -0.354 N 
ATOM      3  HN  UNL d   1      -3.567  -1.912  -0.185  1.00  0.00     0.166 HD
ATOM      4  C   UNL d   1      -4.152   0.068  -0.218  0.00  0.00     0.051 A 
ATOM      5  C   UNL d   1      -1.447   0.656  -0.008  0.00  0.00     0.009 A 
ATOM      6  C   UNL d   1      -3.777   1.392  -0.117  0.00  0.00     0.050 A 
ATOM      7  C   UNL d   1      -1.947  -0.660  -0.048  0.00  0.00     0.044 A 
ATOM      8  C   UNL d   1      -0.038   0.850  -0.012  0.00  0.00     0.034 A 
ATOM      9  C   UNL d   1      -1.055  -1.723   0.002  0.00  0.00     0.032 A 
ATOM     10  C   UNL d   1       0.832  -0.238   0.016  0.00  0.00     0.011 A 
ATOM     11  C   UNL d   1       0.328  -1.529   0.044  0.00  0.00     0.021 A 
ATOM     12 BR   UNL d   1       2.699   0.044   0.006  0.00  0.00    -0.051 Br
ENDROOT
BRANCH   4  13
ATOM     13  C   UNL d   1      -5.525  -0.362  -0.509  0.00  0.00     0.031 A 
ATOM     14  S   UNL d   1      -6.886   0.519   0.060  0.00  0.00    -0.100 SA
ATOM     15  C   UNL d   1      -7.986  -0.512  -0.745  0.00  0.00     0.050 A 
ATOM     16  C   UNL d   1      -7.345  -1.534  -1.406  0.00  0.00     0.008 A 
ATOM     17  C   UNL d   1      -5.931  -1.462  -1.249  0.00  0.00     0.021 A 
ENDBRANCH   4  13
BRANCH   1  18
ATOM     18  C   UNL d   1      -2.083   3.126   0.083  0.00  0.00     0.177 C 
ATOM     19  O   UNL d   1      -2.620   3.960  -0.623  0.00  0.00    -0.646 OA
BRANCH  18  20
ATOM     20  O   UNL d   1      -1.210   3.432   1.064  0.00  0.00    -0.773 OA
ATOM     21  H   UNL d   1      -0.963   2.695   1.654  0.00  0.00     0.167 HD
ENDBRANCH  18  20
ENDBRANCH   1  18
TORSDOF 3
