REMARK  4 active torsions:
REMARK  status: ('A' for Active; 'I' for Inactive)
REMARK    1  A    between atoms: C_7  and  N_1 
REMARK    2  A    between atoms: C_8  and  N_3 
REMARK    3  A    between atoms: C_20  and  C_10 
REMARK    4  A    between atoms: C_21  and  C_11 
ROOT
ATOM      1  N   UNL d   1       0.801   1.133  -0.183  0.00  0.00    -0.316 N 
ATOM      2  C   UNL d   1       1.547   0.048   0.267  0.00  0.00     0.144 C 
ATOM      3  N   UNL d   1      -1.245   0.048  -0.406  0.00  0.00    -0.355 N 
ATOM      4  C   UNL d   1      -0.604   1.214   0.163  0.00  0.00     0.257 C 
ATOM      5  S   UNL d   1       0.840  -1.548   0.056  0.00  0.00    -0.080 SA
ATOM      6  C   UNL d   1      -0.904  -1.193   0.254  0.00  0.00     0.206 C 
ATOM      7  S   UNL d   1       3.087   0.174   0.945  0.00  0.00    -0.052 SA
ENDROOT
BRANCH   1   8
ATOM      8  C   UNL d   1       1.365   2.150  -1.020  0.00  0.00     0.037 A 
ATOM      9  C   UNL d   1       2.303   1.796  -1.999  0.00  0.00     0.030 A 
ATOM     10  C   UNL d   1       2.860   2.760  -2.842  0.00  0.00     0.010 A 
ATOM     11  C   UNL d   1       2.512   4.109  -2.720  0.00  0.00    -0.055 A 
ATOM     12  C   UNL d   1       1.550   4.461  -1.762  0.00  0.00     0.010 A 
ATOM     13  C   UNL d   1       0.980   3.493  -0.926  0.00  0.00     0.030 A 
BRANCH  11  14
ATOM     14  C   UNL d   1       3.177   5.178  -3.566  0.00  0.00     0.010 C 
ATOM     15  C   UNL d   1       4.690   5.194  -3.324  0.00  0.00     0.015 C 
ATOM     16  C   UNL d   1       2.865   5.012  -5.054  0.00  0.00     0.015 C 
ENDBRANCH  11  14
ENDBRANCH   1   8
BRANCH   3  17
ATOM     17  C   UNL d   1      -2.494   0.154  -1.002  0.00  0.00     0.032 A 
ATOM     18  C   UNL d   1      -2.850  -0.730  -2.031  0.00  0.00     0.030 A 
ATOM     19  C   UNL d   1      -4.039  -0.580  -2.756  0.00  0.00     0.010 A 
ATOM     20  C   UNL d   1      -4.926   0.459  -2.464  0.00  0.00    -0.055 A 
ATOM     21  C   UNL d   1      -4.602   1.321  -1.410  0.00  0.00     0.010 A 
ATOM     22  C   UNL d   1      -3.410   1.166  -0.691  0.00  0.00     0.030 A 
BRANCH  20  23
ATOM     23  C   UNL d   1      -6.174   0.737  -3.285  0.00  0.00     0.010 C 
ATOM     24  C   UNL d   1      -5.834   1.673  -4.449  0.00  0.00     0.015 C 
ATOM     25  C   UNL d   1      -6.882  -0.519  -3.799  0.00  0.00     0.015 C 
ENDBRANCH  20  23
ENDBRANCH   3  17
TORSDOF 4
