REMARK  3 active torsions:
REMARK  status: ('A' for Active; 'I' for Inactive)
REMARK       I    between atoms: C_6  and  N_1 
REMARK    1  A    between atoms: C_2  and  C_8 
REMARK    2  A    between atoms: C_3  and  C_7 
REMARK    3  A    between atoms: O_11  and  C_7 
ROOT
ATOM      1  N   UNL d   1      -1.323   1.260   0.286  0.00  0.00    -0.319 N 
ATOM      2  C   UNL d   1      -1.819  -0.116   0.178  0.00  0.00     0.184 C 
ATOM      3  C   UNL d   1      -0.025   1.435  -0.448  0.00  0.00     0.204 C 
ATOM      4  S   UNL d   1      -0.391  -1.176  -0.210  0.00  0.00    -0.127 SA
ATOM      5  C   UNL d   1       0.829   0.178  -0.112  0.00  0.00     0.034 C 
ATOM      6  C   UNL d   1      -2.198   2.330   0.352  0.00  0.00     0.217 C 
ATOM      7  O   UNL d   1      -1.766   3.481   0.268  0.00  0.00    -0.274 OA
ATOM      8  C   UNL d   1       1.401   0.226   1.316  0.00  0.00     0.029 C 
ATOM      9  C   UNL d   1       1.944  -0.143  -1.111  0.00  0.00     0.029 C 
ATOM     10  C   UNL d   1      -3.658   2.113   0.664  0.00  0.00     0.117 C 
ENDROOT
BRANCH   2  11
ATOM     11  C   UNL d   1      -2.553  -0.693   1.372  0.00  0.00    -0.025 A 
ATOM     12  C   UNL d   1      -3.549  -1.667   1.151  0.00  0.00     0.010 A 
ATOM     13  C   UNL d   1      -4.208  -2.279   2.217  0.00  0.00     0.001 A 
ATOM     14  C   UNL d   1      -3.875  -1.936   3.523  0.00  0.00     0.000 A 
ATOM     15  C   UNL d   1      -2.893  -0.975   3.761  0.00  0.00     0.001 A 
ATOM     16  C   UNL d   1      -2.233  -0.358   2.696  0.00  0.00     0.010 A 
ENDBRANCH   2  11
BRANCH   3  17
ATOM     17  C   UNL d   1       0.903   2.664  -0.274  0.00  0.00     0.165 C 
ATOM     18  O   UNL d   1       1.869   2.864  -0.999  0.00  0.00    -0.648 OA
BRANCH  17  19
ATOM     19  O   UNL d   1       0.661   3.457   0.787  0.00  0.00    -0.775 OA
ATOM     20  H   UNL d   1      -0.296   3.450   1.011  0.00  0.00     0.167 HD
ENDBRANCH  17  19
ENDBRANCH   3  17
TORSDOF 3
