REMARK  2 active torsions:
REMARK  status: ('A' for Active; 'I' for Inactive)
REMARK    1  A    between atoms: N_14  and  C_5 
REMARK    2  A    between atoms: C_15  and  C_7 
ROOT
ATOM      1  C   UNL d   1      -0.352   0.920  -0.115  0.00  0.00     0.061 A 
ATOM      2  C   UNL d   1       0.118  -0.330   0.008  0.00  0.00     0.103 A 
ATOM      3  C   UNL d   1      -2.658  -0.095  -0.127  0.00  0.00     0.076 A 
ATOM      4  C   UNL d   1       0.587   2.054  -0.268  0.00  0.00     0.298 C 
ATOM      5  C   UNL d   1      -2.077  -1.304   0.027  0.00  0.00     0.138 A 
ATOM      6  O   UNL d   1      -0.700  -1.436   0.111  0.00  0.00    -0.296 OA
ATOM      7  C   UNL d   1      -1.841   1.196  -0.177  0.00  0.00     0.075 A 
ATOM      8  C   UNL d   1       1.552  -0.604   0.028  0.00  0.00     0.033 A 
ATOM      9  O   UNL d   1       1.940   1.792  -0.089  0.00  0.00    -0.274 OA
ATOM     10  C   UNL d   1       2.426   0.477   0.011  0.00  0.00     0.092 A 
ATOM     11  C   UNL d   1      -4.078  -0.001  -0.256  0.00  0.00     0.099 C 
ATOM     12  N   UNL d   1      -5.230   0.065  -0.361  0.00  0.00    -0.192 NA
ATOM     13  O   UNL d   1       0.194   3.184  -0.532  0.00  0.00    -0.259 OA
ATOM     14  C   UNL d   1       2.093  -1.895   0.063  0.00  0.00     0.017 A 
ATOM     15  C   UNL d   1       3.809   0.308   0.059  0.00  0.00     0.038 A 
ATOM     16  C   UNL d   1       3.478  -2.083   0.095  0.00  0.00     0.001 A 
ATOM     17  C   UNL d   1       4.335  -0.981   0.102  0.00  0.00     0.003 A 
ENDROOT
BRANCH   7  18
ATOM     18  C   UNL d   1      -2.338   2.213   0.887  0.00  0.00     0.011 C 
ATOM     19  C   UNL d   1      -2.132   1.790   2.337  0.00  0.00     0.006 C 
ENDBRANCH   7  18
BRANCH   5  20
ATOM     20  N   UNL d   1      -2.727  -2.512   0.112  0.00  0.00    -0.282 NA
ATOM     21  H   UNL d   1      -3.672  -2.543  -0.270  0.00  0.00     0.126 HD
ATOM     22  H   UNL d   1      -2.147  -3.291  -0.182  0.00  0.00     0.126 HD
ENDBRANCH   5  20
TORSDOF 2
