REMARK  3 active torsions:
REMARK  status: ('A' for Active; 'I' for Inactive)
REMARK    1  A    between atoms: C_2  and  C_1 
REMARK       I    between atoms: N_3  and  C_1 
REMARK    2  A    between atoms: C_12  and  N_3 
REMARK       I    between atoms: C_5  and  N_6 
REMARK    3  A    between atoms: N_6  and  C_13 
ROOT
ATOM      1  C   UNL d   1      -1.207  -0.963  -0.898  0.00  0.00     0.035 A 
ATOM      2  C   UNL d   1      -4.029  -1.044  -1.143  0.00  0.00     0.034 A 
ATOM      3  C   UNL d   1      -1.939   0.203  -1.128  0.00  0.00     0.032 A 
ATOM      4  C   UNL d   1      -1.900  -2.176  -0.829  0.00  0.00     0.032 A 
ATOM      5  C   UNL d   1      -3.334   0.162  -1.248  0.00  0.00     0.032 A 
ATOM      6  C   UNL d   1      -3.299  -2.216  -0.951  0.00  0.00     0.032 A 
ENDROOT
BRANCH   1   7
ATOM      7  N   UNL d   1       0.190  -0.987  -0.701  0.00  0.00    -0.321 N 
ATOM      8  C   UNL d   1       1.054   0.096  -0.680  0.00  0.00     0.279 C 
ATOM      9  O   UNL d   1       0.737   1.258  -0.912  0.00  0.00    -0.265 OA
ATOM     10  H   UNL d   1       0.618  -1.885  -0.503  0.00  0.00     0.169 HD
BRANCH   8  11
ATOM     11  C   UNL d   1       2.422  -0.249  -0.332  0.00  0.00     0.142 A 
ATOM     12  O   UNL d   1       2.773  -1.552  -0.088  0.00  0.00    -0.317 OA
ATOM     13  C   UNL d   1       4.098  -1.553   0.222  0.00  0.00     0.143 A 
ATOM     14  C   UNL d   1       4.608  -0.277   0.182  0.00  0.00     0.027 A 
ATOM     15  C   UNL d   1       3.531   0.563  -0.176  0.00  0.00     0.045 A 
ENDBRANCH   8  11
ENDBRANCH   1   7
BRANCH   2  16
ATOM     16  N   UNL d   1      -5.437  -0.982  -1.217  0.00  0.00    -0.328 N 
ATOM     17  C   UNL d   1      -6.332  -2.025  -1.089  0.00  0.00     0.218 C 
ATOM     18  O   UNL d   1      -6.059  -3.213  -0.935  0.00  0.00    -0.274 OA
ATOM     19  C   UNL d   1      -7.774  -1.581  -1.139  0.00  0.00     0.117 C 
ATOM     20  H   UNL d   1      -5.826  -0.057  -1.345  0.00  0.00     0.169 HD
ENDBRANCH   2  16
TORSDOF 3
