REMARK  0 active torsions:
REMARK  status: ('A' for Active; 'I' for Inactive)
ROOT
ATOM      1  N   UNL d   1      -1.161   0.824   0.007  0.00  0.00    -0.074 N 
ATOM      2  C   UNL d   1      -1.278  -0.559   0.003  0.00  0.00     0.706 A 
ATOM      3  C   UNL d   1       0.046   1.561   0.007  0.00  0.00     0.149 A 
ATOM      4  C   UNL d   1       1.233   0.640  -0.000  0.00  0.00     0.006 A 
ATOM      5  N   UNL d   1      -0.154  -1.304  -0.000  0.00  0.00    -0.193 N 
ATOM      6  N   UNL d   1      -2.539  -0.908   0.002  0.00  0.00    -0.185 N 
ATOM      7  HN  UNL d   1      -2.942  -1.845  -0.000  1.00  0.00     0.185 HD
ATOM      8  C   UNL d   1       1.069  -0.690  -0.004  0.00  0.00     0.036 A 
ATOM      9  N   UNL d   1      -2.400   1.383   0.009  0.00  0.00    -0.274 N 
ATOM     10  HN  UNL d   1      -2.663   2.368   0.013  1.00  0.00     0.189 HD
ATOM     11  C   UNL d   1      -3.181   0.300   0.006  0.00  0.00     0.215 A 
ATOM     12  S   UNL d   1       0.173   3.244   0.012  0.00  0.00    -0.057 SA
ATOM     13  C   UNL d   1       2.666   1.038  -0.009  0.00  0.00     0.044 A 
ATOM     14  C   UNL d   1       2.366  -1.424  -0.015  0.00  0.00     0.058 A 
ATOM     15  C   UNL d   1       3.412  -0.303  -0.002  0.00  0.00     0.011 A 
ATOM     16  H   UNL d   1      -0.202  -2.318  -0.007  0.00  0.00     0.184 HD
ENDROOT
TORSDOF 0
