REMARK  0 active torsions:
REMARK  status: ('A' for Active; 'I' for Inactive)
ROOT
ATOM      1  N   UNL d   1      -0.051  -1.680   0.000  0.00  0.00    -0.349 N 
ATOM      2  C   UNL d   1       1.120  -0.929   0.000  0.00  0.00     0.052 A 
ATOM      3  C   UNL d   1       0.702   0.431   0.001  0.00  0.00     0.010 A 
ATOM      4  C   UNL d   1      -0.744   0.448   0.001  0.00  0.00     0.004 A 
ATOM      5  C   UNL d   1      -1.176  -0.872   0.002  0.00  0.00     0.045 A 
ATOM      6  C   UNL d   1       2.506  -1.274  -0.000  0.00  0.00    -0.034 A 
ATOM      7  C   UNL d   1       1.683   1.470   0.001  0.00  0.00    -0.049 A 
ATOM      8  C   UNL d   1       3.038   1.115  -0.000  0.00  0.00     0.008 A 
ATOM      9  C   UNL d   1       3.430  -0.209  -0.001  0.00  0.00     0.009 A 
ATOM     10  C   UNL d   1      -0.223  -3.115  -0.001  0.00  0.00     0.156 C 
ATOM     11  C   UNL d   1      -1.740   1.456   0.002  0.00  0.00     0.014 A 
ATOM     12  C   UNL d   1      -2.543  -1.220   0.003  0.00  0.00     0.030 A 
ATOM     13  C   UNL d   1       1.413   2.955   0.001  0.00  0.00     0.049 C 
ATOM     14  C   UNL d   1       3.162  -2.633   0.000  0.00  0.00     0.050 C 
ATOM     15  C   UNL d   1      -3.100   1.124   0.004  0.00  0.00     0.001 A 
ATOM     16  C   UNL d   1      -3.496  -0.203   0.004  0.00  0.00     0.002 A 
ENDROOT
TORSDOF 0
