REMARK  9 active torsions:
REMARK  status: ('A' for Active; 'I' for Inactive)
REMARK    1  A    between atoms: CA_3  and  C_1 
REMARK    2  A    between atoms: OXT_5  and  C_1 
REMARK    3  A    between atoms: N_2  and  CA_3 
REMARK    4  A    between atoms: C3_13  and  N_2 
REMARK    5  A    between atoms: CB_6  and  CA_3 
REMARK    6  A    between atoms: CG_8  and  CB_6 
REMARK    7  A    between atoms: SD_7  and  CG_8 
REMARK    8  A    between atoms: C2_12  and  C3_13 
REMARK    9  A    between atoms: O3_15  and  C5_14 
ROOT
ATOM      1  N   MET d   1      -0.801  -1.782   0.024  0.00  0.00     0.102 N 
ATOM      2  H   MET d   1      -1.546  -2.092   0.667  0.00  0.00     0.317 HD
ENDROOT
BRANCH   1   3
ATOM      3  CA  MET d   1       0.136  -0.896   0.821  0.00  0.00     0.318 C 
BRANCH   3   4
ATOM      4  C   MET d   1       1.145  -1.785   1.575  0.00  0.00     0.174 C 
ATOM      5  O   MET d   1       2.037  -1.371   2.296  0.00  0.00    -0.648 OA
BRANCH   4   6
ATOM      6  OXT MET d   1       0.969  -3.108   1.344  0.00  0.00    -0.775 OA
ATOM      7  HXT MET d   1       0.241  -3.199   0.695  0.00  0.00     0.167 HD
ENDBRANCH   4   6
ENDBRANCH   3   4
BRANCH   3   8
ATOM      8  CB  MET d   1      -0.663  -0.001   1.787  0.00  0.00     0.057 C 
BRANCH   8   9
ATOM      9  CG  MET d   1       0.178   0.879   2.712  0.00  0.00     0.076 C 
BRANCH   9  10
ATOM     10  SD  MET d   1      -0.950   2.021   3.584  0.00  0.00    -0.173 SA
ATOM     11  CE  MET d   1       0.245   2.800   4.692  0.00  0.00     0.089 C 
ENDBRANCH   9  10
ENDBRANCH   8   9
ENDBRANCH   3   8
ENDBRANCH   1   3
BRANCH   1  12
ATOM     12  C3  <1> d   1      -1.503  -0.978  -1.012  0.00  0.00     0.312 C 
BRANCH  12  13
ATOM     13  C2  <1> d   1      -2.441  -1.769  -1.902  0.00  0.00     0.003 A 
ATOM     14  C5  <1> d   1      -2.454  -3.164  -2.023  0.00  0.00     0.073 A 
ATOM     15  C9  <1> d   1      -3.370  -3.821  -2.843  0.00  0.00     0.037 A 
ATOM     16  C12 <1> d   1      -4.274  -3.084  -3.602  0.00  0.00     0.003 A 
ATOM     17  C11 <1> d   1      -4.258  -1.694  -3.537  0.00  0.00     0.001 A 
ATOM     18  C7  <1> d   1      -3.353  -1.043  -2.692  0.00  0.00     0.012 A 
BRANCH  14  19
ATOM     19  O3  <1> d   1      -1.556  -3.953  -1.364  0.00  0.00    -0.360 OA
ATOM     20  H8  <1> d   1      -0.887  -3.331  -1.023  0.00  0.00     0.217 HD
ENDBRANCH  14  19
ENDBRANCH  12  13
ENDBRANCH   1  12
TORSDOF 9
