REMARK  5 active torsions:
REMARK  status: ('A' for Active; 'I' for Inactive)
REMARK    1  A    between atoms: C_6  and  N_1 
REMARK    2  A    between atoms: N_9  and  C_6 
REMARK    3  A    between atoms: C_11  and  N_9 
REMARK    4  A    between atoms: O_10  and  C_12 
REMARK    5  A    between atoms: C_13  and  O_10 
ROOT
ATOM      1  C   UNL d   1       5.293   1.602  -0.141  0.00  0.00     0.009 A 
ATOM      2  C   UNL d   1       8.009   2.129  -0.686  0.00  0.00     0.076 A 
ATOM      3  C   UNL d   1       5.985   0.880  -1.123  0.00  0.00     0.026 A 
ATOM      4  C   UNL d   1       5.954   2.674   0.471  0.00  0.00     0.026 A 
ATOM      5  C   UNL d   1       7.329   1.146  -1.405  0.00  0.00     0.039 A 
ATOM      6  C   UNL d   1       7.307   2.924   0.217  0.00  0.00     0.039 A 
ENDROOT
BRANCH   1   7
ATOM      7  N   UNL d   1       3.940   1.296   0.093  0.00  0.00    -0.276 NA
ATOM      8  H   UNL d   1       3.762   0.319  -0.159  0.00  0.00     0.129 HD
BRANCH   7   9
ATOM      9  C   UNL d   1       3.435   1.572   1.429  0.00  0.00     0.230 C 
BRANCH   9  10
ATOM     10  N   UNL d   1       2.339   0.699   1.758  0.00  0.00    -0.267 N 
ATOM     11  C   UNL d   1       2.255  -0.627   1.427  0.00  0.00     0.262 C 
ATOM     12  C   UNL d   1       1.155  -1.188   2.202  0.00  0.00     0.048 A 
ATOM     13  O   UNL d   1       2.958  -1.276   0.674  0.00  0.00    -0.267 OA
ATOM     14  C   UNL d   1       0.617  -2.462   2.201  0.00  0.00     0.018 A 
ATOM     15  C   UNL d   1       0.698  -0.200   3.053  0.00  0.00     0.048 A 
ATOM     16  C   UNL d   1      -0.421  -2.716   3.102  0.00  0.00     0.001 A 
ATOM     17  C   UNL d   1      -0.880  -1.710   3.978  0.00  0.00     0.001 A 
ATOM     18  C   UNL d   1      -0.312  -0.431   3.965  0.00  0.00     0.018 A 
ATOM     19  C   UNL d   1       1.503   0.995   2.805  0.00  0.00     0.262 C 
ATOM     20  O   UNL d   1       1.452   2.004   3.484  0.00  0.00    -0.267 OA
ENDBRANCH   9  10
ENDBRANCH   7   9
ENDBRANCH   1   7
BRANCH   2  21
ATOM     21  O   UNL d   1       9.343   2.422  -0.853  0.00  0.00    -0.311 OA
BRANCH  21  22
ATOM     22  C   UNL d   1      10.239   1.394  -1.050  0.00  0.00     0.076 A 
ATOM     23  C   UNL d   1      11.377   1.708  -1.797  0.00  0.00     0.039 A 
ATOM     24  C   UNL d   1      12.325   0.722  -2.081  0.00  0.00     0.026 A 
ATOM     25  C   UNL d   1      12.133  -0.577  -1.611  0.00  0.00     0.034 A 
ATOM     26  C   UNL d   1      11.026  -0.885  -0.824  0.00  0.00     0.026 A 
ATOM     27 CL   UNL d   1      13.267  -1.808  -2.006  0.00  0.00    -0.084 Cl
ATOM     28  C   UNL d   1      10.093   0.108  -0.518  0.00  0.00     0.039 A 
ENDBRANCH  21  22
ENDBRANCH   2  21
TORSDOF 5
