REMARK  2 active torsions:
REMARK  status: ('A' for Active; 'I' for Inactive)
REMARK    1  A    between atoms: N_6  and  N_3 
REMARK    2  A    between atoms: C_5  and  N_6 
ROOT
ATOM      1  C   UNL d   1       0.779   1.207  -0.320  0.00  0.00     0.093 C 
ATOM      2  C   UNL d   1       1.498  -0.130  -0.148  0.00  0.00     0.265 C 
ATOM      3  N   UNL d   1       1.276   2.246  -0.923  0.00  0.00    -0.299 N 
ATOM      4  HN  UNL d   1       0.753   3.119  -0.992  1.00  0.00     0.186 HD
ATOM      5  N   UNL d   1       0.698  -1.245  -0.082  0.00  0.00    -0.356 N 
ATOM      6  O   UNL d   1       2.718  -0.192  -0.106  0.00  0.00    -0.266 OA
ATOM      7  C   UNL d   1      -0.624   1.275   0.221  0.00  0.00     0.066 C 
ATOM      8  C   UNL d   1      -0.716  -1.211   0.213  0.00  0.00     0.123 C 
ATOM      9  C   UNL d   1      -1.390   0.060  -0.280  0.00  0.00     0.026 C 
ATOM     10  H   UNL d   1       1.210  -2.107   0.068  0.00  0.00     0.162 HD
ENDROOT
BRANCH   3  11
ATOM     11  N   UNL d   1       2.517   2.127  -1.456  0.00  0.00    -0.299 N 
ATOM     12  H   UNL d   1       3.167   1.401  -1.122  0.00  0.00     0.187 HD
BRANCH  11  13
ATOM     13  C   UNL d   1       3.134   3.258  -2.032  0.00  0.00     0.071 A 
ATOM     14  C   UNL d   1       2.424   4.456  -2.216  0.00  0.00     0.056 A 
ATOM     15  C   UNL d   1       3.017   5.551  -2.844  0.00  0.00     0.036 A 
ATOM     16 CL   UNL d   1       2.125   7.011  -3.035  0.00  0.00    -0.084 Cl
ATOM     17  C   UNL d   1       4.320   5.471  -3.323  0.00  0.00     0.026 A 
ATOM     18  C   UNL d   1       5.037   4.282  -3.176  0.00  0.00     0.028 A 
ATOM     19  C   UNL d   1       4.444   3.184  -2.543  0.00  0.00     0.062 A 
ATOM     20 CL   UNL d   1       5.371   1.729  -2.407  0.00  0.00    -0.082 Cl
ENDBRANCH  11  13
ENDBRANCH   3  11
TORSDOF 2
