REMARK  9 active torsions:
REMARK  status: ('A' for Active; 'I' for Inactive)
REMARK    1  A    between atoms: C_2  and  S_1 
REMARK    2  A    between atoms: C_3  and  S_1 
REMARK    3  A    between atoms: C_8  and  C_3 
REMARK    4  A    between atoms: O_17  and  C_7 
REMARK    5  A    between atoms: C_14  and  C_8 
REMARK    6  A    between atoms: O_22  and  C_8 
REMARK    7  A    between atoms: O_23  and  C_10 
REMARK    8  A    between atoms: O_11  and  C_14 
REMARK    9  A    between atoms: C_12  and  O_11 
ROOT
ATOM      1  S   UNL d   1       0.803   0.023   0.007  0.00  0.00     0.180 S 
ATOM      2  O   UNL d   1       2.158  -0.342   0.380  0.00  0.00    -0.222 OA
ATOM      3  O   UNL d   1      -0.122   0.599   0.971  0.00  0.00    -0.222 OA
ENDROOT
BRANCH   1   4
ATOM      4  C   UNL d   1       0.032  -1.449  -0.626  0.00  0.00     0.095 A 
ATOM      5  C   UNL d   1      -0.434  -1.478  -1.954  0.00  0.00     0.063 A 
ATOM      6  C   UNL d   1      -0.967  -2.650  -2.494  0.00  0.00     0.069 A 
ATOM      7  C   UNL d   1      -1.029  -3.798  -1.706  0.00  0.00     0.039 A 
ATOM      8  C   UNL d   1      -0.569  -3.776  -0.390  0.00  0.00     0.041 A 
ATOM      9  C   UNL d   1      -0.047  -2.602   0.165  0.00  0.00     0.089 A 
BRANCH   6  10
ATOM     10  O   UNL d   1      -1.432  -2.807  -3.771  0.00  0.00    -0.356 OA
ATOM     11  C   UNL d   1      -1.470  -1.654  -4.603  0.00  0.00     0.210 C 
ENDBRANCH   6  10
BRANCH   9  12
ATOM     12  O   UNL d   1       0.468  -2.750   1.423  0.00  0.00    -0.354 OA
ATOM     13  C   UNL d   1      -0.163  -1.955   2.426  0.00  0.00     0.210 C 
ENDBRANCH   9  12
ENDBRANCH   1   4
BRANCH   1  14
ATOM     14  C   UNL d   1       0.935   1.183  -1.308  0.00  0.00     0.179 C 
BRANCH  14  15
ATOM     15  C   UNL d   1       1.457   2.541  -0.855  0.00  0.00     0.156 C 
BRANCH  15  16
ATOM     16  C   UNL d   1       2.951   2.543  -0.478  0.00  0.00     0.208 C 
BRANCH  16  17
ATOM     17  O   UNL d   1       3.321   3.878  -0.108  0.00  0.00    -0.349 OA
BRANCH  17  18
ATOM     18  C   UNL d   1       4.613   4.061   0.303  0.00  0.00     0.069 A 
ATOM     19  C   UNL d   1       5.692   3.235  -0.021  0.00  0.00     0.038 A 
ATOM     20  C   UNL d   1       6.980   3.553   0.425  0.00  0.00     0.022 A 
ATOM     21  C   UNL d   1       7.187   4.692   1.200  0.00  0.00     0.011 A 
ATOM     22  C   UNL d   1       6.118   5.521   1.530  0.00  0.00     0.022 A 
ATOM     23 BR   UNL d   1       8.929   5.116   1.798  0.00  0.00    -0.051 Br
ATOM     24  C   UNL d   1       4.835   5.207   1.074  0.00  0.00     0.038 A 
ENDBRANCH  17  18
ENDBRANCH  16  17
ENDBRANCH  15  16
BRANCH  15  25
ATOM     25  O   UNL d   1       1.211   3.435  -1.961  0.00  0.00    -0.392 OA
ATOM     26  H   UNL d   1       2.047   3.581  -2.437  0.00  0.00     0.210 HD
ENDBRANCH  15  25
ENDBRANCH  14  15
ENDBRANCH   1  14
TORSDOF 9
