REMARK  5 active torsions:
REMARK  status: ('A' for Active; 'I' for Inactive)
REMARK    1  A    between atoms: C_16  and  N_3 
REMARK    2  A    between atoms: C_15  and  C_4 
REMARK    3  A    between atoms: C_17  and  C_5 
REMARK    4  A    between atoms: C_8  and  N_11 
REMARK    5  A    between atoms: N_11  and  N_13 
ROOT
ATOM      1  N   UNL d   1      -7.423   6.729   2.037  0.00  0.00    -0.292 N 
ATOM      2  HN  UNL d   1      -8.319   7.216   2.056  1.00  0.00     0.187 HD
ATOM      3  N   UNL d   1      -6.800   6.118   3.075  0.00  0.00    -0.266 N 
ATOM      4  C   UNL d   1      -5.506   5.736   1.315  0.00  0.00     0.027 A 
ATOM      5  C   UNL d   1      -6.614   6.561   0.978  0.00  0.00     0.072 A 
ATOM      6  C   UNL d   1      -5.629   5.525   2.672  0.00  0.00     0.132 A 
ENDROOT
BRANCH   4   7
ATOM      7  C   UNL d   1      -4.469   5.207   0.464  0.00  0.00     0.122 C 
ATOM      8  N   UNL d   1      -3.329   4.877   0.982  0.00  0.00    -0.309 N 
ATOM      9  HN  UNL d   1      -3.080   4.990   1.965  1.00  0.00     0.186 HD
BRANCH   8  10
ATOM     10  N   UNL d   1      -2.485   4.340  -0.001  0.00  0.00    -0.280 N 
ATOM     11  HN  UNL d   1      -2.809   4.054  -0.925  1.00  0.00     0.189 HD
BRANCH  10  12
ATOM     12  C   UNL d   1      -1.256   4.245   0.381  0.00  0.00     0.162 A 
ATOM     13  N   UNL d   1      -0.769   4.665   1.569  0.00  0.00    -0.306 N 
ATOM     14  C   UNL d   1       0.564   4.528   1.800  0.00  0.00     0.233 A 
ATOM     15  H   UNL d   1      -1.391   5.125   2.217  0.00  0.00     0.171 HD
ATOM     16  O   UNL d   1       1.130   4.947   2.803  0.00  0.00    -0.272 OA
ATOM     17  C   UNL d   1       1.254   3.795   0.676  0.00  0.00     0.185 A 
ATOM     18  S   UNL d   1      -0.007   3.564  -0.609  0.00  0.00    -0.083 SA
ENDBRANCH  10  12
ENDBRANCH   8  10
ENDBRANCH   4   7
BRANCH   5  19
ATOM     19  C   UNL d   1      -6.897   7.234  -0.293  0.00  0.00    -0.007 A 
ATOM     20  C   UNL d   1      -8.216   7.407  -0.737  0.00  0.00     0.014 A 
ATOM     21  C   UNL d   1      -8.481   8.111  -1.916  0.00  0.00     0.001 A 
ATOM     22  C   UNL d   1      -7.434   8.648  -2.662  0.00  0.00     0.000 A 
ATOM     23  C   UNL d   1      -6.119   8.480  -2.235  0.00  0.00     0.001 A 
ATOM     24  C   UNL d   1      -5.853   7.781  -1.055  0.00  0.00     0.014 A 
ENDBRANCH   5  19
BRANCH   3  25
ATOM     25  C   UNL d   1      -7.363   6.128   4.383  0.00  0.00     0.056 A 
ATOM     26  C   UNL d   1      -8.624   6.706   4.593  0.00  0.00     0.031 A 
ATOM     27  C   UNL d   1      -9.193   6.708   5.870  0.00  0.00     0.002 A 
ATOM     28  C   UNL d   1      -8.506   6.144   6.943  0.00  0.00     0.000 A 
ATOM     29  C   UNL d   1      -7.250   5.576   6.744  0.00  0.00     0.002 A 
ATOM     30  C   UNL d   1      -6.677   5.565   5.469  0.00  0.00     0.031 A 
ENDBRANCH   3  25
TORSDOF 5
