REMARK  7 active torsions:
REMARK  status: ('A' for Active; 'I' for Inactive)
REMARK    1  A    between atoms: C_8  and  N_1 
REMARK    2  A    between atoms: S_13  and  C_2 
REMARK    3  A    between atoms: C_20  and  C_7 
REMARK    4  A    between atoms: C_9  and  C_10 
REMARK    5  A    between atoms: C_14  and  C_22 
REMARK    6  A    between atoms: S_18  and  C_20 
REMARK    7  A    between atoms: C_22  and  S_18 
ROOT
ATOM      1  N   UNL d   1      -0.454   0.609  -0.184  0.00  0.00    -0.279 N 
ATOM      2  C   UNL d   1       0.769  -0.057  -0.278  0.00  0.00     0.164 A 
ATOM      3  N   UNL d   1       0.589  -1.354  -0.292  0.00  0.00    -0.278 N 
ATOM      4  HN  UNL d   1       1.320  -2.060  -0.385  1.00  0.00     0.189 HD
ATOM      5  N   UNL d   1      -0.740  -1.594  -0.163  0.00  0.00    -0.286 N 
ATOM      6  HN  UNL d   1      -1.173  -2.516  -0.123  1.00  0.00     0.188 HD
ATOM      7  C   UNL d   1      -1.384  -0.442  -0.098  0.00  0.00     0.114 A 
ENDROOT
BRANCH   7   8
ATOM      8  C   UNL d   1      -2.876  -0.323  -0.017  0.00  0.00     0.152 C 
BRANCH   8   9
ATOM      9  S   UNL d   1      -3.797  -1.798  -0.633  0.00  0.00    -0.157 SA
BRANCH   9  10
ATOM     10  C   UNL d   1      -3.540  -2.946   0.760  0.00  0.00     0.113 C 
BRANCH  10  11
ATOM     11  C   UNL d   1      -4.066  -4.358   0.529  0.00  0.00    -0.038 A 
ATOM     12  C   UNL d   1      -5.294  -4.836   1.074  0.00  0.00    -0.019 A 
ATOM     13  C   UNL d   1      -5.565  -6.233   1.039  0.00  0.00    -0.025 A 
ATOM     14  C   UNL d   1      -6.272  -4.008   1.672  0.00  0.00     0.013 A 
ATOM     15  C   UNL d   1      -6.704  -6.750   1.676  0.00  0.00     0.012 A 
ATOM     16  C   UNL d   1      -4.684  -7.100   0.378  0.00  0.00     0.012 A 
ATOM     17  C   UNL d   1      -7.620  -5.911   2.304  0.00  0.00     0.001 A 
ATOM     18  C   UNL d   1      -7.420  -4.538   2.273  0.00  0.00     0.001 A 
ATOM     19  C   UNL d   1      -3.537  -6.616  -0.235  0.00  0.00     0.001 A 
ATOM     20  C   UNL d   1      -3.221  -5.261  -0.147  0.00  0.00     0.009 A 
ENDBRANCH  10  11
ENDBRANCH   9  10
ENDBRANCH   8   9
ENDBRANCH   7   8
BRANCH   1  21
ATOM     21  C   UNL d   1      -0.672   2.025  -0.144  0.00  0.00     0.043 A 
ATOM     22  C   UNL d   1      -1.657   2.592   0.678  0.00  0.00     0.046 A 
ATOM     23  C   UNL d   1      -1.774   3.996   0.799  0.00  0.00     0.050 A 
ATOM     24  C   UNL d   1      -0.887   4.825   0.094  0.00  0.00     0.016 A 
ATOM     25  C   UNL d   1       0.066   4.272  -0.750  0.00  0.00     0.003 A 
ATOM     26  C   UNL d   1       0.155   2.885  -0.888  0.00  0.00     0.030 A 
BRANCH  23  27
ATOM     27  C   UNL d   1      -2.817   4.632   1.689  0.00  0.00     0.417 C 
ATOM     28  F   UNL d   1      -3.656   3.727   2.266  0.00  0.00    -0.166 F 
ATOM     29  F   UNL d   1      -2.266   5.340   2.712  0.00  0.00    -0.166 F 
ATOM     30  F   UNL d   1      -3.614   5.504   1.013  0.00  0.00    -0.166 F 
ENDBRANCH  23  27
ENDBRANCH   1  21
BRANCH   2  31
ATOM     31  S   UNL d   1       2.364   0.628  -0.165  0.00  0.00    -0.105 SA
ATOM     32  H   UNL d   1       2.075   1.784   0.445  0.00  0.00     0.110 HD
ENDBRANCH   2  31
TORSDOF 7
