REMARK  3 active torsions:
REMARK  status: ('A' for Active; 'I' for Inactive)
REMARK    1  A    between atoms: C_6  and  C_2 
REMARK    2  A    between atoms: O_8  and  C_6 
REMARK    3  A    between atoms: C_11  and  O_8 
ROOT
ATOM      1  C   UNL d   1      -2.536  -2.175   0.055  0.00  0.00     0.216 C 
ENDROOT
BRANCH   1   2
ATOM      2  C   UNL d   1      -1.254  -1.377  -0.034  0.00  0.00    -0.012 A 
ATOM      3  C   UNL d   1      -0.668  -0.744   1.074  0.00  0.00     0.044 A 
ATOM      4  C   UNL d   1       0.533  -0.037   0.944  0.00  0.00     0.048 A 
ATOM      5 CL   UNL d   1      -1.381  -0.811   2.646  0.00  0.00    -0.084 Cl
ATOM      6  C   UNL d   1       1.154   0.049  -0.299  0.00  0.00     0.035 A 
ATOM      7  C   UNL d   1       0.581  -0.552  -1.415  0.00  0.00     0.024 A 
ATOM      8 CL   UNL d   1       2.640   0.901  -0.458  0.00  0.00    -0.084 Cl
ATOM      9  C   UNL d   1      -0.619  -1.254  -1.285  0.00  0.00     0.013 A 
ENDBRANCH   1   2
BRANCH   1  10
ATOM     10  O   UNL d   1      -3.646  -1.306  -0.163  0.00  0.00    -0.347 OA
BRANCH  10  11
ATOM     11  C   UNL d   1      -4.892  -1.875  -0.139  0.00  0.00     0.071 A 
ATOM     12  C   UNL d   1      -5.178  -3.226   0.034  0.00  0.00     0.053 A 
ATOM     13  C   UNL d   1      -6.508  -3.622   0.029  0.00  0.00     0.090 A 
ATOM     14  N   UNL d   1      -7.547  -2.778  -0.135  0.00  0.00    -0.375 N 
ATOM     15  C   UNL d   1      -7.243  -1.474  -0.300  0.00  0.00     0.090 A 
ATOM     16  HN  UNL d   1      -8.512  -3.108  -0.133  1.00  0.00     0.164 HD
ATOM     17  C   UNL d   1      -5.948  -0.983  -0.311  0.00  0.00     0.053 A 
ENDBRANCH  10  11
ENDBRANCH   1  10
TORSDOF 3
