REMARK  3 active torsions:
REMARK  status: ('A' for Active; 'I' for Inactive)
REMARK    1  A    between atoms: N_8  and  C_1 
REMARK    2  A    between atoms: C_12  and  N_8 
REMARK    3  A    between atoms: C_13  and  N_8 
ROOT
ATOM      1  C   UNL d   1       2.431  -0.644  -0.099  0.00  0.00     0.150 C 
ATOM      2  S   UNL d   1       1.356  -1.139   1.183  0.00  0.00    -0.011 SA
ATOM      3  N   UNL d   1       2.239   0.367  -0.885  0.00  0.00    -0.336 N 
ATOM      4  HN  UNL d   1       2.953   0.569  -1.585  1.00  0.00     0.168 HD
ATOM      5  C   UNL d   1       0.009  -0.070   0.982  0.00  0.00     0.228 C 
ATOM      6  C   UNL d   1       0.061   1.054   0.050  0.00  0.00     0.048 A 
ATOM      7  C   UNL d   1       1.120   1.195  -0.837  0.00  0.00     0.048 A 
ATOM      8  O   UNL d   1      -1.008  -0.257   1.650  0.00  0.00    -0.279 OA
ATOM      9  C   UNL d   1      -0.996   1.986   0.051  0.00  0.00     0.018 A 
ATOM     10  C   UNL d   1       1.084   2.255  -1.754  0.00  0.00     0.030 A 
ATOM     11  C   UNL d   1      -1.003   3.049  -0.848  0.00  0.00     0.001 A 
ATOM     12  C   UNL d   1       0.035   3.177  -1.763  0.00  0.00     0.002 A 
ENDROOT
BRANCH   1  13
ATOM     13  N   UNL d   1       3.604  -1.378  -0.201  0.00  0.00    -0.362 N 
BRANCH  13  14
ATOM     14  C   UNL d   1       3.661  -2.840  -0.121  0.00  0.00     0.120 C 
ATOM     15  C   UNL d   1       2.942  -3.481  -1.301  0.00  0.00     0.026 C 
ENDBRANCH  13  14
BRANCH  13  16
ATOM     16  C   UNL d   1       4.884  -0.669  -0.232  0.00  0.00     0.120 C 
ATOM     17  C   UNL d   1       5.369  -0.430  -1.650  0.00  0.00     0.026 C 
ENDBRANCH  13  16
ENDBRANCH   1  13
TORSDOF 3
