REMARK  5 active torsions:
REMARK  status: ('A' for Active; 'I' for Inactive)
REMARK    1  A    between atoms: N_7  and  C_1 
REMARK    2  A    between atoms: C_9  and  N_2 
REMARK    3  A    between atoms: N_5  and  N_7 
REMARK    4  A    between atoms: C_10  and  C_8 
REMARK    5  A    between atoms: C_16  and  C_9 
ROOT
ATOM      1  C   UNL d   1       1.987  -1.701  -0.025  0.00  0.00     0.691 A 
ATOM      2  N   UNL d   1       1.090  -0.683  -0.134  0.00  0.00    -0.211 N 
ATOM      3  N   UNL d   1       3.257  -1.364   0.004  0.00  0.00    -0.223 N 
ATOM      4  HN  UNL d   1       4.066  -1.983   0.063  1.00  0.00     0.177 HD
ATOM      5  C   UNL d   1       3.253   0.122  -0.068  0.00  0.00     0.158 A 
ATOM      6  C   UNL d   1       1.801   0.564  -0.275  0.00  0.00     0.161 A 
ENDROOT
BRANCH   1   7
ATOM      7  N   UNL d   1       1.630  -3.018  -0.004  0.00  0.00    -0.132 N 
ATOM      8  H   UNL d   1       2.463  -3.591   0.081  0.00  0.00     0.205 HD
BRANCH   7   9
ATOM      9  N   UNL d   1       0.478  -3.549  -0.496  0.00  0.00    -0.290 N 
ATOM     10  C   UNL d   1       0.463  -4.770  -0.944  0.00  0.00     0.032 C 
ATOM     11  C   UNL d   1       1.651  -5.708  -1.013  0.00  0.00     0.070 C 
ATOM     12  HN  UNL d   1      -0.375  -2.989  -0.513  1.00  0.00     0.187 HD
BRANCH  10  13
ATOM     13  C   UNL d   1      -0.844  -5.299  -1.456  0.00  0.00    -0.012 A 
ATOM     14  C   UNL d   1      -1.769  -4.407  -2.017  0.00  0.00     0.016 A 
ATOM     15  C   UNL d   1      -2.990  -4.875  -2.502  0.00  0.00     0.043 A 
ATOM     16  C   UNL d   1      -3.286  -6.230  -2.418  0.00  0.00     0.116 A 
ATOM     17  C   UNL d   1      -2.381  -7.127  -1.859  0.00  0.00     0.043 A 
ATOM     18  F   UNL d   1      -4.459  -6.679  -2.880  0.00  0.00    -0.206 F 
ATOM     19  C   UNL d   1      -1.155  -6.663  -1.378  0.00  0.00     0.016 A 
ENDBRANCH  10  13
ENDBRANCH   7   9
ENDBRANCH   1   7
BRANCH   2  20
ATOM     20  C   UNL d   1      -0.328  -0.684   0.130  0.00  0.00     0.179 C 
BRANCH  20  21
ATOM     21  C   UNL d   1      -0.657  -0.544   1.602  0.00  0.00    -0.040 A 
ATOM     22  C   UNL d   1      -0.906   0.715   2.170  0.00  0.00     0.009 A 
ATOM     23  C   UNL d   1      -1.253   0.834   3.516  0.00  0.00     0.001 A 
ATOM     24  C   UNL d   1      -1.354  -0.305   4.315  0.00  0.00     0.000 A 
ATOM     25  C   UNL d   1      -1.095  -1.559   3.768  0.00  0.00     0.001 A 
ATOM     26  C   UNL d   1      -0.743  -1.678   2.422  0.00  0.00     0.009 A 
ENDBRANCH  20  21
ENDBRANCH   2  20
TORSDOF 5
