REMARK  5 active torsions:
REMARK  status: ('A' for Active; 'I' for Inactive)
REMARK    1  A    between atoms: C_2  and  S_1 
REMARK    2  A    between atoms: N_10  and  S_1 
REMARK    3  A    between atoms: C_3  and  C_8 
REMARK    4  A    between atoms: C_9  and  C_7 
REMARK    5  A    between atoms: C_20  and  N_10 
ROOT
ATOM      1  S   UNL d   1       0.945  -0.095  -0.097  0.00  0.00     0.269 S 
ATOM      2  O   UNL d   1       0.259   0.871   0.738  0.00  0.00    -0.200 OA
ATOM      3  O   UNL d   1       2.383  -0.091  -0.237  0.00  0.00    -0.200 OA
ENDROOT
BRANCH   1   4
ATOM      4  C   UNL d   1       0.329   0.157  -1.757  0.00  0.00     0.121 A 
ATOM      5  S   UNL d   1      -1.253   0.792  -1.928  0.00  0.00    -0.074 SA
ATOM      6  C   UNL d   1      -1.168   0.752  -3.633  0.00  0.00     0.033 A 
ATOM      7  C   UNL d   1       0.034   0.236  -4.069  0.00  0.00     0.023 A 
ATOM      8  C   UNL d   1       0.909  -0.081  -2.990  0.00  0.00     0.034 A 
BRANCH   6   9
ATOM      9  C   UNL d   1      -2.236   1.205  -4.583  0.00  0.00     0.056 A 
ATOM     10  N   UNL d   1      -2.091   0.999  -5.947  0.00  0.00    -0.353 N 
ATOM     11  C   UNL d   1      -3.141   1.459  -6.592  0.00  0.00     0.047 A 
ATOM     12  HN  UNL d   1      -1.286   0.554  -6.387  1.00  0.00     0.166 HD
ATOM     13  C   UNL d   1      -3.325   1.367  -8.066  0.00  0.00     0.076 C 
ATOM     14  S   UNL d   1      -4.338   2.205  -5.611  0.00  0.00    -0.087 SA
ATOM     15  C   UNL d   1      -3.405   1.845  -4.216  0.00  0.00     0.082 A 
ENDBRANCH   6   9
ENDBRANCH   1   4
BRANCH   1  16
ATOM     16  N   UNL d   1       0.442  -1.624   0.439  0.00  0.00    -0.280 N 
ATOM     17  H   UNL d   1      -0.527  -1.605   0.747  0.00  0.00     0.179 HD
BRANCH  16  18
ATOM     18  C   UNL d   1       0.866  -2.765  -0.297  0.00  0.00     0.043 A 
ATOM     19  C   UNL d   1       0.087  -3.261  -1.344  0.00  0.00     0.047 A 
ATOM     20  C   UNL d   1       0.514  -4.367  -2.118  0.00  0.00     0.067 A 
ATOM     21  C   UNL d   1       1.737  -4.969  -1.793  0.00  0.00     0.026 A 
ATOM     22  C   UNL d   1       2.507  -4.475  -0.730  0.00  0.00     0.022 A 
ATOM     23 BR   UNL d   1       2.466  -6.456  -2.721  0.00  0.00    -0.050 Br
ATOM     24  C   UNL d   1       2.079  -3.369   0.007  0.00  0.00     0.031 A 
BRANCH  20  25
ATOM     25  C   UNL d   1      -0.405  -4.804  -3.234  0.00  0.00     0.418 C 
ATOM     26  F   UNL d   1       0.029  -5.817  -4.025  0.00  0.00    -0.166 F 
ATOM     27  F   UNL d   1      -1.617  -5.207  -2.754  0.00  0.00    -0.166 F 
ATOM     28  F   UNL d   1      -0.679  -3.773  -4.085  0.00  0.00    -0.166 F 
ENDBRANCH  20  25
ENDBRANCH  16  18
ENDBRANCH   1  16
TORSDOF 5
