REMARK  2 active torsions:
REMARK  status: ('A' for Active; 'I' for Inactive)
REMARK    1  A    between atoms: S_2  and  C_1 
REMARK    2  A    between atoms: O_10  and  S_2 
ROOT
ATOM      1  C   UNL d   1      -2.330   0.051  -0.009  0.00  0.00     0.217 A 
ATOM      2  N   UNL d   1      -1.590   1.149   0.022  0.00  0.00    -0.330 N 
ATOM      3  HN  UNL d   1      -1.914   2.115   0.053  1.00  0.00     0.168 HD
ATOM      4  N   UNL d   1      -1.546  -1.075  -0.032  0.00  0.00    -0.330 N 
ATOM      5  C   UNL d   1      -0.287   0.703   0.004  0.00  0.00     0.061 A 
ATOM      6  C   UNL d   1      -0.234  -0.687  -0.023  0.00  0.00     0.061 A 
ATOM      7  C   UNL d   1       0.912   1.432   0.012  0.00  0.00     0.032 A 
ATOM      8  C   UNL d   1       0.960  -1.411  -0.033  0.00  0.00     0.032 A 
ATOM      9  C   UNL d   1       2.146  -0.666  -0.020  0.00  0.00     0.002 A 
ATOM     10  C   UNL d   1       2.125   0.730   0.000  0.00  0.00     0.002 A 
ATOM     11  H   UNL d   1      -1.903  -2.021  -0.037  0.00  0.00     0.168 HD
ENDROOT
BRANCH   1  12
ATOM     12  S   UNL d   1      -4.092  -0.054   0.002  0.00  0.00     0.164 S 
ATOM     13  O   UNL d   1      -4.556   0.612  -1.193  0.00  0.00    -0.596 OA
ATOM     14  O   UNL d   1      -4.389  -1.433   0.320  0.00  0.00    -0.596 OA
BRANCH  12  15
ATOM     15  O   UNL d   1      -4.465   0.883   1.259  0.00  0.00    -0.290 OA
ATOM     16  H   UNL d   1      -4.481   1.813   0.948  0.00  0.00     0.232 HD
ENDBRANCH  12  15
ENDBRANCH   1  12
TORSDOF 2
