REMARK  7 active torsions:
REMARK  status: ('A' for Active; 'I' for Inactive)
REMARK    1  A    between atoms: C_3  and  C_16 
REMARK       I    between atoms: N_7  and  C_3 
REMARK       I    between atoms: C_4  and  N_6 
REMARK    2  A    between atoms: C_17  and  C_4 
REMARK    3  A    between atoms: O_9  and  C_5 
REMARK    4  A    between atoms: N_6  and  N_7 
REMARK    5  A    between atoms: C_16  and  O_9 
REMARK    6  A    between atoms: C_10  and  S_11 
REMARK    7  A    between atoms: S_11  and  C_17 
ROOT
ATOM      1  C   UNL d   1       0.921   5.270  -0.044  0.00  0.00     0.260 C 
ATOM      2  N   UNL d   1      -0.429   5.515  -0.065  0.00  0.00    -0.266 N 
ATOM      3  O   UNL d   1       1.715   6.213   0.013  0.00  0.00    -0.269 OA
ATOM      4  H   UNL d   1      -0.746   6.478   0.028  0.00  0.00     0.190 HD
ENDROOT
BRANCH   2   5
ATOM      5  N   UNL d   1      -1.408   4.525  -0.076  0.00  0.00    -0.267 N 
ATOM      6  C   UNL d   1      -2.625   4.762   0.540  0.00  0.00     0.245 C 
ATOM      7  O   UNL d   1      -2.917   5.855   1.023  0.00  0.00    -0.271 OA
ATOM      8  H   UNL d   1      -1.157   3.587  -0.392  0.00  0.00     0.190 HD
BRANCH   6   9
ATOM      9  C   UNL d   1      -3.628   3.610   0.476  0.00  0.00     0.184 C 
BRANCH   9  10
ATOM     10  S   UNL d   1      -2.792   1.989   0.587  0.00  0.00    -0.121 SA
BRANCH  10  11
ATOM     11  C   UNL d   1      -4.139   0.857   0.291  0.00  0.00     0.002 A 
ATOM     12  C   UNL d   1      -4.105   0.028  -0.839  0.00  0.00     0.025 A 
ATOM     13  C   UNL d   1      -5.069  -0.971  -1.030  0.00  0.00    -0.060 A 
ATOM     14  C   UNL d   1      -5.023  -1.878  -2.225  0.00  0.00     0.048 C 
ATOM     15  C   UNL d   1      -6.077  -1.131  -0.074  0.00  0.00     0.013 A 
ATOM     16  C   UNL d   1      -6.130  -0.309   1.059  0.00  0.00    -0.060 A 
ATOM     17  C   UNL d   1      -5.154   0.683   1.235  0.00  0.00     0.025 A 
ATOM     18  C   UNL d   1      -7.213  -0.522   2.075  0.00  0.00     0.048 C 
ENDBRANCH  10  11
ENDBRANCH   9  10
ENDBRANCH   6   9
ENDBRANCH   2   5
BRANCH   1  19
ATOM     19  C   UNL d   1       1.427   3.820  -0.043  0.00  0.00     0.280 C 
BRANCH  19  20
ATOM     20  O   UNL d   1       0.615   2.828  -0.652  0.00  0.00    -0.341 OA
BRANCH  20  21
ATOM     21  C   UNL d   1       0.804   2.602  -1.984  0.00  0.00     0.076 A 
ATOM     22  C   UNL d   1       0.437   1.346  -2.452  0.00  0.00    -0.018 A 
ATOM     23  C   UNL d   1       0.559   1.004  -3.801  0.00  0.00    -0.043 A 
ATOM     24  C   UNL d   1      -0.102   0.211  -1.644  0.00  0.00     0.042 A 
ATOM     25  C   UNL d   1       1.050   1.918  -4.728  0.00  0.00    -0.055 A 
ATOM     26  C   UNL d   1       0.111  -0.401  -4.051  0.00  0.00     0.040 A 
ATOM     27  C   UNL d   1       1.211   1.588  -6.180  0.00  0.00     0.049 C 
ATOM     28  C   UNL d   1       1.404   3.193  -4.262  0.00  0.00     0.010 A 
ATOM     29  C   UNL d   1       1.280   3.535  -2.905  0.00  0.00     0.038 A 
ATOM     30  C   UNL d   1      -0.306  -0.911  -2.667  0.00  0.00     0.009 A 
ENDBRANCH  20  21
ENDBRANCH  19  20
ENDBRANCH   1  19
TORSDOF 7
