REMARK  3 active torsions:
REMARK  status: ('A' for Active; 'I' for Inactive)
REMARK       I    between atoms: N_2  and  C_1 
REMARK    1  A    between atoms: C_5  and  C_1 
REMARK    2  A    between atoms: C_6  and  N_2 
REMARK    3  A    between atoms: O_12  and  C_4 
ROOT
ATOM      1  C   UNL d   1       2.222  -1.185  -2.497  0.00  0.00     0.067 A 
ATOM      2  C   UNL d   1       2.841  -1.599  -3.694  0.00  0.00     0.087 A 
ATOM      3  C   UNL d   1       1.079  -0.381  -2.471  0.00  0.00     0.037 A 
ATOM      4  C   UNL d   1       2.280  -1.183  -4.903  0.00  0.00     0.044 A 
ATOM      5  C   UNL d   1       1.110  -0.398  -4.887  0.00  0.00     0.024 A 
ATOM      6  C   UNL d   1       0.507  -0.011  -3.684  0.00  0.00     0.031 A 
ATOM      7 BR   UNL d   1       2.944  -1.565  -6.641  0.00  0.00    -0.048 Br
ENDROOT
BRANCH   3   8
ATOM      8  N   UNL d   1       0.466   0.053  -1.272  0.00  0.00    -0.326 N 
ATOM      9  C   UNL d   1       1.055   0.036  -0.017  0.00  0.00     0.229 C 
ATOM     10  O   UNL d   1       2.239  -0.231   0.189  0.00  0.00    -0.272 OA
ATOM     11  H   UNL d   1      -0.432   0.509  -1.364  0.00  0.00     0.169 HD
BRANCH   9  12
ATOM     12  C   UNL d   1       0.128   0.416   1.158  0.00  0.00     0.030 C 
ATOM     13  C   UNL d   1      -1.073  -0.537   1.218  0.00  0.00     0.025 C 
ATOM     14  C   UNL d   1       0.927   0.279   2.470  0.00  0.00     0.025 C 
ATOM     15  C   UNL d   1      -0.351   1.867   1.024  0.00  0.00     0.025 C 
ENDBRANCH   9  12
ENDBRANCH   3   8
BRANCH   2  16
ATOM     16  O   UNL d   1       3.928  -2.374  -3.413  0.00  0.00    -0.355 OA
ATOM     17  C   UNL d   1       4.745  -2.924  -4.424  0.00  0.00     0.210 C 
ENDBRANCH   2  16
TORSDOF 3
