REMARK  6 active torsions:
REMARK  status: ('A' for Active; 'I' for Inactive)
REMARK    1  A    between atoms: C_5  and  C_1 
REMARK    2  A    between atoms: O_16  and  C_5 
REMARK    3  A    between atoms: C_9  and  O_10 
REMARK    4  A    between atoms: O_10  and  C_11 
REMARK    5  A    between atoms: N_12  and  O_16 
REMARK    6  A    between atoms: C_14  and  C_17 
ROOT
ATOM      1  N   UNL d   1      -3.976  -4.090  -0.728  0.00  0.00    -0.268 N 
ATOM      2  HN  UNL d   1      -4.905  -4.384  -1.028  1.00  0.00     0.194 HD
ATOM      3  C   UNL d   1      -3.067  -4.882  -0.264  0.00  0.00     0.128 C 
ENDROOT
BRANCH   1   4
ATOM      4  O   UNL d   1      -3.504  -2.767  -0.762  0.00  0.00    -0.195 OA
BRANCH   4   5
ATOM      5  C   UNL d   1      -4.569  -1.891  -0.700  0.00  0.00     0.325 C 
ATOM      6  O   UNL d   1      -5.720  -2.204  -0.430  0.00  0.00    -0.257 OA
BRANCH   5   7
ATOM      7  C   UNL d   1      -4.122  -0.550  -0.989  0.00  0.00     0.123 A 
ATOM      8  C   UNL d   1      -2.931   0.013  -1.433  0.00  0.00     0.047 A 
ATOM      9  N   UNL d   1      -2.972   1.399  -1.583  0.00  0.00    -0.298 N 
ATOM     10  C   UNL d   1      -1.637  -0.634  -1.774  0.00  0.00     0.071 C 
ATOM     11  N   UNL d   1      -4.153   1.902  -1.279  0.00  0.00    -0.269 N 
ATOM     12  HN  UNL d   1      -2.179   1.960  -1.894  1.00  0.00     0.187 HD
ATOM     13  S   UNL d   1      -5.247   0.740  -0.802  0.00  0.00     0.010 SA
ATOM     14  HN  UNL d   1      -4.373   2.897  -1.330  1.00  0.00     0.195 HD
ENDBRANCH   5   7
ENDBRANCH   4   5
ENDBRANCH   1   4
BRANCH   3  15
ATOM     15  C   UNL d   1      -3.351  -6.317  -0.068  0.00  0.00     0.015 A 
ATOM     16  C   UNL d   1      -2.674  -7.098   0.879  0.00  0.00     0.089 A 
ATOM     17  C   UNL d   1      -2.936  -8.475   0.932  0.00  0.00     0.038 A 
ATOM     18  C   UNL d   1      -3.882  -9.059   0.086  0.00  0.00     0.003 A 
ATOM     19  C   UNL d   1      -4.578  -8.273  -0.826  0.00  0.00     0.001 A 
ATOM     20  C   UNL d   1      -4.317  -6.906  -0.900  0.00  0.00     0.015 A 
BRANCH  16  21
ATOM     21  O   UNL d   1      -1.666  -6.673   1.695  0.00  0.00    -0.254 OA
BRANCH  21  22
ATOM     22  C   UNL d   1      -1.938  -5.601   2.592  0.00  0.00     0.530 C 
ATOM     23  F   UNL d   1      -3.114  -4.985   2.367  0.00  0.00    -0.144 F 
ATOM     24  F   UNL d   1      -1.929  -6.058   3.861  0.00  0.00    -0.144 F 
ATOM     25  F   UNL d   1      -0.949  -4.688   2.462  0.00  0.00    -0.144 F 
ENDBRANCH  21  22
ENDBRANCH  16  21
ENDBRANCH   3  15
TORSDOF 6
