REMARK  9 active torsions:
REMARK  status: ('A' for Active; 'I' for Inactive)
REMARK    1  A    between atoms: O_13  and  C_1 
REMARK    2  A    between atoms: O_15  and  C_2 
REMARK    3  A    between atoms: O_16  and  C_3 
REMARK    4  A    between atoms: C_4  and  C_14 
REMARK       I    between atoms: N_8  and  C_4 
REMARK    5  A    between atoms: C_5  and  C_12 
REMARK    6  A    between atoms: O_18  and  C_5 
REMARK    7  A    between atoms: C_12  and  N_8 
REMARK    8  A    between atoms: C_17  and  C_9 
REMARK    9  A    between atoms: C_14  and  C_17 
ROOT
ATOM      1  C   UNL d   1       1.492  -0.424  -0.054  0.00  0.00     0.135 A 
ATOM      2  C   UNL d   1       0.576  -1.492   0.053  0.00  0.00     0.104 A 
ATOM      3  C   UNL d   1       1.003   0.889  -0.140  0.00  0.00     0.104 A 
ATOM      4  C   UNL d   1      -0.802  -1.249  -0.059  0.00  0.00     0.047 A 
ATOM      5  C   UNL d   1      -0.381   1.111  -0.185  0.00  0.00     0.047 A 
ATOM      6  C   UNL d   1      -1.299   0.053  -0.184  0.00  0.00    -0.052 A 
ENDROOT
BRANCH   6   7
ATOM      7  C   UNL d   1      -2.779   0.367  -0.193  0.00  0.00     0.048 C 
BRANCH   7   8
ATOM      8  C   UNL d   1      -3.684  -0.681  -0.843  0.00  0.00     0.107 C 
BRANCH   8   9
ATOM      9  C   UNL d   1      -5.126  -0.219  -0.861  0.00  0.00     0.218 C 
ATOM     10  N   UNL d   1      -5.988  -1.114  -1.442  0.00  0.00    -0.351 N 
ATOM     11  H   UNL d   1      -5.658  -1.992  -1.837  0.00  0.00     0.163 HD
ATOM     12  O   UNL d   1      -5.508   0.846  -0.388  0.00  0.00    -0.274 OA
BRANCH  10  13
ATOM     13  C   UNL d   1      -7.406  -0.824  -1.516  0.00  0.00     0.232 C 
BRANCH  13  14
ATOM     14  C   UNL d   1      -8.171  -1.947  -2.198  0.00  0.00     0.158 C 
ATOM     15  O   UNL d   1      -7.650  -2.972  -2.622  0.00  0.00    -0.649 OA
BRANCH  14  16
ATOM     16  O   UNL d   1      -9.500  -1.709  -2.295  0.00  0.00    -0.775 OA
ATOM     17  H   UNL d   1      -9.781  -0.853  -1.916  0.00  0.00     0.167 HD
ENDBRANCH  14  16
ENDBRANCH  13  14
ENDBRANCH  10  13
ENDBRANCH   8   9
ENDBRANCH   7   8
ENDBRANCH   6   7
BRANCH   3  18
ATOM     18  O   UNL d   1       1.730   2.051  -0.097  0.00  0.00    -0.353 OA
ATOM     19  C   UNL d   1       2.979   2.043  -0.773  0.00  0.00     0.210 C 
ENDBRANCH   3  18
BRANCH   2  20
ATOM     20  O   UNL d   1       1.093  -2.742   0.302  0.00  0.00    -0.353 OA
ATOM     21  C   UNL d   1       0.210  -3.699   0.877  0.00  0.00     0.210 C 
ENDBRANCH   2  20
BRANCH   1  22
ATOM     22  O   UNL d   1       2.841  -0.624   0.105  0.00  0.00    -0.351 OA
ATOM     23  C   UNL d   1       3.424  -1.503  -0.858  0.00  0.00     0.210 C 
ENDBRANCH   1  22
TORSDOF 9
