REMARK  2 active torsions:
REMARK  status: ('A' for Active; 'I' for Inactive)
REMARK    1  A    between atoms: C_2  and  C_1 
REMARK       I    between atoms: C_5  and  N_6 
REMARK    2  A    between atoms: N_6  and  C_7 
ROOT
ATOM      1  C   UNL d   1       0.878  -1.194  -0.015  0.00  0.00     0.067 A 
ATOM      2  C   UNL d   1       0.318   0.088  -0.014  0.00  0.00     0.026 A 
ATOM      3  C   UNL d   1       2.291  -1.306   0.006  0.00  0.00     0.047 A 
ATOM      4  C   UNL d   1       3.125  -0.186   0.029  0.00  0.00     0.035 A 
ATOM      5  C   UNL d   1       1.149   1.215   0.008  0.00  0.00     0.022 A 
ATOM      6  C   UNL d   1       2.539   1.079   0.029  0.00  0.00     0.031 A 
ATOM      7 BR   UNL d   1      -1.547   0.433  -0.043  0.00  0.00    -0.050 Br
ENDROOT
BRANCH   4   8
ATOM      8  N   UNL d   1       4.534  -0.252   0.053  0.00  0.00    -0.327 N 
ATOM      9  C   UNL d   1       5.321  -1.389   0.062  0.00  0.00     0.218 C 
ATOM     10  O   UNL d   1       4.928  -2.551   0.046  0.00  0.00    -0.274 OA
ATOM     11  C   UNL d   1       6.799  -1.092   0.096  0.00  0.00     0.117 C 
ATOM     12  H   UNL d   1       5.016   0.638   0.068  0.00  0.00     0.169 HD
ENDBRANCH   4   8
BRANCH   1  13
ATOM     13  C   UNL d   1       0.108  -2.492  -0.045  0.00  0.00     0.418 C 
ATOM     14  F   UNL d   1      -1.247  -2.394  -0.018  0.00  0.00    -0.166 F 
ATOM     15  F   UNL d   1       0.394  -3.224  -1.160  0.00  0.00    -0.166 F 
ATOM     16  F   UNL d   1       0.428  -3.295   1.011  0.00  0.00    -0.166 F 
ENDBRANCH   1  13
TORSDOF 2
