REMARK  5 active torsions:
REMARK  status: ('A' for Active; 'I' for Inactive)
REMARK    1  A    between atoms: C_15  and  C_3 
REMARK    2  A    between atoms: C_18  and  N_4 
REMARK    3  A    between atoms: C_16  and  N_5 
REMARK    4  A    between atoms: N_6  and  N_13 
REMARK    5  A    between atoms: C_17  and  C_7 
ROOT
ATOM      1  N   UNL d   1       0.751  -0.702  -0.419  0.00  0.00    -0.292 N 
ATOM      2  HN  UNL d   1       1.462  -1.355  -0.748  1.00  0.00     0.187 HD
ATOM      3  C   UNL d   1      -0.444   1.196  -0.025  0.00  0.00     0.027 A 
ATOM      4  N   UNL d   1      -0.273  -0.966   0.433  0.00  0.00    -0.266 N 
ATOM      5  C   UNL d   1       0.634   0.596  -0.739  0.00  0.00     0.072 A 
ATOM      6  C   UNL d   1      -1.025   0.162   0.675  0.00  0.00     0.132 A 
ENDROOT
BRANCH   3   7
ATOM      7  C   UNL d   1      -0.832   2.584  -0.042  0.00  0.00     0.122 C 
ATOM      8  N   UNL d   1      -2.080   2.914   0.100  0.00  0.00    -0.306 N 
ATOM      9  HN  UNL d   1      -2.800   2.220   0.300  1.00  0.00     0.186 HD
BRANCH   8  10
ATOM     10  N   UNL d   1      -2.381   4.261  -0.036  0.00  0.00    -0.251 N 
ATOM     11  C   UNL d   1      -1.550   5.288   0.450  0.00  0.00     0.257 C 
ATOM     12  C   UNL d   1      -2.155   6.679   0.283  0.00  0.00     0.236 C 
ATOM     13  O   UNL d   1      -0.490   5.118   1.047  0.00  0.00    -0.270 OA
ATOM     14  N   UNL d   1      -2.898   6.754  -0.973  0.00  0.00    -0.308 N 
ATOM     15  C   UNL d   1      -3.868   5.780  -1.244  0.00  0.00     0.244 C 
ATOM     16  C   UNL d   1      -3.784   4.572  -0.311  0.00  0.00     0.255 C 
ATOM     17  O   UNL d   1      -4.795   5.916  -2.041  0.00  0.00    -0.271 OA
BRANCH  14  18
ATOM     18  C   UNL d   1      -2.810   7.944  -1.742  0.00  0.00     0.037 A 
ATOM     19  C   UNL d   1      -2.764   9.196  -1.121  0.00  0.00     0.030 A 
ATOM     20  C   UNL d   1      -2.567  10.354  -1.875  0.00  0.00     0.009 A 
ATOM     21  C   UNL d   1      -2.375  10.275  -3.259  0.00  0.00    -0.062 A 
ATOM     22  C   UNL d   1      -2.434   9.023  -3.882  0.00  0.00     0.009 A 
ATOM     23  C   UNL d   1      -2.087  11.522  -4.040  0.00  0.00     0.048 C 
ATOM     24  C   UNL d   1      -2.675   7.866  -3.132  0.00  0.00     0.030 A 
ENDBRANCH  14  18
ENDBRANCH   8  10
ENDBRANCH   3   7
BRANCH   5  25
ATOM     25  C   UNL d   1       1.534   1.225  -1.714  0.00  0.00    -0.007 A 
ATOM     26  C   UNL d   1       2.864   0.798  -1.835  0.00  0.00     0.015 A 
ATOM     27  C   UNL d   1       3.736   1.430  -2.730  0.00  0.00     0.024 A 
ATOM     28  C   UNL d   1       3.286   2.494  -3.507  0.00  0.00     0.034 A 
ATOM     29  C   UNL d   1       1.964   2.917  -3.419  0.00  0.00     0.024 A 
ATOM     30 CL   UNL d   1       4.361   3.290  -4.588  0.00  0.00    -0.084 Cl
ATOM     31  C   UNL d   1       1.089   2.270  -2.542  0.00  0.00     0.015 A 
ENDBRANCH   5  25
BRANCH   4  32
ATOM     32  C   UNL d   1      -0.463  -2.275   0.962  0.00  0.00     0.056 A 
ATOM     33  C   UNL d   1       0.440  -3.296   0.625  0.00  0.00     0.031 A 
ATOM     34  C   UNL d   1       0.266  -4.587   1.130  0.00  0.00     0.002 A 
ATOM     35  C   UNL d   1      -0.808  -4.870   1.971  0.00  0.00     0.000 A 
ATOM     36  C   UNL d   1      -1.708  -3.862   2.312  0.00  0.00     0.002 A 
ATOM     37  C   UNL d   1      -1.539  -2.567   1.813  0.00  0.00     0.031 A 
ENDBRANCH   4  32
TORSDOF 5
