REMARK  6 active torsions:
REMARK  status: ('A' for Active; 'I' for Inactive)
REMARK    1  A    between atoms: N_2  and  C_1 
REMARK    2  A    between atoms: C_3  and  N_14 
REMARK    3  A    between atoms: N_4  and  C_9 
REMARK    4  A    between atoms: O_25  and  C_10 
REMARK    5  A    between atoms: C_17  and  C_11 
REMARK    6  A    between atoms: O_27  and  C_24 
ROOT
ATOM      1  N   UNL d   1       2.633  -2.426   1.057  0.00  0.00    -0.346 N 
ATOM      2  HN  UNL d   1       2.781  -1.638   1.687  1.00  0.00     0.167 HD
ATOM      3  C   UNL d   1       1.539  -2.557   0.379  0.00  0.00     0.104 C 
ENDROOT
BRANCH   3   4
ATOM      4  C   UNL d   1       0.556  -1.445   0.349  0.00  0.00     0.017 A 
ATOM      5  C   UNL d   1      -0.681  -1.602  -0.294  0.00  0.00     0.110 A 
ATOM      6  C   UNL d   1      -1.548  -0.496  -0.385  0.00  0.00     0.139 A 
ATOM      7  C   UNL d   1      -1.185   0.751   0.156  0.00  0.00     0.075 A 
ATOM      8  C   UNL d   1       0.051   0.886   0.800  0.00  0.00     0.106 A 
ATOM      9  C   UNL d   1       0.920  -0.205   0.902  0.00  0.00     0.052 A 
BRANCH   5  10
ATOM     10  O   UNL d   1      -0.968  -2.840  -0.806  0.00  0.00    -0.357 OA
ATOM     11  H   UNL d   1      -1.865  -2.860  -1.206  0.00  0.00     0.217 HD
ENDBRANCH   5  10
BRANCH   6  12
ATOM     12  N   UNL d   1      -2.846  -0.607  -1.061  0.00  0.00    -0.113 N 
ATOM     13  O   UNL d   1      -3.533   0.415  -1.171  0.00  0.00    -0.532 OA
ATOM     14  O   UNL d   1      -3.173  -1.727  -1.485  0.00  0.00    -0.532 OA
ENDBRANCH   6  12
BRANCH   8  15
ATOM     15  N   UNL d   1       0.448   2.189   1.351  0.00  0.00    -0.116 N 
ATOM     16  O   UNL d   1      -0.343   3.131   1.214  0.00  0.00    -0.532 OA
ATOM     17  O   UNL d   1       1.548   2.266   1.913  0.00  0.00    -0.532 OA
ENDBRANCH   8  15
ENDBRANCH   3   4
BRANCH   1  18
ATOM     18  C   UNL d   1       3.573  -3.388   0.890  0.00  0.00     0.149 C 
ATOM     19  N   UNL d   1       3.540  -4.464   0.130  0.00  0.00    -0.335 N 
ATOM     20  C   UNL d   1       4.811  -5.002   0.007  0.00  0.00     0.051 A 
ATOM     21  HN  UNL d   1       2.700  -4.845  -0.305  1.00  0.00     0.168 HD
ATOM     22  C   UNL d   1       5.185  -6.086  -0.813  0.00  0.00     0.034 A 
ATOM     23  C   UNL d   1       5.802  -4.354   0.742  0.00  0.00     0.037 A 
ATOM     24  C   UNL d   1       6.540  -6.414  -0.949  0.00  0.00     0.039 A 
ATOM     25  C   UNL d   1       7.515  -5.688  -0.271  0.00  0.00     0.069 A 
ATOM     26  C   UNL d   1       7.158  -4.698   0.647  0.00  0.00     0.058 A 
ATOM     27  S   UNL d   1       5.082  -3.119   1.686  0.00  0.00    -0.052 SA
BRANCH  25  28
ATOM     28  O   UNL d   1       8.819  -6.004  -0.551  0.00  0.00    -0.356 OA
ATOM     29  C   UNL d   1       9.655  -4.852  -0.682  0.00  0.00     0.210 C 
ENDBRANCH  25  28
ENDBRANCH   1  18
TORSDOF 6
