REMARK  5 active torsions:
REMARK  status: ('A' for Active; 'I' for Inactive)
REMARK    1  A    between atoms: C_8  and  C_1 
REMARK    2  A    between atoms: N_3  and  C_2 
REMARK       I    between atoms: C_4  and  N_3 
REMARK    3  A    between atoms: C_5  and  C_4 
REMARK    4  A    between atoms: C_6  and  C_7 
REMARK    5  A    between atoms: O_12  and  C_6 
ROOT
ATOM      1  N   UNL d   1       5.648  -0.889   0.676  0.00  0.00    -0.323 N 
ATOM      2  C   UNL d   1       4.632  -1.759   1.043  0.00  0.00     0.245 C 
ATOM      3  O   UNL d   1       3.430  -1.534   1.005  0.00  0.00    -0.268 OA
ATOM      4  H   UNL d   1       6.577  -1.115   1.004  0.00  0.00     0.169 HD
ENDROOT
BRANCH   1   5
ATOM      5  C   UNL d   1       5.452   0.435   0.213  0.00  0.00     0.049 C 
ATOM      6  C   UNL d   1       4.340   0.885  -0.520  0.00  0.00     0.036 C 
ATOM      7  C   UNL d   1       4.143   2.263  -0.715  0.00  0.00     0.017 C 
ATOM      8  C   UNL d   1       5.088   3.181  -0.257  0.00  0.00     0.001 C 
ATOM      9  C   UNL d   1       6.256   2.727   0.348  0.00  0.00     0.002 C 
ATOM     10  C   UNL d   1       6.439   1.362   0.577  0.00  0.00     0.030 C 
BRANCH   6  11
ATOM     11  C   UNL d   1       3.505  -0.051  -1.322  0.00  0.00     0.158 C 
ATOM     12  O   UNL d   1       4.050  -0.957  -1.954  0.00  0.00    -0.293 OA
ATOM     13  C   UNL d   1       2.031   0.225  -1.446  0.00  0.00     0.097 C 
ENDBRANCH   6  11
ENDBRANCH   1   5
BRANCH   2  14
ATOM     14  C   UNL d   1       5.183  -3.030   1.580  0.00  0.00     0.081 C 
ATOM     15  C   UNL d   1       4.605  -3.814   2.501  0.00  0.00     0.086 C 
BRANCH  15  16
ATOM     16  C   UNL d   1       3.361  -3.579   3.243  0.00  0.00     0.165 C 
ATOM     17  O   UNL d   1       2.596  -4.458   3.592  0.00  0.00    -0.647 OA
BRANCH  16  18
ATOM     18  O   UNL d   1       3.218  -2.308   3.643  0.00  0.00    -0.773 OA
ATOM     19  H   UNL d   1       2.335  -2.295   4.069  0.00  0.00     0.167 HD
ENDBRANCH  16  18
ENDBRANCH  15  16
ENDBRANCH   2  14
TORSDOF 5
