REMARK  4 active torsions:
REMARK  status: ('A' for Active; 'I' for Inactive)
REMARK    1  A    between atoms: C_9  and  C_2 
REMARK       I    between atoms: C_5  and  N_10 
REMARK       I    between atoms: N_8  and  C_5 
REMARK    2  A    between atoms: C_12  and  N_8 
REMARK    3  A    between atoms: N_10  and  C_15 
REMARK    4  A    between atoms: C_15  and  C_16 
ROOT
ATOM      1  C   UNL d   1       1.795  -2.990   1.026  0.00  0.00    -0.008 A 
ATOM      2  C   UNL d   1       2.378  -2.334  -0.067  0.00  0.00     0.014 A 
ATOM      3  C   UNL d   1       2.505  -4.038   1.629  0.00  0.00     0.014 A 
ATOM      4  C   UNL d   1       4.382  -3.700   0.119  0.00  0.00    -0.040 A 
ATOM      5  C   UNL d   1       3.661  -2.684  -0.518  0.00  0.00     0.010 A 
ATOM      6  C   UNL d   1       3.780  -4.391   1.177  0.00  0.00     0.010 A 
ENDROOT
BRANCH   4   7
ATOM      7  C   UNL d   1       5.789  -4.051  -0.294  0.00  0.00     0.162 C 
BRANCH   7   8
ATOM      8  N   UNL d   1       5.831  -5.185  -1.192  0.00  0.00    -0.339 N 
ATOM      9  C   UNL d   1       6.810  -6.109  -1.384  0.00  0.00     0.317 C 
ATOM     10  N   UNL d   1       7.826  -6.111  -0.474  0.00  0.00    -0.335 N 
ATOM     11  O   UNL d   1       6.729  -6.880  -2.332  0.00  0.00    -0.247 OA
ATOM     12  H   UNL d   1       7.957  -5.245   0.018  0.00  0.00     0.165 HD
ATOM     13  H   UNL d   1       5.136  -5.214  -1.927  0.00  0.00     0.164 HD
BRANCH  10  14
ATOM     14  C   UNL d   1       9.031  -6.957  -0.558  0.00  0.00     0.023 C 
ATOM     15  C   UNL d   1       9.834  -6.634  -1.828  0.00  0.00     0.037 C 
ATOM     16  C   UNL d   1       9.899  -6.662   0.685  0.00  0.00     0.037 C 
ATOM     17  C   UNL d   1       8.678  -8.457  -0.535  0.00  0.00     0.037 C 
ENDBRANCH  10  14
ENDBRANCH   7   8
ENDBRANCH   4   7
BRANCH   1  18
ATOM     18  C   UNL d   1       0.482  -2.581   1.518  0.00  0.00     0.063 A 
ATOM     19  N   UNL d   1      -0.459  -1.998   0.671  0.00  0.00    -0.292 N 
ATOM     20  N   UNL d   1      -1.576  -1.698   1.309  0.00  0.00    -0.061 NA
ATOM     21  HN  UNL d   1      -0.304  -1.824  -0.322  1.00  0.00     0.183 HD
ATOM     22  S   UNL d   1      -1.525  -2.088   2.932  0.00  0.00    -0.010 SA
ATOM     23  C   UNL d   1       0.076  -2.698   2.833  0.00  0.00     0.096 A 
ENDBRANCH   1  18
TORSDOF 4
