REMARK  5 active torsions:
REMARK  status: ('A' for Active; 'I' for Inactive)
REMARK    1  A    between atoms: C_9  and  N_1 
REMARK    2  A    between atoms: C_4  and  C_2 
REMARK       I    between atoms: N_8  and  C_4 
REMARK    3  A    between atoms: C_20  and  N_8 
REMARK    4  A    between atoms: C_18  and  C_9 
REMARK    5  A    between atoms: C_19  and  C_20 
ROOT
ATOM      1  N   UNL d   1      -0.011  -1.017   0.167  0.00  0.00    -0.347 N 
ATOM      2  C   UNL d   1      -1.531   0.699  -0.216  0.00  0.00     0.104 C 
ATOM      3  C   UNL d   1       0.751   0.131   0.036  0.00  0.00     0.221 C 
ATOM      4  C   UNL d   1      -1.418  -0.723   0.302  0.00  0.00     0.140 C 
ATOM      5  C   UNL d   1      -0.177   1.318   0.111  0.00  0.00     0.118 C 
ATOM      6  O   UNL d   1       1.957   0.193  -0.145  0.00  0.00    -0.273 OA
ENDROOT
BRANCH   2   7
ATOM      7  C   UNL d   1      -1.863   0.808  -1.707  0.00  0.00     0.224 C 
ATOM      8  N   UNL d   1      -0.935   0.326  -2.601  0.00  0.00    -0.356 N 
ATOM      9  H   UNL d   1      -0.120  -0.180  -2.278  0.00  0.00     0.162 HD
ATOM     10  O   UNL d   1      -2.907   1.351  -2.071  0.00  0.00    -0.273 OA
BRANCH   8  11
ATOM     11  C   UNL d   1      -0.994   0.644  -4.014  0.00  0.00     0.161 C 
BRANCH  11  12
ATOM     12  C   UNL d   1      -1.512  -0.489  -4.862  0.00  0.00    -0.038 A 
ATOM     13  C   UNL d   1      -0.645  -1.491  -5.330  0.00  0.00     0.048 A 
ATOM     14  C   UNL d   1      -1.167  -2.479  -6.142  0.00  0.00     0.105 A 
ATOM     15  O   UNL d   1      -0.468  -3.512  -6.686  0.00  0.00    -0.323 OA
ATOM     16  C   UNL d   1      -2.495  -2.503  -6.496  0.00  0.00     0.105 A 
ATOM     17  C   UNL d   1      -1.519  -4.210  -7.390  0.00  0.00     0.352 A 
ATOM     18  O   UNL d   1      -2.800  -3.553  -7.304  0.00  0.00    -0.323 OA
ATOM     19  C   UNL d   1      -3.378  -1.542  -6.055  0.00  0.00     0.040 A 
ATOM     20  C   UNL d   1      -2.879  -0.532  -5.224  0.00  0.00     0.012 A 
ENDBRANCH  11  12
ENDBRANCH   8  11
ENDBRANCH   2   7
BRANCH   1  21
ATOM     21  C   UNL d   1       0.510  -2.374   0.159  0.00  0.00     0.164 C 
BRANCH  21  22
ATOM     22  C   UNL d   1       1.046  -2.865   1.485  0.00  0.00    -0.040 A 
ATOM     23  C   UNL d   1       0.458  -3.964   2.132  0.00  0.00     0.012 A 
ATOM     24  C   UNL d   1       1.037  -4.504   3.286  0.00  0.00     0.043 A 
ATOM     25  C   UNL d   1       2.200  -3.943   3.799  0.00  0.00     0.116 A 
ATOM     26  C   UNL d   1       2.788  -2.844   3.191  0.00  0.00     0.043 A 
ATOM     27  F   UNL d   1       2.769  -4.481   4.886  0.00  0.00    -0.206 F 
ATOM     28  C   UNL d   1       2.213  -2.307   2.037  0.00  0.00     0.012 A 
ENDBRANCH  21  22
ENDBRANCH   1  21
TORSDOF 5
