REMARK  6 active torsions:
REMARK  status: ('A' for Active; 'I' for Inactive)
REMARK    1  A    between atoms: C_2  and  C_1 
REMARK       I    between atoms: N_6  and  C_2 
REMARK    2  A    between atoms: C_5  and  C_12 
REMARK    3  A    between atoms: C_10  and  N_6 
REMARK    4  A    between atoms: C_11  and  C_18 
REMARK    5  A    between atoms: O_16  and  C_14 
REMARK    6  A    between atoms: C_18  and  O_16 
ROOT
ATOM      1  C   UNL d   1      -2.501   2.831   0.294  0.00  0.00     0.049 A 
ATOM      2  C   UNL d   1      -4.006   1.273   1.396  0.00  0.00     0.049 A 
ATOM      3  C   UNL d   1      -2.743   1.869   1.276  0.00  0.00     0.043 A 
ATOM      4  C   UNL d   1      -3.537   3.281  -0.549  0.00  0.00     0.090 A 
ATOM      5  C   UNL d   1      -5.023   1.687   0.527  0.00  0.00     0.019 A 
ATOM      6  C   UNL d   1      -4.795   2.677  -0.433  0.00  0.00     0.039 A 
ENDROOT
BRANCH   1   7
ATOM      7  N   UNL d   1      -1.175   3.326   0.170  0.00  0.00    -0.222 NA
ATOM      8  C   UNL d   1      -0.329   2.686  -0.735  0.00  0.00     0.240 C 
ATOM      9  O   UNL d   1      -0.726   1.854  -1.547  0.00  0.00    -0.274 OA
ATOM     10  H   UNL d   1      -0.718   3.494   1.055  0.00  0.00     0.137 HD
BRANCH   8  11
ATOM     11  C   UNL d   1       1.096   2.991  -0.608  0.00  0.00     0.082 A 
ATOM     12  C   UNL d   1       2.093   2.299  -1.277  0.00  0.00     0.089 A 
ATOM     13  O   UNL d   1       3.305   2.820  -0.972  0.00  0.00    -0.242 OA
ATOM     14  C   UNL d   1       2.112   1.145  -2.202  0.00  0.00     0.080 C 
ATOM     15  N   UNL d   1       3.151   3.857  -0.088  0.00  0.00    -0.265 N 
ATOM     16  C   UNL d   1       1.836   3.963   0.138  0.00  0.00     0.046 A 
ATOM     17  HN  UNL d   1       3.891   4.432   0.316  1.00  0.00     0.194 HD
ATOM     18  C   UNL d   1       1.385   5.023   1.071  0.00  0.00     0.071 C 
ENDBRANCH   8  11
ENDBRANCH   1   7
BRANCH   4  19
ATOM     19  O   UNL d   1      -3.246   4.325  -1.387  0.00  0.00    -0.341 OA
BRANCH  19  20
ATOM     20  C   UNL d   1      -4.336   4.885  -2.140  0.00  0.00     0.293 C 
BRANCH  20  21
ATOM     21  C   UNL d   1      -3.933   6.185  -2.819  0.00  0.00     0.408 C 
ATOM     22  F   UNL d   1      -2.650   6.183  -3.241  0.00  0.00    -0.169 F 
ATOM     23  F   UNL d   1      -4.715   6.409  -3.905  0.00  0.00    -0.169 F 
ATOM     24  F   UNL d   1      -4.096   7.242  -1.990  0.00  0.00    -0.169 F 
ENDBRANCH  20  21
ENDBRANCH  19  20
ENDBRANCH   4  19
BRANCH   2  25
ATOM     25  C   UNL d   1      -4.271   0.201   2.420  0.00  0.00     0.417 C 
ATOM     26  F   UNL d   1      -3.168  -0.143   3.144  0.00  0.00    -0.166 F 
ATOM     27  F   UNL d   1      -5.210   0.578   3.331  0.00  0.00    -0.166 F 
ATOM     28  F   UNL d   1      -4.729  -0.954   1.866  0.00  0.00    -0.166 F 
ENDBRANCH   2  25
TORSDOF 6
