REMARK  5 active torsions:
REMARK  status: ('A' for Active; 'I' for Inactive)
REMARK    1  A    between atoms: N_13  and  C_9 
REMARK    2  A    between atoms: C_19  and  N_13 
REMARK    3  A    between atoms: O_24  and  C_17 
REMARK    4  A    between atoms: C_18  and  C_25 
REMARK    5  A    between atoms: C_25  and  C_19 
ROOT
ATOM      1  C   UNL d   1      -0.435   1.057   0.006  0.00  0.00     0.160 A 
ATOM      2  C   UNL d   1      -0.910  -0.219   0.018  0.00  0.00     0.164 A 
ATOM      3  N   UNL d   1      -1.438   1.972  -0.007  0.00  0.00    -0.174 N 
ATOM      4  HN  UNL d   1      -1.346   2.987  -0.022  1.00  0.00     0.186 HD
ATOM      5  N   UNL d   1       0.911   1.337   0.007  0.00  0.00    -0.287 N 
ATOM      6  N   UNL d   1       1.315  -1.017   0.017  0.00  0.00    -0.269 N 
ATOM      7  C   UNL d   1       1.833   0.289   0.010  0.00  0.00     0.332 A 
ATOM      8  C   UNL d   1      -0.048  -1.353   0.021  0.00  0.00     0.282 A 
ATOM      9  C   UNL d   1      -2.554   1.274   0.004  0.00  0.00     0.682 A 
ATOM     10  N   UNL d   1      -2.276  -0.086   0.026  0.00  0.00    -0.178 N 
ATOM     11  O   UNL d   1       3.047   0.509   0.009  0.00  0.00    -0.246 OA
ATOM     12  O   UNL d   1      -0.447  -2.512   0.028  0.00  0.00    -0.265 OA
ATOM     13  C   UNL d   1       1.408   2.698   0.004  0.00  0.00     0.163 C 
ATOM     14  C   UNL d   1       2.248  -2.127   0.021  0.00  0.00     0.164 C 
ATOM     15  C   UNL d   1      -3.248  -1.150   0.045  0.00  0.00     0.176 C 
ENDROOT
BRANCH   9  16
ATOM     16  N   UNL d   1      -3.809   1.776  -0.009  0.00  0.00    -0.226 N 
ATOM     17  H   UNL d   1      -4.636   1.214   0.145  0.00  0.00     0.177 HD
BRANCH  16  18
ATOM     18  C   UNL d   1      -3.959   3.234   0.015  0.00  0.00     0.142 C 
BRANCH  18  19
ATOM     19  C   UNL d   1      -5.429   3.673   0.035  0.00  0.00     0.058 C 
BRANCH  19  20
ATOM     20  C   UNL d   1      -5.575   5.181   0.010  0.00  0.00    -0.057 A 
ATOM     21  C   UNL d   1      -5.633   5.869  -1.212  0.00  0.00     0.010 A 
ATOM     22  C   UNL d   1      -5.743   7.262  -1.240  0.00  0.00     0.037 A 
ATOM     23  C   UNL d   1      -5.792   7.976  -0.050  0.00  0.00     0.065 A 
ATOM     24  C   UNL d   1      -5.731   7.317   1.173  0.00  0.00     0.037 A 
ATOM     25  C   UNL d   1      -5.622   5.922   1.202  0.00  0.00     0.010 A 
BRANCH  23  26
ATOM     26  O   UNL d   1      -5.898   9.333  -0.127  0.00  0.00    -0.361 OA
ATOM     27  H   UNL d   1      -5.919   9.696   0.774  0.00  0.00     0.217 HD
ENDBRANCH  23  26
ENDBRANCH  19  20
ENDBRANCH  18  19
ENDBRANCH  16  18
ENDBRANCH   9  16
TORSDOF 5
