REMARK  4 active torsions:
REMARK  status: ('A' for Active; 'I' for Inactive)
REMARK    1  A    between atoms: C_15  and  N_1 
REMARK    2  A    between atoms: N_8  and  C_5 
REMARK    3  A    between atoms: N_7  and  C_12 
REMARK    4  A    between atoms: C_19  and  N_10 
ROOT
ATOM      1  N   UNL d   1       0.606   1.051   0.153  0.00  0.00    -0.222 N 
ATOM      2  C   UNL d   1       1.164  -0.242   0.115  0.00  0.00     0.273 A 
ATOM      3  N   UNL d   1      -0.778   1.062   0.153  0.00  0.00    -0.297 N 
ATOM      4  HN  UNL d   1      -1.384   1.882   0.162  1.00  0.00     0.187 HD
ATOM      5  C   UNL d   1      -0.025  -1.166   0.205  0.00  0.00     0.239 A 
ATOM      6  C   UNL d   1      -1.150  -0.181   0.139  0.00  0.00     0.034 A 
ATOM      7  O   UNL d   1       2.331  -0.601   0.061  0.00  0.00    -0.268 OA
ATOM      8  C   UNL d   1      -2.574  -0.611   0.056  0.00  0.00     0.068 C 
ENDROOT
BRANCH   5   9
ATOM      9  N   UNL d   1      -0.035  -1.755   1.545  0.00  0.00    -0.316 N 
ATOM     10  N   UNL d   1      -0.461  -2.928   1.575  0.00  0.00    -0.304 N 
ATOM     11  HN  UNL d   1      -0.722  -3.467   0.750  1.00  0.00     0.186 HD
ATOM     12  HN  UNL d   1       0.277  -1.254   2.377  1.00  0.00     0.181 HD
BRANCH  10  13
ATOM     13  C   UNL d   1      -0.536  -3.413   2.901  0.00  0.00     0.047 A 
ATOM     14  C   UNL d   1      -1.558  -4.318   3.218  0.00  0.00     0.033 A 
ATOM     15  C   UNL d   1      -1.700  -4.823   4.516  0.00  0.00     0.038 A 
ATOM     16  C   UNL d   1      -0.804  -4.421   5.515  0.00  0.00     0.103 A 
ATOM     17  C   UNL d   1       0.237  -3.535   5.216  0.00  0.00     0.038 A 
ATOM     18  C   UNL d   1       0.368  -3.043   3.913  0.00  0.00     0.033 A 
BRANCH  16  19
ATOM     19  N   UNL d   1      -0.958  -4.929   6.884  0.00  0.00    -0.116 N 
ATOM     20  O   UNL d   1      -1.898  -5.705   7.106  0.00  0.00    -0.532 OA
ATOM     21  O   UNL d   1      -0.143  -4.550   7.735  0.00  0.00    -0.532 OA
ENDBRANCH  16  19
ENDBRANCH  10  13
ENDBRANCH   5   9
BRANCH   1  22
ATOM     22  C   UNL d   1       1.286   2.294   0.145  0.00  0.00     0.059 A 
ATOM     23  C   UNL d   1       2.668   2.385  -0.067  0.00  0.00     0.031 A 
ATOM     24  C   UNL d   1       3.311   3.628  -0.089  0.00  0.00     0.002 A 
ATOM     25  C   UNL d   1       2.586   4.798   0.119  0.00  0.00     0.000 A 
ATOM     26  C   UNL d   1       1.216   4.727   0.348  0.00  0.00     0.002 A 
ATOM     27  C   UNL d   1       0.572   3.486   0.355  0.00  0.00     0.031 A 
ENDBRANCH   1  22
TORSDOF 4
