REMARK  5 active torsions:
REMARK  status: ('A' for Active; 'I' for Inactive)
REMARK    1  A    between atoms: N_2  and  S_1 
REMARK    2  A    between atoms: C_3  and  S_1 
REMARK    3  A    between atoms: C_6  and  C_9 
REMARK    4  A    between atoms: O_18  and  C_10 
REMARK    5  A    between atoms: O_19  and  C_15 
ROOT
ATOM      1  N   UNL d   1       0.334   1.442   0.130  0.00  0.00    -0.307 N 
ATOM      2  C   UNL d   1       1.265   2.425   0.702  0.00  0.00     0.136 C 
ATOM      3  C   UNL d   1      -1.106   1.699   0.181  0.00  0.00     0.136 C 
ATOM      4  C   UNL d   1      -0.354   4.108  -0.456  0.00  0.00     0.024 C 
ATOM      5  C   UNL d   1       0.912   3.876   0.378  0.00  0.00     0.030 C 
ATOM      6  C   UNL d   1      -1.466   3.174   0.054  0.00  0.00     0.030 C 
ENDROOT
BRANCH   1   7
ATOM      7  S   UNL d   1       0.839  -0.178   0.110  0.00  0.00     0.260 S 
ATOM      8  O   UNL d   1      -0.323  -1.027   0.266  0.00  0.00    -0.200 OA
ATOM      9  O   UNL d   1       1.997  -0.325   0.961  0.00  0.00    -0.200 OA
BRANCH   7  10
ATOM     10  C   UNL d   1       1.380  -0.346  -1.579  0.00  0.00     0.079 A 
ATOM     11  C   UNL d   1       2.728  -0.128  -1.901  0.00  0.00     0.028 A 
ATOM     12  C   UNL d   1       3.165  -0.324  -3.215  0.00  0.00     0.038 A 
ATOM     13  C   UNL d   1       2.266  -0.739  -4.198  0.00  0.00     0.068 A 
ATOM     14  C   UNL d   1       0.929  -0.972  -3.856  0.00  0.00     0.038 A 
ATOM     15  C   UNL d   1       0.485  -0.774  -2.553  0.00  0.00     0.028 A 
BRANCH  13  16
ATOM     16  O   UNL d   1       2.583  -1.006  -5.502  0.00  0.00    -0.356 OA
ATOM     17  C   UNL d   1       3.690  -0.288  -6.033  0.00  0.00     0.210 C 
ENDBRANCH  13  16
ENDBRANCH   7  10
ENDBRANCH   1   7
BRANCH   4  18
ATOM     18  C   UNL d   1      -0.133   4.210  -1.968  0.00  0.00    -0.021 A 
ATOM     19  C   UNL d   1       0.404   5.336  -2.636  0.00  0.00     0.074 A 
ATOM     20  C   UNL d   1       0.547   5.320  -4.042  0.00  0.00     0.037 A 
ATOM     21  C   UNL d   1       0.161   4.228  -4.811  0.00  0.00     0.003 A 
ATOM     22  C   UNL d   1      -0.363   3.120  -4.176  0.00  0.00     0.001 A 
ATOM     23  C   UNL d   1      -0.500   3.116  -2.784  0.00  0.00     0.010 A 
BRANCH  19  24
ATOM     24  O   UNL d   1       0.904   6.508  -2.136  0.00  0.00    -0.355 OA
ATOM     25  C   UNL d   1       0.409   7.065  -0.936  0.00  0.00     0.210 C 
ENDBRANCH  19  24
ENDBRANCH   4  18
TORSDOF 5
