REMARK  4 active torsions:
REMARK  status: ('A' for Active; 'I' for Inactive)
REMARK    1  A    between atoms: S_2  and  O_14 
REMARK    2  A    between atoms: N_15  and  S_2 
REMARK    3  A    between atoms: C_18  and  C_8 
REMARK    4  A    between atoms: O_14  and  C_21 
ROOT
ATOM      1  C   UNL d   1       0.186  -0.939  -0.548  0.00  0.00     0.206 A 
ATOM      2  C   UNL d   1       0.436  -2.177  -1.226  0.00  0.00     0.136 A 
ATOM      3  N   UNL d   1       0.679   0.225  -0.920  0.00  0.00    -0.317 N 
ATOM      4  HN  UNL d   1       1.286   0.430  -1.714  1.00  0.00     0.169 HD
ATOM      5  O   UNL d   1      -0.191  -3.341  -0.855  0.00  0.00    -0.305 OA
ATOM      6  C   UNL d   1       1.290  -2.442  -2.298  0.00  0.00    -0.011 A 
ATOM      7  C   UNL d   1       0.182   1.094   0.018  0.00  0.00     0.138 A 
ATOM      8  N   UNL d   1      -0.592   0.508   0.945  0.00  0.00    -0.242 N 
ATOM      9  HN  UNL d   1      -1.065   0.943   1.737  1.00  0.00     0.196 HD
ATOM     10  O   UNL d   1      -0.596  -0.834   0.570  0.00  0.00    -0.215 OA
ATOM     11  C   UNL d   1       1.161  -3.836  -2.582  0.00  0.00     0.007 A 
ATOM     12  C   UNL d   1       0.246  -4.334  -1.669  0.00  0.00     0.087 A 
ATOM     13  C   UNL d   1       2.188  -1.506  -3.028  0.00  0.00     0.052 C 
ATOM     14  C   UNL d   1       1.731  -4.724  -3.513  0.00  0.00     0.015 A 
ATOM     15  C   UNL d   1      -0.154  -5.667  -1.608  0.00  0.00     0.038 A 
ATOM     16  C   UNL d   1       1.354  -6.073  -3.476  0.00  0.00     0.001 A 
ATOM     17  C   UNL d   1       0.427  -6.535  -2.539  0.00  0.00     0.003 A 
ENDROOT
BRANCH   7  18
ATOM     18  C   UNL d   1       0.486   2.519  -0.020  0.00  0.00     0.010 A 
ATOM     19  C   UNL d   1       1.276   3.058  -1.048  0.00  0.00     0.018 A 
ATOM     20  C   UNL d   1       1.583   4.423  -1.069  0.00  0.00     0.039 A 
ATOM     21  C   UNL d   1       1.112   5.262  -0.057  0.00  0.00     0.090 A 
ATOM     22  C   UNL d   1       0.293   4.742   0.943  0.00  0.00     0.039 A 
ATOM     23  C   UNL d   1      -0.006   3.378   0.971  0.00  0.00     0.018 A 
BRANCH  21  24
ATOM     24  O   UNL d   1       1.498   6.578  -0.124  0.00  0.00    -0.221 OA
BRANCH  24  25
ATOM     25  S   UNL d   1       1.568   7.501   1.225  0.00  0.00     0.344 S 
ATOM     26  O   UNL d   1       0.258   8.074   1.453  0.00  0.00    -0.180 OA
ATOM     27  O   UNL d   1       2.240   6.754   2.270  0.00  0.00    -0.180 OA
BRANCH  25  28
ATOM     28  N   UNL d   1       2.618   8.770   0.792  0.00  0.00    -0.196 NA
ATOM     29  C   UNL d   1       3.983   8.338   0.442  0.00  0.00     0.131 C 
ATOM     30  C   UNL d   1       2.061   9.763  -0.139  0.00  0.00     0.131 C 
ENDBRANCH  25  28
ENDBRANCH  24  25
ENDBRANCH  21  24
ENDBRANCH   7  18
TORSDOF 4
