REMARK  5 active torsions:
REMARK  status: ('A' for Active; 'I' for Inactive)
REMARK       I    between atoms: N_2  and  C_1 
REMARK       I    between atoms: N_3  and  C_1 
REMARK    1  A    between atoms: C_4  and  N_2 
REMARK    2  A    between atoms: C_6  and  N_2 
REMARK    3  A    between atoms: C_12  and  N_3 
REMARK    4  A    between atoms: C_9  and  C_4 
REMARK    5  A    between atoms: C_10  and  C_6 
ROOT
ATOM      1  C   UNL d   1       1.371  -0.210  -0.049  0.00  0.00     0.319 C 
ATOM      2  N   UNL d   1       0.717  -0.841   0.996  0.00  0.00    -0.326 N 
ATOM      3  N   UNL d   1       2.711   0.038   0.125  0.00  0.00    -0.339 N 
ATOM      4  O   UNL d   1       0.787   0.127  -1.076  0.00  0.00    -0.247 OA
ATOM      5  H   UNL d   1       3.179  -0.295   0.949  0.00  0.00     0.164 HD
ENDROOT
BRANCH   2   6
ATOM      6  C   UNL d   1      -0.723  -1.076   0.859  0.00  0.00     0.167 C 
BRANCH   6   7
ATOM      7  C   UNL d   1      -1.035  -2.461   0.343  0.00  0.00    -0.025 A 
ATOM      8  C   UNL d   1      -0.863  -2.771  -1.004  0.00  0.00     0.096 A 
ATOM      9  N   UNL d   1      -1.070  -3.999  -1.534  0.00  0.00    -0.375 N 
ATOM     10  C   UNL d   1      -1.468  -4.969  -0.686  0.00  0.00     0.087 A 
ATOM     11  HN  UNL d   1      -0.931  -4.182  -2.528  1.00  0.00     0.164 HD
ATOM     12  C   UNL d   1      -1.684  -4.764   0.664  0.00  0.00     0.018 A 
ATOM     13  C   UNL d   1      -1.467  -3.489   1.184  0.00  0.00     0.011 A 
ENDBRANCH   6   7
ENDBRANCH   2   6
BRANCH   2  14
ATOM     14  C   UNL d   1       1.357  -1.413   2.179  0.00  0.00     0.166 C 
BRANCH  14  15
ATOM     15  C   UNL d   1       1.458  -0.477   3.362  0.00  0.00    -0.040 A 
ATOM     16  C   UNL d   1       1.609  -1.033   4.644  0.00  0.00     0.009 A 
ATOM     17  C   UNL d   1       1.775  -0.217   5.764  0.00  0.00     0.001 A 
ATOM     18  C   UNL d   1       1.800   1.167   5.620  0.00  0.00     0.000 A 
ATOM     19  C   UNL d   1       1.649   1.735   4.357  0.00  0.00     0.001 A 
ATOM     20  C   UNL d   1       1.480   0.920   3.236  0.00  0.00     0.009 A 
ENDBRANCH  14  15
ENDBRANCH   2  14
BRANCH   3  21
ATOM     21  C   UNL d   1       3.550   0.443  -0.999  0.00  0.00     0.078 C 
ATOM     22  C   UNL d   1       4.760   1.246  -0.536  0.00  0.00     0.032 C 
ATOM     23  C   UNL d   1       3.995  -0.798  -1.772  0.00  0.00     0.032 C 
ENDBRANCH   3  21
TORSDOF 5
