REMARK  6 active torsions:
REMARK  status: ('A' for Active; 'I' for Inactive)
REMARK    1  A    between atoms: C_8  and  N_1 
REMARK    2  A    between atoms: C_11  and  C_4 
REMARK    3  A    between atoms: N_7  and  C_9 
REMARK    4  A    between atoms: C_19  and  C_11 
REMARK    5  A    between atoms: N_20  and  N_13 
REMARK    6  A    between atoms: C_21  and  N_20 
ROOT
ATOM      1  C   UNL d   1      -2.813  -0.257  -0.180  0.00  0.00     0.125 C 
ENDROOT
BRANCH   1   2
ATOM      2  C   UNL d   1      -1.335  -0.340  -0.114  0.00  0.00     0.119 C 
ATOM      3  N   UNL d   1      -0.483  -1.016  -0.978  0.00  0.00    -0.229 N 
ATOM      4  N   UNL d   1       0.733  -1.080  -0.380  0.00  0.00     0.000 NA
ATOM      5  N   UNL d   1       0.657  -0.324   0.702  0.00  0.00    -0.007 NA
ATOM      6  N   UNL d   1      -0.616   0.128   0.891  0.00  0.00    -0.273 N 
ATOM      7  HN  UNL d   1      -0.947   0.712   1.658  1.00  0.00     0.185 HD
BRANCH   3   8
ATOM      8  C   UNL d   1      -0.675  -1.571  -2.264  0.00  0.00     0.056 A 
ATOM      9  C   UNL d   1       0.154  -2.625  -2.679  0.00  0.00     0.032 A 
ATOM     10  C   UNL d   1       0.010  -3.175  -3.955  0.00  0.00     0.009 A 
ATOM     11  C   UNL d   1      -0.934  -2.656  -4.846  0.00  0.00    -0.062 A 
ATOM     12  C   UNL d   1      -1.744  -1.591  -4.437  0.00  0.00     0.009 A 
ATOM     13  C   UNL d   1      -1.065  -3.239  -6.222  0.00  0.00     0.048 C 
ATOM     14  C   UNL d   1      -1.621  -1.052  -3.152  0.00  0.00     0.032 A 
ENDBRANCH   3   8
ENDBRANCH   1   2
BRANCH   1  15
ATOM     15  C   UNL d   1      -3.421  -1.595   0.148  0.00  0.00     0.087 C 
ATOM     16  N   UNL d   1      -4.266  -2.147  -0.663  0.00  0.00    -0.315 N 
ATOM     17  HN  UNL d   1      -4.497  -1.744  -1.571  1.00  0.00     0.185 HD
BRANCH  16  18
ATOM     18  N   UNL d   1      -4.822  -3.303  -0.217  0.00  0.00    -0.301 N 
ATOM     19  H   UNL d   1      -4.403  -3.837   0.542  0.00  0.00     0.187 HD
BRANCH  18  20
ATOM     20  C   UNL d   1      -5.686  -4.032  -1.060  0.00  0.00     0.048 A 
ATOM     21  C   UNL d   1      -6.074  -3.562  -2.322  0.00  0.00     0.033 A 
ATOM     22  C   UNL d   1      -6.973  -4.279  -3.123  0.00  0.00     0.038 A 
ATOM     23  C   UNL d   1      -7.515  -5.477  -2.644  0.00  0.00     0.103 A 
ATOM     24  C   UNL d   1      -7.170  -5.948  -1.373  0.00  0.00     0.038 A 
ATOM     25  C   UNL d   1      -6.268  -5.220  -0.587  0.00  0.00     0.033 A 
BRANCH  23  26
ATOM     26  N   UNL d   1      -8.454  -6.238  -3.479  0.00  0.00    -0.116 N 
ATOM     27  O   UNL d   1      -8.723  -5.791  -4.600  0.00  0.00    -0.532 OA
ATOM     28  O   UNL d   1      -8.920  -7.288  -3.008  0.00  0.00    -0.532 OA
ENDBRANCH  23  26
ENDBRANCH  18  20
ENDBRANCH  16  18
ENDBRANCH   1  15
TORSDOF 6
