REMARK  4 active torsions:
REMARK  status: ('A' for Active; 'I' for Inactive)
REMARK    1  A    between atoms: S_13  and  C_3 
REMARK    2  A    between atoms: C_16  and  C_9 
REMARK    3  A    between atoms: C_15  and  S_13 
REMARK    4  A    between atoms: C_14  and  C_15 
ROOT
ATOM      1  N   UNL d   1       0.257  -0.744   0.022  0.00  0.00    -0.079 N 
ATOM      2  C   UNL d   1       0.211   0.657  -0.061  0.00  0.00     0.706 A 
ATOM      3  C   UNL d   1      -0.928  -1.508   0.041  0.00  0.00     0.113 A 
ATOM      4  N   UNL d   1      -0.966   1.341  -0.084  0.00  0.00    -0.189 N 
ATOM      5  HN  UNL d   1      -0.989   2.359  -0.139  1.00  0.00     0.184 HD
ATOM      6  C   UNL d   1      -2.106  -0.861  -0.010  0.00  0.00     0.070 A 
ATOM      7  N   UNL d   1       1.437   1.134  -0.086  0.00  0.00    -0.185 N 
ATOM      8  HN  UNL d   1       1.734   2.108  -0.151  1.00  0.00     0.185 HD
ATOM      9  C   UNL d   1      -2.060   0.640  -0.033  0.00  0.00     0.062 A 
ATOM     10  N   UNL d   1       1.562  -1.137   0.065  0.00  0.00    -0.274 N 
ATOM     11  HN  UNL d   1       1.944  -2.080   0.134  1.00  0.00     0.189 HD
ATOM     12  C   UNL d   1       2.211   0.023  -0.006  0.00  0.00     0.215 A 
ENDROOT
BRANCH   3  13
ATOM     13  S   UNL d   1      -0.770  -3.249   0.107  0.00  0.00    -0.105 SA
BRANCH  13  14
ATOM     14  C   UNL d   1      -2.461  -3.893   0.179  0.00  0.00     0.121 C 
BRANCH  14  15
ATOM     15  C   UNL d   1      -2.492  -5.402   0.247  0.00  0.00    -0.027 A 
ATOM     16  C   UNL d   1      -2.512  -6.213  -0.900  0.00  0.00     0.041 A 
ATOM     17 CL   UNL d   1      -2.501  -5.545  -2.494  0.00  0.00    -0.084 Cl
ATOM     18  C   UNL d   1      -2.549  -7.607  -0.786  0.00  0.00     0.024 A 
ATOM     19  C   UNL d   1      -2.559  -8.211   0.470  0.00  0.00     0.002 A 
ATOM     20  C   UNL d   1      -2.524  -7.422   1.616  0.00  0.00     0.001 A 
ATOM     21  C   UNL d   1      -2.486  -6.030   1.507  0.00  0.00     0.009 A 
ENDBRANCH  14  15
ENDBRANCH  13  14
ENDBRANCH   3  13
BRANCH   9  22
ATOM     22  C   UNL d   1      -3.372   1.359   0.008  0.00  0.00    -0.009 A 
ATOM     23  C   UNL d   1      -4.487   0.831   0.674  0.00  0.00     0.014 A 
ATOM     24  C   UNL d   1      -5.683   1.551   0.724  0.00  0.00     0.001 A 
ATOM     25  C   UNL d   1      -5.771   2.805   0.122  0.00  0.00     0.000 A 
ATOM     26  C   UNL d   1      -4.663   3.344  -0.530  0.00  0.00     0.001 A 
ATOM     27  C   UNL d   1      -3.466   2.626  -0.585  0.00  0.00     0.014 A 
ENDBRANCH   9  22
TORSDOF 4
