REMARK  4 active torsions:
REMARK  status: ('A' for Active; 'I' for Inactive)
REMARK    1  A    between atoms: C_6  and  C_1 
REMARK    2  A    between atoms: C_7  and  C_2 
REMARK    3  A    between atoms: C_12  and  N_3 
REMARK       I    between atoms: N_9  and  C_7 
REMARK    4  A    between atoms: C_13  and  N_9 
ROOT
ATOM      1  C   UNL d   1       1.104  -0.607  -0.393  0.00  0.00     0.157 A 
ATOM      2  C   UNL d   1      -0.132  -1.156  -0.041  0.00  0.00     0.082 A 
ATOM      3  N   UNL d   1       1.036   0.751  -0.086  0.00  0.00    -0.251 N 
ATOM      4  N   UNL d   1      -0.178   1.075   0.426  0.00  0.00    -0.303 N 
ATOM      5  HN  UNL d   1      -0.487   1.991   0.752  1.00  0.00     0.186 HD
ATOM      6  C   UNL d   1      -0.876  -0.048   0.412  0.00  0.00     0.127 A 
ENDROOT
BRANCH   2   7
ATOM      7  C   UNL d   1      -0.704  -2.506  -0.084  0.00  0.00     0.259 C 
ATOM      8  N   UNL d   1       0.163  -3.552  -0.308  0.00  0.00    -0.323 N 
ATOM      9  H   UNL d   1       1.155  -3.357  -0.294  0.00  0.00     0.169 HD
ATOM     10  O   UNL d   1      -1.909  -2.635   0.102  0.00  0.00    -0.267 OA
BRANCH   8  11
ATOM     11  C   UNL d   1      -0.178  -4.885  -0.631  0.00  0.00     0.037 A 
ATOM     12  C   UNL d   1      -1.489  -5.335  -0.798  0.00  0.00     0.061 A 
ATOM     13  C   UNL d   1      -1.767  -6.612  -1.268  0.00  0.00     0.061 A 
ATOM     14  N   UNL d   1      -3.047  -6.971  -1.477  0.00  0.00    -0.363 N 
ATOM     15  C   UNL d   1      -0.698  -7.498  -1.549  0.00  0.00     0.059 A 
ATOM     16  C   UNL d   1      -3.253  -8.201  -1.994  0.00  0.00     0.105 A 
ATOM     17  HN  UNL d   1      -3.822  -6.346  -1.255  1.00  0.00     0.165 HD
ATOM     18  C   UNL d   1      -2.212  -9.056  -2.280  0.00  0.00     0.105 A 
ATOM     19  N   UNL d   1      -0.921  -8.729  -2.054  0.00  0.00    -0.363 N 
ATOM     20  HN  UNL d   1      -0.158  -9.376  -2.254  1.00  0.00     0.165 HD
ATOM     21  C   UNL d   1       0.602  -7.070  -1.322  0.00  0.00     0.034 A 
ATOM     22  C   UNL d   1       0.870  -5.776  -0.870  0.00  0.00     0.032 A 
ENDBRANCH   8  11
ENDBRANCH   2   7
BRANCH   1  23
ATOM     23  C   UNL d   1       2.333  -1.210  -0.925  0.00  0.00     0.435 C 
ATOM     24  F   UNL d   1       2.342  -2.565  -0.799  0.00  0.00    -0.165 F 
ATOM     25  F   UNL d   1       2.492  -0.964  -2.247  0.00  0.00    -0.165 F 
ATOM     26  F   UNL d   1       3.454  -0.801  -0.285  0.00  0.00    -0.165 F 
ENDBRANCH   1  23
BRANCH   3  27
ATOM     27  C   UNL d   1       2.023   1.785  -0.134  0.00  0.00     0.057 A 
ATOM     28  C   UNL d   1       3.091   1.791  -1.036  0.00  0.00     0.031 A 
ATOM     29  C   UNL d   1       4.099   2.756  -0.926  0.00  0.00     0.002 A 
ATOM     30  C   UNL d   1       4.034   3.734   0.063  0.00  0.00     0.000 A 
ATOM     31  C   UNL d   1       2.937   3.782   0.917  0.00  0.00     0.002 A 
ATOM     32  C   UNL d   1       1.928   2.824   0.809  0.00  0.00     0.031 A 
ENDBRANCH   3  27
TORSDOF 4
