REMARK  5 active torsions:
REMARK  status: ('A' for Active; 'I' for Inactive)
REMARK    1  A    between atoms: C_14  and  N_2 
REMARK    2  A    between atoms: C_11  and  C_4 
REMARK    3  A    between atoms: C_15  and  N_5 
REMARK       I    between atoms: N_13  and  C_11 
REMARK    4  A    between atoms: C_18  and  C_12 
REMARK    5  A    between atoms: C_19  and  N_13 
ROOT
ATOM      1  C   UNL d   1       0.032  -0.176  -0.344  0.00  0.00     0.247 C 
ATOM      2  N   UNL d   1       1.162  -1.018  -0.663  0.00  0.00    -0.265 N 
ATOM      3  S   UNL d   1      -0.652  -0.557   1.329  0.00  0.00    -0.037 SA
ATOM      4  C   UNL d   1      -2.197  -0.095   0.702  0.00  0.00     0.158 C 
ATOM      5  N   UNL d   1      -1.162  -0.191  -1.223  0.00  0.00    -0.241 N 
ATOM      6  N   UNL d   1      -2.375   0.052  -0.567  0.00  0.00    -0.283 N 
ATOM      7  HN  UNL d   1      -3.255   0.302  -1.018  1.00  0.00     0.188 HD
ATOM      8  S   UNL d   1       0.714   1.542  -0.185  0.00  0.00    -0.056 SA
ATOM      9  C   UNL d   1       2.372  -0.548  -0.133  0.00  0.00     0.268 C 
ATOM     10  C   UNL d   1       2.301   0.928   0.114  0.00  0.00     0.074 C 
ATOM     11  C   UNL d   1       3.316   1.730   0.466  0.00  0.00     0.035 C 
ATOM     12  O   UNL d   1       3.364  -1.221   0.096  0.00  0.00    -0.266 OA
ENDROOT
BRANCH   2  13
ATOM     13  C   UNL d   1       1.125  -2.311  -1.261  0.00  0.00     0.041 A 
ATOM     14  C   UNL d   1       0.097  -3.233  -1.053  0.00  0.00     0.030 A 
ATOM     15  C   UNL d   1       0.135  -4.487  -1.683  0.00  0.00     0.002 A 
ATOM     16  C   UNL d   1       1.169  -4.817  -2.559  0.00  0.00     0.000 A 
ATOM     17  C   UNL d   1       2.199  -3.913  -2.776  0.00  0.00     0.002 A 
ATOM     18  C   UNL d   1       2.185  -2.683  -2.115  0.00  0.00     0.030 A 
ENDBRANCH   2  13
BRANCH   5  19
ATOM     19  C   UNL d   1      -1.210  -0.195  -2.616  0.00  0.00     0.055 A 
ATOM     20  C   UNL d   1      -2.329  -0.769  -3.256  0.00  0.00     0.031 A 
ATOM     21  C   UNL d   1      -2.425  -0.872  -4.646  0.00  0.00     0.002 A 
ATOM     22  C   UNL d   1      -1.414  -0.356  -5.444  0.00  0.00     0.000 A 
ATOM     23  C   UNL d   1      -0.324   0.272  -4.845  0.00  0.00     0.002 A 
ATOM     24  C   UNL d   1      -0.218   0.340  -3.446  0.00  0.00     0.031 A 
ENDBRANCH   5  19
BRANCH   4  25
ATOM     25  C   UNL d   1      -3.171   0.128   1.816  0.00  0.00     0.281 C 
ATOM     26  N   UNL d   1      -4.030   1.203   1.646  0.00  0.00    -0.321 N 
ATOM     27  H   UNL d   1      -4.084   1.609   0.715  0.00  0.00     0.169 HD
ATOM     28  O   UNL d   1      -3.178  -0.672   2.750  0.00  0.00    -0.265 OA
BRANCH  26  29
ATOM     29  C   UNL d   1      -4.997   1.611   2.602  0.00  0.00     0.035 A 
ATOM     30  C   UNL d   1      -4.908   1.260   3.954  0.00  0.00     0.029 A 
ATOM     31  C   UNL d   1      -5.924   1.591   4.854  0.00  0.00     0.002 A 
ATOM     32  C   UNL d   1      -7.032   2.298   4.412  0.00  0.00     0.000 A 
ATOM     33  C   UNL d   1      -7.108   2.712   3.084  0.00  0.00     0.002 A 
ATOM     34  C   UNL d   1      -6.083   2.383   2.180  0.00  0.00     0.029 A 
ENDBRANCH  26  29
ENDBRANCH   4  25
BRANCH  11  35
ATOM     35  C   UNL d   1       4.704   1.309   0.668  0.00  0.00    -0.035 A 
ATOM     36  C   UNL d   1       5.575   1.215  -0.421  0.00  0.00     0.012 A 
ATOM     37  C   UNL d   1       6.896   0.799  -0.231  0.00  0.00     0.007 A 
ATOM     38  C   UNL d   1       7.361   0.474   1.048  0.00  0.00    -0.062 A 
ATOM     39  C   UNL d   1       6.489   0.580   2.137  0.00  0.00     0.007 A 
ATOM     40  C   UNL d   1       8.769  -0.007   1.232  0.00  0.00     0.048 C 
ATOM     41  C   UNL d   1       5.166   0.994   1.950  0.00  0.00     0.012 A 
ENDBRANCH  11  35
TORSDOF 5
