REMARK  2 active torsions:
REMARK  status: ('A' for Active; 'I' for Inactive)
REMARK    1  A    between atoms: O_22  and  C_16 
REMARK    2  A    between atoms: O_23  and  C_19 
ROOT
ATOM      1  C   UNL d   1       4.097   2.671  -3.287  0.00  0.00     0.005 C 
ATOM      2  C   UNL d   1       4.534   1.328  -3.898  0.00  0.00     0.056 C 
ATOM      3  C   UNL d   1       1.918   2.562  -4.798  0.00  0.00    -0.002 C 
ATOM      4  C   UNL d   1       2.539   2.877  -3.401  0.00  0.00     0.002 C 
ATOM      5  C   UNL d   1       0.273   4.624  -4.570  0.00  0.00    -0.014 C 
ATOM      6  C   UNL d   1       1.165   3.738  -5.488  0.00  0.00     0.001 C 
ATOM      7  C   UNL d   1       4.308   1.655  -5.368  0.00  0.00     0.142 C 
ATOM      8  C   UNL d   1       2.865   1.882  -5.819  0.00  0.00     0.039 C 
ATOM      9  O   UNL d   1       4.941   2.950  -5.516  0.00  0.00    -0.383 OA
ATOM     10  C   UNL d   1       4.813   3.641  -4.257  0.00  0.00     0.179 C 
ATOM     11  C   UNL d   1       0.524   4.367  -3.078  0.00  0.00     0.012 C 
ATOM     12  C   UNL d   1       6.032   0.999  -3.638  0.00  0.00     0.056 C 
ATOM     13  C   UNL d   1       4.568   2.828  -1.825  0.00  0.00     0.016 C 
ATOM     14  C   UNL d   1       2.015   4.194  -2.790  0.00  0.00     0.007 C 
ATOM     15  C   UNL d   1       0.218   3.211  -6.600  0.00  0.00     0.008 C 
ATOM     16  C   UNL d   1      -1.174   4.254  -4.975  0.00  0.00     0.126 C 
ATOM     17 BR   UNL d   1       3.486  -0.226  -3.337  0.00  0.00    -0.082 Br
ATOM     18  C   UNL d   1      -1.077   3.991  -6.471  0.00  0.00     0.033 C 
ATOM     19  C   UNL d   1       6.473   1.154  -2.178  0.00  0.00     0.119 C 
ATOM     20  C   UNL d   1       6.040   2.490  -1.577  0.00  0.00     0.032 C 
ATOM     21  C   UNL d   1       0.554   6.119  -4.873  0.00  0.00     0.018 C 
ENDROOT
BRANCH  16  22
ATOM     22  O   UNL d   1      -2.103   5.286  -4.685  0.00  0.00    -0.395 OA
ATOM     23  H   UNL d   1      -2.868   5.174  -5.275  0.00  0.00     0.210 HD
ENDBRANCH  16  22
BRANCH  19  24
ATOM     24  O   UNL d   1       6.012   0.087  -1.369  0.00  0.00    -0.396 OA
ATOM     25  H   UNL d   1       5.066  -0.062  -1.548  0.00  0.00     0.210 HD
ENDBRANCH  19  24
TORSDOF 2
