REMARK  4 active torsions:
REMARK  status: ('A' for Active; 'I' for Inactive)
REMARK    1  A    between atoms: C_2  and  C_1 
REMARK       I    between atoms: N_3  and  C_1 
REMARK    2  A    between atoms: C_6  and  N_3 
REMARK    3  A    between atoms: O_15  and  C_8 
REMARK    4  A    between atoms: O_16  and  C_9 
ROOT
ATOM      1  C   UNL d   1       0.704  -0.072  -0.243  0.00  0.00     0.261 C 
ATOM      2  N   UNL d   1       2.068  -0.016  -0.495  0.00  0.00    -0.323 N 
ATOM      3  O   UNL d   1      -0.129  -0.594  -0.982  0.00  0.00    -0.267 OA
ATOM      4  H   UNL d   1       2.644   0.424   0.217  0.00  0.00     0.169 HD
ENDROOT
BRANCH   1   5
ATOM      5  C   UNL d   1       0.201   0.563   1.014  0.00  0.00     0.098 A 
ATOM      6  C   UNL d   1       0.612   1.856   1.397  0.00  0.00     0.086 A 
ATOM      7  C   UNL d   1      -0.057   2.504   2.446  0.00  0.00     0.038 A 
ATOM      8  C   UNL d   1      -1.128   1.892   3.096  0.00  0.00     0.005 A 
ATOM      9  C   UNL d   1      -1.511   0.600   2.746  0.00  0.00     0.038 A 
ATOM     10  C   UNL d   1      -0.851  -0.073   1.714  0.00  0.00     0.086 A 
BRANCH   6  11
ATOM     11  O   UNL d   1       1.672   2.420   0.732  0.00  0.00    -0.355 OA
ATOM     12  C   UNL d   1       1.767   3.842   0.783  0.00  0.00     0.210 C 
ENDBRANCH   6  11
BRANCH  10  13
ATOM     13  O   UNL d   1      -1.133  -1.382   1.402  0.00  0.00    -0.355 OA
ATOM     14  C   UNL d   1      -2.479  -1.800   1.595  0.00  0.00     0.210 C 
ENDBRANCH  10  13
ENDBRANCH   1   5
BRANCH   2  15
ATOM     15  C   UNL d   1       2.722  -0.519  -1.649  0.00  0.00     0.036 A 
ATOM     16  C   UNL d   1       2.037  -0.977  -2.781  0.00  0.00     0.054 A 
ATOM     17  C   UNL d   1       2.719  -1.514  -3.880  0.00  0.00     0.053 A 
ATOM     18 CL   UNL d   1       1.771  -2.054  -5.222  0.00  0.00    -0.083 Cl
ATOM     19  C   UNL d   1       4.111  -1.593  -3.860  0.00  0.00     0.032 A 
ATOM     20  C   UNL d   1       4.811  -1.106  -2.752  0.00  0.00     0.023 A 
ATOM     21 BR   UNL d   1       5.116  -2.349  -5.283  0.00  0.00    -0.049 Br
ATOM     22  C   UNL d   1       4.120  -0.563  -1.658  0.00  0.00     0.031 A 
ENDBRANCH   2  15
TORSDOF 4
