REMARK  4 active torsions:
REMARK  status: ('A' for Active; 'I' for Inactive)
REMARK    1  A    between atoms: S_2  and  C_3 
REMARK    2  A    between atoms: C_7  and  S_2 
REMARK    3  A    between atoms: O_14  and  C_6 
REMARK    4  A    between atoms: O_18  and  C_15 
ROOT
ATOM      1  S   UNL d   1       2.474   0.648  -1.273  0.00  0.00     0.183 S 
ATOM      2  O   UNL d   1       2.729   2.078  -1.267  0.00  0.00    -0.222 OA
ATOM      3  O   UNL d   1       3.549  -0.280  -0.990  0.00  0.00    -0.222 OA
ENDROOT
BRANCH   1   4
ATOM      4  C   UNL d   1       1.171   0.366  -0.105  0.00  0.00     0.157 C 
ATOM      5  C   UNL d   1       1.679   0.648   1.312  0.00  0.00     0.163 C 
ATOM      6  S   UNL d   1       1.290  -0.785   2.273  0.00  0.00     0.148 S 
ATOM      7  C   UNL d   1      -0.017  -1.349   1.221  0.00  0.00     0.173 C 
ATOM      8  O   UNL d   1       2.387  -1.725   2.151  0.00  0.00    -0.228 OA
ATOM      9  O   UNL d   1       0.740  -0.382   3.546  0.00  0.00    -0.228 OA
ATOM     10  C   UNL d   1       0.509  -1.021  -0.168  0.00  0.00     0.151 C 
BRANCH  10  11
ATOM     11  O   UNL d   1       1.357  -2.076  -0.601  0.00  0.00    -0.393 OA
ATOM     12  H   UNL d   1       2.096  -2.225   0.030  0.00  0.00     0.210 HD
ENDBRANCH  10  11
ENDBRANCH   1   4
BRANCH   1  13
ATOM     13  C   UNL d   1       1.792   0.258  -2.864  0.00  0.00     0.059 A 
ATOM     14  C   UNL d   1       1.060   1.228  -3.554  0.00  0.00     0.026 A 
ATOM     15  C   UNL d   1       0.516   0.923  -4.805  0.00  0.00     0.038 A 
ATOM     16  C   UNL d   1       0.710  -0.343  -5.362  0.00  0.00     0.068 A 
ATOM     17  C   UNL d   1       1.498  -1.282  -4.694  0.00  0.00     0.038 A 
ATOM     18  C   UNL d   1       2.044  -0.986  -3.445  0.00  0.00     0.026 A 
BRANCH  16  19
ATOM     19  O   UNL d   1       0.217  -0.742  -6.574  0.00  0.00    -0.356 OA
ATOM     20  C   UNL d   1      -1.059  -0.205  -6.909  0.00  0.00     0.210 C 
ENDBRANCH  16  19
ENDBRANCH   1  13
TORSDOF 4
