REMARK  4 active torsions:
REMARK  status: ('A' for Active; 'I' for Inactive)
REMARK    1  A    between atoms: C_7  and  C_1 
REMARK    2  A    between atoms: N_23  and  C_2 
REMARK    3  A    between atoms: N_6  and  N_12 
REMARK       I    between atoms: N_12  and  C_7 
REMARK    4  A    between atoms: C_19  and  N_8 
ROOT
ATOM      1  C   UNL d   1       3.824  -0.033  -0.003  0.00  0.00     0.279 C 
ATOM      2  N   UNL d   1       4.593  -1.192   0.066  0.00  0.00    -0.260 N 
ATOM      3  O   UNL d   1       2.609  -0.069  -0.203  0.00  0.00    -0.265 OA
ATOM      4  H   UNL d   1       5.609  -1.126   0.018  0.00  0.00     0.190 HD
ENDROOT
BRANCH   1   5
ATOM      5  C   UNL d   1       4.529   1.226   0.238  0.00  0.00     0.103 A 
ATOM      6  C   UNL d   1       3.968   2.492   0.357  0.00  0.00     0.062 A 
ATOM      7  C   UNL d   1       4.920   3.519   0.725  0.00  0.00     0.032 A 
ATOM      8  C   UNL d   1       4.849   4.919   0.992  0.00  0.00    -0.045 A 
ATOM      9  C   UNL d   1       6.181   2.935   0.860  0.00  0.00     0.088 A 
ATOM     10  C   UNL d   1       6.031   5.547   1.436  0.00  0.00     0.032 A 
ATOM     11  C   UNL d   1       3.642   5.811   0.860  0.00  0.00     0.049 C 
ATOM     12  C   UNL d   1       7.209   4.827   1.571  0.00  0.00     0.006 A 
ATOM     13  N   UNL d   1       7.324   3.527   1.258  0.00  0.00    -0.354 N 
ATOM     14  C   UNL d   1       8.439   5.511   2.094  0.00  0.00     0.068 C 
ATOM     15  HN  UNL d   1       8.210   3.026   1.317  1.00  0.00     0.166 HD
ATOM     16  S   UNL d   1       6.217   1.279   0.476  0.00  0.00    -0.064 SA
BRANCH   6  17
ATOM     17  N   UNL d   1       2.640   2.683   0.187  0.00  0.00    -0.397 N 
ATOM     18  H   UNL d   1       2.019   1.878   0.056  0.00  0.00     0.156 HD
ATOM     19  H   UNL d   1       2.139   3.520   0.448  0.00  0.00     0.156 HD
ENDBRANCH   6  17
ENDBRANCH   1   5
BRANCH   2  20
ATOM     20  N   UNL d   1       4.061  -2.504  -0.058  0.00  0.00    -0.248 N 
ATOM     21  C   UNL d   1       4.708  -3.389  -0.910  0.00  0.00     0.257 C 
ATOM     22  C   UNL d   1       3.879  -4.637  -1.189  0.00  0.00     0.236 C 
ATOM     23  O   UNL d   1       5.776  -3.143  -1.467  0.00  0.00    -0.270 OA
ATOM     24  N   UNL d   1       3.215  -5.109   0.037  0.00  0.00    -0.308 N 
ATOM     25  C   UNL d   1       2.427  -4.166   0.728  0.00  0.00     0.244 C 
ATOM     26  C   UNL d   1       2.665  -2.714   0.302  0.00  0.00     0.255 C 
ATOM     27  O   UNL d   1       1.558  -4.404   1.561  0.00  0.00    -0.271 OA
BRANCH  24  28
ATOM     28  C   UNL d   1       3.221  -6.512   0.355  0.00  0.00     0.037 A 
ATOM     29  C   UNL d   1       2.201  -7.119   1.103  0.00  0.00     0.030 A 
ATOM     30  C   UNL d   1       2.231  -8.483   1.424  0.00  0.00     0.002 A 
ATOM     31  C   UNL d   1       3.290  -9.276   1.005  0.00  0.00     0.000 A 
ATOM     32  C   UNL d   1       4.318  -8.703   0.268  0.00  0.00     0.002 A 
ATOM     33  C   UNL d   1       4.285  -7.338  -0.050  0.00  0.00     0.030 A 
ENDBRANCH  24  28
ENDBRANCH   2  20
TORSDOF 4
