REMARK  4 active torsions:
REMARK  status: ('A' for Active; 'I' for Inactive)
REMARK    1  A    between atoms: N_2  and  S_1 
REMARK    2  A    between atoms: C_6  and  S_1 
REMARK    3  A    between atoms: C_3  and  N_2 
REMARK    4  A    between atoms: N_4  and  C_5 
ROOT
ATOM      1  C   UNL d   1       0.904   1.653  -1.852  0.00  0.00     0.049 A 
ATOM      2  C   UNL d   1       2.250   2.108  -1.772  0.00  0.00     0.052 A 
ATOM      3  C   UNL d   1      -0.119   2.470  -2.370  0.00  0.00     0.027 A 
ATOM      4  C   UNL d   1       2.477   3.412  -2.272  0.00  0.00     0.031 A 
ATOM      5  C   UNL d   1       0.159   3.750  -2.838  0.00  0.00     0.002 A 
ATOM      6  C   UNL d   1       1.460   4.222  -2.788  0.00  0.00     0.002 A 
ENDROOT
BRANCH   1   7
ATOM      7  N   UNL d   1       0.503   0.351  -1.396  0.00  0.00    -0.179 NA
ATOM      8  H   UNL d   1      -0.197  -0.083  -1.992  0.00  0.00     0.146 HD
BRANCH   7   9
ATOM      9  S   UNL d   1       0.112   0.170   0.240  0.00  0.00     0.245 S 
ATOM     10  O   UNL d   1       0.707   1.220   1.041  0.00  0.00    -0.206 OA
ATOM     11  O   UNL d   1       0.322  -1.228   0.559  0.00  0.00    -0.206 OA
BRANCH   9  12
ATOM     12  C   UNL d   1      -1.655   0.417   0.234  0.00  0.00     0.074 A 
ATOM     13  C   UNL d   1      -2.496  -0.670  -0.025  0.00  0.00     0.025 A 
ATOM     14  C   UNL d   1      -3.879  -0.508   0.062  0.00  0.00     0.008 A 
ATOM     15  C   UNL d   1      -4.427   0.733   0.418  0.00  0.00    -0.062 A 
ATOM     16  C   UNL d   1      -3.570   1.813   0.669  0.00  0.00     0.008 A 
ATOM     17  C   UNL d   1      -5.916   0.879   0.558  0.00  0.00     0.048 C 
ATOM     18  C   UNL d   1      -2.185   1.658   0.584  0.00  0.00     0.025 A 
ENDBRANCH   9  12
ENDBRANCH   7   9
ENDBRANCH   1   7
BRANCH   2  19
ATOM     19  N   UNL d   1       3.362   1.356  -1.364  0.00  0.00    -0.379 N 
ATOM     20  C   UNL d   1       4.388   2.011  -0.530  0.00  0.00     0.123 C 
ATOM     21  C   UNL d   1       5.761   1.442  -0.899  0.00  0.00     0.020 C 
ATOM     22  C   UNL d   1       5.791  -0.070  -0.705  0.00  0.00     0.003 C 
ATOM     23  C   UNL d   1       4.653  -0.731  -1.474  0.00  0.00     0.020 C 
ATOM     24  C   UNL d   1       3.296  -0.098  -1.160  0.00  0.00     0.123 C 
ENDBRANCH   2  19
TORSDOF 4
