REMARK  2 active torsions:
REMARK  status: ('A' for Active; 'I' for Inactive)
REMARK    1  A    between atoms: C_2  and  C_1 
REMARK       I    between atoms: C_6  and  N_7 
REMARK    2  A    between atoms: N_7  and  C_9 
ROOT
ATOM      1  C   UNL d   1       0.503   0.129   1.319  0.00  0.00     0.070 A 
ATOM      2  N   UNL d   1       0.468   3.699   1.231  0.00  0.00    -0.191 NA
ATOM      3  C   UNL d   1       0.354   2.604   1.592  0.00  0.00     0.100 C 
ATOM      4  C   UNL d   1       0.203   1.263   2.086  0.00  0.00     0.059 A 
ATOM      5  C   UNL d   1       0.342  -1.151   1.900  0.00  0.00     0.047 A 
ATOM      6  C   UNL d   1      -0.102  -1.316   3.213  0.00  0.00     0.035 A 
ATOM      7  C   UNL d   1      -0.260   1.099   3.402  0.00  0.00     0.026 A 
ATOM      8  C   UNL d   1      -0.410  -0.176   3.959  0.00  0.00     0.031 A 
ENDROOT
BRANCH   1   9
ATOM      9  C   UNL d   1       0.994   0.176  -0.109  0.00  0.00     0.419 C 
ATOM     10  F   UNL d   1       1.173   1.421  -0.616  0.00  0.00    -0.166 F 
ATOM     11  F   UNL d   1       0.135  -0.449  -0.962  0.00  0.00    -0.166 F 
ATOM     12  F   UNL d   1       2.192  -0.456  -0.257  0.00  0.00    -0.166 F 
ENDBRANCH   1   9
BRANCH   6  13
ATOM     13  N   UNL d   1      -0.248  -2.572   3.839  0.00  0.00    -0.327 N 
ATOM     14  C   UNL d   1       0.025  -3.813   3.291  0.00  0.00     0.218 C 
ATOM     15  O   UNL d   1       0.423  -4.037   2.153  0.00  0.00    -0.274 OA
ATOM     16  C   UNL d   1      -0.209  -4.958   4.244  0.00  0.00     0.117 C 
ATOM     17  H   UNL d   1      -0.573  -2.556   4.798  0.00  0.00     0.169 HD
ENDBRANCH   6  13
TORSDOF 2
