REMARK  7 active torsions:
REMARK  status: ('A' for Active; 'I' for Inactive)
REMARK    1  A    between atoms: C_14  and  N_1 
REMARK    2  A    between atoms: S_15  and  C_2 
REMARK    3  A    between atoms: O_21  and  C_3 
REMARK    4  A    between atoms: C_9  and  C_18 
REMARK    5  A    between atoms: C_20  and  C_14 
REMARK    6  A    between atoms: C_18  and  S_15 
REMARK    7  A    between atoms: O_24  and  C_22 
ROOT
ATOM      1  N   UNL d   1      -0.336  -1.228   0.002  0.00  0.00    -0.282 N 
ATOM      2  C   UNL d   1       0.920  -0.683   0.147  0.00  0.00     0.165 A 
ATOM      3  C   UNL d   1      -1.171  -0.125  -0.032  0.00  0.00     0.241 A 
ATOM      4  N   UNL d   1       0.840   0.628   0.188  0.00  0.00    -0.277 N 
ATOM      5  HN  UNL d   1       1.625   1.273   0.275  1.00  0.00     0.189 HD
ATOM      6  N   UNL d   1      -0.479   0.977   0.093  0.00  0.00    -0.263 N 
ATOM      7  HN  UNL d   1      -0.854   1.925   0.116  1.00  0.00     0.190 HD
ENDROOT
BRANCH   2   8
ATOM      8  S   UNL d   1       2.418  -1.540   0.276  0.00  0.00    -0.088 SA
BRANCH   8   9
ATOM      9  C   UNL d   1       3.439  -0.339   1.202  0.00  0.00     0.122 C 
BRANCH   9  10
ATOM     10  C   UNL d   1       4.098   0.775   0.410  0.00  0.00    -0.030 A 
ATOM     11  C   UNL d   1       4.696   1.917   1.148  0.00  0.00     0.005 A 
ATOM     12  C   UNL d   1       5.307   2.948   0.428  0.00  0.00     0.092 A 
ATOM     13  C   UNL d   1       4.696   2.038   2.548  0.00  0.00     0.017 A 
ATOM     14  C   UNL d   1       5.898   4.058   1.044  0.00  0.00     0.074 A 
ATOM     15  O   UNL d   1       5.373   2.933  -0.979  0.00  0.00    -0.275 OA
ATOM     16  C   UNL d   1       5.878   4.145   2.427  0.00  0.00     0.068 A 
ATOM     17  C   UNL d   1       5.280   3.146   3.183  0.00  0.00     0.037 A 
ATOM     18  C   UNL d   1       4.845   1.881  -1.697  0.00  0.00     0.288 A 
ATOM     19  C   UNL d   1       4.201   0.805  -0.932  0.00  0.00     0.091 A 
ATOM     20  O   UNL d   1       4.919   1.820  -2.920  0.00  0.00    -0.260 OA
BRANCH  16  21
ATOM     21  O   UNL d   1       6.458   5.231   3.005  0.00  0.00    -0.361 OA
ATOM     22  H   UNL d   1       6.346   5.178   3.969  0.00  0.00     0.217 HD
ENDBRANCH  16  21
ENDBRANCH   9  10
ENDBRANCH   8   9
ENDBRANCH   2   8
BRANCH   1  23
ATOM     23  C   UNL d   1      -0.818  -2.606   0.042  0.00  0.00     0.124 C 
ATOM     24  C   UNL d   1      -0.056  -3.611   0.912  0.00  0.00     0.038 C 
BRANCH  23  25
ATOM     25  C   UNL d   1      -1.065  -3.190  -1.344  0.00  0.00    -0.035 A 
ATOM     26  C   UNL d   1      -0.026  -3.346  -2.274  0.00  0.00     0.009 A 
ATOM     27  C   UNL d   1      -0.242  -4.018  -3.480  0.00  0.00     0.001 A 
ATOM     28  C   UNL d   1      -1.499  -4.537  -3.779  0.00  0.00     0.000 A 
ATOM     29  C   UNL d   1      -2.548  -4.370  -2.879  0.00  0.00     0.001 A 
ATOM     30  C   UNL d   1      -2.335  -3.704  -1.671  0.00  0.00     0.009 A 
ENDBRANCH  23  25
ENDBRANCH   1  23
BRANCH   3  31
ATOM     31  O   UNL d   1      -2.493  -0.133  -0.121  0.00  0.00    -0.331 OA
ATOM     32  H   UNL d   1      -2.787  -0.961  -0.522  0.00  0.00     0.221 HD
ENDBRANCH   3  31
TORSDOF 7
