REMARK  4 active torsions:
REMARK  status: ('A' for Active; 'I' for Inactive)
REMARK    1  A    between atoms: N_7  and  C_1 
REMARK    2  A    between atoms: C_11  and  C_2 
REMARK    3  A    between atoms: C_6  and  C_3 
REMARK    4  A    between atoms: S_4  and  N_7 
ROOT
ATOM      1  C   UNL d   1       1.613  -0.611   0.027  0.00  0.00     0.041 A 
ATOM      2  C   UNL d   1       1.476   0.830  -0.003  0.00  0.00     0.019 A 
ATOM      3  C   UNL d   1       0.132   1.207   0.007  0.00  0.00     0.101 A 
ATOM      4  S   UNL d   1      -0.907  -0.165  -0.088  0.00  0.00    -0.095 SA
ATOM      5  C   UNL d   1       0.395  -1.250  -0.001  0.00  0.00     0.075 A 
ENDROOT
BRANCH   1   6
ATOM      6  N   UNL d   1       2.847  -1.288   0.138  0.00  0.00    -0.185 NA
ATOM      7  H   UNL d   1       2.853  -2.035   0.838  0.00  0.00     0.146 HD
BRANCH   6   8
ATOM      8  S   UNL d   1       3.539  -1.989  -1.248  0.00  0.00     0.210 S 
ATOM      9  O   UNL d   1       4.488  -2.963  -0.751  0.00  0.00    -0.211 OA
ATOM     10  O   UNL d   1       2.489  -2.374  -2.158  0.00  0.00    -0.211 OA
ATOM     11  C   UNL d   1       4.448  -0.628  -1.944  0.00  0.00     0.180 C 
ENDBRANCH   6   8
ENDBRANCH   1   6
BRANCH   2  12
ATOM     12  C   UNL d   1       2.566   1.812   0.067  0.00  0.00    -0.023 A 
ATOM     13  C   UNL d   1       2.617   2.911  -0.804  0.00  0.00     0.012 A 
ATOM     14  C   UNL d   1       3.627   3.869  -0.680  0.00  0.00     0.001 A 
ATOM     15  C   UNL d   1       4.622   3.719   0.284  0.00  0.00     0.000 A 
ATOM     16  C   UNL d   1       4.609   2.608   1.123  0.00  0.00     0.001 A 
ATOM     17  C   UNL d   1       3.583   1.665   1.021  0.00  0.00     0.012 A 
ENDBRANCH   2  12
BRANCH   3  18
ATOM     18  C   UNL d   1      -0.525   2.553   0.072  0.00  0.00     0.424 C 
ATOM     19  F   UNL d   1       0.271   3.525   0.585  0.00  0.00    -0.166 F 
ATOM     20  F   UNL d   1      -0.910   2.976  -1.161  0.00  0.00    -0.166 F 
ATOM     21  F   UNL d   1      -1.643   2.547   0.848  0.00  0.00    -0.166 F 
ENDBRANCH   3  18
TORSDOF 4
