REMARK  2 active torsions:
REMARK  status: ('A' for Active; 'I' for Inactive)
REMARK    1  A    between atoms: C_2  and  C_1 
REMARK    2  A    between atoms: C_5  and  C_7 
ROOT
ATOM      1  C   UNL d   1       0.469   0.437   1.440  0.00  0.00     0.063 A 
ATOM      2  N   UNL d   1       0.205   2.186   3.091  0.00  0.00    -0.364 N 
ATOM      3  HN  UNL d   1       0.281   3.170   3.348  1.00  0.00     0.165 HD
ATOM      4  C   UNL d   1      -0.229   1.260   3.982  0.00  0.00     0.049 A 
ATOM      5  C   UNL d   1       0.534   1.760   1.849  0.00  0.00     0.104 A 
ATOM      6  C   UNL d   1       0.011  -0.499   2.369  0.00  0.00     0.020 A 
ATOM      7  C   UNL d   1      -0.343  -0.087   3.653  0.00  0.00     0.032 A 
ENDROOT
BRANCH   4   8
ATOM      8  C   UNL d   1      -0.494   1.792   5.329  0.00  0.00     0.031 A 
ATOM      9  S   UNL d   1      -1.590   1.020   6.406  0.00  0.00    -0.100 SA
ATOM     10  C   UNL d   1      -1.294   2.153   7.648  0.00  0.00     0.050 A 
ATOM     11  C   UNL d   1      -0.401   3.124   7.258  0.00  0.00     0.008 A 
ATOM     12  C   UNL d   1       0.044   2.925   5.919  0.00  0.00     0.021 A 
ENDBRANCH   4   8
BRANCH   1  13
ATOM     13  C   UNL d   1       0.901   0.030   0.065  0.00  0.00     0.418 C 
ATOM     14  F   UNL d   1       1.331   1.068  -0.704  0.00  0.00    -0.166 F 
ATOM     15  F   UNL d   1      -0.097  -0.569  -0.640  0.00  0.00    -0.166 F 
ATOM     16  F   UNL d   1       1.928  -0.864   0.090  0.00  0.00    -0.166 F 
ENDBRANCH   1  13
TORSDOF 2
