REMARK  3 active torsions:
REMARK  status: ('A' for Active; 'I' for Inactive)
REMARK    1  A    between atoms: C_7  and  C_1 
REMARK    2  A    between atoms: C_8  and  C_2 
REMARK    3  A    between atoms: N_9  and  C_5 
ROOT
ATOM      1  C   UNL d   1       1.675  -0.584  -0.140  0.00  0.00     0.147 A 
ATOM      2  C   UNL d   1       0.534  -1.451  -0.065  0.00  0.00     0.052 A 
ATOM      3  N   UNL d   1       1.302   0.712  -0.127  0.00  0.00    -0.292 N 
ATOM      4  HN  UNL d   1       1.903   1.535  -0.153  1.00  0.00     0.187 HD
ATOM      5  C   UNL d   1      -0.555  -0.592  -0.017  0.00  0.00     0.129 A 
ATOM      6  N   UNL d   1      -0.038   0.676  -0.072  0.00  0.00    -0.280 N 
ATOM      7  C   UNL d   1      -0.770   1.921  -0.068  0.00  0.00     0.179 C 
ENDROOT
BRANCH   2   8
ATOM      8  C   UNL d   1       0.433  -2.911  -0.042  0.00  0.00    -0.020 A 
ATOM      9  C   UNL d   1       1.312  -3.679   0.733  0.00  0.00     0.012 A 
ATOM     10  C   UNL d   1       1.236  -5.077   0.723  0.00  0.00     0.001 A 
ATOM     11  C   UNL d   1       0.258  -5.720  -0.030  0.00  0.00     0.000 A 
ATOM     12  C   UNL d   1      -0.637  -4.970  -0.788  0.00  0.00     0.001 A 
ATOM     13  C   UNL d   1      -0.539  -3.575  -0.805  0.00  0.00     0.012 A 
ENDBRANCH   2   8
BRANCH   1  14
ATOM     14  C   UNL d   1       3.137  -0.946  -0.223  0.00  0.00     0.434 C 
ATOM     15  F   UNL d   1       3.363  -2.242  -0.565  0.00  0.00    -0.165 F 
ATOM     16  F   UNL d   1       3.808  -0.201  -1.146  0.00  0.00    -0.165 F 
ATOM     17  F   UNL d   1       3.772  -0.752   0.967  0.00  0.00    -0.165 F 
ENDBRANCH   1  14
BRANCH   5  18
ATOM     18  N   UNL d   1      -1.887  -0.827   0.073  0.00  0.00    -0.384 N 
ATOM     19  H   UNL d   1      -2.220  -1.751   0.347  0.00  0.00     0.157 HD
ATOM     20  H   UNL d   1      -2.565  -0.093   0.266  0.00  0.00     0.157 HD
ENDBRANCH   5  18
TORSDOF 3
