REMARK  5 active torsions:
REMARK  status: ('A' for Active; 'I' for Inactive)
REMARK    1  A    between atoms: C_2  and  C_1 
REMARK       I    between atoms: N_7  and  C_2 
REMARK    2  A    between atoms: C_5  and  C_9 
REMARK    3  A    between atoms: C_14  and  N_7 
REMARK    4  A    between atoms: O_12  and  C_8 
REMARK    5  A    between atoms: C_11  and  O_12 
ROOT
ATOM      1  C   UNL d   1      -3.759   3.868   0.472  0.00  0.00     0.175 C 
ATOM      2  C   UNL d   1      -3.397   2.848  -0.410  0.00  0.00     0.087 C 
ATOM      3  N   UNL d   1      -3.118   5.068   0.501  0.00  0.00    -0.345 N 
ATOM      4  HN  UNL d   1      -3.336   5.766   1.212  1.00  0.00     0.167 HD
ATOM      5  C   UNL d   1      -2.471   3.146  -1.414  0.00  0.00     0.035 C 
ATOM      6  C   UNL d   1      -2.185   5.301  -0.445  0.00  0.00     0.090 C 
ATOM      7  C   UNL d   1      -1.850   4.390  -1.430  0.00  0.00     0.019 C 
ENDROOT
BRANCH   2   8
ATOM      8  N   UNL d   1      -3.921   1.545  -0.376  0.00  0.00    -0.319 N 
ATOM      9  C   UNL d   1      -3.500   0.484   0.417  0.00  0.00     0.258 C 
ATOM     10  O   UNL d   1      -3.734  -0.630  -0.058  0.00  0.00    -0.267 OA
ATOM     11  H   UNL d   1      -4.108   1.145  -1.291  0.00  0.00     0.169 HD
BRANCH   9  12
ATOM     12  C   UNL d   1      -2.821   0.590   1.754  0.00  0.00     0.054 C 
ATOM     13  C   UNL d   1      -2.816  -0.498   2.647  0.00  0.00     0.021 C 
ATOM     14  N   UNL d   1      -2.337  -0.410   3.926  0.00  0.00    -0.355 N 
ATOM     15  C   UNL d   1      -3.282  -1.881   2.283  0.00  0.00     0.069 C 
ATOM     16  C   UNL d   1      -1.790   0.757   4.356  0.00  0.00     0.117 C 
ATOM     17  HN  UNL d   1      -2.389  -1.214   4.551  1.00  0.00     0.166 HD
ATOM     18  C   UNL d   1      -1.642   1.829   3.492  0.00  0.00     0.035 C 
ATOM     19  C   UNL d   1      -2.136   1.728   2.190  0.00  0.00     0.021 C 
BRANCH  16  20
ATOM     20  C   UNL d   1      -1.339   0.906   5.802  0.00  0.00     0.432 C 
ATOM     21  F   UNL d   1      -1.449  -0.226   6.551  0.00  0.00    -0.165 F 
ATOM     22  F   UNL d   1      -0.033   1.294   5.904  0.00  0.00    -0.165 F 
ATOM     23  F   UNL d   1      -2.053   1.863   6.467  0.00  0.00    -0.165 F 
ENDBRANCH  16  20
ENDBRANCH   9  12
ENDBRANCH   2   8
BRANCH   1  24
ATOM     24  O   UNL d   1      -4.779   3.627   1.392  0.00  0.00    -0.291 OA
BRANCH  24  25
ATOM     25  C   UNL d   1      -5.425   4.727   1.911  0.00  0.00     0.084 A 
ATOM     26  C   UNL d   1      -5.703   4.762   3.270  0.00  0.00    -0.017 A 
ATOM     27  C   UNL d   1      -6.287   5.897   3.852  0.00  0.00    -0.043 A 
ATOM     28  C   UNL d   1      -5.385   3.727   4.298  0.00  0.00     0.042 C 
ATOM     29  C   UNL d   1      -6.406   5.742   5.335  0.00  0.00     0.040 C 
ATOM     30  C   UNL d   1      -6.620   7.016   3.090  0.00  0.00    -0.055 A 
ATOM     31  C   UNL d   1      -6.095   4.256   5.553  0.00  0.00     0.009 C 
ATOM     32  C   UNL d   1      -6.418   6.942   1.705  0.00  0.00     0.010 A 
ATOM     33  C   UNL d   1      -7.168   8.261   3.716  0.00  0.00     0.049 C 
ATOM     34  C   UNL d   1      -5.847   5.803   1.121  0.00  0.00     0.038 A 
ENDBRANCH  24  25
ENDBRANCH   1  24
TORSDOF 5
