REMARK  1 active torsions:
REMARK  status: ('A' for Active; 'I' for Inactive)
REMARK    1  A    between atoms: C_2  and  N_1 
ROOT
ATOM      1  C   UNL d   1       0.012   2.338  -0.151  0.00  0.00     0.063 A 
ATOM      2  C   UNL d   1       0.783   3.086  -1.063  0.00  0.00     0.040 A 
ATOM      3  C   UNL d   1       0.797   4.487  -1.004  0.00  0.00     0.045 A 
ATOM      4  C   UNL d   1      -0.769   3.034   0.789  0.00  0.00     0.033 A 
ATOM      5  C   UNL d   1       0.043   5.149  -0.040  0.00  0.00     0.035 A 
ATOM      6 BR   UNL d   1       1.679   2.305  -2.552  0.00  0.00    -0.049 Br
ATOM      7  C   UNL d   1      -0.744   4.431   0.853  0.00  0.00     0.026 A 
ATOM      8 CL   UNL d   1       0.061   6.867   0.028  0.00  0.00    -0.084 Cl
ENDROOT
BRANCH   1   9
ATOM      9  N   UNL d   1      -0.008   0.924  -0.144  0.00  0.00    -0.244 N 
ATOM     10  C   UNL d   1       1.109   0.138  -0.091  0.00  0.00     0.255 C 
ATOM     11  C   UNL d   1       0.650  -1.256  -0.023  0.00  0.00     0.080 C 
ATOM     12  O   UNL d   1       2.285   0.438   0.011  0.00  0.00    -0.268 OA
ATOM     13  C   UNL d   1      -0.678  -1.244   0.073  0.00  0.00     0.080 C 
ATOM     14  C   UNL d   1      -1.117   0.156   0.060  0.00  0.00     0.255 C 
ATOM     15  O   UNL d   1      -2.284   0.477   0.199  0.00  0.00    -0.268 OA
ENDBRANCH   1   9
TORSDOF 1
