REMARK  1 active torsions:
REMARK  status: ('A' for Active; 'I' for Inactive)
REMARK       I    between atoms: C_2  and  N_1 
REMARK    1  A    between atoms: C_4  and  N_1 
ROOT
ATOM      1  C   UNL d   1       0.323   0.846  -0.886  0.00  0.00     0.052 A 
ATOM      2  N   UNL d   1      -1.643   2.222  -1.392  0.00  0.00    -0.373 N 
ATOM      3  HN  UNL d   1      -2.569   2.559  -1.129  1.00  0.00     0.164 HD
ATOM      4  C   UNL d   1      -0.953   1.344  -0.607  0.00  0.00     0.117 A 
ATOM      5  C   UNL d   1      -1.046   2.622  -2.527  0.00  0.00     0.088 A 
ATOM      6  C   UNL d   1       0.900   1.314  -2.077  0.00  0.00     0.032 A 
ATOM      7  C   UNL d   1       0.213   2.200  -2.910  0.00  0.00     0.019 A 
ENDROOT
BRANCH   1   8
ATOM      8  N   UNL d   1       1.035  -0.072  -0.012  0.00  0.00    -0.321 N 
ATOM      9  C   UNL d   1       0.340  -0.897   0.880  0.00  0.00     0.220 C 
ATOM     10  O   UNL d   1      -0.893  -0.921   0.980  0.00  0.00    -0.274 OA
ATOM     11  C   UNL d   1       1.090  -1.868   1.766  0.00  0.00     0.117 C 
ATOM     12  C   UNL d   1       2.492  -0.102  -0.175  0.00  0.00     0.159 C 
ENDBRANCH   1   8
TORSDOF 1
