REMARK  4 active torsions:
REMARK  status: ('A' for Active; 'I' for Inactive)
REMARK    1  A    between atoms: C_5  and  C_1 
REMARK    2  A    between atoms: O_11  and  C_2 
REMARK    3  A    between atoms: N_10  and  C_5 
REMARK    4  A    between atoms: O_12  and  N_8 
ROOT
ATOM      1  C   UNL d   1       4.794  -0.096   0.031  0.00  0.00     0.038 A 
ATOM      2  C   UNL d   1       6.078  -0.667   0.009  0.00  0.00     0.088 A 
ATOM      3  C   UNL d   1       7.170   0.223   0.003  0.00  0.00    -0.017 A 
ATOM      4  C   UNL d   1       4.668   1.325   0.033  0.00  0.00     0.025 A 
ATOM      5  C   UNL d   1       7.029   1.613   0.007  0.00  0.00    -0.043 A 
ATOM      6  C   UNL d   1       5.775   2.193   0.018  0.00  0.00    -0.054 A 
ATOM      7  C   UNL d   1       8.617  -0.177   0.014  0.00  0.00     0.042 A 
ATOM      8  C   UNL d   1       8.359   2.300   0.031  0.00  0.00     0.040 A 
ATOM      9  C   UNL d   1       5.558   3.675   0.033  0.00  0.00     0.049 C 
ATOM     10  C   UNL d   1       9.371   1.153  -0.051  0.00  0.00     0.009 A 
ENDROOT
BRANCH   1  11
ATOM     11  C   UNL d   1       3.470  -0.807   0.068  0.00  0.00     0.111 C 
ATOM     12  N   UNL d   1       3.311  -1.867   0.811  0.00  0.00    -0.257 N 
ATOM     13  HN  UNL d   1       4.030  -2.259   1.418  1.00  0.00     0.195 HD
BRANCH  12  14
ATOM     14  O   UNL d   1       2.017  -2.398   0.666  0.00  0.00    -0.289 OA
ATOM     15  H   UNL d   1       2.049  -3.169   1.263  0.00  0.00     0.244 HD
ENDBRANCH  12  14
BRANCH  11  16
ATOM     16  N   UNL d   1       2.415  -0.288  -0.648  0.00  0.00    -0.286 NA
ATOM     17  H   UNL d   1       2.637   0.083  -1.565  0.00  0.00     0.125 HD
ATOM     18  H   UNL d   1       1.639  -0.946  -0.654  0.00  0.00     0.125 HD
ENDBRANCH  11  16
ENDBRANCH   1  11
BRANCH   2  19
ATOM     19  O   UNL d   1       6.524  -1.951  -0.047  0.00  0.00    -0.354 OA
ATOM     20  C   UNL d   1       5.668  -3.071  -0.014  0.00  0.00     0.210 C 
ENDBRANCH   2  19
TORSDOF 4
