REMARK  6 active torsions:
REMARK  status: ('A' for Active; 'I' for Inactive)
REMARK    1  A    between atoms: C_13  and  N_1 
REMARK       I    between atoms: C_8  and  N_9 
REMARK    2  A    between atoms: N_9  and  C_10 
REMARK    3  A    between atoms: C_17  and  C_13 
REMARK    4  A    between atoms: C_14  and  O_18 
REMARK    5  A    between atoms: C_22  and  C_17 
REMARK    6  A    between atoms: O_18  and  C_22 
ROOT
ATOM      1  C   UNL d   1       3.905   1.452  -0.114  0.00  0.00     0.047 C 
ENDROOT
BRANCH   1   2
ATOM      2  C   UNL d   1       3.332   0.038  -0.164  0.00  0.00     0.138 C 
BRANCH   2   3
ATOM      3  N   UNL d   1       1.883   0.047  -0.095  0.00  0.00    -0.280 N 
ATOM      4  C   UNL d   1       1.064   0.127  -1.190  0.00  0.00     0.261 A 
ATOM      5  C   UNL d   1      -0.306   0.147  -0.682  0.00  0.00     0.048 A 
ATOM      6  O   UNL d   1       1.356   0.176  -2.369  0.00  0.00    -0.267 OA
ATOM      7  C   UNL d   1      -1.513   0.217  -1.353  0.00  0.00     0.018 A 
ATOM      8  C   UNL d   1      -0.241   0.092   0.699  0.00  0.00     0.048 A 
ATOM      9  C   UNL d   1      -2.676   0.233  -0.577  0.00  0.00     0.001 A 
ATOM     10  C   UNL d   1      -2.608   0.181   0.832  0.00  0.00     0.001 A 
ATOM     11  C   UNL d   1      -1.374   0.108   1.487  0.00  0.00     0.018 A 
ATOM     12  C   UNL d   1       1.170   0.031   1.073  0.00  0.00     0.261 A 
ATOM     13  O   UNL d   1       1.580  -0.025   2.216  0.00  0.00    -0.267 OA
ENDBRANCH   2   3
ENDBRANCH   1   2
BRANCH   1  14
ATOM     14  C   UNL d   1       5.421   1.437  -0.228  0.00  0.00     0.177 C 
BRANCH  14  15
ATOM     15  O   UNL d   1       5.897   2.792  -0.191  0.00  0.00    -0.351 OA
BRANCH  15  16
ATOM     16  C   UNL d   1       7.261   2.911  -0.283  0.00  0.00     0.070 A 
ATOM     17  C   UNL d   1       8.066   1.998  -0.957  0.00  0.00     0.066 A 
ATOM     18  C   UNL d   1       9.455   2.103  -0.953  0.00  0.00     0.037 A 
ATOM     19  C   UNL d   1      10.042   3.222  -0.356  0.00  0.00     0.029 A 
ATOM     20  C   UNL d   1       9.237   4.181   0.275  0.00  0.00     0.005 A 
ATOM     21  C   UNL d   1       7.850   4.021   0.319  0.00  0.00     0.037 A 
BRANCH  18  22
ATOM     22  N   UNL d   1      10.273   1.101  -1.524  0.00  0.00    -0.327 N 
ATOM     23  C   UNL d   1       9.859  -0.198  -1.801  0.00  0.00     0.218 C 
ATOM     24  O   UNL d   1       8.752  -0.681  -1.587  0.00  0.00    -0.274 OA
ATOM     25  C   UNL d   1      10.937  -1.064  -2.397  0.00  0.00     0.117 C 
ATOM     26  H   UNL d   1      11.258   1.311  -1.598  0.00  0.00     0.169 HD
ENDBRANCH  18  22
ENDBRANCH  15  16
ENDBRANCH  14  15
ENDBRANCH   1  14
TORSDOF 6
