REMARK  4 active torsions:
REMARK  status: ('A' for Active; 'I' for Inactive)
REMARK    1  A    between atoms: S_14  and  C_5 
REMARK       I    between atoms: C_8  and  N_9 
REMARK       I    between atoms: N_13  and  C_8 
REMARK       I    between atoms: N_9  and  C_11 
REMARK    2  A    between atoms: C_11  and  C_20 
REMARK    3  A    between atoms: C_21  and  N_13 
REMARK    4  A    between atoms: C_20  and  S_14 
ROOT
ATOM      1  C   UNL d   1      -2.689   5.959  -0.935  0.00  0.00     0.327 C 
ATOM      2  N   UNL d   1      -1.892   5.244  -0.067  0.00  0.00    -0.278 N 
ATOM      3  C   UNL d   1      -2.244   4.662   1.133  0.00  0.00     0.235 C 
ATOM      4  N   UNL d   1      -3.857   6.445  -0.412  0.00  0.00    -0.309 N 
ATOM      5  O   UNL d   1      -2.297   6.066  -2.095  0.00  0.00    -0.247 OA
ATOM      6  O   UNL d   1      -3.213   5.045   1.794  0.00  0.00    -0.272 OA
ATOM      7  H   UNL d   1      -1.086   4.867  -0.546  0.00  0.00     0.173 HD
ATOM      8  H   UNL d   1      -3.995   6.271   0.582  0.00  0.00     0.170 HD
ENDROOT
BRANCH   3   9
ATOM      9  C   UNL d   1      -1.300   3.600   1.681  0.00  0.00     0.186 C 
BRANCH   9  10
ATOM     10  S   UNL d   1      -0.307   2.757   0.415  0.00  0.00    -0.075 SA
BRANCH  10  11
ATOM     11  C   UNL d   1       1.264   3.433   0.714  0.00  0.00     0.204 A 
ATOM     12  O   UNL d   1       2.418   2.716   0.571  0.00  0.00    -0.267 OA
ATOM     13  C   UNL d   1       3.389   3.637   0.893  0.00  0.00     0.182 A 
ATOM     14  N   UNL d   1       2.857   4.811   1.191  0.00  0.00    -0.276 N 
ATOM     15  C   UNL d   1       4.797   3.356   0.922  0.00  0.00     0.057 A 
ATOM     16  N   UNL d   1       1.486   4.678   1.074  0.00  0.00    -0.272 N 
ATOM     17  HN  UNL d   1       3.363   5.656   1.457  1.00  0.00     0.189 HD
ATOM     18  HN  UNL d   1       0.786   5.402   1.234  1.00  0.00     0.189 HD
ATOM     19  S   UNL d   1       5.401   1.774   0.647  0.00  0.00    -0.098 SA
ATOM     20  C   UNL d   1       5.827   4.246   1.168  0.00  0.00     0.024 A 
ATOM     21  C   UNL d   1       7.020   2.272   0.884  0.00  0.00     0.050 A 
ATOM     22  C   UNL d   1       7.110   3.620   1.151  0.00  0.00     0.009 A 
ENDBRANCH  10  11
ENDBRANCH   9  10
ENDBRANCH   3   9
BRANCH   4  23
ATOM     23  C   UNL d   1      -4.881   7.146  -1.086  0.00  0.00     0.036 A 
ATOM     24  C   UNL d   1      -4.869   7.410  -2.458  0.00  0.00     0.029 A 
ATOM     25  C   UNL d   1      -5.931   8.090  -3.064  0.00  0.00     0.002 A 
ATOM     26  C   UNL d   1      -7.015   8.517  -2.303  0.00  0.00     0.000 A 
ATOM     27  C   UNL d   1      -7.037   8.266  -0.934  0.00  0.00     0.002 A 
ATOM     28  C   UNL d   1      -5.977   7.582  -0.329  0.00  0.00     0.029 A 
ENDBRANCH   4  23
TORSDOF 4
