REMARK  3 active torsions:
REMARK  status: ('A' for Active; 'I' for Inactive)
REMARK    1  A    between atoms: N_7  and  C_1 
REMARK    2  A    between atoms: C_4  and  C_8 
REMARK    3  A    between atoms: C_9  and  N_7 
ROOT
ATOM      1  N   UNL d   1       0.998  -2.492   1.224  0.00  0.00    -0.358 N 
ATOM      2  H   UNL d   1       0.141  -2.812   1.668  0.00  0.00     0.162 HD
ENDROOT
BRANCH   1   3
ATOM      3  C   UNL d   1       0.791  -1.797  -0.028  0.00  0.00     0.266 A 
ATOM      4  O   UNL d   1       1.982  -1.068  -0.386  0.00  0.00    -0.287 OA
ATOM      5  C   UNL d   1       1.795   0.280  -0.323  0.00  0.00     0.296 A 
ATOM      6  O   UNL d   1       2.624   1.142  -0.533  0.00  0.00    -0.259 OA
ATOM      7  C   UNL d   1       0.381   0.494  -0.042  0.00  0.00     0.050 A 
ATOM      8  C   UNL d   1      -0.230  -0.732   0.115  0.00  0.00     0.007 A 
ATOM      9  C   UNL d   1      -0.314   1.689   0.016  0.00  0.00     0.018 A 
ATOM     10  C   UNL d   1      -1.600  -0.811   0.318  0.00  0.00     0.012 A 
ATOM     11  C   UNL d   1      -2.332   0.381   0.367  0.00  0.00     0.001 A 
ATOM     12  C   UNL d   1      -1.692   1.624   0.223  0.00  0.00     0.001 A 
ENDBRANCH   1   3
BRANCH   1  13
ATOM     13  C   UNL d   1       2.011  -3.458   1.330  0.00  0.00     0.052 A 
ATOM     14  C   UNL d   1       2.581  -3.756   2.586  0.00  0.00     0.061 A 
ATOM     15  C   UNL d   1       3.593  -4.715   2.722  0.00  0.00     0.042 A 
ATOM     16 CL   UNL d   1       2.069  -2.922   4.016  0.00  0.00    -0.082 Cl
ATOM     17  C   UNL d   1       4.045  -5.432   1.607  0.00  0.00     0.049 A 
ATOM     18  C   UNL d   1       3.455  -5.175   0.364  0.00  0.00     0.018 A 
ATOM     19  C   UNL d   1       2.456  -4.204   0.230  0.00  0.00     0.032 A 
BRANCH  17  20
ATOM     20  C   UNL d   1       5.132  -6.469   1.723  0.00  0.00     0.417 C 
ATOM     21  F   UNL d   1       5.654  -6.577   2.976  0.00  0.00    -0.166 F 
ATOM     22  F   UNL d   1       4.692  -7.715   1.392  0.00  0.00    -0.166 F 
ATOM     23  F   UNL d   1       6.185  -6.215   0.898  0.00  0.00    -0.166 F 
ENDBRANCH  17  20
ENDBRANCH   1  13
TORSDOF 3
