REMARK  4 active torsions:
REMARK  status: ('A' for Active; 'I' for Inactive)
REMARK    1  A    between atoms: C_15  and  C_8 
REMARK    2  A    between atoms: O_21  and  C_22 
REMARK    3  A    between atoms: C_23  and  O_21 
REMARK    4  A    between atoms: C_26  and  C_23 
ROOT
ATOM      1  C   UNL d   1      -1.258   0.649  -0.101  0.00  0.00     0.120 A 
ATOM      2  C   UNL d   1      -1.309  -0.698  -0.098  0.00  0.00     0.067 A 
ATOM      3  C   UNL d   1      -2.629  -1.371  -0.125  0.00  0.00     0.258 A 
ATOM      4  C   UNL d   1       1.219  -0.716  -0.149  0.00  0.00     0.024 C 
ATOM      5  N   UNL d   1      -2.422   1.369  -0.088  0.00  0.00    -0.319 N 
ATOM      6  N   UNL d   1      -3.718  -0.549  -0.014  0.00  0.00    -0.299 N 
ATOM      7  C   UNL d   1       1.181   0.630  -0.137  0.00  0.00     0.022 C 
ATOM      8  C   UNL d   1      -0.051  -1.556  -0.030  0.00  0.00     0.099 C 
ATOM      9  N   UNL d   1      -0.038   1.289  -0.091  0.00  0.00    -0.345 N 
ATOM     10  C   UNL d   1      -3.662   0.810  -0.026  0.00  0.00     0.180 A 
ATOM     11  C   UNL d   1       2.527  -1.428  -0.249  0.00  0.00     0.159 C 
ATOM     12  C   UNL d   1       2.429   1.484  -0.113  0.00  0.00     0.067 C 
ATOM     13  C   UNL d   1       3.658   0.737   0.454  0.00  0.00    -0.036 C 
ATOM     14  C   UNL d   1       3.796  -0.604  -0.282  0.00  0.00     0.092 C 
ATOM     15  S   UNL d   1      -5.034   1.746   0.030  0.00  0.00    -0.040 SA
ATOM     16  O   UNL d   1      -2.752  -2.583  -0.257  0.00  0.00    -0.267 OA
ATOM     17  O   UNL d   1       2.570  -2.648  -0.382  0.00  0.00    -0.293 OA
ATOM     18  C   UNL d   1       3.517   0.514   1.976  0.00  0.00     0.015 C 
ATOM     19  C   UNL d   1       4.926   1.577   0.219  0.00  0.00     0.015 C 
ATOM     20  H   UNL d   1      -2.379   2.380  -0.087  0.00  0.00     0.170 HD
ATOM     21  H   UNL d   1      -4.621  -1.000  -0.006  0.00  0.00     0.171 HD
ATOM     22  H   UNL d   1      -0.036   2.299  -0.116  0.00  0.00     0.167 HD
ENDROOT
BRANCH   8  23
ATOM     23  C   UNL d   1      -0.028  -2.333   1.290  0.00  0.00    -0.044 A 
ATOM     24  C   UNL d   1      -0.000  -3.736   1.307  0.00  0.00     0.011 A 
ATOM     25  C   UNL d   1      -0.004  -4.426   2.520  0.00  0.00     0.037 A 
ATOM     26  C   UNL d   1      -0.042  -3.723   3.724  0.00  0.00     0.069 A 
ATOM     27  C   UNL d   1      -0.009  -2.328   3.711  0.00  0.00     0.037 A 
ATOM     28  C   UNL d   1      -0.020  -1.639   2.506  0.00  0.00     0.011 A 
BRANCH  26  29
ATOM     29  O   UNL d   1      -0.122  -4.467   4.869  0.00  0.00    -0.347 OA
BRANCH  29  30
ATOM     30  C   UNL d   1      -0.701  -3.765   5.971  0.00  0.00     0.214 C 
BRANCH  30  31
ATOM     31  C   UNL d   1      -1.248  -4.747   6.967  0.00  0.00    -0.034 A 
ATOM     32  C   UNL d   1      -0.845  -4.713   8.307  0.00  0.00     0.009 A 
ATOM     33  C   UNL d   1      -1.393  -5.602   9.226  0.00  0.00     0.001 A 
ATOM     34  C   UNL d   1      -2.354  -6.525   8.814  0.00  0.00     0.000 A 
ATOM     35  C   UNL d   1      -2.771  -6.558   7.486  0.00  0.00     0.001 A 
ATOM     36  C   UNL d   1      -2.222  -5.670   6.565  0.00  0.00     0.009 A 
ENDBRANCH  30  31
ENDBRANCH  29  30
ENDBRANCH  26  29
ENDBRANCH   8  23
TORSDOF 4
