REMARK  4 active torsions:
REMARK  status: ('A' for Active; 'I' for Inactive)
REMARK    1  A    between atoms: C_4  and  C_1 
REMARK    2  A    between atoms: C_12  and  C_7 
REMARK    3  A    between atoms: O_13  and  C_10 
REMARK    4  A    between atoms: O_14  and  C_11 
ROOT
ATOM      1  C   UNL d   1      -1.605   1.679  -0.024  0.00  0.00     0.027 C 
ATOM      2  N   UNL d   1      -0.368   1.660  -0.412  0.00  0.00    -0.358 N 
ATOM      3  HN  UNL d   1      -0.065   2.361  -1.088  1.00  0.00     0.166 HD
ATOM      4  S   UNL d   1      -1.137  -1.502  -0.337  0.00  0.00    -0.118 SA
ATOM      5  C   UNL d   1      -2.111   0.777   1.104  0.00  0.00     0.078 C 
ATOM      6  C   UNL d   1      -2.404  -0.668   0.698  0.00  0.00     0.091 C 
ATOM      7  C   UNL d   1       0.581   0.728   0.046  0.00  0.00     0.049 A 
ATOM      8  C   UNL d   1       0.380  -0.667   0.123  0.00  0.00     0.028 A 
ATOM      9  C   UNL d   1       1.876   1.232   0.240  0.00  0.00     0.031 A 
ATOM     10  C   UNL d   1       1.469  -1.507   0.415  0.00  0.00     0.021 A 
ATOM     11  C   UNL d   1       2.953   0.388   0.510  0.00  0.00     0.002 A 
ATOM     12  C   UNL d   1       2.748  -0.983   0.605  0.00  0.00     0.002 A 
ENDROOT
BRANCH   1  13
ATOM     13  C   UNL d   1      -2.565   2.600  -0.731  0.00  0.00     0.053 C 
ATOM     14  C   UNL d   1      -3.601   3.223  -0.004  0.00  0.00     0.080 C 
ATOM     15  C   UNL d   1      -4.641   3.909  -0.634  0.00  0.00     0.037 C 
ATOM     16  C   UNL d   1      -4.628   4.067  -2.010  0.00  0.00     0.005 C 
ATOM     17  C   UNL d   1      -3.547   3.578  -2.738  0.00  0.00     0.038 C 
ATOM     18  C   UNL d   1      -2.509   2.853  -2.122  0.00  0.00     0.083 C 
BRANCH  14  19
ATOM     19  O   UNL d   1      -3.625   3.310   1.365  0.00  0.00    -0.360 OA
ATOM     20  H   UNL d   1      -2.705   3.406   1.671  0.00  0.00     0.217 HD
ENDBRANCH  14  19
BRANCH  18  21
ATOM     21  O   UNL d   1      -1.470   2.647  -2.991  0.00  0.00    -0.355 OA
ATOM     22  C   UNL d   1      -0.919   1.349  -3.139  0.00  0.00     0.210 C 
ENDBRANCH  18  21
ENDBRANCH   1  13
BRANCH   6  23
ATOM     23  C   UNL d   1      -3.801  -0.829   0.099  0.00  0.00    -0.044 A 
ATOM     24  C   UNL d   1      -4.856  -1.320   0.889  0.00  0.00     0.008 A 
ATOM     25  C   UNL d   1      -6.138  -1.478   0.355  0.00  0.00     0.001 A 
ATOM     26  C   UNL d   1      -6.393  -1.140  -0.972  0.00  0.00     0.000 A 
ATOM     27  C   UNL d   1      -5.368  -0.635  -1.764  0.00  0.00     0.001 A 
ATOM     28  C   UNL d   1      -4.089  -0.486  -1.228  0.00  0.00     0.008 A 
ENDBRANCH   6  23
TORSDOF 4
