REMARK  4 active torsions:
REMARK  status: ('A' for Active; 'I' for Inactive)
REMARK    1  A    between atoms: C_7  and  C_1 
REMARK    2  A    between atoms: C_8  and  C_4 
REMARK    3  A    between atoms: O_13  and  C_11 
REMARK    4  A    between atoms: O_14  and  C_12 
ROOT
ATOM      1  C   UNL d   1      -1.648   1.804   0.106  0.00  0.00     0.024 C 
ATOM      2  N   UNL d   1      -0.515   1.617  -0.487  0.00  0.00    -0.358 N 
ATOM      3  HN  UNL d   1      -0.343   2.121  -1.357  1.00  0.00     0.166 HD
ATOM      4  C   UNL d   1      -2.479  -0.416   0.972  0.00  0.00     0.093 C 
ATOM      5  S   UNL d   1      -1.128  -1.560   0.407  0.00  0.00    -0.118 SA
ATOM      6  C   UNL d   1      -2.101   1.020   1.315  0.00  0.00     0.078 C 
ATOM      7  C   UNL d   1       0.499   0.759  -0.008  0.00  0.00     0.049 A 
ATOM      8  C   UNL d   1       0.365  -0.597   0.325  0.00  0.00     0.028 A 
ATOM      9  C   UNL d   1       1.799   1.315  -0.002  0.00  0.00     0.031 A 
ATOM     10  C   UNL d   1       1.528  -1.369   0.544  0.00  0.00     0.021 A 
ATOM     11  C   UNL d   1       2.803  -0.811   0.497  0.00  0.00     0.002 A 
ATOM     12  C   UNL d   1       2.939   0.544   0.249  0.00  0.00     0.002 A 
ENDROOT
BRANCH   1  13
ATOM     13  C   UNL d   1      -2.542   2.897  -0.431  0.00  0.00     0.020 A 
ATOM     14  C   UNL d   1      -2.523   3.222  -1.796  0.00  0.00     0.077 A 
ATOM     15  C   UNL d   1      -3.227   4.332  -2.279  0.00  0.00     0.037 A 
ATOM     16  C   UNL d   1      -3.970   5.115  -1.403  0.00  0.00     0.003 A 
ATOM     17  C   UNL d   1      -4.035   4.784  -0.054  0.00  0.00     0.001 A 
ATOM     18  C   UNL d   1      -3.316   3.682   0.435  0.00  0.00     0.016 A 
BRANCH  14  19
ATOM     19  O   UNL d   1      -1.836   2.490  -2.729  0.00  0.00    -0.360 OA
ATOM     20  H   UNL d   1      -1.277   1.851  -2.242  0.00  0.00     0.217 HD
ENDBRANCH  14  19
ENDBRANCH   1  13
BRANCH   4  21
ATOM     21  C   UNL d   1      -3.716  -0.603   0.090  0.00  0.00    -0.010 C 
ATOM     22  C   UNL d   1      -5.032  -0.813   0.542  0.00  0.00     0.075 C 
ATOM     23  C   UNL d   1      -6.015  -1.238  -0.377  0.00  0.00     0.037 C 
ATOM     24  C   UNL d   1      -5.745  -1.404  -1.731  0.00  0.00     0.003 C 
ATOM     25  C   UNL d   1      -4.493  -1.070  -2.210  0.00  0.00     0.001 C 
ATOM     26  C   UNL d   1      -3.505  -0.660  -1.316  0.00  0.00     0.011 C 
BRANCH  22  27
ATOM     27  O   UNL d   1      -5.607  -0.606   1.761  0.00  0.00    -0.355 OA
ATOM     28  C   UNL d   1      -4.892  -0.696   2.972  0.00  0.00     0.210 C 
ENDBRANCH  22  27
ENDBRANCH   4  21
TORSDOF 4
