REMARK  2 active torsions:
REMARK  status: ('A' for Active; 'I' for Inactive)
REMARK    1  A    between atoms: C_3  and  C_1 
REMARK    2  A    between atoms: O_14  and  C_3 
ROOT
ATOM      1  C   UNL d   1       0.745   0.784   1.144  0.00  0.00     0.048 C 
ATOM      2  C   UNL d   1      -1.514   0.286   0.110  0.00  0.00     0.039 C 
ATOM      3  C   UNL d   1      -0.777   1.042   1.235  0.00  0.00     0.046 C 
ATOM      4  C   UNL d   1       0.983  -0.746   1.263  0.00  0.00     0.025 C 
ATOM      5  C   UNL d   1       1.259   1.243  -0.239  0.00  0.00     0.025 C 
ATOM      6  C   UNL d   1       0.251  -1.505   0.146  0.00  0.00    -0.011 C 
ATOM      7  C   UNL d   1       0.523   0.490  -1.364  0.00  0.00    -0.011 C 
ATOM      8  C   UNL d   1      -1.257  -1.224   0.250  0.00  0.00     0.030 C 
ATOM      9  C   UNL d   1      -0.987   0.766  -1.257  0.00  0.00     0.030 C 
ATOM     10  C   UNL d   1       0.771  -1.019  -1.216  0.00  0.00     0.009 C 
ATOM     11 CL   UNL d   1      -3.267   0.613   0.223  0.00  0.00    -0.119 Cl
ENDROOT
BRANCH   1  12
ATOM     12  C   UNL d   1       1.492   1.496   2.274  0.00  0.00     0.148 C 
ATOM     13  O   UNL d   1       2.175   0.926   3.110  0.00  0.00    -0.649 OA
BRANCH  12  14
ATOM     14  O   UNL d   1       1.347   2.840   2.292  0.00  0.00    -0.776 OA
ATOM     15  H   UNL d   1       0.784   3.218   1.593  0.00  0.00     0.167 HD
ENDBRANCH  12  14
ENDBRANCH   1  12
TORSDOF 2
