REMARK  4 active torsions:
REMARK  status: ('A' for Active; 'I' for Inactive)
REMARK       I    between atoms: C_2  and  N_1 
REMARK    1  A    between atoms: C_3  and  N_1 
REMARK    2  A    between atoms: C_17  and  N_1 
REMARK    3  A    between atoms: C_6  and  C_2 
REMARK    4  A    between atoms: C_4  and  C_7 
ROOT
ATOM      1  N   UNL d   1       0.912  -0.101  -0.071  0.00  0.00    -0.313 N 
ATOM      2  C   UNL d   1       0.238  -1.183   0.529  0.00  0.00     0.258 C 
ATOM      3  O   UNL d   1       0.857  -2.135   1.015  0.00  0.00    -0.267 OA
ENDROOT
BRANCH   1   4
ATOM      4  C   UNL d   1       0.314   1.122  -0.503  0.00  0.00     0.048 A 
ATOM      5  C   UNL d   1      -0.516   1.925   0.332  0.00  0.00     0.001 A 
ATOM      6  C   UNL d   1      -1.249   2.980  -0.268  0.00  0.00    -0.024 A 
ATOM      7  C   UNL d   1      -0.660   1.742   1.729  0.00  0.00     0.014 A 
ATOM      8  C   UNL d   1      -2.147   3.739   0.500  0.00  0.00     0.012 A 
ATOM      9  C   UNL d   1      -1.089   3.260  -1.633  0.00  0.00     0.012 A 
ATOM     10  C   UNL d   1      -2.307   3.496   1.863  0.00  0.00     0.001 A 
ATOM     11  C   UNL d   1      -1.552   2.510   2.482  0.00  0.00     0.001 A 
ATOM     12  C   UNL d   1      -0.216   2.519  -2.420  0.00  0.00     0.003 A 
ATOM     13  C   UNL d   1       0.484   1.456  -1.858  0.00  0.00     0.031 A 
ENDBRANCH   1   4
BRANCH   1  14
ATOM     14  C   UNL d   1       2.380  -0.175  -0.148  0.00  0.00     0.128 C 
ATOM     15  C   UNL d   1       3.048   0.371   1.110  0.00  0.00     0.027 C 
ENDBRANCH   1  14
BRANCH   2  16
ATOM     16  C   UNL d   1      -1.258  -1.250   0.623  0.00  0.00     0.032 A 
ATOM     17  C   UNL d   1      -2.138  -0.691  -0.308  0.00  0.00     0.018 A 
ATOM     18  C   UNL d   1      -3.514  -0.652  -0.050  0.00  0.00     0.017 A 
ATOM     19  C   UNL d   1      -4.043  -1.243   1.107  0.00  0.00     0.048 A 
ATOM     20  C   UNL d   1      -3.173  -1.912   1.977  0.00  0.00     0.017 A 
ATOM     21  C   UNL d   1      -1.796  -1.912   1.739  0.00  0.00     0.018 A 
BRANCH  19  22
ATOM     22  C   UNL d   1      -5.517  -1.127   1.409  0.00  0.00     0.417 C 
ATOM     23  F   UNL d   1      -5.904  -1.830   2.511  0.00  0.00    -0.166 F 
ATOM     24  F   UNL d   1      -5.900   0.160   1.638  0.00  0.00    -0.166 F 
ATOM     25  F   UNL d   1      -6.299  -1.573   0.388  0.00  0.00    -0.166 F 
ENDBRANCH  19  22
ENDBRANCH   2  16
TORSDOF 4
