REMARK  1 active torsions:
REMARK  status: ('A' for Active; 'I' for Inactive)
REMARK    1  A    between atoms: C_10  and  N_1 
ROOT
ATOM      1  N   UNL d   1       2.182  -0.657  -0.131  0.00  0.00    -0.254 N 
ATOM      2  C   UNL d   1       2.205   0.754  -0.118  0.00  0.00     0.187 A 
ATOM      3  C   UNL d   1       1.000  -1.432  -0.069  0.00  0.00     0.270 A 
ATOM      4  N   UNL d   1       0.928   1.411   0.009  0.00  0.00    -0.317 N 
ATOM      5  C   UNL d   1      -0.211  -0.675   0.044  0.00  0.00     0.095 A 
ATOM      6  C   UNL d   1      -0.225   0.683   0.081  0.00  0.00     0.139 A 
ATOM      7  N   UNL d   1      -2.369   0.022   0.236  0.00  0.00    -0.309 N 
ATOM      8  HN  UNL d   1      -3.386   0.036   0.318  1.00  0.00     0.186 HD
ATOM      9  N   UNL d   1      -1.527   1.072   0.187  0.00  0.00    -0.285 N 
ATOM     10  S   UNL d   1       3.517   1.788  -0.300  0.00  0.00    -0.040 SA
ATOM     11  C   UNL d   1      -1.563  -1.044   0.152  0.00  0.00     0.128 A 
ATOM     12  O   UNL d   1       0.956  -2.657  -0.081  0.00  0.00    -0.266 OA
ATOM     13  H   UNL d   1       0.916   2.427   0.015  0.00  0.00     0.170 HD
ATOM     14  H   UNL d   1      -1.920   2.006   0.232  0.00  0.00     0.188 HD
ENDROOT
BRANCH   1  15
ATOM     15  C   UNL d   1       3.407  -1.399  -0.218  0.00  0.00     0.045 A 
ATOM     16  C   UNL d   1       3.615  -2.293  -1.280  0.00  0.00     0.032 A 
ATOM     17  C   UNL d   1       4.802  -3.026  -1.367  0.00  0.00     0.026 A 
ATOM     18  C   UNL d   1       5.777  -2.888  -0.382  0.00  0.00     0.034 A 
ATOM     19  C   UNL d   1       5.577  -2.017   0.687  0.00  0.00     0.026 A 
ATOM     20 CL   UNL d   1       7.229  -3.803  -0.480  0.00  0.00    -0.084 Cl
ATOM     21  C   UNL d   1       4.396  -1.273   0.771  0.00  0.00     0.032 A 
ENDBRANCH   1  15
TORSDOF 1
