REMARK  0 active torsions:
REMARK  status: ('A' for Active; 'I' for Inactive)
REMARK       I    between atoms: C_2  and  N_1 
REMARK       I    between atoms: N_11  and  C_2 
ROOT
ATOM      1  N   UNL d   1       0.664   1.500   0.713  0.00  0.00    -0.293 N 
ATOM      2  C   UNL d   1       0.884   2.143   1.935  0.00  0.00     0.323 C 
ATOM      3  C   UNL d   1       1.707   1.594  -0.308  0.00  0.00     0.099 C 
ATOM      4  N   UNL d   1       1.044  -1.356  -0.155  0.00  0.00    -0.325 N 
ATOM      5  C   UNL d   1       2.316  -0.912  -0.287  0.00  0.00     0.224 C 
ATOM      6  C   UNL d   1      -0.400   0.603   0.463  0.00  0.00     0.066 A 
ATOM      7  C   UNL d   1       2.749   0.515  -0.100  0.00  0.00     0.128 C 
ATOM      8  C   UNL d   1      -0.194  -0.728   0.070  0.00  0.00     0.062 A 
ATOM      9  O   UNL d   1       1.819   2.924   2.114  0.00  0.00    -0.247 OA
ATOM     10  O   UNL d   1       3.173  -1.766  -0.550  0.00  0.00    -0.273 OA
ATOM     11  N   UNL d   1       0.029   1.812   2.962  0.00  0.00    -0.347 N 
ATOM     12  C   UNL d   1       1.177   1.690  -1.745  0.00  0.00     0.033 C 
ATOM     13  C   UNL d   1      -1.710   1.109   0.552  0.00  0.00     0.032 A 
ATOM     14  C   UNL d   1      -1.319  -1.548  -0.129  0.00  0.00     0.032 A 
ATOM     15  C   UNL d   1       0.180   2.329   4.298  0.00  0.00     0.151 C 
ATOM     16  C   UNL d   1      -2.811   0.299   0.285  0.00  0.00     0.002 A 
ATOM     17  C   UNL d   1      -2.615  -1.038  -0.036  0.00  0.00     0.002 A 
ATOM     18  H   UNL d   1       1.012  -2.351  -0.347  0.00  0.00     0.169 HD
ATOM     19  H   UNL d   1      -0.659   1.095   2.810  0.00  0.00     0.163 HD
ENDROOT
TORSDOF 0
