REMARK  1 active torsions:
REMARK  status: ('A' for Active; 'I' for Inactive)
REMARK    1  A    between atoms: C_3  and  C_1 
ROOT
ATOM      1  C   UNL d   1       2.069   0.066  -0.030  0.00  0.00     0.023 A 
ATOM      2  S   UNL d   1       0.692   1.093   0.027  0.00  0.00    -0.078 SA
ATOM      3  C   UNL d   1      -0.396  -0.222   0.033  0.00  0.00     0.086 A 
ATOM      4  C   UNL d   1       1.685  -1.264  -0.021  0.00  0.00     0.022 A 
ATOM      5  N   UNL d   1      -2.970   0.046   0.069  0.00  0.00    -0.191 NA
ATOM      6  C   UNL d   1      -1.815  -0.065   0.054  0.00  0.00     0.107 C 
ATOM      7  C   UNL d   1       0.268  -1.431   0.015  0.00  0.00     0.031 A 
ENDROOT
BRANCH   1   8
ATOM      8  C   UNL d   1       3.411   0.603  -0.093  0.00  0.00     0.021 A 
ATOM      9  S   UNL d   1       4.692  -0.270  -0.839  0.00  0.00    -0.101 SA
ATOM     10  C   UNL d   1       5.819   0.979  -0.545  0.00  0.00     0.050 A 
ATOM     11  C   UNL d   1       5.249   2.040   0.121  0.00  0.00     0.008 A 
ATOM     12  C   UNL d   1       3.864   1.823   0.381  0.00  0.00     0.021 A 
ENDBRANCH   1   8
TORSDOF 1
