REMARK  2 active torsions:
REMARK  status: ('A' for Active; 'I' for Inactive)
REMARK    1  A    between atoms: C_11  and  C_3 
REMARK    2  A    between atoms: C_9  and  C_11 
ROOT
ATOM      1  N   UNL d   1      -0.965  -0.991  -1.843  0.00  0.00    -0.309 N 
ATOM      2  HN  UNL d   1      -1.294  -1.656  -2.543  1.00  0.00     0.170 HD
ATOM      3  C   UNL d   1      -1.368  -0.841  -0.535  0.00  0.00     0.109 A 
ATOM      4  C   UNL d   1      -0.053  -0.061  -1.958  0.00  0.00     0.242 A 
ATOM      5  N   UNL d   1      -0.763   0.156   0.127  0.00  0.00    -0.245 N 
ATOM      6  HN  UNL d   1      -0.913   0.463   1.088  1.00  0.00     0.196 HD
ATOM      7  O   UNL d   1       0.124   0.671  -0.822  0.00  0.00    -0.200 OA
ATOM      8  N   UNL d   1       0.714   0.232  -3.013  0.00  0.00    -0.364 N 
ATOM      9  H   UNL d   1       0.801  -0.496  -3.712  0.00  0.00     0.159 HD
ATOM     10  H   UNL d   1       1.572   0.738  -2.833  0.00  0.00     0.159 HD
ENDROOT
BRANCH   3  11
ATOM     11  C   UNL d   1      -2.446  -1.657   0.080  0.00  0.00     0.120 C 
BRANCH  11  12
ATOM     12  C   UNL d   1      -1.969  -3.088   0.071  0.00  0.00    -0.012 A 
ATOM     13  C   UNL d   1      -1.188  -3.584   1.123  0.00  0.00     0.126 A 
ATOM     14  C   UNL d   1      -0.737  -4.899   1.135  0.00  0.00     0.085 A 
ATOM     15  F   UNL d   1      -0.871  -2.785   2.151  0.00  0.00    -0.205 F 
ATOM     16  C   UNL d   1      -1.071  -5.733   0.078  0.00  0.00     0.119 A 
ATOM     17  C   UNL d   1      -1.843  -5.272  -0.984  0.00  0.00     0.043 A 
ATOM     18  F   UNL d   1      -0.643  -7.002   0.078  0.00  0.00    -0.206 F 
ATOM     19  C   UNL d   1      -2.292  -3.950  -0.990  0.00  0.00     0.013 A 
ENDBRANCH  11  12
ENDBRANCH   3  11
TORSDOF 2
