REMARK  4 active torsions:
REMARK  status: ('A' for Active; 'I' for Inactive)
REMARK    1  A    between atoms: C_4  and  C_1 
REMARK    2  A    between atoms: N_5  and  C_1 
REMARK    3  A    between atoms: O_6  and  N_2 
REMARK    4  A    between atoms: C_7  and  C_4 
ROOT
ATOM      1  C   UNL d   1       1.002  -0.781  -0.430  0.00  0.00     0.079 C 
ATOM      2  N   UNL d   1       1.920   0.119  -0.644  0.00  0.00    -0.262 N 
ATOM      3  HN  UNL d   1       2.221   0.815   0.039  1.00  0.00     0.195 HD
ENDROOT
BRANCH   1   4
ATOM      4  C   UNL d   1       0.323  -0.801   0.933  0.00  0.00     0.110 C 
BRANCH   4   5
ATOM      5  C   UNL d   1      -1.179  -0.654   0.855  0.00  0.00    -0.052 A 
ATOM      6  C   UNL d   1      -2.005  -1.786   0.802  0.00  0.00     0.007 A 
ATOM      7  C   UNL d   1      -3.391  -1.647   0.719  0.00  0.00     0.001 A 
ATOM      8  C   UNL d   1      -3.965  -0.378   0.694  0.00  0.00     0.000 A 
ATOM      9  C   UNL d   1      -3.153   0.754   0.745  0.00  0.00     0.001 A 
ATOM     10  C   UNL d   1      -1.766   0.618   0.818  0.00  0.00     0.007 A 
ENDBRANCH   4   5
ENDBRANCH   1   4
BRANCH   1  11
ATOM     11  N   UNL d   1       0.642  -1.719  -1.369  0.00  0.00    -0.290 NA
ATOM     12  H   UNL d   1       1.021  -1.461  -2.276  0.00  0.00     0.125 HD
ATOM     13  H   UNL d   1      -0.352  -1.920  -1.409  0.00  0.00     0.125 HD
ENDBRANCH   1  11
BRANCH   2  14
ATOM     14  O   UNL d   1       2.439  -0.002  -1.944  0.00  0.00    -0.289 OA
ATOM     15  H   UNL d   1       3.151   0.665  -1.940  0.00  0.00     0.244 HD
ENDBRANCH   2  14
TORSDOF 4
