REMARK  4 active torsions:
REMARK  status: ('A' for Active; 'I' for Inactive)
REMARK    1  A    between atoms: C_7  and  N_1 
REMARK    2  A    between atoms: C_5  and  C_2 
REMARK    3  A    between atoms: O_16  and  C_5 
REMARK    4  A    between atoms: C_12  and  C_7 
ROOT
ATOM      1  N   UNL d   1      -0.014  -1.015  -0.027  0.00  0.00    -0.347 N 
ATOM      2  C   UNL d   1      -1.578   0.693  -0.285  0.00  0.00     0.110 C 
ATOM      3  C   UNL d   1       0.724   0.150  -0.016  0.00  0.00     0.221 C 
ATOM      4  C   UNL d   1      -1.430  -0.775   0.098  0.00  0.00     0.141 C 
ATOM      5  C   UNL d   1      -0.233   1.310   0.091  0.00  0.00     0.119 C 
ATOM      6  O   UNL d   1       1.939   0.253  -0.048  0.00  0.00    -0.273 OA
ENDROOT
BRANCH   1   7
ATOM      7  C   UNL d   1       0.556  -2.346  -0.111  0.00  0.00     0.164 C 
BRANCH   7   8
ATOM      8  C   UNL d   1       0.867  -2.958   1.235  0.00  0.00    -0.038 A 
ATOM      9  C   UNL d   1       0.151  -4.075   1.697  0.00  0.00     0.035 A 
ATOM     10  C   UNL d   1       0.500  -4.684   2.906  0.00  0.00     0.073 A 
ATOM     11 CL   UNL d   1      -0.372  -6.072   3.436  0.00  0.00    -0.081 Cl
ATOM     12  C   UNL d   1       1.554  -4.178   3.663  0.00  0.00     0.138 A 
ATOM     13  C   UNL d   1       2.263  -3.064   3.228  0.00  0.00     0.044 A 
ATOM     14  F   UNL d   1       1.911  -4.758   4.819  0.00  0.00    -0.204 F 
ATOM     15  C   UNL d   1       1.921  -2.458   2.018  0.00  0.00     0.012 A 
ENDBRANCH   7   8
ENDBRANCH   1   7
BRANCH   2  16
ATOM     16  C   UNL d   1      -1.859   0.863  -1.766  0.00  0.00     0.145 C 
ATOM     17  O   UNL d   1      -1.954  -0.050  -2.570  0.00  0.00    -0.650 OA
BRANCH  16  18
ATOM     18  O   UNL d   1      -2.047   2.153  -2.130  0.00  0.00    -0.776 OA
ATOM     19  H   UNL d   1      -1.977   2.809  -1.412  0.00  0.00     0.167 HD
ENDBRANCH  16  18
ENDBRANCH   2  16
TORSDOF 4
