REMARK  4 active torsions:
REMARK  status: ('A' for Active; 'I' for Inactive)
REMARK    1  A    between atoms: N_6  and  C_1 
REMARK    2  A    between atoms: C_3  and  C_2 
REMARK       I    between atoms: N_8  and  C_3 
REMARK    3  A    between atoms: C_7  and  C_17 
REMARK    4  A    between atoms: C_17  and  N_8 
ROOT
ATOM      1  C   UNL d   1      -0.531  -1.305  -0.064  0.00  0.00     0.082 A 
ATOM      2  C   UNL d   1       0.586   1.246   0.049  0.00  0.00     0.047 A 
ATOM      3  N   UNL d   1      -1.348  -0.230  -0.054  0.00  0.00    -0.356 N 
ATOM      4  HN  UNL d   1      -2.361  -0.341  -0.081  1.00  0.00     0.166 HD
ATOM      5  C   UNL d   1      -0.779   1.011  -0.008  0.00  0.00     0.106 A 
ATOM      6  C   UNL d   1       1.411   0.125   0.066  0.00  0.00     0.022 A 
ATOM      7  C   UNL d   1       0.854  -1.147   0.009  0.00  0.00     0.043 A 
ENDROOT
BRANCH   2   8
ATOM      8  C   UNL d   1       1.234   2.584   0.098  0.00  0.00     0.253 C 
ATOM      9  N   UNL d   1       0.464   3.714  -0.068  0.00  0.00    -0.353 N 
ATOM     10  H   UNL d   1      -0.544   3.686  -0.094  0.00  0.00     0.163 HD
ATOM     11  O   UNL d   1       2.449   2.649   0.271  0.00  0.00    -0.268 OA
BRANCH   9  12
ATOM     12  C   UNL d   1       1.096   5.015   0.009  0.00  0.00     0.162 C 
BRANCH  12  13
ATOM     13  C   UNL d   1       0.288   6.008  -0.761  0.00  0.00    -0.034 A 
ATOM     14  C   UNL d   1      -0.255   7.165  -0.230  0.00  0.00     0.058 A 
ATOM     15  S   UNL d   1      -1.078   8.110  -1.393  0.00  0.00    -0.113 SA
ATOM     16  C   UNL d   1      -0.716   6.995  -2.635  0.00  0.00     0.050 A 
ATOM     17  C   UNL d   1       0.013   5.924  -2.168  0.00  0.00     0.016 A 
ENDBRANCH  12  13
ENDBRANCH   9  12
ENDBRANCH   2   8
BRANCH   1  18
ATOM     18  N   UNL d   1      -1.037  -2.606  -0.093  0.00  0.00    -0.265 NA
ATOM     19  C   UNL d   1      -2.458  -2.768   0.251  0.00  0.00     0.123 C 
ATOM     20  C   UNL d   1      -2.733  -4.275   0.440  0.00  0.00     0.182 C 
ATOM     21  O   UNL d   1      -2.394  -5.031  -0.742  0.00  0.00    -0.389 OA
ATOM     22  C   UNL d   1      -1.011  -4.838  -1.086  0.00  0.00     0.182 C 
ATOM     23  C   UNL d   1      -0.695  -3.353  -1.320  0.00  0.00     0.123 C 
ENDBRANCH   1  18
TORSDOF 4
