REMARK  7 active torsions:
REMARK  status: ('A' for Active; 'I' for Inactive)
REMARK    1  A    between atoms: C_6  and  N_1 
REMARK    2  A    between atoms: C_5  and  N_2 
REMARK    3  A    between atoms: C_4  and  C_3 
REMARK    4  A    between atoms: C_11  and  C_5 
REMARK    5  A    between atoms: C_10  and  C_6 
REMARK    6  A    between atoms: O_27  and  C_14 
REMARK    7  A    between atoms: O_26  and  C_15 
ROOT
ATOM      1  N   UNL d   1      -1.244   0.660  -0.266  0.00  0.00     0.131 N 
ATOM      2  N   UNL d   1       1.224   0.725  -0.291  0.00  0.00     0.131 N 
ATOM      3  C   UNL d   1      -0.027   1.419   0.122  0.00  0.00     0.490 C 
ATOM      4  C   UNL d   1      -1.207  -0.702   0.310  0.00  0.00     0.278 C 
ATOM      5  C   UNL d   1       1.276  -0.598   0.348  0.00  0.00     0.278 C 
ATOM      6  C   UNL d   1       0.075  -1.452  -0.017  0.00  0.00     0.061 C 
ENDROOT
BRANCH   1   7
ATOM      7  C   UNL d   1      -2.460   1.360   0.227  0.00  0.00     0.314 C 
BRANCH   7   8
ATOM      8  C   UNL d   1      -3.759   0.649  -0.091  0.00  0.00    -0.030 A 
ATOM      9  C   UNL d   1      -4.577   0.169   0.941  0.00  0.00     0.011 A 
ATOM     10  C   UNL d   1      -5.759  -0.519   0.651  0.00  0.00     0.037 A 
ATOM     11  C   UNL d   1      -6.137  -0.734  -0.676  0.00  0.00     0.068 A 
ATOM     12  C   UNL d   1      -5.334  -0.237  -1.705  0.00  0.00     0.037 A 
ATOM     13  C   UNL d   1      -4.152   0.448  -1.419  0.00  0.00     0.011 A 
BRANCH  11  14
ATOM     14  O   UNL d   1      -7.255  -1.404  -1.091  0.00  0.00    -0.356 OA
ATOM     15  C   UNL d   1      -8.050  -2.008  -0.079  0.00  0.00     0.210 C 
ENDBRANCH  11  14
ENDBRANCH   7   8
ENDBRANCH   1   7
BRANCH   3  16
ATOM     16  C   UNL d   1      -0.067   2.907  -0.286  0.00  0.00     0.006 A 
ATOM     17  C   UNL d   1      -0.064   3.900   0.712  0.00  0.00     0.035 A 
ATOM     18  C   UNL d   1      -0.130   5.254   0.372  0.00  0.00     0.034 A 
ATOM     19 CL   UNL d   1      -0.211   6.442   1.615  0.00  0.00    -0.084 Cl
ATOM     20  C   UNL d   1      -0.155   5.652  -0.961  0.00  0.00     0.024 A 
ATOM     21  C   UNL d   1      -0.181   4.686  -1.962  0.00  0.00     0.002 A 
ATOM     22  C   UNL d   1      -0.188   3.332  -1.622  0.00  0.00     0.011 A 
ENDBRANCH   3  16
BRANCH   2  23
ATOM     23  C   UNL d   1       1.403   0.654  -1.751  0.00  0.00     0.314 C 
BRANCH  23  24
ATOM     24  C   UNL d   1       2.623  -0.087  -2.257  0.00  0.00    -0.030 A 
ATOM     25  C   UNL d   1       2.475  -1.233  -3.053  0.00  0.00     0.011 A 
ATOM     26  C   UNL d   1       3.590  -1.858  -3.615  0.00  0.00     0.037 A 
ATOM     27  C   UNL d   1       4.868  -1.349  -3.383  0.00  0.00     0.068 A 
ATOM     28  C   UNL d   1       5.021  -0.203  -2.603  0.00  0.00     0.037 A 
ATOM     29  C   UNL d   1       3.913   0.416  -2.032  0.00  0.00     0.011 A 
BRANCH  27  30
ATOM     30  O   UNL d   1       6.021  -1.864  -3.911  0.00  0.00    -0.356 OA
ATOM     31  C   UNL d   1       6.010  -3.273  -4.112  0.00  0.00     0.210 C 
ENDBRANCH  27  30
ENDBRANCH  23  24
ENDBRANCH   2  23
TORSDOF 7
