REMARK  2 active torsions:
REMARK  status: ('A' for Active; 'I' for Inactive)
REMARK    1  A    between atoms: C_13  and  N_2 
REMARK    2  A    between atoms: C_15  and  C_13 
ROOT
ATOM      1  S   UNL d   1       1.375   0.419   0.012  0.00  0.00     0.268 S 
ATOM      2  N   UNL d   1       1.230  -1.253   0.078  0.00  0.00    -0.233 N 
ATOM      3  C   UNL d   1      -0.100  -1.713   0.164  0.00  0.00     0.269 A 
ATOM      4  C   UNL d   1      -1.014  -0.558   0.112  0.00  0.00     0.056 A 
ATOM      5  C   UNL d   1      -0.350   0.659   0.041  0.00  0.00     0.095 A 
ATOM      6  O   UNL d   1       1.927   0.886   1.260  0.00  0.00    -0.200 OA
ATOM      7  O   UNL d   1       1.871   0.819  -1.280  0.00  0.00    -0.200 OA
ATOM      8  O   UNL d   1      -0.441  -2.875   0.264  0.00  0.00    -0.266 OA
ATOM      9  C   UNL d   1      -2.400  -0.606   0.107  0.00  0.00     0.018 A 
ATOM     10  C   UNL d   1      -1.015   1.870  -0.024  0.00  0.00     0.026 A 
ATOM     11  C   UNL d   1      -3.099   0.605   0.038  0.00  0.00     0.001 A 
ATOM     12  C   UNL d   1      -2.412   1.832  -0.022  0.00  0.00     0.002 A 
ENDROOT
BRANCH   2  13
ATOM     13  C   UNL d   1       2.434  -2.073   0.014  0.00  0.00     0.183 C 
BRANCH  13  14
ATOM     14  C   UNL d   1       2.859  -2.363  -1.415  0.00  0.00    -0.037 A 
ATOM     15  C   UNL d   1       2.011  -3.146  -2.236  0.00  0.00     0.041 A 
ATOM     16  C   UNL d   1       2.375  -3.259  -3.599  0.00  0.00     0.067 A 
ATOM     17  N   UNL d   1       1.682  -3.907  -4.548  0.00  0.00    -0.310 N 
ATOM     18  C   UNL d   1       3.629  -2.610  -4.120  0.00  0.00     0.067 A 
ATOM     19  S   UNL d   1       2.517  -3.689  -5.968  0.00  0.00     0.068 SA
ATOM     20  HN  UNL d   1       0.815  -4.431  -4.423  1.00  0.00     0.176 HD
ATOM     21  N   UNL d   1       3.813  -2.794  -5.436  0.00  0.00    -0.310 N 
ATOM     22  HN  UNL d   1       4.592  -2.452  -5.999  1.00  0.00     0.176 HD
ATOM     23  C   UNL d   1       4.482  -1.887  -3.255  0.00  0.00     0.033 A 
ATOM     24  C   UNL d   1       4.060  -1.782  -1.915  0.00  0.00     0.011 A 
ENDBRANCH  13  14
ENDBRANCH   2  13
TORSDOF 2
