REMARK  7 active torsions:
REMARK  status: ('A' for Active; 'I' for Inactive)
REMARK    1  A    between atoms: C_14  and  C_3 
REMARK    2  A    between atoms: C_17  and  C_7 
REMARK    3  A    between atoms: N_15  and  N_11 
REMARK       I    between atoms: C_13  and  N_15 
REMARK    4  A    between atoms: C_18  and  C_13 
REMARK    5  A    between atoms: C_22  and  C_18 
REMARK    6  A    between atoms: O_27  and  C_19 
REMARK    7  A    between atoms: C_20  and  C_22 
ROOT
ATOM      1  N   UNL d   1      -0.229   2.675   1.899  0.00  0.00    -0.312 N 
ATOM      2  HN  UNL d   1      -0.572   1.717   1.973  1.00  0.00     0.185 HD
ATOM      3  C   UNL d   1      -0.493   3.401   0.858  0.00  0.00     0.089 C 
ENDROOT
BRANCH   1   4
ATOM      4  N   UNL d   1       0.514   3.226   2.885  0.00  0.00    -0.271 N 
ATOM      5  C   UNL d   1       1.280   2.408   3.718  0.00  0.00     0.236 C 
ATOM      6  O   UNL d   1       1.303   1.193   3.731  0.00  0.00    -0.272 OA
ATOM      7  H   UNL d   1       0.626   4.220   2.921  0.00  0.00     0.190 HD
BRANCH   5   8
ATOM      8  C   UNL d   1       2.099   3.264   4.656  0.00  0.00     0.109 C 
BRANCH   8   9
ATOM      9  C   UNL d   1       3.423   2.608   5.016  0.00  0.00     0.048 C 
BRANCH   9  10
ATOM     10  C   UNL d   1       4.250   3.562   5.844  0.00  0.00    -0.058 A 
ATOM     11  C   UNL d   1       4.120   3.576   7.238  0.00  0.00     0.010 A 
ATOM     12  C   UNL d   1       4.838   4.496   8.002  0.00  0.00     0.037 A 
ATOM     13  C   UNL d   1       5.682   5.404   7.374  0.00  0.00     0.065 A 
ATOM     14  C   UNL d   1       5.817   5.413   5.990  0.00  0.00     0.037 A 
ATOM     15  C   UNL d   1       5.098   4.493   5.225  0.00  0.00     0.010 A 
BRANCH  13  16
ATOM     16  O   UNL d   1       6.365   6.283   8.161  0.00  0.00    -0.361 OA
ATOM     17  H   UNL d   1       6.951   6.811   7.595  0.00  0.00     0.217 HD
ENDBRANCH  13  16
ENDBRANCH   9  10
ENDBRANCH   8   9
ENDBRANCH   5   8
ENDBRANCH   1   4
BRANCH   3  18
ATOM     18  C   UNL d   1      -0.066   4.800   0.442  0.00  0.00     0.061 C 
ATOM     19  C   UNL d   1       1.079   5.431   0.846  0.00  0.00     0.060 C 
ATOM     20  C   UNL d   1       1.994   5.109  -0.263  0.00  0.00    -0.043 C 
ATOM     21  C   UNL d   1       1.024   6.888   1.175  0.00  0.00    -0.074 C 
ATOM     22  C   UNL d   1       3.328   5.244  -0.281  0.00  0.00     0.015 C 
ATOM     23  C   UNL d   1       1.159   5.198  -1.472  0.00  0.00    -0.058 C 
ATOM     24  C   UNL d   1       4.085   6.316   0.354  0.00  0.00    -0.054 C 
ATOM     25  C   UNL d   1       3.511   7.369   0.977  0.00  0.00     0.007 C 
ATOM     26  C   UNL d   1       2.111   7.688   1.179  0.00  0.00     0.004 C 
ATOM     27  C   UNL d   1      -0.097   4.942  -1.038  0.00  0.00    -0.009 C 
ATOM     28  C   UNL d   1       1.403   6.245  -2.510  0.00  0.00     0.048 C 
ATOM     29  C   UNL d   1      -0.345   7.508   1.321  0.00  0.00     0.044 C 
BRANCH  24  30
ATOM     30  C   UNL d   1       5.605   6.347   0.099  0.00  0.00     0.010 C 
ATOM     31  C   UNL d   1       6.343   5.258   0.884  0.00  0.00     0.015 C 
ATOM     32  C   UNL d   1       6.003   6.290  -1.387  0.00  0.00     0.015 C 
ENDBRANCH  24  30
ENDBRANCH   3  18
TORSDOF 7
