REMARK  4 active torsions:
REMARK  status: ('A' for Active; 'I' for Inactive)
REMARK    1  A    between atoms: C_13  and  N_2 
REMARK    2  A    between atoms: N_14  and  C_6 
REMARK    3  A    between atoms: C_16  and  N_14 
REMARK    4  A    between atoms: C_17  and  N_14 
ROOT
ATOM      1  C   UNL d   1      -0.448   0.635  -0.043  0.00  0.00     0.096 A 
ATOM      2  N   UNL d   1      -1.288  -1.574  -0.124  0.00  0.00    -0.281 N 
ATOM      3  C   UNL d   1      -0.137  -0.716  -0.103  0.00  0.00     0.136 A 
ATOM      4  C   UNL d   1      -2.503  -0.879  -0.061  0.00  0.00     0.152 A 
ATOM      5  S   UNL d   1      -2.191   0.863   0.015  0.00  0.00    -0.052 SA
ATOM      6  C   UNL d   1       0.596   1.544   0.070  0.00  0.00     0.126 A 
ATOM      7  N   UNL d   1       1.123  -1.178  -0.064  0.00  0.00    -0.331 N 
ATOM      8  HN  UNL d   1       1.336  -2.175  -0.104  1.00  0.00     0.168 HD
ATOM      9  N   UNL d   1       1.863   1.069   0.114  0.00  0.00    -0.331 N 
ATOM     10  HN  UNL d   1       2.648   1.713   0.211  1.00  0.00     0.168 HD
ATOM     11  C   UNL d   1       2.081  -0.251   0.031  0.00  0.00     0.080 A 
ATOM     12  S   UNL d   1      -4.087  -1.417  -0.148  0.00  0.00    -0.052 SA
ATOM     13  C   UNL d   1       3.500  -0.729   0.048  0.00  0.00     0.089 C 
ENDROOT
BRANCH   2  14
ATOM     14  C   UNL d   1      -1.122  -2.995  -0.240  0.00  0.00     0.042 A 
ATOM     15  C   UNL d   1      -1.988  -3.893   0.406  0.00  0.00     0.030 A 
ATOM     16  C   UNL d   1      -1.897  -5.277   0.202  0.00  0.00     0.002 A 
ATOM     17  C   UNL d   1      -0.914  -5.798  -0.631  0.00  0.00     0.000 A 
ATOM     18  C   UNL d   1      -0.012  -4.936  -1.242  0.00  0.00     0.002 A 
ATOM     19  C   UNL d   1      -0.119  -3.553  -1.050  0.00  0.00     0.030 A 
ENDBRANCH   2  14
BRANCH   6  20
ATOM     20  N   UNL d   1       0.433   2.916   0.229  0.00  0.00    -0.367 N 
BRANCH  20  21
ATOM     21  C   UNL d   1      -0.423   3.693  -0.675  0.00  0.00     0.120 C 
ATOM     22  C   UNL d   1      -1.562   4.359   0.089  0.00  0.00     0.026 C 
ENDBRANCH  20  21
BRANCH  20  23
ATOM     23  C   UNL d   1       1.515   3.641   0.916  0.00  0.00     0.120 C 
ATOM     24  C   UNL d   1       2.714   3.981   0.037  0.00  0.00     0.026 C 
ENDBRANCH  20  23
ENDBRANCH   6  20
TORSDOF 4
