REMARK  5 active torsions:
REMARK  status: ('A' for Active; 'I' for Inactive)
REMARK    1  A    between atoms: C_11  and  N_5 
REMARK    2  A    between atoms: O_13  and  C_8 
REMARK    3  A    between atoms: C_12  and  C_11 
REMARK    4  A    between atoms: C_19  and  O_13 
REMARK    5  A    between atoms: C_28  and  C_21 
ROOT
ATOM      1  C   UNL d   1      -0.171  -0.796  -0.153  0.00  0.00     0.147 A 
ATOM      2  C   UNL d   1      -0.460   0.535  -0.101  0.00  0.00     0.151 A 
ATOM      3  N   UNL d   1      -1.282  -1.558  -0.201  0.00  0.00    -0.305 N 
ATOM      4  HN  UNL d   1      -1.336  -2.574  -0.282  1.00  0.00     0.171 HD
ATOM      5  N   UNL d   1      -1.836   0.603  -0.138  0.00  0.00    -0.300 N 
ATOM      6  N   UNL d   1       1.111  -1.274  -0.091  0.00  0.00    -0.287 N 
ATOM      7  N   UNL d   1       1.857   0.989  -0.025  0.00  0.00    -0.269 N 
ATOM      8  C   UNL d   1      -2.282  -0.705  -0.122  0.00  0.00     0.233 A 
ATOM      9  C   UNL d   1       2.177  -0.381  -0.030  0.00  0.00     0.332 A 
ATOM     10  C   UNL d   1       0.562   1.522   0.010  0.00  0.00     0.282 A 
ATOM     11  O   UNL d   1       3.344  -0.779   0.032  0.00  0.00    -0.246 OA
ATOM     12  O   UNL d   1       0.333   2.720   0.151  0.00  0.00    -0.265 OA
ATOM     13  C   UNL d   1       1.390  -2.700  -0.062  0.00  0.00     0.163 C 
ATOM     14  C   UNL d   1       2.947   1.944   0.025  0.00  0.00     0.164 C 
ENDROOT
BRANCH   8  15
ATOM     15  O   UNL d   1      -3.564  -1.052   0.004  0.00  0.00    -0.279 OA
BRANCH  15  16
ATOM     16  C   UNL d   1      -3.879  -2.331   0.416  0.00  0.00     0.079 A 
ATOM     17  C   UNL d   1      -3.235  -2.940   1.497  0.00  0.00     0.038 A 
ATOM     18  C   UNL d   1      -3.575  -4.237   1.880  0.00  0.00     0.010 A 
ATOM     19  C   UNL d   1      -4.588  -4.932   1.209  0.00  0.00    -0.058 A 
ATOM     20  C   UNL d   1      -5.246  -4.306   0.139  0.00  0.00     0.010 A 
ATOM     21  C   UNL d   1      -4.900  -3.006  -0.251  0.00  0.00     0.038 A 
BRANCH  19  22
ATOM     22  C   UNL d   1      -4.948  -6.334   1.632  0.00  0.00     0.034 C 
ATOM     23  C   UNL d   1      -4.129  -7.391   0.906  0.00  0.00     0.010 C 
ENDBRANCH  19  22
ENDBRANCH  15  16
ENDBRANCH   8  15
BRANCH   5  24
ATOM     24  C   UNL d   1      -2.668   1.794  -0.016  0.00  0.00     0.173 C 
BRANCH  24  25
ATOM     25  C   UNL d   1      -2.994   2.423  -1.353  0.00  0.00    -0.018 A 
ATOM     26  C   UNL d   1      -4.155   2.123  -2.085  0.00  0.00     0.042 A 
ATOM     27 CL   UNL d   1      -5.380   1.064  -1.486  0.00  0.00    -0.084 Cl
ATOM     28  C   UNL d   1      -4.389   2.713  -3.333  0.00  0.00     0.024 A 
ATOM     29  C   UNL d   1      -3.481   3.624  -3.867  0.00  0.00     0.002 A 
ATOM     30  C   UNL d   1      -2.343   3.960  -3.145  0.00  0.00     0.001 A 
ATOM     31  C   UNL d   1      -2.105   3.369  -1.902  0.00  0.00     0.010 A 
ENDBRANCH  24  25
ENDBRANCH   5  24
TORSDOF 5
