REMARK  2 active torsions:
REMARK  status: ('A' for Active; 'I' for Inactive)
REMARK    1  A    between atoms: S_9  and  C_5 
REMARK    2  A    between atoms: C_10  and  N_8 
ROOT
ATOM      1  S   UNL d   1       1.366  -1.632   1.036  0.00  0.00    -0.027 SA
ATOM      2  C   UNL d   1       2.827  -0.725   1.220  0.00  0.00     0.166 A 
ATOM      3  N   UNL d   1       3.170  -0.566   2.484  0.00  0.00    -0.278 N 
ATOM      4  HN  UNL d   1       4.014  -0.074   2.779  1.00  0.00     0.189 HD
ATOM      5  C   UNL d   1       1.276  -1.707   2.741  0.00  0.00     0.127 A 
ATOM      6  N   UNL d   1       2.274  -1.133   3.367  0.00  0.00    -0.286 N 
ATOM      7  HN  UNL d   1       2.376  -1.109   4.381  1.00  0.00     0.188 HD
ATOM      8  N   UNL d   1       3.492  -0.286   0.122  0.00  0.00    -0.336 N 
ATOM      9  H   UNL d   1       3.167  -0.603  -0.783  0.00  0.00     0.168 HD
ENDROOT
BRANCH   8  10
ATOM     10  C   UNL d   1       4.486   0.708   0.068  0.00  0.00     0.034 A 
ATOM     11  C   UNL d   1       5.334   0.754  -1.052  0.00  0.00     0.031 A 
ATOM     12  C   UNL d   1       6.372   1.689  -1.138  0.00  0.00     0.026 A 
ATOM     13  C   UNL d   1       6.578   2.591  -0.099  0.00  0.00     0.034 A 
ATOM     14  C   UNL d   1       5.761   2.558   1.025  0.00  0.00     0.026 A 
ATOM     15 CL   UNL d   1       7.850   3.743  -0.201  0.00  0.00    -0.084 Cl
ATOM     16  C   UNL d   1       4.731   1.614   1.109  0.00  0.00     0.031 A 
ENDBRANCH   8  10
BRANCH   5  17
ATOM     17  S   UNL d   1      -0.035  -2.469   3.603  0.00  0.00    -0.117 SA
ATOM     18  H   UNL d   1      -0.846  -2.646   2.553  0.00  0.00     0.109 HD
ENDBRANCH   5  17
TORSDOF 2
