REMARK  8 active torsions:
REMARK  status: ('A' for Active; 'I' for Inactive)
REMARK    1  A    between atoms: C1_2  and  N1_1 
REMARK    2  A    between atoms: S1_4  and  C2_3 
REMARK    3  A    between atoms: C7_9  and  S1_4 
REMARK    4  A    between atoms: C9_11  and  C8_10 
REMARK    5  A    between atoms: N_20  and  C9_11 
REMARK    6  A    between atoms: C_19  and  CA_22 
REMARK    7  A    between atoms: OXT_23  and  C_19 
REMARK    8  A    between atoms: CA_22  and  N_20 
ROOT
ATOM      1  C1  <1> d   1       0.336  -0.829  -0.788  0.00  0.00     0.120 A 
ATOM      2  C2  <1> d   1       0.898  -2.093  -0.577  0.00  0.00     0.038 A 
ATOM      3  C4  <1> d   1      -0.861  -0.644  -1.506  0.00  0.00     0.046 A 
ATOM      4  C5  <1> d   1       0.223  -3.189  -1.134  0.00  0.00     0.022 A 
ATOM      5  C8  <1> d   1      -1.532  -1.748  -2.043  0.00  0.00    -0.028 A 
ATOM      6  C11 <1> d   1      -0.967  -3.019  -1.864  0.00  0.00     0.010 A 
ENDROOT
BRANCH   5   7
ATOM      7  C9  <1> d   1      -2.816  -1.549  -2.824  0.00  0.00     0.309 C 
BRANCH   7   8
ATOM      8  N   ALA d   1      -3.909  -2.382  -2.285  0.00  0.00     0.102 N 
ATOM      9  H   ALA d   1      -3.989  -2.159  -1.289  0.00  0.00     0.317 HD
BRANCH   8  10
ATOM     10  CA  ALA d   1      -5.220  -2.033  -2.918  0.00  0.00     0.313 C 
ATOM     11  CB  ALA d   1      -6.340  -2.746  -2.164  0.00  0.00     0.054 C 
BRANCH  10  12
ATOM     12  C   ALA d   1      -5.258  -2.516  -4.372  0.00  0.00     0.173 C 
ATOM     13  O   ALA d   1      -5.971  -2.049  -5.246  0.00  0.00    -0.648 OA
BRANCH  12  14
ATOM     14  OXT ALA d   1      -4.431  -3.575  -4.571  0.00  0.00    -0.775 OA
ATOM     15  HXT ALA d   1      -3.966  -3.738  -3.715  0.00  0.00     0.167 HD
ENDBRANCH  12  14
ENDBRANCH  10  12
ENDBRANCH   8  10
ENDBRANCH   7   8
ENDBRANCH   5   7
BRANCH   1  16
ATOM     16  N1  <1> d   1       0.956   0.366  -0.257  0.00  0.00    -0.114 N 
ATOM     17  O1  <1> d   1       2.014   0.737  -0.775  0.00  0.00    -0.532 OA
ATOM     18  O2  <1> d   1       0.330   0.975   0.623  0.00  0.00    -0.532 OA
ENDBRANCH   1  16
BRANCH   2  19
ATOM     19  S1  <1> d   1       2.302  -2.419   0.485  0.00  0.00    -0.088 SA
BRANCH  19  20
ATOM     20  C7  <1> d   1       3.656  -2.478  -0.673  0.00  0.00     0.005 A 
ATOM     21  C12 <1> d   1       4.463  -1.350  -0.861  0.00  0.00     0.020 A 
ATOM     22  C15 <1> d   1       5.538  -1.384  -1.752  0.00  0.00     0.020 A 
ATOM     23  C10 <1> d   1       5.825  -2.558  -2.441  0.00  0.00     0.011 A 
ATOM     24  C14 <1> d   1       5.054  -3.701  -2.236  0.00  0.00     0.020 A 
ATOM     25 Br1  <1> d   1       7.272  -2.603  -3.656  0.00  0.00    -0.051 Br
ATOM     26  C13 <1> d   1       3.972  -3.661  -1.350  0.00  0.00     0.020 A 
ENDBRANCH  19  20
ENDBRANCH   2  19
TORSDOF 8
