REMARK  6 active torsions:
REMARK  status: ('A' for Active; 'I' for Inactive)
REMARK    1  A    between atoms: C_4  and  C_1 
REMARK    2  A    between atoms: C_2  and  O_8 
REMARK    3  A    between atoms: C_3  and  C_2 
REMARK    4  A    between atoms: C_5  and  C_6 
REMARK    5  A    between atoms: C_10  and  C_5 
REMARK    6  A    between atoms: O_8  and  C_10 
ROOT
ATOM      1  C   UNL d   1      -1.050   0.996  -0.064  0.00  0.00     0.048 A 
ATOM      2  C   UNL d   1      -0.487   3.577   0.919  0.00  0.00     0.012 A 
ATOM      3  C   UNL d   1      -1.301   2.133  -0.849  0.00  0.00     0.017 A 
ATOM      4  C   UNL d   1      -0.531   1.168   1.228  0.00  0.00     0.017 A 
ATOM      5  C   UNL d   1      -0.256   2.449   1.717  0.00  0.00     0.016 A 
ATOM      6  C   UNL d   1      -1.026   3.415  -0.360  0.00  0.00     0.016 A 
ENDROOT
BRANCH   2   7
ATOM      7  C   UNL d   1      -0.183   4.922   1.485  0.00  0.00     0.183 C 
ATOM      8  O   UNL d   1      -0.197   5.067   2.707  0.00  0.00    -0.290 OA
BRANCH   7   9
ATOM      9  C   UNL d   1       0.054   6.110   0.543  0.00  0.00     0.263 C 
BRANCH   9  10
ATOM     10  O   UNL d   1       0.720   5.905  -0.701  0.00  0.00    -0.310 OA
BRANCH  10  11
ATOM     11  C   UNL d   1       2.018   5.553  -0.582  0.00  0.00     0.283 C 
ATOM     12  O   UNL d   1       2.578   5.283   0.472  0.00  0.00    -0.260 OA
BRANCH  11  13
ATOM     13  C   UNL d   1       2.754   5.492  -1.865  0.00  0.00     0.084 C 
ATOM     14  C   UNL d   1       2.476   5.913  -3.118  0.00  0.00    -0.082 C 
ATOM     15  C   UNL d   1       1.233   6.599  -3.604  0.00  0.00     0.043 C 
ATOM     16  C   UNL d   1       3.517   5.726  -4.200  0.00  0.00     0.043 C 
ENDBRANCH  11  13
ENDBRANCH  10  11
ENDBRANCH   9  10
ENDBRANCH   7   9
ENDBRANCH   2   7
BRANCH   1  17
ATOM     17  C   UNL d   1      -1.319  -0.393  -0.592  0.00  0.00     0.417 C 
ATOM     18  F   UNL d   1      -1.886  -0.402  -1.832  0.00  0.00    -0.166 F 
ATOM     19  F   UNL d   1      -2.159  -1.105   0.207  0.00  0.00    -0.166 F 
ATOM     20  F   UNL d   1      -0.182  -1.136  -0.699  0.00  0.00    -0.166 F 
ENDBRANCH   1  17
TORSDOF 6
