REMARK  3 active torsions:
REMARK  status: ('A' for Active; 'I' for Inactive)
REMARK    1  A    between atoms: C_14  and  C_3 
REMARK    2  A    between atoms: C_15  and  C_4 
REMARK    3  A    between atoms: C_9  and  C_16 
ROOT
ATOM      1  N   UNL d   1       0.776   0.256  -0.960  0.00  0.00    -0.319 N 
ATOM      2  HN  UNL d   1       1.375   0.476  -1.756  1.00  0.00     0.169 HD
ATOM      3  C   UNL d   1       0.260   1.110  -0.007  0.00  0.00     0.138 A 
ATOM      4  C   UNL d   1       0.303  -0.912  -0.586  0.00  0.00     0.182 A 
ATOM      5  N   UNL d   1      -0.504   0.501   0.914  0.00  0.00    -0.242 N 
ATOM      6  HN  UNL d   1      -0.990   0.920   1.707  1.00  0.00     0.196 HD
ATOM      7  O   UNL d   1      -0.476  -0.838   0.532  0.00  0.00    -0.217 OA
ENDROOT
BRANCH   3   8
ATOM      8  C   UNL d   1       0.537   2.542  -0.020  0.00  0.00     0.010 A 
ATOM      9  C   UNL d   1       1.301   3.103  -1.052  0.00  0.00     0.016 A 
ATOM     10  C   UNL d   1       1.576   4.475  -1.076  0.00  0.00     0.014 A 
ATOM     11  C   UNL d   1       1.093   5.315  -0.065  0.00  0.00    -0.008 A 
ATOM     12  C   UNL d   1       0.337   4.754   0.973  0.00  0.00     0.014 A 
ATOM     13  C   UNL d   1       0.057   3.383   0.993  0.00  0.00     0.016 A 
BRANCH  11  14
ATOM     14  C   UNL d   1       1.375   6.744  -0.060  0.00  0.00     0.063 A 
ATOM     15  N   UNL d   1       1.480   7.453   1.132  0.00  0.00    -0.292 N 
ATOM     16  N   UNL d   1       1.743   8.733   0.925  0.00  0.00    -0.061 NA
ATOM     17  HN  UNL d   1       1.368   7.036   2.056  1.00  0.00     0.183 HD
ATOM     18  S   UNL d   1       1.849   9.120  -0.697  0.00  0.00    -0.010 SA
ATOM     19  C   UNL d   1       1.536   7.511  -1.202  0.00  0.00     0.096 A 
ENDBRANCH  11  14
ENDBRANCH   3   8
BRANCH   4  20
ATOM     20  C   UNL d   1       0.507  -2.231  -1.170  0.00  0.00     0.017 A 
ATOM     21  C   UNL d   1       1.365  -2.376  -2.272  0.00  0.00     0.017 A 
ATOM     22  C   UNL d   1       1.596  -3.633  -2.841  0.00  0.00     0.025 A 
ATOM     23  C   UNL d   1       0.966  -4.756  -2.313  0.00  0.00     0.034 A 
ATOM     24  C   UNL d   1       0.105  -4.633  -1.226  0.00  0.00     0.025 A 
ATOM     25 CL   UNL d   1       1.255  -6.304  -3.004  0.00  0.00    -0.084 Cl
ATOM     26  C   UNL d   1      -0.124  -3.376  -0.657  0.00  0.00     0.017 A 
ENDBRANCH   4  20
TORSDOF 3
