REMARK  1 active torsions:
REMARK  status: ('A' for Active; 'I' for Inactive)
REMARK    1  A    between atoms: O_20  and  C_13 
ROOT
ATOM      1  C   UNL d   1       2.312   2.067  -1.133  0.00  0.00    -0.014 C 
ATOM      2  C   UNL d   1       0.941   2.474  -0.556  0.00  0.00     0.001 C 
ATOM      3  C   UNL d   1      -1.838  -0.899   0.011  0.00  0.00    -0.072 C 
ATOM      4  C   UNL d   1      -0.033   1.300  -0.560  0.00  0.00    -0.005 C 
ATOM      5  C   UNL d   1       0.536   0.079   0.217  0.00  0.00    -0.002 C 
ATOM      6  C   UNL d   1      -0.340  -1.154  -0.147  0.00  0.00     0.019 C 
ATOM      7  C   UNL d   1      -2.699  -1.904   0.244  0.00  0.00     0.053 C 
ATOM      8  C   UNL d   1       2.923   1.064  -0.148  0.00  0.00     0.012 C 
ATOM      9  C   UNL d   1       2.046  -0.191  -0.015  0.00  0.00     0.006 C 
ATOM     10  C   UNL d   1      -1.399   1.635   0.047  0.00  0.00     0.010 C 
ATOM     11  C   UNL d   1       0.556   3.704  -1.375  0.00  0.00     0.008 C 
ATOM     12  C   UNL d   1       0.064  -2.412   0.640  0.00  0.00     0.017 C 
ATOM     13  C   UNL d   1       3.009   3.437  -1.254  0.00  0.00     0.126 C 
ATOM     14  C   UNL d   1      -2.382   0.495  -0.220  0.00  0.00     0.035 C 
ATOM     15  C   UNL d   1      -2.249  -3.316   0.311  0.00  0.00     0.149 C 
ATOM     16  C   UNL d   1       1.891   4.394  -1.711  0.00  0.00     0.033 C 
ATOM     17  O   UNL d   1      -3.088  -4.212   0.372  0.00  0.00    -0.293 OA
ATOM     18  C   UNL d   1      -0.772  -3.609   0.207  0.00  0.00     0.084 C 
ATOM     19  C   UNL d   1       2.250   1.442  -2.554  0.00  0.00     0.018 C 
ENDROOT
BRANCH  13  20
ATOM     20  O   UNL d   1       3.551   3.881  -0.016  0.00  0.00    -0.395 OA
ATOM     21  H   UNL d   1       2.821   4.083   0.591  0.00  0.00     0.210 HD
ENDBRANCH  13  20
TORSDOF 1
