REMARK  6 active torsions:
REMARK  status: ('A' for Active; 'I' for Inactive)
REMARK    1  A    between atoms: C_2  and  C_1 
REMARK    2  A    between atoms: O_3  and  C_1 
REMARK    3  A    between atoms: O_12  and  C_2 
REMARK    4  A    between atoms: C_7  and  O_3 
REMARK    5  A    between atoms: C_4  and  C_7 
REMARK    6  A    between atoms: C_5  and  C_4 
ROOT
ATOM      1  C   UNL d   1      -1.410  -1.330  -2.398  0.00  0.00     0.183 C 
ATOM      2  O   UNL d   1      -0.643  -1.618  -3.312  0.00  0.00    -0.290 OA
ENDROOT
BRANCH   1   3
ATOM      3  C   UNL d   1      -0.945  -0.639  -1.119  0.00  0.00     0.262 C 
BRANCH   3   4
ATOM      4  O   UNL d   1       0.472  -0.422  -1.081  0.00  0.00    -0.311 OA
BRANCH   4   5
ATOM      5  C   UNL d   1       0.910   0.690  -1.737  0.00  0.00     0.293 C 
ATOM      6  O   UNL d   1       0.184   1.454  -2.363  0.00  0.00    -0.262 OA
BRANCH   5   7
ATOM      7  C   UNL d   1       2.437   0.895  -1.542  0.00  0.00     0.138 C 
ATOM      8  C   UNL d   1       3.135   0.906  -2.901  0.00  0.00     0.056 C 
ATOM      9  C   UNL d   1       2.638   2.234  -0.829  0.00  0.00     0.056 C 
BRANCH   7  10
ATOM     10  O   UNL d   1       3.079  -0.092  -0.734  0.00  0.00    -0.380 OA
ATOM     11  H   UNL d   1       2.956  -0.950  -1.178  0.00  0.00     0.211 HD
ENDBRANCH   7  10
ENDBRANCH   5   7
ENDBRANCH   4   5
ENDBRANCH   3   4
ENDBRANCH   1   3
BRANCH   1  12
ATOM     12  C   UNL d   1      -2.864  -1.667  -2.542  0.00  0.00     0.012 A 
ATOM     13  C   UNL d   1      -3.395  -1.776  -3.837  0.00  0.00     0.017 A 
ATOM     14  C   UNL d   1      -4.736  -2.124  -4.031  0.00  0.00     0.025 A 
ATOM     15  C   UNL d   1      -5.552  -2.378  -2.930  0.00  0.00     0.034 A 
ATOM     16  C   UNL d   1      -5.035  -2.275  -1.638  0.00  0.00     0.025 A 
ATOM     17 CL   UNL d   1      -7.193  -2.827  -3.165  0.00  0.00    -0.084 Cl
ATOM     18  C   UNL d   1      -3.694  -1.916  -1.442  0.00  0.00     0.017 A 
ENDBRANCH   1  12
TORSDOF 6
