REMARK  6 active torsions:
REMARK  status: ('A' for Active; 'I' for Inactive)
REMARK       I    between atoms: N_2  and  C_1 
REMARK    1  A    between atoms: C_3  and  C_1 
REMARK    2  A    between atoms: C_4  and  N_2 
REMARK    3  A    between atoms: S_7  and  C_4 
REMARK    4  A    between atoms: C_11  and  N_5 
REMARK    5  A    between atoms: C_14  and  S_7 
REMARK    6  A    between atoms: C_13  and  C_14 
ROOT
ATOM      1  C   UNL d   1       1.049   2.037  -1.341  0.00  0.00     0.147 C 
ATOM      2  N   UNL d   1       2.305   1.816  -1.502  0.00  0.00    -0.337 N 
ATOM      3  HN  UNL d   1       2.790   2.469  -2.117  1.00  0.00     0.168 HD
ENDROOT
BRANCH   1   4
ATOM      4  N   UNL d   1       0.404   3.043  -2.019  0.00  0.00    -0.303 N 
ATOM      5  C   UNL d   1       0.885   3.757  -3.112  0.00  0.00     0.262 C 
ATOM      6  O   UNL d   1       1.947   3.510  -3.670  0.00  0.00    -0.267 OA
ATOM      7  H   UNL d   1      -0.531   3.238  -1.675  0.00  0.00     0.171 HD
BRANCH   5   8
ATOM      8  C   UNL d   1      -0.008   4.823  -3.675  0.00  0.00     0.092 A 
ATOM      9  C   UNL d   1      -1.377   4.811  -3.392  0.00  0.00     0.133 A 
ATOM     10  F   UNL d   1      -1.909   3.881  -2.584  0.00  0.00    -0.205 F 
ATOM     11  C   UNL d   1      -2.255   5.745  -3.943  0.00  0.00     0.043 A 
ATOM     12  C   UNL d   1      -1.779   6.716  -4.813  0.00  0.00     0.005 A 
ATOM     13  C   UNL d   1      -0.421   6.752  -5.112  0.00  0.00     0.025 A 
ATOM     14  C   UNL d   1       0.469   5.820  -4.545  0.00  0.00     0.052 A 
ATOM     15 CL   UNL d   1       2.131   6.044  -4.973  0.00  0.00    -0.083 Cl
ENDBRANCH   5   8
ENDBRANCH   1   4
BRANCH   1  16
ATOM     16  S   UNL d   1      -0.087   1.171  -0.339  0.00  0.00    -0.086 SA
BRANCH  16  17
ATOM     17  C   UNL d   1       0.215   1.956   1.256  0.00  0.00     0.160 C 
BRANCH  17  18
ATOM     18  C   UNL d   1      -0.384   3.349   1.346  0.00  0.00     0.132 C 
ATOM     19  O   UNL d   1      -0.796   3.983   0.374  0.00  0.00    -0.298 OA
ATOM     20  C   UNL d   1      -0.446   3.940   2.733  0.00  0.00     0.091 C 
ENDBRANCH  17  18
ENDBRANCH  16  17
ENDBRANCH   1  16
BRANCH   2  21
ATOM     21  C   UNL d   1       3.096   0.807  -0.953  0.00  0.00     0.034 A 
ATOM     22  C   UNL d   1       2.716  -0.530  -0.823  0.00  0.00     0.031 A 
ATOM     23  C   UNL d   1       3.629  -1.496  -0.385  0.00  0.00     0.026 A 
ATOM     24  C   UNL d   1       4.947  -1.137  -0.114  0.00  0.00     0.034 A 
ATOM     25  C   UNL d   1       5.355   0.184  -0.262  0.00  0.00     0.026 A 
ATOM     26 CL   UNL d   1       6.081  -2.336   0.370  0.00  0.00    -0.084 Cl
ATOM     27  C   UNL d   1       4.429   1.146  -0.677  0.00  0.00     0.031 A 
ENDBRANCH   2  21
TORSDOF 6
