REMARK  3 active torsions:
REMARK  status: ('A' for Active; 'I' for Inactive)
REMARK    1  A    between atoms: C_7  and  C_1 
REMARK    2  A    between atoms: C_11  and  C_5 
REMARK    3  A    between atoms: N_16  and  C_10 
ROOT
ATOM      1  C   UNL d   1      -0.142  -1.134   0.028  0.00  0.00     0.056 A 
ATOM      2  S   UNL d   1       1.400  -0.373  -0.008  0.00  0.00    -0.068 SA
ATOM      3  N   UNL d   1      -0.654   1.155  -0.077  0.00  0.00    -0.352 N 
ATOM      4  HN  UNL d   1      -1.247   1.982  -0.137  1.00  0.00     0.166 HD
ATOM      5  C   UNL d   1       0.662   1.180  -0.027  0.00  0.00     0.085 A 
ATOM      6  C   UNL d   1      -1.124  -0.153  -0.036  0.00  0.00     0.025 A 
ATOM      7  C   UNL d   1      -2.598  -0.362  -0.028  0.00  0.00     0.070 C 
ENDROOT
BRANCH   1   8
ATOM      8  C   UNL d   1      -0.269  -2.595   0.108  0.00  0.00     0.054 A 
ATOM      9  N   UNL d   1      -1.382  -3.093  -0.470  0.00  0.00    -0.332 N 
ATOM     10  C   UNL d   1      -1.580  -4.409  -0.373  0.00  0.00     0.155 A 
ATOM     11  HN  UNL d   1      -2.043  -2.490  -0.960  1.00  0.00     0.168 HD
ATOM     12  N   UNL d   1      -0.741  -5.265   0.212  0.00  0.00    -0.343 N 
ATOM     13  C   UNL d   1       0.358  -4.737   0.776  0.00  0.00     0.093 A 
ATOM     14  HN  UNL d   1      -0.925  -6.268   0.231  1.00  0.00     0.167 HD
ATOM     15  C   UNL d   1       0.647  -3.395   0.758  0.00  0.00     0.048 A 
BRANCH  10  16
ATOM     16  N   UNL d   1      -2.727  -4.928  -0.933  0.00  0.00    -0.274 NA
ATOM     17  H   UNL d   1      -3.058  -4.334  -1.679  0.00  0.00     0.127 HD
ATOM     18  H   UNL d   1      -2.600  -5.910  -1.135  0.00  0.00     0.127 HD
ENDBRANCH  10  16
ENDBRANCH   1   8
BRANCH   5  19
ATOM     19  C   UNL d   1       1.469   2.415  -0.024  0.00  0.00    -0.002 A 
ATOM     20  C   UNL d   1       0.934   3.585  -0.589  0.00  0.00     0.016 A 
ATOM     21  C   UNL d   1       1.661   4.780  -0.605  0.00  0.00     0.024 A 
ATOM     22  C   UNL d   1       2.934   4.820  -0.044  0.00  0.00     0.034 A 
ATOM     23  C   UNL d   1       3.482   3.679   0.535  0.00  0.00     0.024 A 
ATOM     24 CL   UNL d   1       3.834   6.286  -0.061  0.00  0.00    -0.084 Cl
ATOM     25  C   UNL d   1       2.752   2.485   0.546  0.00  0.00     0.016 A 
ENDBRANCH   5  19
TORSDOF 3
