REMARK  4 active torsions:
REMARK  status: ('A' for Active; 'I' for Inactive)
REMARK       I    between atoms: C_2  and  N_1 
REMARK    1  A    between atoms: C_3  and  N_1 
REMARK    2  A    between atoms: C_4  and  C_2 
REMARK    3  A    between atoms: C_5  and  C_6 
REMARK    4  A    between atoms: O_13  and  C_5 
ROOT
ATOM      1  N   UNL d   1       1.108  -0.047   0.056  0.00  0.00    -0.323 N 
ATOM      2  C   UNL d   1       0.429  -1.222   0.306  0.00  0.00     0.245 C 
ATOM      3  O   UNL d   1       0.892  -2.345   0.454  0.00  0.00    -0.268 OA
ATOM      4  H   UNL d   1       0.587   0.806   0.219  0.00  0.00     0.169 HD
ENDROOT
BRANCH   1   5
ATOM      5  C   UNL d   1       2.505   0.131  -0.081  0.00  0.00     0.041 C 
ATOM      6  C   UNL d   1       3.424  -0.812  -0.570  0.00  0.00    -0.034 C 
ATOM      7  C   UNL d   1       4.805  -0.530  -0.476  0.00  0.00     0.027 C 
ATOM      8  C   UNL d   1       3.055  -2.087  -1.276  0.00  0.00     0.050 C 
ATOM      9  C   UNL d   1       5.258   0.701  -0.007  0.00  0.00     0.007 C 
ATOM     10  C   UNL d   1       4.346   1.683   0.353  0.00  0.00     0.020 C 
ATOM     11  I   UNL d   1       7.296   1.079   0.125  0.00  0.00    -0.045 I 
ATOM     12  C   UNL d   1       2.980   1.396   0.314  0.00  0.00     0.031 C 
ENDBRANCH   1   5
BRANCH   2  13
ATOM     13  C   UNL d   1      -1.030  -0.984   0.475  0.00  0.00     0.081 C 
ATOM     14  C   UNL d   1      -1.852  -2.017   0.709  0.00  0.00     0.086 C 
BRANCH  14  15
ATOM     15  C   UNL d   1      -3.287  -1.738   0.881  0.00  0.00     0.165 C 
ATOM     16  O   UNL d   1      -3.772  -0.620   0.884  0.00  0.00    -0.647 OA
BRANCH  15  17
ATOM     17  O   UNL d   1      -4.013  -2.862   1.031  0.00  0.00    -0.773 OA
ATOM     18  H   UNL d   1      -3.513  -3.697   0.993  0.00  0.00     0.167 HD
ENDBRANCH  15  17
ENDBRANCH  14  15
ENDBRANCH   2  13
TORSDOF 4
