REMARK  4 active torsions:
REMARK  status: ('A' for Active; 'I' for Inactive)
REMARK    1  A    between atoms: C_3  and  C_1 
REMARK       I    between atoms: N_8  and  C_3 
REMARK    2  A    between atoms: C_9  and  N_8 
REMARK    3  A    between atoms: O_13  and  C_12 
REMARK    4  A    between atoms: C_15  and  O_13 
ROOT
ATOM      1  C   UNL d   1       3.878   0.245  -0.095  0.00  0.00     0.037 A 
ATOM      2  C   UNL d   1       3.244   1.056   0.853  0.00  0.00     0.066 A 
ATOM      3  C   UNL d   1       3.661   2.372   1.066  0.00  0.00     0.071 A 
ATOM      4  C   UNL d   1       5.318   2.110  -0.673  0.00  0.00     0.005 A 
ATOM      5  C   UNL d   1       4.936   0.777  -0.840  0.00  0.00     0.029 A 
ATOM      6  C   UNL d   1       4.673   2.908   0.273  0.00  0.00     0.037 A 
ENDROOT
BRANCH   1   7
ATOM      7  N   UNL d   1       3.517  -1.099  -0.325  0.00  0.00    -0.322 N 
ATOM      8  C   UNL d   1       2.390  -1.750   0.151  0.00  0.00     0.274 C 
ATOM      9  O   UNL d   1       1.485  -1.244   0.807  0.00  0.00    -0.266 OA
ATOM     10  H   UNL d   1       4.117  -1.644  -0.937  0.00  0.00     0.169 HD
BRANCH   8  11
ATOM     11  C   UNL d   1       2.330  -3.160  -0.222  0.00  0.00     0.121 A 
ATOM     12  N   UNL d   1       3.378  -3.792  -0.890  0.00  0.00    -0.287 N 
ATOM     13  N   UNL d   1       3.121  -5.072  -1.107  0.00  0.00    -0.061 NA
ATOM     14  HN  UNL d   1       4.238  -3.325  -1.177  1.00  0.00     0.183 HD
ATOM     15  S   UNL d   1       1.622  -5.544  -0.531  0.00  0.00    -0.010 SA
ATOM     16  C   UNL d   1       1.249  -3.982   0.059  0.00  0.00     0.101 A 
ENDBRANCH   8  11
ENDBRANCH   1   7
BRANCH   3  17
ATOM     17  O   UNL d   1       3.151   3.215   2.016  0.00  0.00    -0.347 OA
BRANCH  17  18
ATOM     18  C   UNL d   1       2.598   2.623   3.204  0.00  0.00     0.120 C 
ATOM     19  C   UNL d   1       3.685   1.954   4.047  0.00  0.00     0.040 C 
ATOM     20  C   UNL d   1       1.958   3.755   4.005  0.00  0.00     0.040 C 
ENDBRANCH  17  18
ENDBRANCH   3  17
TORSDOF 4
