REMARK  4 active torsions:
REMARK  status: ('A' for Active; 'I' for Inactive)
REMARK    1  A    between atoms: C_12  and  N_5 
REMARK    2  A    between atoms: N_11  and  C_7 
REMARK    3  A    between atoms: C_13  and  C_12 
REMARK    4  A    between atoms: C_14  and  C_19 
REMARK       I    between atoms: N_26  and  C_14 
ROOT
ATOM      1  C   UNL d   1      -0.326  -0.799   0.008  0.00  0.00     0.146 A 
ATOM      2  C   UNL d   1      -0.573   0.539  -0.008  0.00  0.00     0.151 A 
ATOM      3  N   UNL d   1      -1.470  -1.529   0.029  0.00  0.00    -0.316 N 
ATOM      4  HN  UNL d   1      -1.553  -2.545   0.068  1.00  0.00     0.170 HD
ATOM      5  N   UNL d   1      -1.945   0.647  -0.002  0.00  0.00    -0.311 N 
ATOM      6  N   UNL d   1       0.953  -1.301   0.014  0.00  0.00    -0.287 N 
ATOM      7  C   UNL d   1      -2.449  -0.648  -0.012  0.00  0.00     0.164 A 
ATOM      8  N   UNL d   1       1.748   0.954  -0.003  0.00  0.00    -0.269 N 
ATOM      9  C   UNL d   1       2.037  -0.422   0.008  0.00  0.00     0.332 A 
ATOM     10  C   UNL d   1       0.460   1.514  -0.014  0.00  0.00     0.282 A 
ATOM     11  O   UNL d   1       3.197  -0.845   0.015  0.00  0.00    -0.246 OA
ATOM     12  O   UNL d   1       0.252   2.722  -0.028  0.00  0.00    -0.265 OA
ATOM     13  C   UNL d   1       1.211  -2.726   0.022  0.00  0.00     0.163 C 
ATOM     14  C   UNL d   1       2.856   1.888  -0.007  0.00  0.00     0.164 C 
ENDROOT
BRANCH   7  15
ATOM     15  N   UNL d   1      -3.781  -0.907   0.054  0.00  0.00    -0.254 NA
ATOM     16  C   UNL d   1      -4.149  -2.142   0.762  0.00  0.00     0.099 C 
ATOM     17  C   UNL d   1      -5.583  -1.986   1.271  0.00  0.00     0.029 C 
ATOM     18  C   UNL d   1      -6.577  -1.503   0.200  0.00  0.00     0.080 C 
ATOM     19  C   UNL d   1      -5.991  -0.520  -0.830  0.00  0.00     0.029 C 
ATOM     20  C   UNL d   1      -4.540  -0.813  -1.201  0.00  0.00     0.099 C 
BRANCH  18  21
ATOM     21  C   UNL d   1      -7.250  -2.684  -0.480  0.00  0.00     0.219 C 
ATOM     22  O   UNL d   1      -6.949  -3.109  -1.587  0.00  0.00    -0.273 OA
ATOM     23  N   UNL d   1      -8.233  -3.278   0.262  0.00  0.00    -0.370 N 
ATOM     24  H   UNL d   1      -8.602  -2.863   1.107  0.00  0.00     0.159 HD
ATOM     25  H   UNL d   1      -8.770  -4.015  -0.178  0.00  0.00     0.159 HD
ENDBRANCH  18  21
ENDBRANCH   7  15
BRANCH   5  26
ATOM     26  C   UNL d   1      -2.709   1.891  -0.022  0.00  0.00     0.172 C 
BRANCH  26  27
ATOM     27  C   UNL d   1      -2.954   2.554   1.319  0.00  0.00    -0.018 A 
ATOM     28  C   UNL d   1      -3.564   3.826   1.363  0.00  0.00     0.042 A 
ATOM     29 CL   UNL d   1      -4.076   4.637  -0.078  0.00  0.00    -0.084 Cl
ATOM     30  C   UNL d   1      -3.799   4.478   2.578  0.00  0.00     0.024 A 
ATOM     31  C   UNL d   1      -3.439   3.873   3.778  0.00  0.00     0.002 A 
ATOM     32  C   UNL d   1      -2.859   2.608   3.760  0.00  0.00     0.001 A 
ATOM     33  C   UNL d   1      -2.623   1.952   2.547  0.00  0.00     0.010 A 
ENDBRANCH  26  27
ENDBRANCH   5  26
TORSDOF 4
