REMARK  4 active torsions:
REMARK  status: ('A' for Active; 'I' for Inactive)
REMARK    1  A    between atoms: C_9  and  C_2 
REMARK    2  A    between atoms: C_5  and  O_10 
REMARK       I    between atoms: N_8  and  C_5 
REMARK    3  A    between atoms: C_14  and  N_8 
REMARK    4  A    between atoms: O_10  and  C_15 
ROOT
ATOM      1  C   UNL d   1       2.362  -1.808   0.554  0.00  0.00    -0.008 A 
ATOM      2  C   UNL d   1       2.264  -3.114   0.046  0.00  0.00     0.016 A 
ATOM      3  C   UNL d   1       3.602  -1.354   1.024  0.00  0.00     0.016 A 
ATOM      4  C   UNL d   1       4.639  -3.414   0.311  0.00  0.00     0.081 A 
ATOM      5  C   UNL d   1       4.741  -2.151   0.893  0.00  0.00     0.038 A 
ATOM      6  C   UNL d   1       3.403  -3.916  -0.086  0.00  0.00     0.038 A 
ENDROOT
BRANCH   4   7
ATOM      7  O   UNL d   1       5.872  -4.035   0.004  0.00  0.00    -0.261 OA
BRANCH   7   8
ATOM      8  C   UNL d   1       6.043  -5.388  -0.248  0.00  0.00     0.370 C 
ATOM      9  N   UNL d   1       7.211  -5.721  -0.889  0.00  0.00    -0.302 N 
ATOM     10  H   UNL d   1       7.263  -6.721  -1.042  0.00  0.00     0.171 HD
ATOM     11  O   UNL d   1       5.234  -6.262   0.048  0.00  0.00    -0.238 OA
BRANCH   9  12
ATOM     12  C   UNL d   1       8.236  -4.941  -1.463  0.00  0.00     0.036 A 
ATOM     13  C   UNL d   1       8.329  -3.549  -1.383  0.00  0.00     0.031 A 
ATOM     14  C   UNL d   1       9.355  -2.860  -2.045  0.00  0.00     0.026 A 
ATOM     15  C   UNL d   1      10.301  -3.559  -2.787  0.00  0.00     0.034 A 
ATOM     16  C   UNL d   1      10.241  -4.946  -2.857  0.00  0.00     0.026 A 
ATOM     17 CL   UNL d   1      11.535  -2.706  -3.626  0.00  0.00    -0.084 Cl
ATOM     18  C   UNL d   1       9.217  -5.631  -2.194  0.00  0.00     0.031 A 
ENDBRANCH   9  12
ENDBRANCH   7   8
ENDBRANCH   4   7
BRANCH   1  19
ATOM     19  C   UNL d   1       1.233  -0.889   0.517  0.00  0.00     0.063 A 
ATOM     20  N   UNL d   1       1.075   0.117   1.464  0.00  0.00    -0.292 N 
ATOM     21  N   UNL d   1       0.040   0.894   1.190  0.00  0.00    -0.061 NA
ATOM     22  HN  UNL d   1       1.684   0.240   2.273  1.00  0.00     0.183 HD
ATOM     23  S   UNL d   1      -0.750   0.456  -0.217  0.00  0.00    -0.010 SA
ATOM     24  C   UNL d   1       0.305  -0.864  -0.512  0.00  0.00     0.096 A 
ENDBRANCH   1  19
TORSDOF 4
