REMARK  11 active torsions:
REMARK  status: ('A' for Active; 'I' for Inactive)
REMARK       I    between atoms: N_2  and  C_1 
REMARK       I    between atoms: N_8  and  C_1 
REMARK    1  A    between atoms: C_3  and  N_2 
REMARK    2  A    between atoms: C_4  and  C_3 
REMARK    3  A    between atoms: C_6  and  C_3 
REMARK    4  A    between atoms: O_9  and  C_4 
REMARK    5  A    between atoms: C_10  and  C_6 
REMARK    6  A    between atoms: C_11  and  N_8 
REMARK    7  A    between atoms: C_12  and  O_9 
REMARK    8  A    between atoms: C_15  and  C_11 
REMARK    9  A    between atoms: C_18  and  C_15 
REMARK   10  A    between atoms: C_16  and  C_17 
REMARK   11  A    between atoms: C_17  and  C_18 
ROOT
ATOM      1  C   UNL d   1       0.942   0.069  -2.470  0.00  0.00     0.190 C 
ENDROOT
BRANCH   1   2
ATOM      2  N   UNL d   1       0.343   0.305  -1.145  0.00  0.00    -0.329 N 
ATOM      3  C   UNL d   1       1.102   0.834  -0.137  0.00  0.00     0.316 C 
ATOM      4  O   UNL d   1       2.279   1.148  -0.249  0.00  0.00    -0.247 OA
ATOM      5  N   UNL d   1       0.368   0.965   1.012  0.00  0.00    -0.343 N 
ATOM      6  H   UNL d   1      -0.634   1.006   0.897  0.00  0.00     0.164 HD
ATOM      7  H   UNL d   1      -0.290  -0.418  -0.829  0.00  0.00     0.165 HD
BRANCH   5   8
ATOM      8  C   UNL d   1       0.936   1.487   2.239  0.00  0.00     0.124 C 
BRANCH   8   9
ATOM      9  C   UNL d   1       0.829   3.010   2.355  0.00  0.00     0.020 C 
BRANCH   9  10
ATOM     10  C   UNL d   1       1.401   3.480   3.699  0.00  0.00     0.002 C 
BRANCH  10  11
ATOM     11  C   UNL d   1       1.307   4.995   3.897  0.00  0.00    -0.000 C 
BRANCH  11  12
ATOM     12  C   UNL d   1       1.903   5.403   5.247  0.00  0.00    -0.005 C 
ATOM     13  C   UNL d   1       1.819   6.903   5.483  0.00  0.00     0.005 C 
ENDBRANCH  11  12
ENDBRANCH  10  11
ENDBRANCH   9  10
ENDBRANCH   8   9
ENDBRANCH   5   8
ENDBRANCH   1   2
BRANCH   1  14
ATOM     14  C   UNL d   1       1.499  -1.358  -2.514  0.00  0.00     0.282 C 
ATOM     15  O   UNL d   1       1.101  -2.278  -1.810  0.00  0.00    -0.263 OA
BRANCH  14  16
ATOM     16  O   UNL d   1       2.478  -1.454  -3.461  0.00  0.00    -0.320 OA
BRANCH  16  17
ATOM     17  C   UNL d   1       3.267  -2.652  -3.426  0.00  0.00     0.174 C 
ATOM     18  C   UNL d   1       4.497  -2.386  -2.577  0.00  0.00     0.034 C 
ENDBRANCH  16  17
ENDBRANCH  14  16
ENDBRANCH   1  14
BRANCH   1  19
ATOM     19  C   UNL d   1      -0.080   0.242  -3.594  0.00  0.00     0.074 C 
BRANCH  19  20
ATOM     20  C   UNL d   1      -0.568   1.668  -3.713  0.00  0.00    -0.056 A 
ATOM     21  C   UNL d   1       0.172   2.615  -4.434  0.00  0.00     0.007 A 
ATOM     22  C   UNL d   1      -0.273   3.935  -4.528  0.00  0.00     0.001 A 
ATOM     23  C   UNL d   1      -1.454   4.322  -3.897  0.00  0.00     0.000 A 
ATOM     24  C   UNL d   1      -2.188   3.392  -3.165  0.00  0.00     0.001 A 
ATOM     25  C   UNL d   1      -1.748   2.071  -3.072  0.00  0.00     0.007 A 
ENDBRANCH  19  20
ENDBRANCH   1  19
TORSDOF 11
