REMARK  4 active torsions:
REMARK  status: ('A' for Active; 'I' for Inactive)
REMARK    1  A    between atoms: C_11  and  N_3 
REMARK    2  A    between atoms: O_10  and  C_4 
REMARK    3  A    between atoms: C_14  and  C_11 
REMARK    4  A    between atoms: O_13  and  C_14 
ROOT
ATOM      1  C   UNL d   1      -0.697   1.224  -0.010  0.00  0.00     0.118 A 
ATOM      2  C   UNL d   1      -1.482  -0.057  -0.027  0.00  0.00     0.271 A 
ATOM      3  N   UNL d   1      -0.750  -1.248   0.009  0.00  0.00    -0.292 N 
ATOM      4  C   UNL d   1       0.629  -1.258  -0.018  0.00  0.00     0.145 A 
ATOM      5  C   UNL d   1       0.653   1.172  -0.006  0.00  0.00    -0.032 A 
ATOM      6  C   UNL d   1       1.326  -0.115  -0.025  0.00  0.00     0.064 A 
ATOM      7  C   UNL d   1      -1.423   2.452  -0.000  0.00  0.00     0.105 C 
ATOM      8  N   UNL d   1      -1.952   3.486   0.007  0.00  0.00    -0.191 NA
ATOM      9  O   UNL d   1      -2.711  -0.025  -0.072  0.00  0.00    -0.266 OA
ATOM     10  C   UNL d   1       1.573   2.364   0.009  0.00  0.00     0.050 C 
ENDROOT
BRANCH   3  11
ATOM     11  C   UNL d   1      -1.488  -2.517   0.046  0.00  0.00     0.160 C 
BRANCH  11  12
ATOM     12  C   UNL d   1      -1.782  -3.082  -1.344  0.00  0.00     0.184 C 
BRANCH  12  13
ATOM     13  O   UNL d   1      -2.449  -4.338  -1.226  0.00  0.00    -0.399 OA
ATOM     14  H   UNL d   1      -2.657  -4.636  -2.128  0.00  0.00     0.209 HD
ENDBRANCH  12  13
ENDBRANCH  11  12
ENDBRANCH   3  11
BRANCH   4  15
ATOM     15  O   UNL d   1       1.235  -2.489  -0.047  0.00  0.00    -0.346 OA
ATOM     16  H   UNL d   1       2.199  -2.371  -0.020  0.00  0.00     0.219 HD
ENDBRANCH   4  15
TORSDOF 4
