REMARK  3 active torsions:
REMARK  status: ('A' for Active; 'I' for Inactive)
REMARK    1  A    between atoms: C_7  and  C_1 
REMARK    2  A    between atoms: N_16  and  N_8 
REMARK    3  A    between atoms: C_10  and  N_16 
ROOT
ATOM      1  C   UNL d   1       2.097  -1.598  -0.050  0.00  0.00     0.139 C 
ATOM      2  N   UNL d   1       2.022  -2.881  -0.190  0.00  0.00    -0.309 N 
ATOM      3  HN  UNL d   1       1.129  -3.353  -0.335  1.00  0.00     0.186 HD
ENDROOT
BRANCH   2   4
ATOM      4  N   UNL d   1       3.196  -3.570  -0.135  0.00  0.00    -0.301 N 
ATOM      5  H   UNL d   1       3.884  -3.274   0.558  0.00  0.00     0.187 HD
BRANCH   4   6
ATOM      6  C   UNL d   1       3.063  -4.978  -0.221  0.00  0.00     0.051 A 
ATOM      7  C   UNL d   1       2.036  -5.566  -0.977  0.00  0.00     0.054 A 
ATOM      8  C   UNL d   1       1.925  -6.952  -1.072  0.00  0.00     0.037 A 
ATOM      9 CL   UNL d   1       0.649  -7.644  -1.997  0.00  0.00    -0.084 Cl
ATOM     10  C   UNL d   1       2.837  -7.780  -0.428  0.00  0.00     0.048 A 
ATOM     11  C   UNL d   1       3.872  -7.204   0.303  0.00  0.00     0.037 A 
ATOM     12  C   UNL d   1       3.999  -5.815   0.397  0.00  0.00     0.054 A 
ATOM     13 CL   UNL d   1       5.007  -8.217   1.109  0.00  0.00    -0.084 Cl
ENDBRANCH   4   6
ENDBRANCH   2   4
BRANCH   1  14
ATOM     14  C   UNL d   1       0.882  -0.800  -0.043  0.00  0.00     0.083 A 
ATOM     15  N   UNL d   1       0.975   0.543   0.062  0.00  0.00    -0.297 N 
ATOM     16  N   UNL d   1      -0.304   0.968   0.044  0.00  0.00    -0.306 N 
ATOM     17  HN  UNL d   1       1.820   1.108   0.138  1.00  0.00     0.187 HD
ATOM     18  C   UNL d   1      -0.607   2.376   0.134  0.00  0.00     0.177 C 
ATOM     19  C   UNL d   1      -1.214  -0.039  -0.054  0.00  0.00     0.131 A 
ATOM     20  C   UNL d   1      -0.478  -1.191  -0.112  0.00  0.00     0.057 A 
ATOM     21 BR   UNL d   1      -1.189  -2.919  -0.240  0.00  0.00    -0.047 Br
ENDBRANCH   1  14
TORSDOF 3
