REMARK  3 active torsions:
REMARK  status: ('A' for Active; 'I' for Inactive)
REMARK       I    between atoms: N_3  and  C_1 
REMARK       I    between atoms: N_5  and  C_1 
REMARK       I    between atoms: C_2  and  N_4 
REMARK    1  A    between atoms: O_7  and  C_2 
REMARK    2  A    between atoms: C_6  and  N_5 
REMARK    3  A    between atoms: C_17  and  O_7 
ROOT
ATOM      1  C   UNL d   1       0.860  -0.071  -0.041  0.00  0.00     0.322 C 
ATOM      2  C   UNL d   1      -2.675  -1.754  -3.950  0.00  0.00     0.363 C 
ATOM      3  N   UNL d   1       0.283  -0.270  -1.296  0.00  0.00    -0.332 N 
ATOM      4  N   UNL d   1      -2.067  -1.610  -2.698  0.00  0.00    -0.326 N 
ATOM      5  N   UNL d   1       0.466   1.052   0.651  0.00  0.00    -0.309 N 
ATOM      6  O   UNL d   1       1.670  -0.886   0.399  0.00  0.00    -0.247 OA
ATOM      7  O   UNL d   1      -2.930  -0.795  -4.656  0.00  0.00    -0.238 OA
ATOM      8  C   UNL d   1      -0.798   0.482  -1.946  0.00  0.00     0.147 C 
ATOM      9  C   UNL d   1      -2.125  -0.288  -2.056  0.00  0.00     0.148 C 
ATOM     10  C   UNL d   1      -0.022  -2.715  -1.682  0.00  0.00     0.040 C 
ATOM     11  C   UNL d   1      -1.542  -2.713  -1.898  0.00  0.00     0.129 C 
ATOM     12  C   UNL d   1       0.731  -1.441  -2.048  0.00  0.00     0.129 C 
ATOM     13  H   UNL d   1      -0.175   1.677   0.198  0.00  0.00     0.170 HD
ENDROOT
BRANCH   5  14
ATOM     14  C   UNL d   1       0.844   1.422   1.970  0.00  0.00     0.039 A 
ATOM     15  C   UNL d   1       1.800   0.747   2.736  0.00  0.00     0.053 A 
ATOM     16  C   UNL d   1       2.051   1.128   4.059  0.00  0.00     0.037 A 
ATOM     17 CL   UNL d   1       3.215   0.265   4.991  0.00  0.00    -0.084 Cl
ATOM     18  C   UNL d   1       1.364   2.188   4.638  0.00  0.00     0.048 A 
ATOM     19  C   UNL d   1       0.442   2.887   3.869  0.00  0.00     0.037 A 
ATOM     20  C   UNL d   1       0.188   2.520   2.543  0.00  0.00     0.053 A 
ATOM     21 CL   UNL d   1      -0.417   4.206   4.568  0.00  0.00    -0.084 Cl
ENDBRANCH   5  14
BRANCH   2  22
ATOM     22  O   UNL d   1      -2.995  -3.040  -4.269  0.00  0.00    -0.294 OA
BRANCH  22  23
ATOM     23  C   UNL d   1      -3.682  -3.328  -5.527  0.00  0.00     0.061 C 
ATOM     24  C   UNL d   1      -2.789  -2.973  -6.725  0.00  0.00     0.046 C 
ATOM     25  C   UNL d   1      -3.949  -4.847  -5.533  0.00  0.00     0.046 C 
ATOM     26  C   UNL d   1      -5.050  -2.628  -5.638  0.00  0.00     0.046 C 
ENDBRANCH  22  23
ENDBRANCH   2  22
TORSDOF 3
