REMARK  5 active torsions:
REMARK  status: ('A' for Active; 'I' for Inactive)
REMARK    1  A    between atoms: C_7  and  C_1 
REMARK    2  A    between atoms: C_8  and  N_3 
REMARK    3  A    between atoms: O_11  and  C_7 
REMARK    4  A    between atoms: C_12  and  C_8 
REMARK    5  A    between atoms: C_13  and  O_11 
ROOT
ATOM      1  C   UNL d   1       1.050  -0.664  -0.020  0.00  0.00     0.153 A 
ATOM      2  C   UNL d   1       1.047   0.724   0.035  0.00  0.00     0.135 A 
ATOM      3  N   UNL d   1      -0.278   1.082  -0.023  0.00  0.00    -0.323 N 
ATOM      4  N   UNL d   1      -0.255  -1.139  -0.065  0.00  0.00    -0.344 N 
ATOM      5  HN  UNL d   1      -0.558  -2.112  -0.099  1.00  0.00     0.167 HD
ATOM      6  C   UNL d   1      -1.016  -0.071  -0.054  0.00  0.00     0.185 A 
ATOM      7  N   UNL d   1       2.053   1.625   0.113  0.00  0.00    -0.383 N 
ATOM      8  H   UNL d   1       3.009   1.271   0.006  0.00  0.00     0.157 HD
ATOM      9  H   UNL d   1       1.955   2.557  -0.281  0.00  0.00     0.157 HD
ENDROOT
BRANCH   3  10
ATOM     10  C   UNL d   1      -0.845   2.419   0.036  0.00  0.00     0.170 C 
BRANCH  10  11
ATOM     11  C   UNL d   1      -0.953   3.063  -1.327  0.00  0.00    -0.040 A 
ATOM     12  C   UNL d   1      -1.799   2.534  -2.315  0.00  0.00     0.009 A 
ATOM     13  C   UNL d   1      -1.921   3.158  -3.558  0.00  0.00     0.001 A 
ATOM     14  C   UNL d   1      -1.205   4.321  -3.829  0.00  0.00     0.000 A 
ATOM     15  C   UNL d   1      -0.363   4.860  -2.859  0.00  0.00     0.001 A 
ATOM     16  C   UNL d   1      -0.237   4.235  -1.615  0.00  0.00     0.009 A 
ENDBRANCH  10  11
ENDBRANCH   3  10
BRANCH   1  17
ATOM     17  C   UNL d   1       2.230  -1.522  -0.102  0.00  0.00     0.314 C 
ATOM     18  O   UNL d   1       3.382  -1.089  -0.139  0.00  0.00    -0.257 OA
BRANCH  17  19
ATOM     19  O   UNL d   1       1.903  -2.841  -0.232  0.00  0.00    -0.317 OA
BRANCH  19  20
ATOM     20  C   UNL d   1       2.945  -3.694  -0.715  0.00  0.00     0.175 C 
ATOM     21  C   UNL d   1       2.913  -3.679  -2.233  0.00  0.00     0.034 C 
ENDBRANCH  19  20
ENDBRANCH  17  19
ENDBRANCH   1  17
TORSDOF 5
