REMARK  6 active torsions:
REMARK  status: ('A' for Active; 'I' for Inactive)
REMARK    1  A    between atoms: S_10  and  C_2 
REMARK    2  A    between atoms: C_12  and  S_10 
REMARK    3  A    between atoms: C_13  and  C_12 
REMARK    4  A    between atoms: C_15  and  C_12 
REMARK    5  A    between atoms: O_19  and  C_13 
REMARK    6  A    between atoms: C_23  and  O_19 
ROOT
ATOM      1  C   UNL d   1       0.710   0.464  -0.058  0.00  0.00     0.073 A 
ATOM      2  C   UNL d   1       3.398   0.023  -0.142  0.00  0.00     0.151 A 
ATOM      3  C   UNL d   1       1.312  -0.769   0.029  0.00  0.00     0.092 A 
ATOM      4  N   UNL d   1       2.646  -1.016   0.027  0.00  0.00    -0.330 N 
ATOM      5  HN  UNL d   1       3.028  -1.953   0.150  1.00  0.00     0.168 HD
ATOM      6  N   UNL d   1       2.934   1.331  -0.297  0.00  0.00    -0.298 N 
ATOM      7  C   UNL d   1       1.566   1.622  -0.195  0.00  0.00     0.262 A 
ATOM      8  S   UNL d   1       0.158  -2.027   0.127  0.00  0.00    -0.075 SA
ATOM      9  C   UNL d   1      -0.718   0.390  -0.012  0.00  0.00    -0.026 A 
ATOM     10  C   UNL d   1      -1.141  -0.925   0.058  0.00  0.00    -0.008 A 
ATOM     11  O   UNL d   1       1.113   2.764  -0.228  0.00  0.00    -0.267 OA
ATOM     12  C   UNL d   1       3.762   2.502  -0.568  0.00  0.00     0.161 C 
ATOM     13  C   UNL d   1      -1.686   1.538  -0.027  0.00  0.00     0.041 C 
ATOM     14  C   UNL d   1      -2.572  -1.368   0.041  0.00  0.00     0.047 C 
ATOM     15  C   UNL d   1      -3.113   1.084  -0.367  0.00  0.00     0.005 C 
ATOM     16  C   UNL d   1      -3.502  -0.195   0.389  0.00  0.00     0.005 C 
ENDROOT
BRANCH   2  17
ATOM     17  S   UNL d   1       5.140  -0.209  -0.122  0.00  0.00    -0.071 SA
BRANCH  17  18
ATOM     18  C   UNL d   1       5.322  -1.984  -0.534  0.00  0.00     0.223 C 
BRANCH  18  19
ATOM     19  C   UNL d   1       4.927  -2.237  -1.969  0.00  0.00     0.280 C 
ATOM     20  O   UNL d   1       5.581  -1.882  -2.943  0.00  0.00    -0.263 OA
BRANCH  19  21
ATOM     21  O   UNL d   1       3.714  -2.853  -2.042  0.00  0.00    -0.321 OA
BRANCH  21  22
ATOM     22  C   UNL d   1       3.114  -2.891  -3.344  0.00  0.00     0.174 C 
ATOM     23  C   UNL d   1       2.360  -1.595  -3.581  0.00  0.00     0.034 C 
ENDBRANCH  21  22
ENDBRANCH  19  21
ENDBRANCH  18  19
BRANCH  18  24
ATOM     24  C   UNL d   1       6.758  -2.403  -0.273  0.00  0.00     0.146 C 
ATOM     25  O   UNL d   1       7.014  -3.312   0.525  0.00  0.00    -0.297 OA
ATOM     26  C   UNL d   1       7.895  -1.715  -0.997  0.00  0.00     0.092 C 
ENDBRANCH  18  24
ENDBRANCH  17  18
ENDBRANCH   2  17
TORSDOF 6
