REMARK  5 active torsions:
REMARK  status: ('A' for Active; 'I' for Inactive)
REMARK    1  A    between atoms: C_12  and  N_1 
REMARK    2  A    between atoms: C_2  and  C_3 
REMARK    3  A    between atoms: N_15  and  C_4 
REMARK    4  A    between atoms: C_14  and  C_10 
REMARK    5  A    between atoms: C_16  and  C_12 
ROOT
ATOM      1  N   UNL d   1       0.802  -0.628   0.101  0.00  0.00    -0.303 N 
ATOM      2  C   UNL d   1       0.856   0.735   0.026  0.00  0.00     0.138 A 
ATOM      3  N   UNL d   1      -0.316   1.315  -0.012  0.00  0.00    -0.282 N 
ATOM      4  HN  UNL d   1      -0.518   2.313  -0.073  1.00  0.00     0.188 HD
ATOM      5  C   UNL d   1      -0.540  -0.926   0.109  0.00  0.00     0.194 A 
ATOM      6  N   UNL d   1      -1.205   0.284   0.048  0.00  0.00    -0.274 N 
ATOM      7  S   UNL d   1      -1.317  -2.389   0.177  0.00  0.00    -0.039 SA
ATOM      8  H   UNL d   1      -2.209   0.429   0.037  0.00  0.00     0.189 HD
ENDROOT
BRANCH   2   9
ATOM      9  C   UNL d   1       2.078   1.524  -0.020  0.00  0.00     0.044 A 
ATOM     10  C   UNL d   1       2.192   2.696  -0.754  0.00  0.00     0.082 A 
ATOM     11  S   UNL d   1       3.744   3.401  -0.628  0.00  0.00    -0.071 SA
ATOM     12  C   UNL d   1       4.315   2.176   0.415  0.00  0.00     0.018 A 
ATOM     13  C   UNL d   1       3.305   1.270   0.684  0.00  0.00     0.038 A 
BRANCH  10  14
ATOM     14  N   UNL d   1       1.248   3.286  -1.524  0.00  0.00    -0.393 N 
ATOM     15  H   UNL d   1       0.273   3.035  -1.349  0.00  0.00     0.156 HD
ATOM     16  H   UNL d   1       1.371   4.265  -1.766  0.00  0.00     0.156 HD
ENDBRANCH  10  14
BRANCH  12  17
ATOM     17  C   UNL d   1       5.713   2.149   0.876  0.00  0.00    -0.019 A 
ATOM     18  C   UNL d   1       6.383   0.919   0.991  0.00  0.00     0.013 A 
ATOM     19  C   UNL d   1       7.722   0.863   1.388  0.00  0.00     0.001 A 
ATOM     20  C   UNL d   1       8.410   2.036   1.685  0.00  0.00     0.000 A 
ATOM     21  C   UNL d   1       7.756   3.263   1.597  0.00  0.00     0.001 A 
ATOM     22  C   UNL d   1       6.417   3.319   1.199  0.00  0.00     0.013 A 
ENDBRANCH  12  17
ENDBRANCH   2   9
BRANCH   1  23
ATOM     23  C   UNL d   1       1.893  -1.594   0.080  0.00  0.00     0.171 C 
BRANCH  23  24
ATOM     24  C   UNL d   1       2.458  -1.944   1.443  0.00  0.00    -0.040 A 
ATOM     25  C   UNL d   1       1.871  -1.524   2.647  0.00  0.00     0.009 A 
ATOM     26  C   UNL d   1       2.475  -1.809   3.873  0.00  0.00     0.001 A 
ATOM     27  C   UNL d   1       3.662  -2.534   3.915  0.00  0.00     0.000 A 
ATOM     28  C   UNL d   1       4.242  -2.986   2.732  0.00  0.00     0.001 A 
ATOM     29  C   UNL d   1       3.643  -2.696   1.504  0.00  0.00     0.009 A 
ENDBRANCH  23  24
ENDBRANCH   1  23
TORSDOF 5
