REMARK  2 active torsions:
REMARK  status: ('A' for Active; 'I' for Inactive)
REMARK    1  A    between atoms: C_15  and  C_10 
REMARK    2  A    between atoms: C_24  and  C_17 
ROOT
ATOM      1  N   UNL d   1       0.004  -0.697  -1.390  0.00  0.00    -0.213 N 
ATOM      2  C   UNL d   1      -0.567  -0.478  -2.631  0.00  0.00     0.161 A 
ATOM      3  N   UNL d   1       1.057  -1.532  -1.100  0.00  0.00    -0.293 N 
ATOM      4  HN  UNL d   1       1.397  -2.215  -1.777  1.00  0.00     0.187 HD
ATOM      5  C   UNL d   1      -0.788   0.020  -0.526  0.00  0.00     0.182 A 
ATOM      6  N   UNL d   1      -1.627   0.302  -2.493  0.00  0.00    -0.281 N 
ATOM      7  HN  UNL d   1      -2.238   0.617  -3.247  1.00  0.00     0.188 HD
ATOM      8  N   UNL d   1      -1.764   0.616  -1.159  0.00  0.00    -0.277 N 
ATOM      9  HN  UNL d   1      -2.490   1.202  -0.745  1.00  0.00     0.189 HD
ATOM     10  C   UNL d   1       1.602  -1.411   0.080  0.00  0.00     0.046 C 
ATOM     11  S   UNL d   1      -0.483   0.019   1.169  0.00  0.00    -0.085 SA
ATOM     12  C   UNL d   1      -0.077  -0.995  -3.878  0.00  0.00     0.052 A 
ATOM     13  S   UNL d   1      -1.142  -1.262  -5.199  0.00  0.00    -0.098 SA
ATOM     14  C   UNL d   1       1.290  -0.307   1.083  0.00  0.00     0.142 C 
ATOM     15  C   UNL d   1       1.222  -1.325  -4.216  0.00  0.00     0.023 A 
ATOM     16  C   UNL d   1       0.124  -1.830  -6.196  0.00  0.00     0.050 A 
ATOM     17  C   UNL d   1       1.339  -1.806  -5.553  0.00  0.00     0.009 A 
ENDROOT
BRANCH  10  18
ATOM     18  C   UNL d   1       2.666  -2.393   0.450  0.00  0.00    -0.011 A 
ATOM     19  C   UNL d   1       3.728  -2.041   1.282  0.00  0.00     0.014 A 
ATOM     20  C   UNL d   1       4.687  -2.998   1.634  0.00  0.00     0.013 A 
ATOM     21  C   UNL d   1       4.614  -4.327   1.176  0.00  0.00    -0.026 A 
ATOM     22  C   UNL d   1       3.543  -4.651   0.324  0.00  0.00     0.013 A 
ATOM     23  C   UNL d   1       2.587  -3.696  -0.045  0.00  0.00     0.014 A 
BRANCH  21  24
ATOM     24  C   UNL d   1       5.633  -5.332   1.570  0.00  0.00    -0.026 A 
ATOM     25  C   UNL d   1       6.019  -6.370   0.703  0.00  0.00     0.012 A 
ATOM     26  C   UNL d   1       6.995  -7.304   1.068  0.00  0.00     0.001 A 
ATOM     27  C   UNL d   1       7.615  -7.216   2.309  0.00  0.00     0.000 A 
ATOM     28  C   UNL d   1       7.251  -6.204   3.190  0.00  0.00     0.001 A 
ATOM     29  C   UNL d   1       6.265  -5.281   2.828  0.00  0.00     0.012 A 
ENDBRANCH  21  24
ENDBRANCH  10  18
TORSDOF 2
