REMARK  1 active torsions:
REMARK  status: ('A' for Active; 'I' for Inactive)
REMARK    1  A    between atoms: C_10  and  C_4 
ROOT
ATOM      1  C   UNL d   1      -0.684   1.231  -0.003  0.00  0.00     0.118 A 
ATOM      2  C   UNL d   1      -1.420  -0.074  -0.003  0.00  0.00     0.267 A 
ATOM      3  N   UNL d   1      -0.647  -1.211   0.009  0.00  0.00    -0.322 N 
ATOM      4  C   UNL d   1       0.721  -1.209   0.018  0.00  0.00     0.045 A 
ATOM      5  C   UNL d   1       0.668   1.222   0.003  0.00  0.00    -0.034 A 
ATOM      6  C   UNL d   1       1.388  -0.046   0.014  0.00  0.00     0.039 A 
ATOM      7  C   UNL d   1      -1.454   2.426  -0.007  0.00  0.00     0.105 C 
ATOM      8  N   UNL d   1      -2.031   3.435  -0.010  0.00  0.00    -0.191 NA
ATOM      9  O   UNL d   1      -2.644  -0.140  -0.011  0.00  0.00    -0.267 OA
ATOM     10  C   UNL d   1       1.549   2.444   0.005  0.00  0.00     0.050 C 
ATOM     11  H   UNL d   1      -1.149  -2.092   0.011  0.00  0.00     0.169 HD
ENDROOT
BRANCH   4  12
ATOM     12  C   UNL d   1       1.429  -2.491   0.042  0.00  0.00    -0.009 A 
ATOM     13  C   UNL d   1       1.745  -3.098   1.264  0.00  0.00     0.013 A 
ATOM     14  C   UNL d   1       2.456  -4.299   1.291  0.00  0.00     0.001 A 
ATOM     15  C   UNL d   1       2.853  -4.901   0.098  0.00  0.00     0.000 A 
ATOM     16  C   UNL d   1       2.538  -4.306  -1.123  0.00  0.00     0.001 A 
ATOM     17  C   UNL d   1       1.828  -3.104  -1.152  0.00  0.00     0.013 A 
ENDBRANCH   4  12
TORSDOF 1
