REMARK  6 active torsions:
REMARK  status: ('A' for Active; 'I' for Inactive)
REMARK    1  A    between atoms: N_10  and  C_1 
REMARK    2  A    between atoms: C_5  and  C_2 
REMARK    3  A    between atoms: N_12  and  C_5 
REMARK    4  A    between atoms: O_11  and  N_8 
REMARK    5  A    between atoms: C_22  and  O_11 
REMARK    6  A    between atoms: C_16  and  C_22 
ROOT
ATOM      1  C   UNL d   1      -0.009   3.859   0.084  0.00  0.00     0.108 C 
ATOM      2  N   UNL d   1      -1.125   4.527   0.019  0.00  0.00    -0.255 N 
ATOM      3  HN  UNL d   1      -1.193   5.540  -0.074  1.00  0.00     0.195 HD
ENDROOT
BRANCH   1   4
ATOM      4  C   UNL d   1       1.277   4.611   0.009  0.00  0.00     0.007 A 
ATOM      5  C   UNL d   1       2.413   4.109   0.649  0.00  0.00     0.040 A 
ATOM      6  C   UNL d   1       3.617   4.815   0.580  0.00  0.00     0.057 A 
ATOM      7  C   UNL d   1       3.710   6.044  -0.100  0.00  0.00     0.050 A 
ATOM      8 CL   UNL d   1       4.995   4.148   1.389  0.00  0.00    -0.082 Cl
ATOM      9  C   UNL d   1       2.560   6.504  -0.772  0.00  0.00     0.057 A 
ATOM     10  C   UNL d   1       1.348   5.811  -0.702  0.00  0.00     0.040 A 
ATOM     11 CL   UNL d   1       2.608   7.969  -1.694  0.00  0.00    -0.082 Cl
BRANCH   7  12
ATOM     12  N   UNL d   1       4.962   6.673  -0.288  0.00  0.00    -0.300 NA
ATOM     13  H   UNL d   1       4.884   7.664  -0.509  0.00  0.00     0.124 HD
ATOM     14  H   UNL d   1       5.627   6.474   0.454  0.00  0.00     0.124 HD
ENDBRANCH   7  12
ENDBRANCH   1   4
BRANCH   1  15
ATOM     15  N   UNL d   1       0.029   2.492   0.231  0.00  0.00    -0.286 NA
ATOM     16  H   UNL d   1       0.747   2.010  -0.299  0.00  0.00     0.125 HD
ATOM     17  H   UNL d   1      -0.894   2.095   0.068  0.00  0.00     0.125 HD
ENDBRANCH   1  15
BRANCH   2  18
ATOM     18  O   UNL d   1      -2.224   3.648   0.096  0.00  0.00    -0.275 OA
BRANCH  18  19
ATOM     19  C   UNL d   1      -3.350   4.359   0.613  0.00  0.00     0.239 C 
BRANCH  19  20
ATOM     20  C   UNL d   1      -4.533   3.424   0.660  0.00  0.00    -0.032 A 
ATOM     21  C   UNL d   1      -5.120   3.069   1.884  0.00  0.00     0.011 A 
ATOM     22  C   UNL d   1      -6.218   2.206   1.919  0.00  0.00     0.024 A 
ATOM     23  C   UNL d   1      -6.734   1.691   0.732  0.00  0.00     0.034 A 
ATOM     24  C   UNL d   1      -6.161   2.032  -0.491  0.00  0.00     0.024 A 
ATOM     25 CL   UNL d   1      -8.086   0.628   0.776  0.00  0.00    -0.084 Cl
ATOM     26  C   UNL d   1      -5.064   2.896  -0.527  0.00  0.00     0.011 A 
ENDBRANCH  19  20
ENDBRANCH  18  19
ENDBRANCH   2  18
TORSDOF 6
