REMARK  11 active torsions:
REMARK  status: ('A' for Active; 'I' for Inactive)
REMARK    1  A    between atoms: N_6  and  C_1 
REMARK    2  A    between atoms: N_14  and  C_1 
REMARK       I    between atoms: C_4  and  N_7 
REMARK    3  A    between atoms: C_15  and  C_4 
REMARK    4  A    between atoms: C_5  and  O_10 
REMARK    5  A    between atoms: N_7  and  N_6 
REMARK    6  A    between atoms: O_10  and  C_15 
REMARK    7  A    between atoms: C_20  and  N_14 
REMARK    8  A    between atoms: C_21  and  C_20 
REMARK    9  A    between atoms: C_24  and  C_21 
REMARK   10  A    between atoms: C_22  and  C_23 
REMARK   11  A    between atoms: C_23  and  C_24 
ROOT
ATOM      1  C   UNL d   1      -0.011  -1.488  -3.346  0.00  0.00     0.260 C 
ATOM      2  N   UNL d   1       0.886  -1.102  -2.365  0.00  0.00    -0.266 N 
ATOM      3  O   UNL d   1      -1.224  -1.519  -3.171  0.00  0.00    -0.269 OA
ATOM      4  H   UNL d   1       1.831  -0.788  -2.591  0.00  0.00     0.190 HD
ENDROOT
BRANCH   1   5
ATOM      5  C   UNL d   1       0.690  -1.999  -4.609  0.00  0.00     0.280 C 
BRANCH   5   6
ATOM      6  O   UNL d   1       0.491  -1.210  -5.769  0.00  0.00    -0.341 OA
BRANCH   6   7
ATOM      7  C   UNL d   1       1.125  -1.658  -6.901  0.00  0.00     0.076 A 
ATOM      8  C   UNL d   1       0.972  -0.895  -8.052  0.00  0.00    -0.018 A 
ATOM      9  C   UNL d   1       1.580  -1.265  -9.260  0.00  0.00    -0.043 A 
ATOM     10  C   UNL d   1       0.185   0.367  -8.199  0.00  0.00     0.042 A 
ATOM     11  C   UNL d   1       1.271  -0.292 -10.352  0.00  0.00     0.040 A 
ATOM     12  C   UNL d   1       2.362  -2.413  -9.357  0.00  0.00    -0.055 A 
ATOM     13  C   UNL d   1       0.371   0.748  -9.675  0.00  0.00     0.009 A 
ATOM     14  C   UNL d   1       2.520  -3.185  -8.203  0.00  0.00     0.010 A 
ATOM     15  C   UNL d   1       3.008  -2.818 -10.646  0.00  0.00     0.049 C 
ATOM     16  C   UNL d   1       1.910  -2.814  -6.992  0.00  0.00     0.038 A 
ENDBRANCH   6   7
ENDBRANCH   5   6
ENDBRANCH   1   5
BRANCH   2  17
ATOM     17  N   UNL d   1       0.432  -0.821  -1.073  0.00  0.00    -0.274 N 
ATOM     18  H   UNL d   1      -0.545  -1.069  -0.900  0.00  0.00     0.189 HD
BRANCH  17  19
ATOM     19  C   UNL d   1       0.977   0.231  -0.350  0.00  0.00     0.186 C 
ATOM     20  S   UNL d   1       2.093   1.315  -0.970  0.00  0.00    -0.040 SA
BRANCH  19  21
ATOM     21  N   UNL d   1       0.517   0.219   0.950  0.00  0.00    -0.366 N 
ATOM     22  H   UNL d   1       0.045  -0.624   1.250  0.00  0.00     0.161 HD
BRANCH  21  23
ATOM     23  C   UNL d   1       0.646   1.278   1.943  0.00  0.00     0.122 C 
BRANCH  23  24
ATOM     24  C   UNL d   1      -0.393   2.380   1.726  0.00  0.00     0.020 C 
BRANCH  24  25
ATOM     25  C   UNL d   1      -1.819   1.825   1.777  0.00  0.00     0.002 C 
BRANCH  25  26
ATOM     26  C   UNL d   1      -2.865   2.908   1.528  0.00  0.00    -0.000 C 
BRANCH  26  27
ATOM     27  C   UNL d   1      -4.270   2.307   1.559  0.00  0.00    -0.005 C 
ATOM     28  C   UNL d   1      -5.335   3.359   1.308  0.00  0.00     0.005 C 
ENDBRANCH  26  27
ENDBRANCH  25  26
ENDBRANCH  24  25
ENDBRANCH  23  24
ENDBRANCH  21  23
ENDBRANCH  19  21
ENDBRANCH  17  19
ENDBRANCH   2  17
TORSDOF 11
