REMARK  0 active torsions:
REMARK  status: ('A' for Active; 'I' for Inactive)
ROOT
ATOM      1  C   UNL d   1      -0.102   0.633   0.006  0.00  0.00     0.138 A 
ATOM      2  N   UNL d   1      -1.221   1.375   0.000  0.00  0.00    -0.175 N 
ATOM      3  HN  UNL d   1      -1.179   2.394  -0.036  1.00  0.00     0.186 HD
ATOM      4  N   UNL d   1       1.100   1.338  -0.045  0.00  0.00    -0.318 N 
ATOM      5  N   UNL d   1       2.325  -0.635   0.001  0.00  0.00    -0.323 N 
ATOM      6  C   UNL d   1       2.316   0.733  -0.041  0.00  0.00     0.178 A 
ATOM      7  C   UNL d   1      -2.398   0.729   0.044  0.00  0.00     0.681 A 
ATOM      8  C   UNL d   1       1.206  -1.447   0.042  0.00  0.00     0.118 A 
ATOM      9  C   UNL d   1      -0.086  -0.742   0.055  0.00  0.00     0.063 A 
ATOM     10  N   UNL d   1      -2.474  -0.611   0.108  0.00  0.00    -0.201 N 
ATOM     11  HN  UNL d   1      -3.379  -1.080   0.152  1.00  0.00     0.183 HD
ATOM     12  N   UNL d   1      -3.551   1.453  -0.046  0.00  0.00    -0.214 N 
ATOM     13  C   UNL d   1      -1.326  -1.323   0.112  0.00  0.00     0.124 A 
ATOM     14  S   UNL d   1       1.420  -3.106   0.070  0.00  0.00    -0.059 SA
ATOM     15  S   UNL d   1       3.727   1.608  -0.084  0.00  0.00    -0.040 SA
ATOM     16  O   UNL d   1      -5.865   2.876  -0.834  0.00  0.00    -0.388 OA
ATOM     17  C   UNL d   1      -4.863   0.827   0.096  0.00  0.00     0.167 C 
ATOM     18  C   UNL d   1      -3.551   2.913   0.010  0.00  0.00     0.167 C 
ATOM     19  C   UNL d   1      -5.814   1.442  -0.944  0.00  0.00     0.188 C 
ATOM     20  C   UNL d   1      -4.556   3.443  -1.027  0.00  0.00     0.188 C 
ATOM     21  H   UNL d   1       1.037   2.347  -0.080  0.00  0.00     0.170 HD
ATOM     22  H   UNL d   1       3.231  -1.088  -0.003  0.00  0.00     0.169 HD
ENDROOT
TORSDOF 0
