REMARK  3 active torsions:
REMARK  status: ('A' for Active; 'I' for Inactive)
REMARK    1  A    between atoms: S_13  and  C_9 
REMARK    2  A    between atoms: C_14  and  S_13 
REMARK    3  A    between atoms: C_16  and  C_14 
ROOT
ATOM      1  C   UNL d   1       1.234  -0.879   0.056  0.00  0.00     0.137 A 
ATOM      2  C   UNL d   1       0.862   0.452   0.078  0.00  0.00     0.104 A 
ATOM      3  N   UNL d   1       2.488  -1.353   0.029  0.00  0.00    -0.320 N 
ATOM      4  HN  UNL d   1       2.732  -2.343   0.016  1.00  0.00     0.169 HD
ATOM      5  N   UNL d   1       0.100  -1.636   0.048  0.00  0.00    -0.340 N 
ATOM      6  N   UNL d   1       1.820   1.414   0.098  0.00  0.00    -0.294 N 
ATOM      7  HN  UNL d   1       1.587   2.406   0.138  1.00  0.00     0.187 HD
ATOM      8  C   UNL d   1      -0.560   0.503   0.063  0.00  0.00     0.022 A 
ATOM      9  C   UNL d   1       3.384  -0.344   0.021  0.00  0.00     0.161 A 
ATOM     10  C   UNL d   1      -1.013  -0.823   0.042  0.00  0.00     0.046 A 
ATOM     11  N   UNL d   1       3.091   0.985   0.061  0.00  0.00    -0.279 N 
ATOM     12  HN  UNL d   1       3.851   1.666   0.063  1.00  0.00     0.189 HD
ATOM     13  C   UNL d   1      -1.517   1.539   0.050  0.00  0.00     0.016 A 
ATOM     14  C   UNL d   1      -2.371  -1.161   0.017  0.00  0.00     0.030 A 
ATOM     15  C   UNL d   1      -2.879   1.215   0.019  0.00  0.00     0.001 A 
ATOM     16  C   UNL d   1      -3.297  -0.115   0.004  0.00  0.00     0.002 A 
ATOM     17  H   UNL d   1       0.094  -2.645   0.028  0.00  0.00     0.167 HD
ENDROOT
BRANCH   9  18
ATOM     18  S   UNL d   1       5.074  -0.854  -0.173  0.00  0.00    -0.088 SA
BRANCH  18  19
ATOM     19  C   UNL d   1       5.929   0.439   0.778  0.00  0.00     0.121 C 
BRANCH  19  20
ATOM     20  C   UNL d   1       7.409   0.123   0.849  0.00  0.00    -0.048 A 
ATOM     21  C   UNL d   1       8.275   0.540  -0.177  0.00  0.00     0.009 A 
ATOM     22  C   UNL d   1       9.624   0.176  -0.159  0.00  0.00     0.024 A 
ATOM     23  C   UNL d   1      10.116  -0.607   0.882  0.00  0.00     0.034 A 
ATOM     24  C   UNL d   1       9.274  -1.023   1.909  0.00  0.00     0.024 A 
ATOM     25 CL   UNL d   1      11.772  -1.076   0.890  0.00  0.00    -0.084 Cl
ATOM     26  C   UNL d   1       7.924  -0.661   1.893  0.00  0.00     0.009 A 
ENDBRANCH  19  20
ENDBRANCH  18  19
ENDBRANCH   9  18
TORSDOF 3
