REMARK  3 active torsions:
REMARK  status: ('A' for Active; 'I' for Inactive)
REMARK       I    between atoms: N_2  and  C_1 
REMARK       I    between atoms: N_3  and  C_1 
REMARK    1  A    between atoms: C_7  and  N_2 
REMARK    2  A    between atoms: C_10  and  N_3 
REMARK       I    between atoms: C_4  and  N_5 
REMARK    3  A    between atoms: N_5  and  C_11 
ROOT
ATOM      1  C   UNL d   1       1.117   0.550   0.099  0.00  0.00     0.325 C 
ATOM      2  N   UNL d   1       2.449   0.610  -0.287  0.00  0.00    -0.309 N 
ATOM      3  N   UNL d   1       0.269   0.716  -0.985  0.00  0.00    -0.309 N 
ATOM      4  O   UNL d   1       0.739   0.402   1.254  0.00  0.00    -0.247 OA
ATOM      5  H   UNL d   1       2.632   0.882  -1.241  0.00  0.00     0.170 HD
ATOM      6  H   UNL d   1       0.672   0.621  -1.903  0.00  0.00     0.170 HD
ENDROOT
BRANCH   3   7
ATOM      7  C   UNL d   1      -1.137   0.861  -0.932  0.00  0.00     0.036 A 
ATOM      8  C   UNL d   1      -1.863   0.994   0.253  0.00  0.00     0.032 A 
ATOM      9  C   UNL d   1      -3.257   1.118   0.231  0.00  0.00     0.032 A 
ATOM     10  C   UNL d   1      -3.956   1.120  -0.978  0.00  0.00     0.034 A 
ATOM     11  C   UNL d   1      -3.231   1.015  -2.167  0.00  0.00     0.032 A 
ATOM     12  C   UNL d   1      -1.834   0.888  -2.142  0.00  0.00     0.032 A 
BRANCH  10  13
ATOM     13  N   UNL d   1      -5.360   1.219  -0.910  0.00  0.00    -0.328 N 
ATOM     14  C   UNL d   1      -6.253   1.212  -1.963  0.00  0.00     0.218 C 
ATOM     15  O   UNL d   1      -5.980   1.148  -3.158  0.00  0.00    -0.274 OA
ATOM     16  C   UNL d   1      -7.694   1.285  -1.520  0.00  0.00     0.117 C 
ATOM     17  H   UNL d   1      -5.749   1.278   0.023  0.00  0.00     0.169 HD
ENDBRANCH  10  13
ENDBRANCH   3   7
BRANCH   2  18
ATOM     18  C   UNL d   1       3.565   0.588   0.583  0.00  0.00     0.037 A 
ATOM     19  C   UNL d   1       3.484   0.251   1.938  0.00  0.00     0.053 A 
ATOM     20  C   UNL d   1       4.609   0.350   2.758  0.00  0.00     0.036 A 
ATOM     21 CL   UNL d   1       4.478  -0.025   4.434  0.00  0.00    -0.084 Cl
ATOM     22  C   UNL d   1       5.830   0.762   2.238  0.00  0.00     0.024 A 
ATOM     23  C   UNL d   1       5.934   1.056   0.880  0.00  0.00     0.004 A 
ATOM     24  C   UNL d   1       4.809   0.961   0.054  0.00  0.00     0.029 A 
ENDBRANCH   2  18
TORSDOF 3
