REMARK  3 active torsions:
REMARK  status: ('A' for Active; 'I' for Inactive)
REMARK    1  A    between atoms: S_7  and  C_3 
REMARK    2  A    between atoms: N_13  and  C_4 
REMARK    3  A    between atoms: C_9  and  S_7 
ROOT
ATOM      1  N   UNL d   1       1.199   1.009   0.024  0.00  0.00    -0.327 N 
ATOM      2  HN  UNL d   1       2.120   1.448   0.033  1.00  0.00     0.169 HD
ATOM      3  C   UNL d   1       0.069   1.738  -0.063  0.00  0.00     0.080 A 
ATOM      4  C   UNL d   1       1.054  -0.313   0.097  0.00  0.00     0.155 A 
ATOM      5  N   UNL d   1      -0.114  -0.959   0.048  0.00  0.00    -0.337 N 
ATOM      6  HN  UNL d   1      -0.159  -1.978   0.073  1.00  0.00     0.168 HD
ATOM      7  C   UNL d   1      -1.185   1.167  -0.084  0.00  0.00     0.062 A 
ATOM      8  C   UNL d   1      -1.229  -0.208  -0.036  0.00  0.00     0.010 A 
ATOM      9  C   UNL d   1      -2.544  -0.926  -0.039  0.00  0.00     0.068 C 
ENDROOT
BRANCH   3  10
ATOM     10  S   UNL d   1       0.285   3.504  -0.020  0.00  0.00    -0.055 SA
BRANCH  10  11
ATOM     11  C   UNL d   1      -0.389   4.002  -1.590  0.00  0.00     0.075 A 
ATOM     12  N   UNL d   1      -1.710   3.796  -1.805  0.00  0.00    -0.360 N 
ATOM     13  C   UNL d   1      -2.225   4.256  -2.967  0.00  0.00     0.089 A 
ATOM     14  HN  UNL d   1      -2.292   3.314  -1.120  1.00  0.00     0.166 HD
ATOM     15  C   UNL d   1      -1.486   4.920  -3.931  0.00  0.00     0.017 A 
ATOM     16  C   UNL d   1      -0.132   5.123  -3.693  0.00  0.00     0.004 A 
ATOM     17  C   UNL d   1       0.427   4.660  -2.504  0.00  0.00     0.037 A 
ENDBRANCH  10  11
ENDBRANCH   3  10
BRANCH   4  18
ATOM     18  N   UNL d   1       2.196  -1.078   0.201  0.00  0.00    -0.274 NA
ATOM     19  H   UNL d   1       2.985  -0.572  -0.175  0.00  0.00     0.127 HD
ATOM     20  H   UNL d   1       2.018  -2.007  -0.154  0.00  0.00     0.127 HD
ENDBRANCH   4  18
TORSDOF 3
