REMARK  7 active torsions:
REMARK  status: ('A' for Active; 'I' for Inactive)
REMARK    1  A    between atoms: C_2  and  N_1 
REMARK    2  A    between atoms: C_3  and  C_5 
REMARK       I    between atoms: N_6  and  C_8 
REMARK    3  A    between atoms: C_9  and  N_6 
REMARK    4  A    between atoms: S_11  and  C_7 
REMARK    5  A    between atoms: C_8  and  C_20 
REMARK    6  A    between atoms: C_20  and  S_11 
REMARK    7  A    between atoms: O_21  and  C_14 
ROOT
ATOM      1  S   UNL d   1      -0.488  -0.414   2.596  0.00  0.00    -0.118 SA
ENDROOT
BRANCH   1   2
ATOM      2  C   UNL d   1       0.623   0.890   2.063  0.00  0.00     0.034 A 
ATOM      3  C   UNL d   1       1.063   1.073   0.746  0.00  0.00     0.120 A 
ATOM      4  C   UNL d   1       2.191   1.848   0.444  0.00  0.00     0.053 A 
ATOM      5  C   UNL d   1       2.880   2.498   1.476  0.00  0.00     0.050 A 
ATOM      6  C   UNL d   1       2.356   2.439   2.780  0.00  0.00     0.017 A 
ATOM      7  C   UNL d   1       1.245   1.637   3.071  0.00  0.00     0.022 A 
BRANCH   3   8
ATOM      8  N   UNL d   1       0.382   0.427  -0.359  0.00  0.00    -0.114 N 
ATOM      9  O   UNL d   1       1.057  -0.340  -1.059  0.00  0.00    -0.532 OA
ATOM     10  O   UNL d   1      -0.813   0.697  -0.530  0.00  0.00    -0.532 OA
ENDBRANCH   3   8
BRANCH   5  11
ATOM     11  C   UNL d   1       4.172   3.230   1.220  0.00  0.00     0.417 C 
ATOM     12  F   UNL d   1       4.671   3.007  -0.034  0.00  0.00    -0.166 F 
ATOM     13  F   UNL d   1       4.044   4.579   1.337  0.00  0.00    -0.166 F 
ATOM     14  F   UNL d   1       5.157   2.859   2.081  0.00  0.00    -0.166 F 
ENDBRANCH   5  11
ENDBRANCH   1   2
BRANCH   1  15
ATOM     15  C   UNL d   1       0.594  -1.820   2.171  0.00  0.00     0.182 C 
BRANCH  15  16
ATOM     16  C   UNL d   1       0.301  -3.075   2.966  0.00  0.00     0.231 C 
ATOM     17  N   UNL d   1      -1.024  -3.439   2.995  0.00  0.00    -0.324 N 
ATOM     18  H   UNL d   1      -1.688  -2.869   2.483  0.00  0.00     0.169 HD
ATOM     19  O   UNL d   1       1.236  -3.743   3.401  0.00  0.00    -0.272 OA
BRANCH  17  20
ATOM     20  C   UNL d   1      -1.529  -4.647   3.527  0.00  0.00     0.068 A 
ATOM     21  C   UNL d   1      -2.728  -5.189   3.032  0.00  0.00     0.095 A 
ATOM     22  C   UNL d   1      -3.255  -6.355   3.597  0.00  0.00     0.039 A 
ATOM     23  C   UNL d   1      -2.595  -6.994   4.648  0.00  0.00     0.003 A 
ATOM     24  C   UNL d   1      -1.408  -6.464   5.141  0.00  0.00     0.002 A 
ATOM     25  C   UNL d   1      -0.876  -5.301   4.581  0.00  0.00     0.032 A 
BRANCH  21  26
ATOM     26  O   UNL d   1      -3.472  -4.624   2.028  0.00  0.00    -0.354 OA
ATOM     27  C   UNL d   1      -2.770  -4.434   0.798  0.00  0.00     0.210 C 
ENDBRANCH  21  26
ENDBRANCH  17  20
ENDBRANCH  15  16
ENDBRANCH   1  15
TORSDOF 7
