REMARK  6 active torsions:
REMARK  status: ('A' for Active; 'I' for Inactive)
REMARK    1  A    between atoms: N_4  and  C_1 
REMARK    2  A    between atoms: C_11  and  N_5 
REMARK    3  A    between atoms: C_8  and  C_9 
REMARK    4  A    between atoms: N_13  and  C_8 
REMARK    5  A    between atoms: C_9  and  C_11 
REMARK    6  A    between atoms: O_16  and  N_13 
ROOT
ATOM      1  C   UNL d   1      -7.976  -6.184  -0.248  0.00  0.00     0.190 A 
ATOM      2  N   UNL d   1      -7.677  -7.326   0.460  0.00  0.00    -0.326 N 
ATOM      3  HN  UNL d   1      -8.330  -8.039   0.786  1.00  0.00     0.169 HD
ATOM      4  N   UNL d   1      -5.816  -6.171   0.062  0.00  0.00    -0.343 N 
ATOM      5  C   UNL d   1      -6.368  -7.306   0.629  0.00  0.00     0.081 A 
ATOM      6  C   UNL d   1      -6.833  -5.460  -0.513  0.00  0.00     0.147 A 
ATOM      7  C   UNL d   1      -5.578  -8.356   1.323  0.00  0.00     0.089 C 
ENDROOT
BRANCH   4   8
ATOM      8  C   UNL d   1      -4.399  -5.836   0.035  0.00  0.00     0.137 C 
BRANCH   8   9
ATOM      9  C   UNL d   1      -4.101  -4.339   0.033  0.00  0.00     0.098 C 
BRANCH   9  10
ATOM     10  C   UNL d   1      -2.619  -4.019   0.044  0.00  0.00     0.096 C 
ATOM     11  N   UNL d   1      -2.272  -2.701   0.067  0.00  0.00    -0.388 N 
ATOM     12  H   UNL d   1      -2.937  -1.947  -0.024  0.00  0.00     0.157 HD
ATOM     13  H   UNL d   1      -1.281  -2.493  -0.006  0.00  0.00     0.157 HD
BRANCH  10  14
ATOM     14  N   UNL d   1      -1.758  -4.993   0.029  0.00  0.00    -0.257 N 
ATOM     15  HN  UNL d   1      -2.001  -5.984   0.016  1.00  0.00     0.195 HD
BRANCH  14  16
ATOM     16  O   UNL d   1      -0.445  -4.492   0.034  0.00  0.00    -0.288 OA
ATOM     17  H   UNL d   1       0.089  -5.309   0.039  0.00  0.00     0.244 HD
ENDBRANCH  14  16
ENDBRANCH  10  14
ENDBRANCH   9  10
ENDBRANCH   8   9
ENDBRANCH   4   8
BRANCH   1  18
ATOM     18  N   UNL d   1      -9.332  -5.854  -0.629  0.00  0.00    -0.096 N 
ATOM     19  O   UNL d   1      -9.490  -4.791  -1.250  0.00  0.00    -0.530 OA
ATOM     20  O   UNL d   1     -10.233  -6.642  -0.311  0.00  0.00    -0.530 OA
ENDBRANCH   1  18
TORSDOF 6
