REMARK  3 active torsions:
REMARK  status: ('A' for Active; 'I' for Inactive)
REMARK    1  A    between atoms: C_4  and  C_1 
REMARK    2  A    between atoms: C_3  and  C_2 
REMARK       I    between atoms: N_14  and  C_4 
REMARK    3  A    between atoms: O_15  and  C_8 
ROOT
ATOM      1  C   UNL d   1       0.808   1.256   0.011  0.00  0.00     0.062 A 
ATOM      2  C   UNL d   1       1.522   0.051   0.011  0.00  0.00     0.069 A 
ATOM      3  C   UNL d   1      -0.589   1.175   0.005  0.00  0.00     0.108 A 
ATOM      4  N   UNL d   1      -1.303   0.024   0.024  0.00  0.00    -0.346 N 
ATOM      5  HN  UNL d   1      -2.323   0.026   0.031  1.00  0.00     0.167 HD
ATOM      6  C   UNL d   1      -0.600  -1.119   0.035  0.00  0.00     0.142 A 
ATOM      7  C   UNL d   1       0.784  -1.153   0.031  0.00  0.00     0.073 A 
ENDROOT
BRANCH   1   8
ATOM      8  C   UNL d   1       1.329   2.643  -0.011  0.00  0.00     0.251 C 
ATOM      9  O   UNL d   1       0.720   3.524  -0.605  0.00  0.00    -0.268 OA
ATOM     10  N   UNL d   1       2.458   2.951   0.686  0.00  0.00    -0.366 N 
ATOM     11  H   UNL d   1       3.128   2.274   1.023  0.00  0.00     0.159 HD
ATOM     12  H   UNL d   1       2.798   3.900   0.576  0.00  0.00     0.159 HD
ENDBRANCH   1   8
BRANCH   2  13
ATOM     13  C   UNL d   1       3.013  -0.101  -0.041  0.00  0.00     0.418 C 
ATOM     14  F   UNL d   1       3.732   1.046  -0.124  0.00  0.00    -0.166 F 
ATOM     15  F   UNL d   1       3.490  -0.739   1.065  0.00  0.00    -0.166 F 
ATOM     16  F   UNL d   1       3.415  -0.857  -1.101  0.00  0.00    -0.166 F 
ENDBRANCH   2  13
BRANCH   6  17
ATOM     17  O   UNL d   1      -1.250  -2.334   0.039  0.00  0.00    -0.341 OA
ATOM     18  C   UNL d   1      -2.670  -2.205   0.040  0.00  0.00     0.211 C 
ENDBRANCH   6  17
TORSDOF 3
