REMARK  3 active torsions:
REMARK  status: ('A' for Active; 'I' for Inactive)
REMARK    1  A    between atoms: C_6  and  N_1 
REMARK    2  A    between atoms: N_7  and  C_6 
REMARK    3  A    between atoms: C_12  and  N_7 
ROOT
ATOM      1  N   UNL d   1       1.956   0.052   0.035  0.00  0.00    -0.267 N 
ATOM      2  C   UNL d   1       1.247  -1.035   0.466  0.00  0.00     0.262 A 
ATOM      3  C   UNL d   1       1.128   1.019  -0.461  0.00  0.00     0.262 A 
ATOM      4  C   UNL d   1      -0.168  -0.679   0.366  0.00  0.00     0.048 A 
ATOM      5  C   UNL d   1      -0.240   0.580  -0.202  0.00  0.00     0.048 A 
ATOM      6  O   UNL d   1       1.416   2.054  -1.038  0.00  0.00    -0.267 OA
ATOM      7  O   UNL d   1       1.642  -2.130   0.812  0.00  0.00    -0.267 OA
ATOM      8  C   UNL d   1      -1.299  -1.399   0.700  0.00  0.00     0.018 A 
ATOM      9  C   UNL d   1      -1.450   1.194  -0.462  0.00  0.00     0.018 A 
ATOM     10  C   UNL d   1      -2.611   0.489  -0.125  0.00  0.00     0.001 A 
ATOM     11  C   UNL d   1      -2.536  -0.797   0.450  0.00  0.00     0.001 A 
ENDROOT
BRANCH   1  12
ATOM     12  C   UNL d   1       3.381  -0.002  -0.180  0.00  0.00     0.230 C 
BRANCH  12  13
ATOM     13  N   UNL d   1       3.957   1.291   0.138  0.00  0.00    -0.273 NA
ATOM     14  H   UNL d   1       3.392   2.054  -0.242  0.00  0.00     0.129 HD
BRANCH  13  15
ATOM     15  C   UNL d   1       5.327   1.521  -0.041  0.00  0.00     0.048 A 
ATOM     16  C   UNL d   1       6.289   0.538  -0.333  0.00  0.00     0.138 A 
ATOM     17  C   UNL d   1       7.655   0.825  -0.371  0.00  0.00     0.062 A 
ATOM     18  F   UNL d   1       5.916  -0.722  -0.606  0.00  0.00    -0.204 F 
ATOM     19  C   UNL d   1       8.091   2.114  -0.089  0.00  0.00     0.009 A 
ATOM     20  C   UNL d   1       7.169   3.114   0.205  0.00  0.00     0.020 A 
ATOM     21  I   UNL d   1      10.123   2.543  -0.075  0.00  0.00    -0.044 I 
ATOM     22  C   UNL d   1       5.801   2.815   0.229  0.00  0.00     0.028 A 
ENDBRANCH  13  15
ENDBRANCH  12  13
ENDBRANCH   1  12
TORSDOF 3
