REMARK  4 active torsions:
REMARK  status: ('A' for Active; 'I' for Inactive)
REMARK    1  A    between atoms: C_2  and  S_1 
REMARK    2  A    between atoms: C_12  and  S_1 
REMARK    3  A    between atoms: C_15  and  C_4 
REMARK    4  A    between atoms: N_16  and  C_6 
ROOT
ATOM      1  C   UNL d   1       0.941  -1.591  -1.644  0.00  0.00     0.144 C 
ATOM      2  C   UNL d   1      -0.318  -2.002  -1.393  0.00  0.00     0.046 C 
ATOM      3  C   UNL d   1       1.989  -1.614  -0.696  0.00  0.00     0.112 C 
ATOM      4  N   UNL d   1       2.845  -1.653   0.086  0.00  0.00    -0.191 NA
ENDROOT
BRANCH   1   5
ATOM      5  S   UNL d   1       1.300  -0.891  -3.190  0.00  0.00     0.216 S 
ATOM      6  O   UNL d   1       1.715   0.486  -3.001  0.00  0.00    -0.216 OA
ATOM      7  O   UNL d   1       0.238  -1.194  -4.135  0.00  0.00    -0.216 OA
BRANCH   5   8
ATOM      8  C   UNL d   1       2.732  -1.800  -3.752  0.00  0.00     0.065 A 
ATOM      9  C   UNL d   1       2.553  -2.993  -4.460  0.00  0.00     0.024 A 
ATOM     10  C   UNL d   1       3.666  -3.659  -4.974  0.00  0.00     0.002 A 
ATOM     11  C   UNL d   1       4.944  -3.131  -4.789  0.00  0.00     0.000 A 
ATOM     12  C   UNL d   1       5.117  -1.938  -4.086  0.00  0.00     0.002 A 
ATOM     13  C   UNL d   1       4.011  -1.264  -3.568  0.00  0.00     0.024 A 
ENDBRANCH   5   8
ENDBRANCH   1   5
BRANCH   2  14
ATOM     14  C   UNL d   1      -0.725  -2.546  -0.092  0.00  0.00    -0.033 A 
ATOM     15  C   UNL d   1      -1.158  -1.694   0.923  0.00  0.00     0.036 A 
ATOM     16  C   UNL d   1      -1.417  -2.186   2.220  0.00  0.00     0.071 A 
ATOM     17  C   UNL d   1      -1.743  -1.199   3.213  0.00  0.00     0.102 C 
ATOM     18  C   UNL d   1      -1.273  -3.560   2.525  0.00  0.00     0.050 A 
ATOM     19  N   UNL d   1      -2.021  -0.376   3.984  0.00  0.00    -0.191 NA
ATOM     20  C   UNL d   1      -0.872  -4.392   1.456  0.00  0.00     0.031 A 
ATOM     21  C   UNL d   1      -0.595  -3.903   0.175  0.00  0.00     0.014 A 
BRANCH  18  22
ATOM     22  N   UNL d   1      -1.478  -4.119   3.779  0.00  0.00    -0.388 N 
ATOM     23  C   UNL d   1      -0.683  -5.252   4.244  0.00  0.00     0.149 C 
ATOM     24  C   UNL d   1      -2.529  -3.671   4.687  0.00  0.00     0.149 C 
ENDBRANCH  18  22
ENDBRANCH   2  14
TORSDOF 4
