REMARK  7 active torsions:
REMARK  status: ('A' for Active; 'I' for Inactive)
REMARK    1  A    between atoms: N_3  and  S_1 
REMARK    2  A    between atoms: C_4  and  S_1 
REMARK    3  A    between atoms: N_2  and  C_5 
REMARK    4  A    between atoms: N_8  and  N_3 
REMARK       I    between atoms: C_9  and  N_8 
REMARK    5  A    between atoms: C_24  and  C_9 
REMARK    6  A    between atoms: C_16  and  O_19 
REMARK    7  A    between atoms: O_19  and  C_24 
ROOT
ATOM      1  N   UNL d   1       1.085  -2.565  -4.065  0.00  0.00    -0.276 N 
ATOM      2  C   UNL d   1       0.070  -1.648  -3.863  0.00  0.00     0.256 C 
ATOM      3  O   UNL d   1      -0.526  -1.620  -2.785  0.00  0.00    -0.270 OA
ATOM      4  H   UNL d   1       1.096  -3.307  -3.369  0.00  0.00     0.184 HD
ENDROOT
BRANCH   1   5
ATOM      5  N   UNL d   1       1.530  -2.908  -5.422  0.00  0.00    -0.123 NA
ATOM      6  H   UNL d   1       1.401  -3.887  -5.701  0.00  0.00     0.166 HD
BRANCH   5   7
ATOM      7  S   UNL d   1       3.149  -2.504  -5.865  0.00  0.00     0.259 S 
ATOM      8  O   UNL d   1       3.502  -3.424  -6.924  0.00  0.00    -0.204 OA
ATOM      9  O   UNL d   1       3.933  -2.434  -4.651  0.00  0.00    -0.204 OA
BRANCH   7  10
ATOM     10  C   UNL d   1       2.907  -0.890  -6.604  0.00  0.00     0.082 A 
ATOM     11  C   UNL d   1       3.206   0.339  -5.983  0.00  0.00    -0.037 A 
ATOM     12  C   UNL d   1       2.724   1.524  -6.591  0.00  0.00     0.044 A 
ATOM     13  C   UNL d   1       4.012   0.539  -4.731  0.00  0.00     0.050 C 
ATOM     14  C   UNL d   1       1.970   1.482  -7.772  0.00  0.00     0.103 A 
ATOM     15  C   UNL d   1       1.764   0.271  -8.428  0.00  0.00     0.037 A 
ATOM     16  C   UNL d   1       2.249  -0.905  -7.851  0.00  0.00     0.028 A 
BRANCH  14  17
ATOM     17  N   UNL d   1       1.357   2.710  -8.295  0.00  0.00    -0.116 N 
ATOM     18  O   UNL d   1       1.625   3.775  -7.722  0.00  0.00    -0.532 OA
ATOM     19  O   UNL d   1       0.595   2.606  -9.267  0.00  0.00    -0.532 OA
ENDBRANCH  14  17
ENDBRANCH   7  10
ENDBRANCH   5   7
ENDBRANCH   1   5
BRANCH   2  20
ATOM     20  C   UNL d   1      -0.246  -0.668  -4.980  0.00  0.00     0.279 C 
BRANCH  20  21
ATOM     21  O   UNL d   1      -0.718  -1.351  -6.138  0.00  0.00    -0.342 OA
BRANCH  21  22
ATOM     22  C   UNL d   1      -1.827  -0.872  -6.761  0.00  0.00     0.076 A 
ATOM     23  C   UNL d   1      -1.977  -1.173  -8.111  0.00  0.00    -0.018 A 
ATOM     24  C   UNL d   1      -3.067  -0.687  -8.848  0.00  0.00    -0.043 A 
ATOM     25  C   UNL d   1      -1.151  -2.091  -8.956  0.00  0.00     0.042 C 
ATOM     26  C   UNL d   1      -3.004  -1.137 -10.275  0.00  0.00     0.040 C 
ATOM     27  C   UNL d   1      -4.071   0.056  -8.237  0.00  0.00    -0.055 A 
ATOM     28  C   UNL d   1      -1.600  -1.740 -10.378  0.00  0.00     0.009 C 
ATOM     29  C   UNL d   1      -3.958   0.300  -6.867  0.00  0.00     0.010 A 
ATOM     30  C   UNL d   1      -5.251   0.559  -9.010  0.00  0.00     0.049 C 
ATOM     31  C   UNL d   1      -2.851  -0.162  -6.136  0.00  0.00     0.038 A 
ENDBRANCH  21  22
ENDBRANCH  20  21
ENDBRANCH   2  20
TORSDOF 7
