REMARK  1 active torsions:
REMARK  status: ('A' for Active; 'I' for Inactive)
REMARK    1  A    between atoms: C_11  and  N_2 
ROOT
ATOM      1  C   UNL d   1       0.751   0.429   0.001  0.00  0.00     0.074 A 
ATOM      2  N   UNL d   1       3.025   1.205   0.039  0.00  0.00    -0.229 N 
ATOM      3  C   UNL d   1       1.260  -0.828  -0.095  0.00  0.00     0.094 A 
ATOM      4  C   UNL d   1       1.660   1.551   0.112  0.00  0.00     0.270 A 
ATOM      5  C   UNL d   1       3.512  -0.104  -0.129  0.00  0.00     0.335 A 
ATOM      6  N   UNL d   1       2.584  -1.122  -0.155  0.00  0.00    -0.301 N 
ATOM      7  C   UNL d   1      -0.676   0.397  -0.049  0.00  0.00    -0.026 A 
ATOM      8  C   UNL d   1      -1.143  -0.910  -0.053  0.00  0.00    -0.008 A 
ATOM      9  S   UNL d   1       0.121  -2.060  -0.134  0.00  0.00    -0.075 SA
ATOM     10  C   UNL d   1      -1.598   1.581  -0.035  0.00  0.00     0.041 C 
ATOM     11  O   UNL d   1       4.704  -0.411  -0.217  0.00  0.00    -0.246 OA
ATOM     12  O   UNL d   1       1.221   2.695   0.233  0.00  0.00    -0.266 OA
ATOM     13  C   UNL d   1      -2.590  -1.305  -0.015  0.00  0.00     0.051 C 
ATOM     14  C   UNL d   1      -3.054   1.173  -0.307  0.00  0.00     0.009 C 
ATOM     15  C   UNL d   1      -3.466  -0.113   0.442  0.00  0.00    -0.014 C 
ATOM     16  C   UNL d   1      -3.406   0.081   1.963  0.00  0.00     0.010 C 
ATOM     17  H   UNL d   1       2.909  -2.075  -0.236  0.00  0.00     0.171 HD
ENDROOT
BRANCH   2  18
ATOM     18  C   UNL d   1       3.966   2.278   0.115  0.00  0.00     0.047 A 
ATOM     19  C   UNL d   1       4.897   2.481  -0.910  0.00  0.00     0.030 A 
ATOM     20  C   UNL d   1       5.758   3.580  -0.868  0.00  0.00     0.002 A 
ATOM     21  C   UNL d   1       5.721   4.458   0.215  0.00  0.00     0.000 A 
ATOM     22  C   UNL d   1       4.816   4.247   1.253  0.00  0.00     0.002 A 
ATOM     23  C   UNL d   1       3.931   3.171   1.197  0.00  0.00     0.030 A 
ENDBRANCH   2  18
TORSDOF 1
