REMARK  5 active torsions:
REMARK  status: ('A' for Active; 'I' for Inactive)
REMARK    1  A    between atoms: C_8  and  N_1 
REMARK    2  A    between atoms: C_2  and  C_6 
REMARK    3  A    between atoms: C_3  and  C_5 
REMARK    4  A    between atoms: C_4  and  C_11 
REMARK       I    between atoms: N_7  and  C_4 
REMARK    5  A    between atoms: C_9  and  N_7 
ROOT
ATOM      1  C   UNL d   1      -3.214   5.165   1.636  0.00  0.00     0.050 A 
ATOM      2  C   UNL d   1      -3.854   7.025   0.200  0.00  0.00     0.050 A 
ATOM      3  C   UNL d   1      -1.665   5.977  -0.070  0.00  0.00     0.036 A 
ATOM      4  C   UNL d   1      -4.152   6.122   1.233  0.00  0.00     0.032 A 
ATOM      5  C   UNL d   1      -1.963   5.133   1.003  0.00  0.00     0.045 A 
ATOM      6  C   UNL d   1      -2.596   6.958  -0.430  0.00  0.00     0.045 A 
ENDROOT
BRANCH   3   7
ATOM      7  N   UNL d   1      -0.500   5.833  -0.863  0.00  0.00    -0.323 N 
ATOM      8  C   UNL d   1       0.301   4.696  -0.884  0.00  0.00     0.256 C 
ATOM      9  O   UNL d   1       0.125   3.700  -0.190  0.00  0.00    -0.267 OA
ATOM     10  H   UNL d   1      -0.375   6.522  -1.588  0.00  0.00     0.169 HD
BRANCH   8  11
ATOM     11  C   UNL d   1       1.420   4.627  -1.875  0.00  0.00     0.034 A 
ATOM     12  C   UNL d   1       2.074   3.389  -2.010  0.00  0.00     0.053 A 
ATOM     13  C   UNL d   1       3.143   3.248  -2.903  0.00  0.00     0.103 A 
ATOM     14  C   UNL d   1       3.554   4.329  -3.688  0.00  0.00     0.036 A 
ATOM     15  C   UNL d   1       2.911   5.559  -3.552  0.00  0.00     0.003 A 
ATOM     16  C   UNL d   1       1.853   5.714  -2.646  0.00  0.00     0.017 A 
BRANCH  13  17
ATOM     17  N   UNL d   1       3.844   1.961  -2.997  0.00  0.00    -0.116 N 
ATOM     18  O   UNL d   1       3.493   1.048  -2.241  0.00  0.00    -0.532 OA
ATOM     19  O   UNL d   1       4.754   1.868  -3.834  0.00  0.00    -0.532 OA
ENDBRANCH  13  17
ENDBRANCH   8  11
ENDBRANCH   3   7
BRANCH   1  20
ATOM     20  C   UNL d   1      -3.536   4.117   2.675  0.00  0.00     0.417 C 
ATOM     21  F   UNL d   1      -4.838   4.143   3.076  0.00  0.00    -0.166 F 
ATOM     22  F   UNL d   1      -3.317   2.852   2.220  0.00  0.00    -0.166 F 
ATOM     23  F   UNL d   1      -2.792   4.248   3.805  0.00  0.00    -0.166 F 
ENDBRANCH   1  20
BRANCH   2  24
ATOM     24  C   UNL d   1      -4.894   8.007  -0.289  0.00  0.00     0.417 C 
ATOM     25  F   UNL d   1      -6.109   7.853   0.305  0.00  0.00    -0.166 F 
ATOM     26  F   UNL d   1      -4.531   9.301  -0.081  0.00  0.00    -0.166 F 
ATOM     27  F   UNL d   1      -5.117   7.890  -1.628  0.00  0.00    -0.166 F 
ENDBRANCH   2  24
TORSDOF 5
