REMARK  8 active torsions:
REMARK  status: ('A' for Active; 'I' for Inactive)
REMARK    1  A    between atoms: N_8  and  C_1 
REMARK       I    between atoms: C_10  and  N_8 
REMARK    2  A    between atoms: C_19  and  C_10 
REMARK    3  A    between atoms: O_18  and  C_16 
REMARK    4  A    between atoms: C_21  and  C_19 
REMARK    5  A    between atoms: C_24  and  C_21 
REMARK    6  A    between atoms: C_22  and  C_23 
REMARK    7  A    between atoms: C_23  and  C_25 
REMARK    8  A    between atoms: C_25  and  C_24 
ROOT
ATOM      1  C   UNL d   1      -3.213   0.900  -0.043  0.00  0.00     0.152 A 
ATOM      2  C   UNL d   1      -1.635  -0.557   0.385  0.00  0.00     0.058 A 
ATOM      3  N   UNL d   1      -2.997  -0.309   0.418  0.00  0.00    -0.335 N 
ATOM      4  HN  UNL d   1      -3.712  -0.958   0.745  1.00  0.00     0.168 HD
ATOM      5  C   UNL d   1      -0.870   0.457  -0.160  0.00  0.00     0.014 A 
ATOM      6  S   UNL d   1      -1.839   1.792  -0.552  0.00  0.00    -0.056 SA
ATOM      7  C   UNL d   1      -0.956  -1.764   0.854  0.00  0.00    -0.002 A 
ATOM      8  C   UNL d   1       0.454  -1.735   0.986  0.00  0.00    -0.043 A 
ATOM      9  C   UNL d   1      -1.642  -2.944   1.152  0.00  0.00     0.017 A 
ATOM     10  C   UNL d   1       0.601   0.392  -0.374  0.00  0.00     0.053 C 
ATOM     11  C   UNL d   1       1.140  -2.883   1.399  0.00  0.00     0.044 A 
ATOM     12  C   UNL d   1       1.226  -0.450   0.746  0.00  0.00     0.045 C 
ATOM     13  C   UNL d   1       0.456  -4.069   1.664  0.00  0.00     0.068 A 
ATOM     14  C   UNL d   1      -0.936  -4.095   1.549  0.00  0.00     0.037 A 
ENDROOT
BRANCH   1  15
ATOM     15  N   UNL d   1      -4.370   1.615  -0.203  0.00  0.00    -0.307 N 
ATOM     16  C   UNL d   1      -5.626   1.070  -0.087  0.00  0.00     0.223 C 
ATOM     17  O   UNL d   1      -5.897  -0.087   0.204  0.00  0.00    -0.273 OA
ATOM     18  H   UNL d   1      -4.251   2.565  -0.509  0.00  0.00     0.171 HD
BRANCH  16  19
ATOM     19  C   UNL d   1      -6.742   2.077  -0.362  0.00  0.00     0.103 C 
BRANCH  19  20
ATOM     20  C   UNL d   1      -6.643   2.706  -1.753  0.00  0.00     0.009 C 
BRANCH  20  21
ATOM     21  C   UNL d   1      -7.808   3.653  -2.064  0.00  0.00     0.000 C 
BRANCH  21  22
ATOM     22  C   UNL d   1      -7.628   4.278  -3.452  0.00  0.00     0.000 C 
BRANCH  22  23
ATOM     23  C   UNL d   1      -8.760   5.244  -3.802  0.00  0.00    -0.000 C 
BRANCH  23  24
ATOM     24  C   UNL d   1      -8.555   5.856  -5.190  0.00  0.00    -0.005 C 
ATOM     25  C   UNL d   1      -9.677   6.818  -5.547  0.00  0.00     0.005 C 
ENDBRANCH  23  24
ENDBRANCH  22  23
ENDBRANCH  21  22
ENDBRANCH  20  21
ENDBRANCH  19  20
ENDBRANCH  16  19
ENDBRANCH   1  15
BRANCH  13  26
ATOM     26  O   UNL d   1       1.272  -5.105   2.023  0.00  0.00    -0.356 OA
ATOM     27  C   UNL d   1       0.668  -6.367   2.260  0.00  0.00     0.210 C 
ENDBRANCH  13  26
TORSDOF 8
