REMARK  5 active torsions:
REMARK  status: ('A' for Active; 'I' for Inactive)
REMARK    1  A    between atoms: C_6  and  N_1 
REMARK    2  A    between atoms: C_7  and  N_2 
REMARK    3  A    between atoms: C_4  and  C_3 
REMARK    4  A    between atoms: C_13  and  C_6 
REMARK    5  A    between atoms: C_14  and  C_7 
ROOT
ATOM      1  N   UNL d   1       1.214   0.648  -0.280  0.00  0.00     0.131 N 
ATOM      2  N   UNL d   1      -1.250   0.623  -0.245  0.00  0.00     0.131 N 
ATOM      3  C   UNL d   1      -0.017   1.361   0.149  0.00  0.00     0.496 C 
ATOM      4  C   UNL d   1      -1.230  -0.746   0.319  0.00  0.00     0.278 C 
ATOM      5  C   UNL d   1       1.256  -0.664   0.375  0.00  0.00     0.278 C 
ATOM      6  C   UNL d   1       0.050  -1.510   0.012  0.00  0.00     0.061 C 
ENDROOT
BRANCH   1   7
ATOM      7  C   UNL d   1       1.361   0.572  -1.746  0.00  0.00     0.314 C 
BRANCH   7   8
ATOM      8  C   UNL d   1       2.558  -0.209  -2.256  0.00  0.00    -0.030 A 
ATOM      9  C   UNL d   1       2.367  -1.334  -3.079  0.00  0.00     0.012 A 
ATOM     10  C   UNL d   1       3.462  -2.015  -3.610  0.00  0.00     0.043 A 
ATOM     11  C   UNL d   1       4.746  -1.577  -3.323  0.00  0.00     0.116 A 
ATOM     12  C   UNL d   1       4.960  -0.471  -2.504  0.00  0.00     0.043 A 
ATOM     13  F   UNL d   1       5.798  -2.219  -3.847  0.00  0.00    -0.206 F 
ATOM     14  C   UNL d   1       3.866   0.210  -1.968  0.00  0.00     0.012 A 
ENDBRANCH   7   8
ENDBRANCH   1   7
BRANCH   3  15
ATOM     15  C   UNL d   1      -0.004   2.824  -0.308  0.00  0.00     0.045 A 
ATOM     16  S   UNL d   1       0.234   4.074   0.858  0.00  0.00    -0.102 SA
ATOM     17  C   UNL d   1       0.148   5.301  -0.328  0.00  0.00     0.050 A 
ATOM     18  C   UNL d   1      -0.056   4.789  -1.588  0.00  0.00     0.008 A 
ATOM     19  C   UNL d   1      -0.194   3.372  -1.568  0.00  0.00     0.019 A 
ENDBRANCH   3  15
BRANCH   2  20
ATOM     20  C   UNL d   1      -2.450   1.331   0.276  0.00  0.00     0.314 C 
BRANCH  20  21
ATOM     21  C   UNL d   1      -3.777   0.680  -0.079  0.00  0.00    -0.030 A 
ATOM     22  C   UNL d   1      -4.636   0.216   0.931  0.00  0.00     0.012 A 
ATOM     23  C   UNL d   1      -5.874  -0.342   0.606  0.00  0.00     0.043 A 
ATOM     24  C   UNL d   1      -6.253  -0.437  -0.727  0.00  0.00     0.116 A 
ATOM     25  C   UNL d   1      -5.415   0.008  -1.742  0.00  0.00     0.043 A 
ATOM     26  F   UNL d   1      -7.446  -0.961  -1.037  0.00  0.00    -0.206 F 
ATOM     27  C   UNL d   1      -4.177   0.567  -1.421  0.00  0.00     0.012 A 
ENDBRANCH  20  21
ENDBRANCH   2  20
TORSDOF 5
