REMARK  3 active torsions:
REMARK  status: ('A' for Active; 'I' for Inactive)
REMARK    1  A    between atoms: C_2  and  N_1 
REMARK    2  A    between atoms: N_4  and  C_3 
REMARK    3  A    between atoms: C_5  and  N_4 
ROOT
ATOM      1  C   UNL d   1       0.366  -1.274  -1.018  0.00  0.00     0.146 A 
ATOM      2  C   UNL d   1      -0.687  -0.551  -1.590  0.00  0.00     0.135 A 
ATOM      3  N   UNL d   1      -1.403  -1.095  -2.608  0.00  0.00    -0.351 N 
ATOM      4  HN  UNL d   1      -2.180  -0.582  -3.024  1.00  0.00     0.166 HD
ATOM      5  C   UNL d   1       0.688  -2.557  -1.491  0.00  0.00     0.041 A 
ATOM      6  C   UNL d   1      -1.073  -2.326  -3.062  0.00  0.00     0.090 A 
ATOM      7  C   UNL d   1      -0.049  -3.091  -2.538  0.00  0.00     0.020 A 
ENDROOT
BRANCH   2   8
ATOM      8  N   UNL d   1      -1.101   0.697  -1.071  0.00  0.00    -0.370 N 
ATOM      9  H   UNL d   1      -0.297   1.283  -0.838  0.00  0.00     0.161 HD
BRANCH   8  10
ATOM     10  C   UNL d   1      -2.276   1.385  -1.607  0.00  0.00     0.083 A 
ATOM     11  C   UNL d   1      -2.490   2.851  -1.341  0.00  0.00     0.027 A 
ATOM     12  C   UNL d   1      -3.352   1.835  -0.655  0.00  0.00     0.027 A 
ENDBRANCH   8  10
ENDBRANCH   2   8
BRANCH   1  13
ATOM     13  N   UNL d   1       1.155  -0.719   0.069  0.00  0.00    -0.112 N 
ATOM     14  O   UNL d   1       1.306   0.513   0.109  0.00  0.00    -0.532 OA
ATOM     15  O   UNL d   1       1.673  -1.515   0.864  0.00  0.00    -0.532 OA
ENDBRANCH   1  13
TORSDOF 3
