REMARK  3 active torsions:
REMARK  status: ('A' for Active; 'I' for Inactive)
REMARK    1  A    between atoms: C_2  and  C_1 
REMARK       I    between atoms: N_7  and  C_2 
REMARK    2  A    between atoms: C_6  and  C_13 
REMARK    3  A    between atoms: C_15  and  N_7 
ROOT
ATOM      1  C   UNL d   1      -0.932  -5.819  -0.302  0.00  0.00    -0.001 A 
ATOM      2  C   UNL d   1       1.408  -4.232  -0.065  0.00  0.00     0.035 A 
ATOM      3  C   UNL d   1       0.047  -6.112   0.654  0.00  0.00     0.016 A 
ATOM      4  C   UNL d   1      -0.712  -4.728  -1.154  0.00  0.00     0.016 A 
ATOM      5  C   UNL d   1       1.204  -5.331   0.768  0.00  0.00     0.030 A 
ATOM      6  C   UNL d   1       0.442  -3.939  -1.032  0.00  0.00     0.030 A 
ENDROOT
BRANCH   2   7
ATOM      7  N   UNL d   1       2.513  -3.359   0.053  0.00  0.00    -0.323 N 
ATOM      8  C   UNL d   1       3.617  -3.533   0.868  0.00  0.00     0.259 C 
ATOM      9  O   UNL d   1       3.909  -4.571   1.456  0.00  0.00    -0.267 OA
ATOM     10  H   UNL d   1       2.463  -2.506  -0.495  0.00  0.00     0.169 HD
BRANCH   8  11
ATOM     11  C   UNL d   1       4.526  -2.363   1.049  0.00  0.00     0.071 A 
ATOM     12  C   UNL d   1       4.256  -1.093   0.532  0.00  0.00     0.135 A 
ATOM     13  C   UNL d   1       5.094  -0.011   0.801  0.00  0.00     0.085 A 
ATOM     14  F   UNL d   1       3.176  -0.875  -0.234  0.00  0.00    -0.205 F 
ATOM     15  C   UNL d   1       6.218  -0.205   1.593  0.00  0.00     0.119 A 
ATOM     16  C   UNL d   1       6.524  -1.458   2.107  0.00  0.00     0.043 A 
ATOM     17  F   UNL d   1       7.017   0.834   1.869  0.00  0.00    -0.206 F 
ATOM     18  C   UNL d   1       5.680  -2.537   1.836  0.00  0.00     0.023 A 
ENDBRANCH   8  11
ENDBRANCH   2   7
BRANCH   1  19
ATOM     19  C   UNL d   1      -2.146  -6.621  -0.378  0.00  0.00     0.102 A 
ATOM     20  O   UNL d   1      -3.063  -6.296  -1.346  0.00  0.00    -0.304 OA
ATOM     21  C   UNL d   1      -4.072  -7.191  -1.160  0.00  0.00     0.233 A 
ATOM     22  N   UNL d   1      -3.891  -8.046  -0.182  0.00  0.00    -0.354 N 
ATOM     23  C   UNL d   1      -2.665  -7.690   0.324  0.00  0.00     0.127 A 
ATOM     24  HN  UNL d   1      -4.511  -8.795   0.127  1.00  0.00     0.166 HD
ENDBRANCH   1  19
TORSDOF 3
