REMARK  2 active torsions:
REMARK  status: ('A' for Active; 'I' for Inactive)
REMARK    1  A    between atoms: C_2  and  C_1 
REMARK       I    between atoms: N_5  and  C_1 
REMARK    2  A    between atoms: C_9  and  N_5 
ROOT
ATOM      1  N   UNL d   1      -5.294   0.600   1.156  0.00  0.00    -0.359 N 
ATOM      2  HN  UNL d   1      -5.766  -0.294   1.022  1.00  0.00     0.166 HD
ATOM      3  C   UNL d   1      -3.949   0.676   1.144  0.00  0.00     0.042 A 
ATOM      4  C   UNL d   1      -3.269   1.891   1.332  0.00  0.00    -0.007 A 
ATOM      5  C   UNL d   1      -1.107   0.786   1.096  0.00  0.00     0.035 A 
ATOM      6  C   UNL d   1      -1.865   1.938   1.310  0.00  0.00     0.043 A 
ATOM      7  C   UNL d   1      -3.183  -0.464   0.932  0.00  0.00     0.033 A 
ATOM      8  C   UNL d   1      -6.007   1.738   1.349  0.00  0.00     0.005 A 
ATOM      9  C   UNL d   1      -4.025   3.051   1.533  0.00  0.00     0.015 A 
ATOM     10  C   UNL d   1      -1.780  -0.420   0.896  0.00  0.00     0.032 A 
ATOM     11  C   UNL d   1      -5.410   2.977   1.540  0.00  0.00     0.025 A 
ATOM     12  C   UNL d   1      -7.502   1.628   1.347  0.00  0.00     0.068 C 
ENDROOT
BRANCH   5  13
ATOM     13  N   UNL d   1       0.304   0.785   1.043  0.00  0.00    -0.322 N 
ATOM     14  C   UNL d   1       1.149   1.833   1.381  0.00  0.00     0.263 C 
ATOM     15  O   UNL d   1       0.767   2.883   1.895  0.00  0.00    -0.267 OA
ATOM     16  H   UNL d   1       0.756  -0.073   0.750  0.00  0.00     0.169 HD
BRANCH  14  17
ATOM     17  C   UNL d   1       2.568   1.624   1.109  0.00  0.00     0.072 A 
ATOM     18  S   UNL d   1       3.188   0.218   0.355  0.00  0.00    -0.097 SA
ATOM     19  C   UNL d   1       4.792   0.815   0.406  0.00  0.00     0.050 A 
ATOM     20  C   UNL d   1       4.864   2.058   0.991  0.00  0.00     0.009 A 
ATOM     21  C   UNL d   1       3.582   2.521   1.397  0.00  0.00     0.025 A 
ENDBRANCH  14  17
ENDBRANCH   5  13
TORSDOF 2
