REMARK  4 active torsions:
REMARK  status: ('A' for Active; 'I' for Inactive)
REMARK    1  A    between atoms: C_6  and  C_1 
REMARK    2  A    between atoms: C_20  and  C_5 
REMARK       I    between atoms: C_7  and  N_11 
REMARK    3  A    between atoms: C_8  and  C_7 
REMARK    4  A    between atoms: N_11  and  C_20 
ROOT
ATOM      1  C   UNL d   1      -0.351  -0.486   0.807  0.00  0.00     0.091 A 
ATOM      2  N   UNL d   1       0.672   0.301   1.097  0.00  0.00    -0.351 N 
ATOM      3  HN  UNL d   1       0.944   0.577   2.040  1.00  0.00     0.166 HD
ATOM      4  S   UNL d   1      -0.566  -0.790  -0.876  0.00  0.00    -0.081 SA
ATOM      5  C   UNL d   1       1.325   0.701  -0.067  0.00  0.00     0.034 A 
ATOM      6  C   UNL d   1       0.783   0.194  -1.232  0.00  0.00     0.078 A 
ENDROOT
BRANCH   5   7
ATOM      7  C   UNL d   1       2.496   1.625   0.021  0.00  0.00     0.180 C 
BRANCH   7   8
ATOM      8  N   UNL d   1       3.717   0.864   0.111  0.00  0.00    -0.350 N 
ATOM      9  C   UNL d   1       4.452   0.507  -0.996  0.00  0.00     0.275 C 
ATOM     10  O   UNL d   1       4.101   0.798  -2.137  0.00  0.00    -0.265 OA
ATOM     11  H   UNL d   1       4.000   0.491   1.009  0.00  0.00     0.163 HD
BRANCH   9  12
ATOM     12  C   UNL d   1       5.666  -0.225  -0.694  0.00  0.00     0.142 A 
ATOM     13  O   UNL d   1       6.026  -0.430   0.615  0.00  0.00    -0.317 OA
ATOM     14  C   UNL d   1       7.207  -1.101   0.604  0.00  0.00     0.143 A 
ATOM     15  C   UNL d   1       7.614  -1.346  -0.686  0.00  0.00     0.027 A 
ATOM     16  C   UNL d   1       6.621  -0.782  -1.523  0.00  0.00     0.045 A 
ENDBRANCH   9  12
ENDBRANCH   7   8
ENDBRANCH   5   7
BRANCH   1  17
ATOM     17  C   UNL d   1      -1.214  -1.025   1.838  0.00  0.00     0.038 A 
ATOM     18  S   UNL d   1      -2.520  -2.099   1.518  0.00  0.00    -0.099 SA
ATOM     19  C   UNL d   1      -2.948  -2.203   3.167  0.00  0.00     0.050 A 
ATOM     20  C   UNL d   1      -2.122  -1.442   3.962  0.00  0.00     0.008 A 
ATOM     21  C   UNL d   1      -1.125  -0.767   3.197  0.00  0.00     0.022 A 
ENDBRANCH   1  17
TORSDOF 4
