REMARK  7 active torsions:
REMARK  status: ('A' for Active; 'I' for Inactive)
REMARK    1  A    between atoms: N_2  and  C_1 
REMARK    2  A    between atoms: C_4  and  C_6 
REMARK    3  A    between atoms: C_14  and  C_19 
REMARK    4  A    between atoms: O_21  and  C_14 
REMARK    5  A    between atoms: C_22  and  C_18 
REMARK    6  A    between atoms: C_19  and  C_22 
REMARK    7  A    between atoms: C_23  and  O_21 
ROOT
ATOM      1  C   UNL d   1      -0.669  -2.714  -0.043  0.00  0.00     0.246 C 
ATOM      2  N   UNL d   1      -0.843  -3.274  -1.400  0.00  0.00    -0.259 NA
ATOM      3  O   UNL d   1       0.157  -3.589   0.775  0.00  0.00    -0.324 OA
ATOM      4  C   UNL d   1      -0.620  -4.636  -1.086  0.00  0.00     0.045 A 
ATOM      5  C   UNL d   1      -0.031  -4.795   0.155  0.00  0.00     0.092 A 
ATOM      6  C   UNL d   1      -0.846  -5.720  -1.911  0.00  0.00     0.033 A 
ATOM      7  C   UNL d   1       0.306  -6.033   0.656  0.00  0.00     0.039 A 
ATOM      8  C   UNL d   1      -0.544  -7.003  -1.428  0.00  0.00    -0.056 A 
ATOM      9  C   UNL d   1       0.029  -7.148  -0.141  0.00  0.00     0.010 A 
ATOM     10  H   UNL d   1      -0.076  -2.966  -1.994  0.00  0.00     0.130 HD
ENDROOT
BRANCH   1  11
ATOM     11  C   UNL d   1      -0.079  -1.328  -0.016  0.00  0.00     0.029 A 
ATOM     12  S   UNL d   1      -1.145   0.022   0.047  0.00  0.00    -0.067 SA
ATOM     13  C   UNL d   1       0.141   1.125   0.027  0.00  0.00     0.144 A 
ATOM     14  C   UNL d   1       1.371   0.506  -0.030  0.00  0.00     0.045 A 
ATOM     15  C   UNL d   1       1.245  -0.918  -0.056  0.00  0.00     0.021 A 
BRANCH  13  16
ATOM     16  N   UNL d   1      -0.116   2.542   0.063  0.00  0.00    -0.108 N 
ATOM     17  O   UNL d   1       0.882   3.279   0.035  0.00  0.00    -0.531 OA
ATOM     18  O   UNL d   1      -1.290   2.934   0.119  0.00  0.00    -0.531 OA
ENDBRANCH  13  16
ENDBRANCH   1  11
BRANCH   8  19
ATOM     19  C   UNL d   1      -0.858  -8.222  -2.262  0.00  0.00     0.048 C 
BRANCH  19  20
ATOM     20  C   UNL d   1      -0.058  -8.264  -3.560  0.00  0.00     0.116 C 
BRANCH  20  21
ATOM     21  C   UNL d   1      -0.286  -9.561  -4.291  0.00  0.00     0.259 C 
ATOM     22  O   UNL d   1      -1.032 -10.459  -3.927  0.00  0.00    -0.265 OA
BRANCH  21  23
ATOM     23  O   UNL d   1       0.523  -9.602  -5.387  0.00  0.00    -0.322 OA
BRANCH  23  24
ATOM     24  C   UNL d   1       0.665 -10.890  -6.001  0.00  0.00     0.174 C 
ATOM     25  C   UNL d   1       1.814 -11.614  -5.321  0.00  0.00     0.034 C 
ENDBRANCH  23  24
ENDBRANCH  21  23
ENDBRANCH  20  21
ENDBRANCH  19  20
ENDBRANCH   8  19
TORSDOF 7
