REMARK  4 active torsions:
REMARK  status: ('A' for Active; 'I' for Inactive)
REMARK    1  A    between atoms: C_2  and  C_1 
REMARK       I    between atoms: N_7  and  C_1 
REMARK       I    between atoms: C_3  and  N_4 
REMARK    2  A    between atoms: C_6  and  C_3 
REMARK    3  A    between atoms: N_4  and  C_5 
REMARK    4  A    between atoms: C_14  and  N_7 
ROOT
ATOM      1  C   UNL d   1       0.028  -1.364   0.968  0.00  0.00     0.059 A 
ATOM      2  C   UNL d   1       0.688  -0.915   2.126  0.00  0.00     0.050 A 
ATOM      3  C   UNL d   1      -1.178  -2.086   1.070  0.00  0.00     0.019 A 
ATOM      4  C   UNL d   1       0.101  -1.187   3.371  0.00  0.00     0.030 A 
ATOM      5  C   UNL d   1      -1.743  -2.342   2.316  0.00  0.00     0.001 A 
ATOM      6  C   UNL d   1      -1.105  -1.890   3.465  0.00  0.00     0.002 A 
ENDROOT
BRANCH   1   7
ATOM      7  C   UNL d   1       0.523  -1.018  -0.396  0.00  0.00     0.258 C 
ATOM      8  N   UNL d   1      -0.479  -0.579  -1.248  0.00  0.00    -0.323 N 
ATOM      9  H   UNL d   1      -1.370  -0.361  -0.816  0.00  0.00     0.169 HD
ATOM     10  O   UNL d   1       1.720  -1.094  -0.635  0.00  0.00    -0.267 OA
BRANCH   8  11
ATOM     11  C   UNL d   1      -0.389  -0.292  -2.622  0.00  0.00     0.035 A 
ATOM     12  C   UNL d   1       0.723  -0.601  -3.408  0.00  0.00     0.032 A 
ATOM     13  C   UNL d   1       0.732  -0.279  -4.769  0.00  0.00     0.044 A 
ATOM     14  C   UNL d   1      -0.371   0.350  -5.337  0.00  0.00     0.116 A 
ATOM     15  C   UNL d   1      -1.490   0.644  -4.577  0.00  0.00     0.044 A 
ATOM     16  F   UNL d   1      -0.351   0.674  -6.637  0.00  0.00    -0.206 F 
ATOM     17  C   UNL d   1      -1.505   0.316  -3.220  0.00  0.00     0.032 A 
ENDBRANCH   8  11
ENDBRANCH   1   7
BRANCH   2  18
ATOM     18  N   UNL d   1       1.926  -0.234   2.043  0.00  0.00    -0.320 N 
ATOM     19  C   UNL d   1       2.395   0.691   2.962  0.00  0.00     0.279 C 
ATOM     20  O   UNL d   1       1.712   1.162   3.869  0.00  0.00    -0.265 OA
ATOM     21  H   UNL d   1       2.461  -0.342   1.179  0.00  0.00     0.169 HD
BRANCH  19  22
ATOM     22  C   UNL d   1       3.761   1.127   2.740  0.00  0.00     0.142 A 
ATOM     23  O   UNL d   1       4.585   0.411   1.910  0.00  0.00    -0.317 OA
ATOM     24  C   UNL d   1       5.808   1.002   1.958  0.00  0.00     0.143 A 
ATOM     25  C   UNL d   1       5.784   2.103   2.779  0.00  0.00     0.027 A 
ATOM     26  C   UNL d   1       4.466   2.184   3.287  0.00  0.00     0.045 A 
ENDBRANCH  19  22
ENDBRANCH   2  18
TORSDOF 4
