REMARK  6 active torsions:
REMARK  status: ('A' for Active; 'I' for Inactive)
REMARK    1  A    between atoms: C_2  and  C_1 
REMARK    2  A    between atoms: O_18  and  C_3 
REMARK       I    between atoms: C_6  and  N_10 
REMARK    3  A    between atoms: O_17  and  C_6 
REMARK    4  A    between atoms: N_10  and  C_11 
REMARK    5  A    between atoms: C_19  and  O_17 
REMARK    6  A    between atoms: C_20  and  O_18 
ROOT
ATOM      1  C   UNL d   1       4.728  -4.003  -2.229  0.00  0.00    -0.091 C 
ATOM      2  C   UNL d   1       4.700  -3.977  -3.431  0.00  0.00     0.014 C 
ATOM      3  C   UNL d   1       4.710  -4.002  -0.760  0.00  0.00     0.273 C 
ENDROOT
BRANCH   3   4
ATOM      4  O   UNL d   1       3.378  -3.724  -0.309  0.00  0.00    -0.292 OA
BRANCH   4   5
ATOM      5  C   UNL d   1       3.098  -2.406  -0.148  0.00  0.00     0.366 C 
ATOM      6  N   UNL d   1       1.746  -2.277   0.006  0.00  0.00    -0.301 N 
ATOM      7  H   UNL d   1       1.250  -3.158  -0.013  0.00  0.00     0.171 HD
ATOM      8  O   UNL d   1       3.932  -1.516  -0.175  0.00  0.00    -0.238 OA
BRANCH   6   9
ATOM      9  C   UNL d   1       1.003  -1.087   0.072  0.00  0.00     0.053 A 
ATOM     10  C   UNL d   1       1.561   0.188   0.051  0.00  0.00     0.051 A 
ATOM     11  C   UNL d   1       0.744   1.335   0.084  0.00  0.00     0.101 A 
ATOM     12  C   UNL d   1      -0.624   1.143   0.157  0.00  0.00     0.157 A 
ATOM     13  N   UNL d   1      -1.201  -0.082   0.185  0.00  0.00    -0.344 N 
ATOM     14  C   UNL d   1      -0.383  -1.158   0.139  0.00  0.00     0.119 A 
ATOM     15  HN  UNL d   1      -2.214  -0.189   0.238  1.00  0.00     0.167 HD
BRANCH  11  16
ATOM     16  C   UNL d   1       1.389   2.685   0.051  0.00  0.00     0.421 C 
ATOM     17  F   UNL d   1       0.554   3.757   0.091  0.00  0.00    -0.166 F 
ATOM     18  F   UNL d   1       2.249   2.859   1.098  0.00  0.00    -0.166 F 
ATOM     19  F   UNL d   1       2.150   2.859  -1.069  0.00  0.00    -0.166 F 
ENDBRANCH  11  16
BRANCH  12  20
ATOM     20  O   UNL d   1      -1.444   2.245   0.151  0.00  0.00    -0.336 OA
BRANCH  20  21
ATOM     21  C   UNL d   1      -2.771   1.976   0.608  0.00  0.00     0.173 C 
ATOM     22  C   UNL d   1      -3.559   3.272   0.548  0.00  0.00     0.034 C 
ENDBRANCH  20  21
ENDBRANCH  12  20
ENDBRANCH   6   9
ENDBRANCH   4   5
ENDBRANCH   3   4
TORSDOF 6
