REMARK  1 active torsions:
REMARK  status: ('A' for Active; 'I' for Inactive)
REMARK    1  A    between atoms: C_9  and  N_1 
ROOT
ATOM      1  N   UNL d   1       0.926  -0.742  -0.009  0.00  0.00    -0.271 N 
ATOM      2  C   UNL d   1       0.874   0.638   0.017  0.00  0.00     0.146 A 
ATOM      3  N   UNL d   1      -0.340   1.125   0.032  0.00  0.00    -0.282 N 
ATOM      4  HN  UNL d   1      -0.617   2.106   0.062  1.00  0.00     0.188 HD
ATOM      5  C   UNL d   1      -0.406  -1.135  -0.001  0.00  0.00     0.199 A 
ATOM      6  N   UNL d   1      -1.152   0.036  -0.002  0.00  0.00    -0.274 N 
ATOM      7  C   UNL d   1       2.020   1.519  -0.036  0.00  0.00     0.050 A 
ATOM      8  S   UNL d   1       2.017   2.948   0.920  0.00  0.00    -0.098 SA
ATOM      9  S   UNL d   1      -1.149  -2.618   0.100  0.00  0.00    -0.039 SA
ATOM     10  C   UNL d   1       3.185   1.422  -0.778  0.00  0.00     0.023 A 
ATOM     11  C   UNL d   1       3.592   3.375   0.414  0.00  0.00     0.050 A 
ATOM     12  C   UNL d   1       4.104   2.475  -0.492  0.00  0.00     0.009 A 
ATOM     13  H   UNL d   1      -2.161   0.112   0.055  0.00  0.00     0.189 HD
ENDROOT
BRANCH   1  14
ATOM     14  C   UNL d   1       2.065  -1.585   0.067  0.00  0.00     0.043 A 
ATOM     15  C   UNL d   1       3.172  -1.242   0.860  0.00  0.00     0.030 A 
ATOM     16  C   UNL d   1       4.318  -2.044   0.890  0.00  0.00     0.002 A 
ATOM     17  C   UNL d   1       4.367  -3.221   0.151  0.00  0.00     0.000 A 
ATOM     18  C   UNL d   1       3.268  -3.595  -0.616  0.00  0.00     0.002 A 
ATOM     19  C   UNL d   1       2.131  -2.781  -0.660  0.00  0.00     0.030 A 
ENDBRANCH   1  14
TORSDOF 1
