REMARK  3 active torsions:
REMARK  status: ('A' for Active; 'I' for Inactive)
REMARK    1  A    between atoms: N_8  and  C_1 
REMARK    2  A    between atoms: C_7  and  C_4 
REMARK    3  A    between atoms: C_9  and  C_4 
ROOT
ATOM      1  C   UNL d   1      -2.389   0.038  -0.043  0.00  0.00     0.072 A 
ATOM      2  N   UNL d   1      -1.625   1.098  -0.016  0.00  0.00    -0.349 N 
ATOM      3  HN  UNL d   1      -1.928   2.072  -0.012  1.00  0.00     0.167 HD
ATOM      4  C   UNL d   1      -1.619  -1.326  -0.025  0.00  0.00     0.069 A 
ATOM      5  C   UNL d   1      -0.302   0.628   0.006  0.00  0.00     0.041 A 
ATOM      6  C   UNL d   1      -0.212  -0.769   0.006  0.00  0.00    -0.011 A 
ATOM      7  C   UNL d   1       1.012  -1.419   0.002  0.00  0.00     0.011 A 
ATOM      8  C   UNL d   1       0.839   1.408   0.009  0.00  0.00     0.030 A 
ATOM      9  C   UNL d   1       2.167  -0.634  -0.006  0.00  0.00     0.001 A 
ATOM     10  C   UNL d   1       2.082   0.768  -0.000  0.00  0.00     0.002 A 
ENDROOT
BRANCH   4  11
ATOM     11  C   UNL d   1      -1.966  -2.123   1.251  0.00  0.00    -0.038 A 
ATOM     12  C   UNL d   1      -2.592  -3.382   1.209  0.00  0.00     0.009 A 
ATOM     13  C   UNL d   1      -2.854  -4.104   2.378  0.00  0.00     0.001 A 
ATOM     14  C   UNL d   1      -2.503  -3.582   3.618  0.00  0.00     0.000 A 
ATOM     15  C   UNL d   1      -1.906  -2.328   3.692  0.00  0.00     0.001 A 
ATOM     16  C   UNL d   1      -1.648  -1.605   2.524  0.00  0.00     0.009 A 
ENDBRANCH   4  11
BRANCH   4  17
ATOM     17  C   UNL d   1      -1.879  -2.099  -1.348  0.00  0.00     0.022 C 
ATOM     18  C   UNL d   1      -1.474  -1.395  -2.642  0.00  0.00     0.007 C 
ENDBRANCH   4  17
BRANCH   1  19
ATOM     19  N   UNL d   1      -3.755   0.121  -0.075  0.00  0.00    -0.291 NA
ATOM     20  H   UNL d   1      -4.088   1.047   0.170  0.00  0.00     0.125 HD
ATOM     21  H   UNL d   1      -4.250  -0.623   0.407  0.00  0.00     0.125 HD
ENDBRANCH   1  19
TORSDOF 3
