REMARK  2 active torsions:
REMARK  status: ('A' for Active; 'I' for Inactive)
REMARK    1  A    between atoms: C_12  and  C_2 
REMARK    2  A    between atoms: C_7  and  C_6 
ROOT
ATOM      1  C   UNL d   1       0.263   1.560  -0.090  0.00  0.00     0.140 C 
ATOM      2  C   UNL d   1      -1.344  -0.303  -0.032  0.00  0.00     0.041 C 
ATOM      3  N   UNL d   1      -0.984   1.012   0.015  0.00  0.00    -0.341 N 
ATOM      4  C   UNL d   1      -0.445  -1.290  -0.075  0.00  0.00     0.024 C 
ATOM      5  S   UNL d   1       1.610   0.540  -0.497  0.00  0.00    -0.087 SA
ATOM      6  C   UNL d   1       1.037  -1.111  -0.072  0.00  0.00     0.113 C 
ATOM      7  S   UNL d   1       0.426   3.215   0.081  0.00  0.00    -0.053 SA
ATOM      8  H   UNL d   1      -1.730   1.691   0.134  0.00  0.00     0.167 HD
ENDROOT
BRANCH   2   9
ATOM      9  C   UNL d   1      -2.782  -0.596   0.021  0.00  0.00    -0.010 A 
ATOM     10  C   UNL d   1      -3.425  -0.743   1.256  0.00  0.00     0.013 A 
ATOM     11  C   UNL d   1      -4.801  -0.976   1.310  0.00  0.00     0.001 A 
ATOM     12  C   UNL d   1      -5.540  -1.063   0.131  0.00  0.00     0.000 A 
ATOM     13  C   UNL d   1      -4.904  -0.926  -1.103  0.00  0.00     0.001 A 
ATOM     14  C   UNL d   1      -3.529  -0.694  -1.160  0.00  0.00     0.013 A 
ENDBRANCH   2   9
BRANCH   6  15
ATOM     15  C   UNL d   1       1.663  -1.600   1.214  0.00  0.00    -0.033 A 
ATOM     16  C   UNL d   1       1.377  -1.134   2.489  0.00  0.00     0.058 A 
ATOM     17  S   UNL d   1       2.269  -1.929   3.712  0.00  0.00    -0.113 SA
ATOM     18  C   UNL d   1       3.066  -2.913   2.567  0.00  0.00     0.050 A 
ATOM     19  C   UNL d   1       2.655  -2.640   1.279  0.00  0.00     0.016 A 
ENDBRANCH   6  15
TORSDOF 2
