REMARK  3 active torsions:
REMARK  status: ('A' for Active; 'I' for Inactive)
REMARK    1  A    between atoms: C_12  and  C_4 
REMARK    2  A    between atoms: C_10  and  C_6 
REMARK       I    between atoms: N_14  and  C_12 
REMARK    3  A    between atoms: N_19  and  N_14 
ROOT
ATOM      1  N   UNL d   1      -0.327   0.668  -0.002  0.00  0.00    -0.314 N 
ATOM      2  N   UNL d   1      -1.664  -1.122   0.018  0.00  0.00    -0.335 N 
ATOM      3  HN  UNL d   1      -2.004  -2.083   0.015  1.00  0.00     0.168 HD
ATOM      4  C   UNL d   1      -2.428   0.035   0.045  0.00  0.00     0.119 A 
ATOM      5  C   UNL d   1      -0.406  -0.722  -0.002  0.00  0.00     0.134 A 
ATOM      6  C   UNL d   1       2.047   0.720  -0.013  0.00  0.00     0.065 A 
ATOM      7  C   UNL d   1      -1.609   1.145   0.020  0.00  0.00     0.133 A 
ATOM      8  C   UNL d   1       0.868   1.380  -0.008  0.00  0.00     0.114 A 
ATOM      9  C   UNL d   1       0.836  -1.425  -0.012  0.00  0.00     0.079 A 
ATOM     10  C   UNL d   1       2.002  -0.749  -0.015  0.00  0.00     0.045 A 
ATOM     11 CL   UNL d   1       0.816  -3.147  -0.009  0.00  0.00    -0.080 Cl
ENDROOT
BRANCH   4  12
ATOM     12  C   UNL d   1      -3.888   0.038   0.108  0.00  0.00     0.283 C 
ATOM     13  O   UNL d   1      -4.560   1.066   0.177  0.00  0.00    -0.265 OA
ATOM     14  N   UNL d   1      -4.436  -1.237   0.090  0.00  0.00    -0.288 N 
ATOM     15  H   UNL d   1      -3.803  -2.026  -0.048  0.00  0.00     0.183 HD
BRANCH  14  16
ATOM     16  N   UNL d   1      -5.839  -1.422   0.096  0.00  0.00    -0.247 NA
ATOM     17  H   UNL d   1      -6.264  -0.497  -0.057  0.00  0.00     0.143 HD
ATOM     18  H   UNL d   1      -6.116  -1.670   1.049  0.00  0.00     0.143 HD
ENDBRANCH  14  16
ENDBRANCH   4  12
BRANCH   6  19
ATOM     19  C   UNL d   1       3.372   1.429  -0.007  0.00  0.00     0.418 C 
ATOM     20  F   UNL d   1       4.428   0.578   0.012  0.00  0.00    -0.166 F 
ATOM     21  F   UNL d   1       3.517   2.215  -1.102  0.00  0.00    -0.166 F 
ATOM     22  F   UNL d   1       3.496   2.235   1.077  0.00  0.00    -0.166 F 
ENDBRANCH   6  19
TORSDOF 3
