REMARK  8 active torsions:
REMARK  status: ('A' for Active; 'I' for Inactive)
REMARK    1  A    between atoms: N_5  and  C_1 
REMARK    2  A    between atoms: C_9  and  C_2 
REMARK    3  A    between atoms: C_7  and  N_5 
REMARK    4  A    between atoms: N_8  and  C_7 
REMARK       I    between atoms: C_10  and  N_8 
REMARK    5  A    between atoms: O_16  and  C_9 
REMARK    6  A    between atoms: C_11  and  C_10 
REMARK    7  A    between atoms: C_17  and  C_13 
REMARK    8  A    between atoms: C_20  and  O_16 
ROOT
ATOM      1  N   UNL d   1      -3.708  -0.756   1.117  0.00  0.00    -0.326 N 
ATOM      2  H   UNL d   1      -3.856  -1.738   0.885  0.00  0.00     0.169 HD
ENDROOT
BRANCH   1   3
ATOM      3  C   UNL d   1      -2.360  -0.392   1.123  0.00  0.00     0.093 A 
ATOM      4  C   UNL d   1      -1.279  -1.258   0.940  0.00  0.00     0.080 A 
ATOM      5  C   UNL d   1      -0.038  -0.498   0.819  0.00  0.00    -0.026 A 
ATOM      6  C   UNL d   1       1.353  -0.998   0.519  0.00  0.00     0.041 C 
ATOM      7  C   UNL d   1      -0.275   0.863   0.930  0.00  0.00    -0.008 A 
ATOM      8  C   UNL d   1       2.429   0.082   0.763  0.00  0.00     0.005 C 
ATOM      9  C   UNL d   1       2.029   1.442   0.179  0.00  0.00     0.005 C 
ATOM     10  C   UNL d   1       0.733   1.963   0.804  0.00  0.00     0.047 C 
ATOM     11  S   UNL d   1      -1.895   1.231   1.226  0.00  0.00    -0.075 SA
BRANCH   4  12
ATOM     12  C   UNL d   1      -1.521  -2.708   0.840  0.00  0.00     0.296 C 
ATOM     13  O   UNL d   1      -2.661  -3.175   0.867  0.00  0.00    -0.259 OA
BRANCH  12  14
ATOM     14  O   UNL d   1      -0.409  -3.479   0.714  0.00  0.00    -0.318 OA
BRANCH  14  15
ATOM     15  C   UNL d   1      -0.639  -4.903   0.766  0.00  0.00     0.174 C 
ATOM     16  C   UNL d   1      -1.349  -5.430  -0.473  0.00  0.00     0.034 C 
ENDBRANCH  14  15
ENDBRANCH  12  14
ENDBRANCH   4  12
ENDBRANCH   1   3
BRANCH   1  17
ATOM     17  C   UNL d   1      -4.832   0.063   1.187  0.00  0.00     0.179 C 
ATOM     18  S   UNL d   1      -5.105   1.247   2.340  0.00  0.00    -0.040 SA
BRANCH  17  19
ATOM     19  N   UNL d   1      -5.747  -0.300   0.183  0.00  0.00    -0.300 N 
ATOM     20  C   UNL d   1      -6.804   0.443  -0.323  0.00  0.00     0.247 C 
ATOM     21  O   UNL d   1      -6.937   1.656  -0.221  0.00  0.00    -0.268 OA
ATOM     22  H   UNL d   1      -5.608  -1.214  -0.214  0.00  0.00     0.171 HD
BRANCH  20  23
ATOM     23  C   UNL d   1      -7.732  -0.365  -1.169  0.00  0.00     0.075 C 
ATOM     24  C   UNL d   1      -8.675   0.279  -1.877  0.00  0.00     0.017 C 
BRANCH  24  25
ATOM     25  C   UNL d   1      -9.698  -0.330  -2.742  0.00  0.00    -0.036 A 
ATOM     26  C   UNL d   1     -10.151  -1.647  -2.595  0.00  0.00     0.011 A 
ATOM     27  C   UNL d   1     -11.168  -2.146  -3.417  0.00  0.00     0.001 A 
ATOM     28  C   UNL d   1     -11.750  -1.335  -4.388  0.00  0.00     0.000 A 
ATOM     29  C   UNL d   1     -11.318  -0.020  -4.539  0.00  0.00     0.001 A 
ATOM     30  C   UNL d   1     -10.302   0.478  -3.719  0.00  0.00     0.011 A 
ENDBRANCH  24  25
ENDBRANCH  20  23
ENDBRANCH  17  19
ENDBRANCH   1  17
TORSDOF 8
