REMARK  3 active torsions:
REMARK  status: ('A' for Active; 'I' for Inactive)
REMARK    1  A    between atoms: C_2  and  C_1 
REMARK       I    between atoms: N_7  and  C_1 
REMARK    2  A    between atoms: C_4  and  C_10 
REMARK    3  A    between atoms: C_14  and  N_7 
ROOT
ATOM      1  C   UNL d   1      -4.023  -0.303  -1.518  0.00  0.00    -0.008 A 
ATOM      2  C   UNL d   1      -1.191  -0.347  -1.387  0.00  0.00     0.035 A 
ATOM      3  C   UNL d   1      -3.297  -1.394  -2.005  0.00  0.00     0.016 A 
ATOM      4  C   UNL d   1      -3.315   0.783  -0.987  0.00  0.00     0.016 A 
ATOM      5  C   UNL d   1      -1.902  -1.412  -1.939  0.00  0.00     0.030 A 
ATOM      6  C   UNL d   1      -1.911   0.756  -0.911  0.00  0.00     0.030 A 
ENDROOT
BRANCH   2   7
ATOM      7  N   UNL d   1       0.217  -0.345  -1.255  0.00  0.00    -0.323 N 
ATOM      8  C   UNL d   1       1.082  -1.294  -1.779  0.00  0.00     0.261 C 
ATOM      9  O   UNL d   1       0.772  -2.205  -2.541  0.00  0.00    -0.267 OA
ATOM     10  H   UNL d   1       0.612   0.401  -0.694  0.00  0.00     0.169 HD
BRANCH   8  11
ATOM     11  C   UNL d   1       2.499  -1.218  -1.353  0.00  0.00     0.092 A 
ATOM     12  C   UNL d   1       2.797  -0.984  -0.007  0.00  0.00     0.133 A 
ATOM     13  F   UNL d   1       1.827  -0.685   0.870  0.00  0.00    -0.205 F 
ATOM     14  C   UNL d   1       4.103  -1.069   0.473  0.00  0.00     0.043 A 
ATOM     15  C   UNL d   1       5.140  -1.400  -0.395  0.00  0.00     0.005 A 
ATOM     16  C   UNL d   1       4.866  -1.615  -1.744  0.00  0.00     0.025 A 
ATOM     17  C   UNL d   1       3.553  -1.520  -2.229  0.00  0.00     0.052 A 
ATOM     18 CL   UNL d   1       3.347  -1.730  -3.934  0.00  0.00    -0.083 Cl
ENDBRANCH   8  11
ENDBRANCH   2   7
BRANCH   1  19
ATOM     19  C   UNL d   1      -5.480  -0.295  -1.556  0.00  0.00     0.063 A 
ATOM     20  N   UNL d   1      -6.202   0.890  -1.639  0.00  0.00    -0.292 N 
ATOM     21  N   UNL d   1      -7.507   0.672  -1.670  0.00  0.00    -0.061 NA
ATOM     22  HN  UNL d   1      -5.777   1.816  -1.674  1.00  0.00     0.183 HD
ATOM     23  S   UNL d   1      -7.899  -0.951  -1.576  0.00  0.00    -0.010 SA
ATOM     24  C   UNL d   1      -6.258  -1.440  -1.490  0.00  0.00     0.096 A 
ENDBRANCH   1  19
TORSDOF 3
