REMARK  2 active torsions:
REMARK  status: ('A' for Active; 'I' for Inactive)
REMARK    1  A    between atoms: C_7  and  N_2 
REMARK    2  A    between atoms: C_9  and  C_11 
ROOT
ATOM      1  C   UNL d   1       0.908  -0.206  -0.075  0.00  0.00     0.201 A 
ATOM      2  N   UNL d   1       1.719   0.343  -1.163  0.00  0.00    -0.285 N 
ATOM      3  C   UNL d   1       0.750  -1.767  -0.200  0.00  0.00     0.267 A 
ATOM      4  C   UNL d   1      -0.526   0.241   0.046  0.00  0.00     0.017 A 
ATOM      5  N   UNL d   1      -0.615  -2.046  -0.108  0.00  0.00    -0.323 N 
ATOM      6  S   UNL d   1       1.779   0.133   1.495  0.00  0.00    -0.113 SA
ATOM      7  C   UNL d   1       3.013   0.731  -0.781  0.00  0.00     0.235 C 
ATOM      8  C   UNL d   1      -1.362  -0.882   0.019  0.00  0.00     0.045 A 
ATOM      9  C   UNL d   1       3.332   0.426   0.664  0.00  0.00     0.180 C 
ATOM     10  O   UNL d   1       1.628  -2.599  -0.364  0.00  0.00    -0.269 OA
ATOM     11  O   UNL d   1       3.851   1.266  -1.503  0.00  0.00    -0.272 OA
ATOM     12  C   UNL d   1      -1.062   1.518   0.138  0.00  0.00     0.013 A 
ATOM     13  C   UNL d   1      -2.736  -0.779   0.058  0.00  0.00     0.030 A 
ATOM     14  C   UNL d   1      -2.453   1.643   0.173  0.00  0.00     0.001 A 
ATOM     15  C   UNL d   1      -3.281   0.506   0.129  0.00  0.00     0.002 A 
ATOM     16  H   UNL d   1      -0.986  -2.982  -0.177  0.00  0.00     0.169 HD
ENDROOT
BRANCH   2  17
ATOM     17  C   UNL d   1       1.374   0.136  -2.550  0.00  0.00     0.040 A 
ATOM     18  C   UNL d   1       2.371  -0.128  -3.506  0.00  0.00     0.046 A 
ATOM     19  C   UNL d   1       2.066  -0.414  -4.851  0.00  0.00     0.050 A 
ATOM     20  C   UNL d   1       0.729  -0.418  -5.260  0.00  0.00     0.016 A 
ATOM     21  C   UNL d   1      -0.274  -0.141  -4.341  0.00  0.00     0.003 A 
ATOM     22  C   UNL d   1       0.049   0.131  -3.007  0.00  0.00     0.030 A 
BRANCH  19  23
ATOM     23  C   UNL d   1       3.152  -0.741  -5.845  0.00  0.00     0.417 C 
ATOM     24  F   UNL d   1       4.408  -0.727  -5.320  0.00  0.00    -0.166 F 
ATOM     25  F   UNL d   1       2.992  -1.980  -6.390  0.00  0.00    -0.166 F 
ATOM     26  F   UNL d   1       3.174   0.125  -6.896  0.00  0.00    -0.166 F 
ENDBRANCH  19  23
ENDBRANCH   2  17
TORSDOF 2
