REMARK  1 active torsions:
REMARK  status: ('A' for Active; 'I' for Inactive)
REMARK    1  A    between atoms: C_12  and  C_2 
ROOT
ATOM      1  N   UNL d   1      -0.850   0.521   0.041  0.00  0.00    -0.282 N 
ATOM      2  C   UNL d   1      -1.679   1.629  -0.142  0.00  0.00     0.139 A 
ATOM      3  N   UNL d   1      -2.935   1.231  -0.022  0.00  0.00    -0.283 N 
ATOM      4  HN  UNL d   1      -3.752   1.840  -0.056  1.00  0.00     0.188 HD
ATOM      5  C   UNL d   1      -1.723  -0.546   0.165  0.00  0.00     0.114 A 
ATOM      6  N   UNL d   1      -2.965  -0.121   0.154  0.00  0.00    -0.286 N 
ATOM      7  HN  UNL d   1      -3.800  -0.697   0.259  1.00  0.00     0.188 HD
ATOM      8  C   UNL d   1       0.568   0.391   0.112  0.00  0.00     0.059 A 
ATOM      9  S   UNL d   1       0.212  -2.330  -0.535  0.00  0.00    -0.120 SA
ATOM     10  C   UNL d   1       1.155  -0.861  -0.153  0.00  0.00     0.028 A 
ATOM     11  C   UNL d   1      -1.280  -1.934   0.409  0.00  0.00     0.158 C 
ATOM     12  C   UNL d   1       1.390   1.478   0.439  0.00  0.00     0.031 A 
ATOM     13  C   UNL d   1       2.552  -0.980  -0.178  0.00  0.00     0.021 A 
ATOM     14  C   UNL d   1       2.780   1.346   0.407  0.00  0.00     0.002 A 
ATOM     15  C   UNL d   1       3.361   0.124   0.087  0.00  0.00     0.002 A 
ENDROOT
BRANCH   2  16
ATOM     16  C   UNL d   1      -1.321   3.018  -0.452  0.00  0.00     0.010 A 
ATOM     17  C   UNL d   1      -0.317   3.364  -1.367  0.00  0.00     0.015 A 
ATOM     18  C   UNL d   1       0.021   4.704  -1.583  0.00  0.00     0.001 A 
ATOM     19  C   UNL d   1      -0.682   5.716  -0.932  0.00  0.00     0.000 A 
ATOM     20  C   UNL d   1      -1.734   5.392  -0.081  0.00  0.00     0.001 A 
ATOM     21  C   UNL d   1      -2.051   4.053   0.157  0.00  0.00     0.015 A 
ENDBRANCH   2  16
TORSDOF 1
