REMARK  9 active torsions:
REMARK  status: ('A' for Active; 'I' for Inactive)
REMARK    1  A    between atoms: C_5  and  C_1 
REMARK    2  A    between atoms: C_7  and  C_2 
REMARK       I    between atoms: N_12  and  C_7 
REMARK    3  A    between atoms: O_22  and  C_9 
REMARK    4  A    between atoms: O_24  and  C_10 
REMARK    5  A    between atoms: O_25  and  C_11 
REMARK    6  A    between atoms: N_16  and  N_12 
REMARK       I    between atoms: C_13  and  N_16 
REMARK    7  A    between atoms: C_23  and  C_13 
REMARK    8  A    between atoms: C_19  and  C_28 
REMARK    9  A    between atoms: C_28  and  C_23 
ROOT
ATOM      1  C   UNL d   1      -0.753  -8.041  -1.257  0.00  0.00     0.275 C 
ATOM      2  N   UNL d   1      -1.347  -6.793  -1.190  0.00  0.00    -0.263 N 
ATOM      3  O   UNL d   1       0.371  -8.134  -1.722  0.00  0.00    -0.266 OA
ATOM      4  H   UNL d   1      -0.749  -6.000  -1.444  0.00  0.00     0.190 HD
ENDROOT
BRANCH   2   5
ATOM      5  N   UNL d   1      -2.572  -6.447  -0.600  0.00  0.00    -0.267 N 
ATOM      6  C   UNL d   1      -2.837  -5.105  -0.434  0.00  0.00     0.236 C 
ATOM      7  O   UNL d   1      -1.973  -4.250  -0.645  0.00  0.00    -0.272 OA
ATOM      8  H   UNL d   1      -3.099  -7.160  -0.113  0.00  0.00     0.190 HD
BRANCH   6   9
ATOM      9  C   UNL d   1      -4.247  -4.692  -0.030  0.00  0.00     0.109 C 
BRANCH   9  10
ATOM     10  C   UNL d   1      -5.374  -5.721  -0.121  0.00  0.00     0.048 C 
BRANCH  10  11
ATOM     11  C   UNL d   1      -5.683  -6.507   1.134  0.00  0.00    -0.052 A 
ATOM     12  C   UNL d   1      -7.013  -6.824   1.436  0.00  0.00     0.047 A 
ATOM     13  C   UNL d   1      -7.359  -7.601   2.560  0.00  0.00     0.104 A 
ATOM     14  C   UNL d   1      -6.352  -8.103   3.413  0.00  0.00     0.135 A 
ATOM     15  C   UNL d   1      -5.013  -7.761   3.131  0.00  0.00     0.104 A 
ATOM     16  C   UNL d   1      -4.703  -6.971   2.008  0.00  0.00     0.047 A 
BRANCH  13  17
ATOM     17  O   UNL d   1      -8.681  -7.786   2.889  0.00  0.00    -0.353 OA
ATOM     18  C   UNL d   1      -9.575  -7.964   1.792  0.00  0.00     0.210 C 
ENDBRANCH  13  17
BRANCH  14  19
ATOM     19  O   UNL d   1      -6.546  -8.889   4.514  0.00  0.00    -0.351 OA
ATOM     20  C   UNL d   1      -7.805  -9.464   4.819  0.00  0.00     0.210 C 
ENDBRANCH  14  19
BRANCH  15  21
ATOM     21  O   UNL d   1      -3.871  -8.053   3.832  0.00  0.00    -0.353 OA
ATOM     22  C   UNL d   1      -3.876  -9.019   4.869  0.00  0.00     0.210 C 
ENDBRANCH  15  21
ENDBRANCH  10  11
ENDBRANCH   9  10
ENDBRANCH   6   9
ENDBRANCH   2   5
BRANCH   1  23
ATOM     23  C   UNL d   1      -1.437  -9.219  -0.746  0.00  0.00     0.094 A 
ATOM     24  C   UNL d   1      -0.847 -10.323  -0.025  0.00  0.00     0.086 A 
ATOM     25  N   UNL d   1      -1.798 -11.217   0.287  0.00  0.00    -0.259 N 
ATOM     26  O   UNL d   1      -2.963 -10.778  -0.273  0.00  0.00    -0.241 OA
ATOM     27  HN  UNL d   1      -1.674 -12.065   0.839  1.00  0.00     0.195 HD
ATOM     28  C   UNL d   1      -2.760  -9.592  -0.895  0.00  0.00     0.090 A 
ATOM     29  C   UNL d   1      -3.971  -9.067  -1.552  0.00  0.00     0.080 C 
BRANCH  24  30
ATOM     30  C   UNL d   1       0.526 -10.575   0.444  0.00  0.00     0.037 A 
ATOM     31  C   UNL d   1       1.235  -9.632   1.212  0.00  0.00     0.048 A 
ATOM     32 CL   UNL d   1       0.599  -8.076   1.640  0.00  0.00    -0.083 Cl
ATOM     33  C   UNL d   1       2.491  -9.938   1.762  0.00  0.00     0.025 A 
ATOM     34  C   UNL d   1       3.047 -11.204   1.607  0.00  0.00     0.003 A 
ATOM     35  C   UNL d   1       2.367 -12.156   0.859  0.00  0.00     0.025 A 
ATOM     36  C   UNL d   1       1.135 -11.842   0.261  0.00  0.00     0.048 A 
ATOM     37 CL   UNL d   1       0.440 -13.105  -0.711  0.00  0.00    -0.083 Cl
ENDBRANCH  24  30
ENDBRANCH   1  23
TORSDOF 9
