REMARK  7 active torsions:
REMARK  status: ('A' for Active; 'I' for Inactive)
REMARK    1  A    between atoms: C_8  and  N_1 
REMARK    2  A    between atoms: C_9  and  C_4 
REMARK    3  A    between atoms: C_7  and  N_14 
REMARK    4  A    between atoms: N_21  and  C_7 
REMARK    5  A    between atoms: C_19  and  C_9 
REMARK    6  A    between atoms: N_14  and  N_11 
REMARK    7  A    between atoms: C_20  and  C_13 
ROOT
ATOM      1  N   UNL d   1      -0.431  -1.251   0.074  0.00  0.00    -0.229 N 
ATOM      2  N   UNL d   1       0.553   0.603   0.514  0.00  0.00    -0.007 NA
ATOM      3  N   UNL d   1       0.638  -0.702   0.703  0.00  0.00     0.000 NA
ATOM      4  C   UNL d   1      -1.236  -0.206  -0.367  0.00  0.00     0.119 C 
ATOM      5  N   UNL d   1      -0.601   0.928  -0.133  0.00  0.00    -0.273 N 
ATOM      6  HN  UNL d   1      -0.914   1.865  -0.387  1.00  0.00     0.185 HD
ENDROOT
BRANCH   1   7
ATOM      7  C   UNL d   1      -0.575  -2.658  -0.002  0.00  0.00     0.056 A 
ATOM      8  C   UNL d   1       0.082  -3.461   0.939  0.00  0.00     0.032 A 
ATOM      9  C   UNL d   1      -0.075  -4.853   0.914  0.00  0.00     0.014 A 
ATOM     10  C   UNL d   1      -0.870  -5.486  -0.057  0.00  0.00    -0.026 A 
ATOM     11  C   UNL d   1      -1.477  -4.663  -1.021  0.00  0.00     0.014 A 
ATOM     12  C   UNL d   1      -1.331  -3.270  -1.001  0.00  0.00     0.032 A 
BRANCH  10  13
ATOM     13  C   UNL d   1      -1.064  -6.954  -0.061  0.00  0.00    -0.026 A 
ATOM     14  C   UNL d   1      -1.156  -7.682  -1.262  0.00  0.00     0.012 A 
ATOM     15  C   UNL d   1      -1.357  -9.067  -1.263  0.00  0.00     0.001 A 
ATOM     16  C   UNL d   1      -1.460  -9.758  -0.061  0.00  0.00     0.000 A 
ATOM     17  C   UNL d   1      -1.367  -9.065   1.142  0.00  0.00     0.001 A 
ATOM     18  C   UNL d   1      -1.178  -7.679   1.139  0.00  0.00     0.012 A 
ENDBRANCH  10  13
ENDBRANCH   1   7
BRANCH   4  19
ATOM     19  C   UNL d   1      -2.630  -0.281  -0.863  0.00  0.00     0.125 C 
BRANCH  19  20
ATOM     20  C   UNL d   1      -3.538  -0.716   0.256  0.00  0.00     0.087 C 
ATOM     21  N   UNL d   1      -4.311  -1.744   0.109  0.00  0.00    -0.313 N 
ATOM     22  HN  UNL d   1      -4.317  -2.312  -0.738  1.00  0.00     0.185 HD
BRANCH  21  23
ATOM     23  N   UNL d   1      -5.118  -2.010   1.182  0.00  0.00    -0.277 N 
ATOM     24  H   UNL d   1      -5.095  -1.426   2.014  0.00  0.00     0.189 HD
BRANCH  23  25
ATOM     25  C   UNL d   1      -6.020  -3.038   1.158  0.00  0.00     0.184 C 
ATOM     26  S   UNL d   1      -7.035  -3.355   2.432  0.00  0.00    -0.040 SA
BRANCH  25  27
ATOM     27  N   UNL d   1      -6.041  -3.778   0.026  0.00  0.00    -0.375 N 
ATOM     28  H   UNL d   1      -5.380  -3.536  -0.701  0.00  0.00     0.158 HD
ATOM     29  H   UNL d   1      -6.661  -4.568  -0.079  0.00  0.00     0.158 HD
ENDBRANCH  25  27
ENDBRANCH  23  25
ENDBRANCH  21  23
ENDBRANCH  19  20
ENDBRANCH   4  19
TORSDOF 7
