REMARK  1 active torsions:
REMARK  status: ('A' for Active; 'I' for Inactive)
REMARK    1  A    between atoms: C_11  and  C_5 
ROOT
ATOM      1  C   UNL d   1      -0.359  -0.151  -0.019  0.00  0.00     0.051 A 
ATOM      2  C   UNL d   1      -0.129   1.228  -0.001  0.00  0.00    -0.014 A 
ATOM      3  N   UNL d   1       0.581  -1.098  -0.013  0.00  0.00    -0.354 N 
ATOM      4  HN  UNL d   1       0.351  -2.091  -0.052  1.00  0.00     0.166 HD
ATOM      5  C   UNL d   1       1.180   1.713   0.059  0.00  0.00    -0.004 A 
ATOM      6  C   UNL d   1      -1.777  -0.420  -0.057  0.00  0.00    -0.002 A 
ATOM      7  C   UNL d   1      -1.464   1.950  -0.082  0.00  0.00     0.081 A 
ATOM      8  C   UNL d   1      -2.460   0.810  -0.097  0.00  0.00    -0.041 A 
ATOM      9  C   UNL d   1       1.846  -0.664   0.047  0.00  0.00     0.043 A 
ATOM     10  C   UNL d   1       2.217   0.715   0.125  0.00  0.00     0.002 A 
ATOM     11  C   UNL d   1      -2.477  -1.614  -0.031  0.00  0.00     0.014 A 
ATOM     12  C   UNL d   1      -3.844   0.872  -0.103  0.00  0.00     0.008 A 
ATOM     13  C   UNL d   1       3.602   0.997   0.269  0.00  0.00     0.014 A 
ATOM     14  C   UNL d   1       2.830  -1.641   0.028  0.00  0.00     0.030 A 
ATOM     15  C   UNL d   1      -3.871  -1.566  -0.037  0.00  0.00     0.001 A 
ATOM     16  C   UNL d   1      -4.552  -0.336  -0.072  0.00  0.00     0.001 A 
ATOM     17  C   UNL d   1       4.574  -0.007   0.240  0.00  0.00     0.001 A 
ATOM     18  C   UNL d   1       4.187  -1.329   0.104  0.00  0.00     0.002 A 
ENDROOT
BRANCH   5  19
ATOM     19  C   UNL d   1       1.451   3.179   0.005  0.00  0.00    -0.024 A 
ATOM     20  C   UNL d   1       0.727   4.099   0.786  0.00  0.00     0.012 A 
ATOM     21  C   UNL d   1       0.934   5.480   0.682  0.00  0.00     0.001 A 
ATOM     22  C   UNL d   1       1.921   5.976  -0.161  0.00  0.00     0.000 A 
ATOM     23  C   UNL d   1       2.677   5.093  -0.923  0.00  0.00     0.001 A 
ATOM     24  C   UNL d   1       2.420   3.718  -0.864  0.00  0.00     0.012 A 
ENDBRANCH   5  19
TORSDOF 1
