REMARK  11 active torsions:
REMARK  status: ('A' for Active; 'I' for Inactive)
REMARK    1  A    between atoms: C_6  and  S_1 
REMARK    2  A    between atoms: N_7  and  S_1 
REMARK    3  A    between atoms: C_2  and  N_13 
REMARK    4  A    between atoms: N_3  and  C_2 
REMARK    5  A    between atoms: C_5  and  N_3 
REMARK    6  A    between atoms: C_4  and  C_16 
REMARK       I    between atoms: N_10  and  C_4 
REMARK    7  A    between atoms: C_25  and  N_7 
REMARK    8  A    between atoms: C_26  and  N_7 
REMARK    9  A    between atoms: N_13  and  N_10 
REMARK   10  A    between atoms: C_27  and  C_25 
REMARK   11  A    between atoms: C_28  and  C_26 
ROOT
ATOM      1  C   UNL d   1       0.507   4.677   3.241  0.00  0.00     0.270 C 
ATOM      2  N   UNL d   1       0.772   5.901   2.634  0.00  0.00    -0.264 N 
ATOM      3  O   UNL d   1       0.289   4.574   4.447  0.00  0.00    -0.266 OA
ATOM      4  H   UNL d   1       0.964   6.015   1.644  0.00  0.00     0.190 HD
ENDROOT
BRANCH   1   5
ATOM      5  C   UNL d   1       0.541   3.462   2.354  0.00  0.00     0.033 A 
ATOM      6  C   UNL d   1       1.230   3.493   1.142  0.00  0.00     0.018 A 
ATOM      7  C   UNL d   1       1.404   2.338   0.382  0.00  0.00     0.026 A 
ATOM      8  C   UNL d   1       0.840   1.131   0.785  0.00  0.00     0.074 A 
ATOM      9  C   UNL d   1       0.123   1.072   1.992  0.00  0.00     0.026 A 
ATOM     10  C   UNL d   1      -0.015   2.235   2.780  0.00  0.00     0.018 A 
BRANCH   8  11
ATOM     11  S   UNL d   1       1.233  -0.336  -0.157  0.00  0.00     0.243 S 
ATOM     12  O   UNL d   1       0.682  -1.454   0.586  0.00  0.00    -0.206 OA
ATOM     13  O   UNL d   1       2.648  -0.279  -0.450  0.00  0.00    -0.206 OA
BRANCH  11  14
ATOM     14  N   UNL d   1       0.362  -0.117  -1.655  0.00  0.00    -0.206 NA
BRANCH  14  15
ATOM     15  C   UNL d   1       1.159   0.671  -2.677  0.00  0.00     0.107 C 
BRANCH  15  16
ATOM     16  C   UNL d   1       0.408   1.020  -3.966  0.00  0.00     0.011 C 
ATOM     17  C   UNL d   1      -0.868   1.808  -3.720  0.00  0.00     0.006 C 
ENDBRANCH  15  16
ENDBRANCH  14  15
BRANCH  14  18
ATOM     18  C   UNL d   1      -0.224  -1.366  -2.245  0.00  0.00     0.107 C 
BRANCH  18  19
ATOM     19  C   UNL d   1      -1.380  -1.957  -1.447  0.00  0.00     0.011 C 
ATOM     20  C   UNL d   1      -2.491  -0.957  -1.166  0.00  0.00     0.006 C 
ENDBRANCH  18  19
ENDBRANCH  14  18
ENDBRANCH  11  14
ENDBRANCH   8  11
ENDBRANCH   1   5
BRANCH   2  21
ATOM     21  N   UNL d   1       0.989   7.050   3.421  0.00  0.00    -0.274 N 
ATOM     22  H   UNL d   1       1.071   6.870   4.420  0.00  0.00     0.189 HD
BRANCH  21  23
ATOM     23  C   UNL d   1       0.615   8.293   2.975  0.00  0.00     0.186 C 
ATOM     24  S   UNL d   1      -0.238   8.594   1.565  0.00  0.00    -0.040 SA
BRANCH  23  25
ATOM     25  N   UNL d   1       1.023   9.369   3.708  0.00  0.00    -0.361 N 
ATOM     26  H   UNL d   1       0.657  10.245   3.346  0.00  0.00     0.162 HD
BRANCH  25  27
ATOM     27  C   UNL d   1       1.576   9.409   5.051  0.00  0.00     0.092 C 
ATOM     28  C   UNL d   1       3.021   8.878   5.293  0.00  0.00     0.031 C 
ATOM     29  C   UNL d   1       4.078   9.723   4.609  0.00  0.00    -0.024 C 
ATOM     30  C   UNL d   1       3.221   9.416   6.724  0.00  0.00     0.019 C 
ATOM     31  C   UNL d   1       4.093  10.920   5.221  0.00  0.00    -0.026 C 
ATOM     32  C   UNL d   1       3.052  10.881   6.304  0.00  0.00     0.010 C 
ATOM     33  C   UNL d   1       1.657  10.853   5.640  0.00  0.00     0.034 C 
ENDBRANCH  25  27
ENDBRANCH  23  25
ENDBRANCH  21  23
ENDBRANCH   2  21
TORSDOF 11
