REMARK  5 active torsions:
REMARK  status: ('A' for Active; 'I' for Inactive)
REMARK    1  A    between atoms: C_2  and  C_1 
REMARK       I    between atoms: N_3  and  C_2 
REMARK    2  A    between atoms: C_9  and  N_3 
REMARK       I    between atoms: N_7  and  C_5 
REMARK    3  A    between atoms: C_9  and  C_5 
REMARK    4  A    between atoms: C_17  and  N_7 
REMARK    5  A    between atoms: C_10  and  C_17 
ROOT
ATOM      1  C   UNL d   1       0.734  -4.759   1.358  0.00  0.00     0.254 C 
ATOM      2  N   UNL d   1      -0.473  -4.114   1.222  0.00  0.00    -0.344 N 
ATOM      3  O   UNL d   1       1.226  -5.395   0.429  0.00  0.00    -0.268 OA
ATOM      4  H   UNL d   1      -0.847  -3.557   1.986  0.00  0.00     0.163 HD
ENDROOT
BRANCH   2   5
ATOM      5  C   UNL d   1      -1.254  -4.086  -0.020  0.00  0.00     0.172 C 
ATOM      6  C   UNL d   1      -1.805  -5.465  -0.386  0.00  0.00     0.042 C 
BRANCH   5   7
ATOM      7  C   UNL d   1      -2.418  -3.074   0.118  0.00  0.00     0.240 C 
ATOM      8  N   UNL d   1      -3.114  -2.827  -1.048  0.00  0.00    -0.353 N 
ATOM      9  H   UNL d   1      -2.709  -3.098  -1.936  0.00  0.00     0.162 HD
ATOM     10  O   UNL d   1      -2.710  -2.545   1.190  0.00  0.00    -0.271 OA
BRANCH   8  11
ATOM     11  C   UNL d   1      -4.216  -1.891  -1.087  0.00  0.00     0.187 C 
BRANCH  11  12
ATOM     12  C   UNL d   1      -4.792  -1.867  -2.457  0.00  0.00     0.070 A 
ATOM     13  O   UNL d   1      -3.930  -1.575  -3.478  0.00  0.00    -0.325 OA
ATOM     14  C   UNL d   1      -4.656  -1.579  -4.625  0.00  0.00     0.142 A 
ATOM     15  C   UNL d   1      -5.972  -1.877  -4.364  0.00  0.00     0.027 A 
ATOM     16  C   UNL d   1      -6.062  -2.066  -2.963  0.00  0.00     0.036 A 
ENDBRANCH  11  12
ENDBRANCH   8  11
ENDBRANCH   5   7
ENDBRANCH   2   5
BRANCH   1  17
ATOM     17  C   UNL d   1       1.460  -4.699   2.679  0.00  0.00     0.053 A 
ATOM     18  C   UNL d   1       1.072  -3.971   3.818  0.00  0.00     0.051 A 
ATOM     19  C   UNL d   1       1.834  -4.029   4.999  0.00  0.00     0.048 A 
ATOM     20 CL   UNL d   1      -0.318  -2.946   3.898  0.00  0.00    -0.083 Cl
ATOM     21  C   UNL d   1       2.990  -4.797   5.063  0.00  0.00     0.035 A 
ATOM     22  C   UNL d   1       3.405  -5.515   3.949  0.00  0.00     0.025 A 
ATOM     23 CL   UNL d   1       3.897  -4.870   6.521  0.00  0.00    -0.084 Cl
ATOM     24  C   UNL d   1       2.647  -5.463   2.770  0.00  0.00     0.020 A 
ENDBRANCH   1  17
TORSDOF 5
