REMARK  5 active torsions:
REMARK  status: ('A' for Active; 'I' for Inactive)
REMARK    1  A    between atoms: C_9  and  C_1 
REMARK    2  A    between atoms: N_15  and  C_3 
REMARK    3  A    between atoms: C_12  and  C_6 
REMARK       I    between atoms: N_18  and  C_9 
REMARK    4  A    between atoms: C_14  and  C_10 
REMARK    5  A    between atoms: N_23  and  N_18 
ROOT
ATOM      1  C   UNL d   1       2.357   0.125   0.014  0.00  0.00     0.173 A 
ATOM      2  C   UNL d   1       0.232   0.911   0.039  0.00  0.00     0.058 A 
ATOM      3  C   UNL d   1       1.606   1.283  -0.025  0.00  0.00     0.081 A 
ATOM      4  C   UNL d   1       0.237  -0.483   0.045  0.00  0.00     0.162 A 
ATOM      5  O   UNL d   1       1.516  -0.956   0.056  0.00  0.00    -0.285 OA
ATOM      6  C   UNL d   1      -1.031   1.534   0.069  0.00  0.00     0.017 A 
ATOM      7  N   UNL d   1      -0.825  -1.309   0.032  0.00  0.00    -0.335 N 
ATOM      8  HN  UNL d   1      -0.734  -2.325   0.048  1.00  0.00     0.168 HD
ATOM      9  C   UNL d   1      -2.023  -0.682  -0.005  0.00  0.00     0.045 A 
ATOM     10  C   UNL d   1      -2.160   0.707   0.035  0.00  0.00     0.045 A 
ENDROOT
BRANCH   1  11
ATOM     11  C   UNL d   1       3.787  -0.090   0.003  0.00  0.00     0.291 C 
ATOM     12  O   UNL d   1       4.626   0.810  -0.073  0.00  0.00    -0.264 OA
ATOM     13  N   UNL d   1       4.164  -1.430   0.086  0.00  0.00    -0.288 N 
ATOM     14  H   UNL d   1       3.440  -2.131   0.248  0.00  0.00     0.183 HD
BRANCH  13  15
ATOM     15  N   UNL d   1       5.530  -1.791   0.153  0.00  0.00    -0.247 NA
ATOM     16  H   UNL d   1       6.069  -0.915   0.216  0.00  0.00     0.143 HD
ATOM     17  H   UNL d   1       5.796  -2.183  -0.754  0.00  0.00     0.143 HD
ENDBRANCH  13  15
ENDBRANCH   1  11
BRANCH   3  18
ATOM     18  N   UNL d   1       2.100   2.533  -0.121  0.00  0.00    -0.396 N 
ATOM     19  H   UNL d   1       1.502   3.337   0.068  0.00  0.00     0.156 HD
ATOM     20  H   UNL d   1       3.094   2.721   0.010  0.00  0.00     0.156 HD
ENDBRANCH   3  18
BRANCH   6  21
ATOM     21  C   UNL d   1      -1.174   2.981   0.123  0.00  0.00     0.086 A 
ATOM     22  O   UNL d   1      -0.242   3.667   0.850  0.00  0.00    -0.322 OA
ATOM     23  C   UNL d   1      -0.580   4.981   0.811  0.00  0.00     0.142 A 
ATOM     24  C   UNL d   1      -1.726   5.158   0.076  0.00  0.00     0.027 A 
ATOM     25  C   UNL d   1      -2.117   3.868  -0.359  0.00  0.00     0.040 A 
ENDBRANCH   6  21
BRANCH   9  26
ATOM     26  C   UNL d   1      -3.210  -1.564  -0.103  0.00  0.00    -0.009 A 
ATOM     27  C   UNL d   1      -3.253  -2.806   0.551  0.00  0.00     0.014 A 
ATOM     28  C   UNL d   1      -4.377  -3.640   0.460  0.00  0.00     0.007 A 
ATOM     29  C   UNL d   1      -5.486  -3.258  -0.301  0.00  0.00    -0.062 A 
ATOM     30  C   UNL d   1      -5.462  -2.025  -0.954  0.00  0.00     0.007 A 
ATOM     31  C   UNL d   1      -6.681  -4.159  -0.404  0.00  0.00     0.048 C 
ATOM     32  C   UNL d   1      -4.338  -1.197  -0.861  0.00  0.00     0.014 A 
ENDBRANCH   9  26
TORSDOF 5
