REMARK  8 active torsions:
REMARK  status: ('A' for Active; 'I' for Inactive)
REMARK    1  A    between atoms: C_7  and  C_1 
REMARK    2  A    between atoms: C_9  and  C_2 
REMARK    3  A    between atoms: C_5  and  C_11 
REMARK    4  A    between atoms: C_6  and  C_12 
REMARK    5  A    between atoms: S_15  and  C_9 
REMARK    6  A    between atoms: C_14  and  N_17 
REMARK    7  A    between atoms: C_29  and  S_15 
REMARK    8  A    between atoms: C_16  and  C_29 
REMARK       I    between atoms: N_17  and  C_16 
ROOT
ATOM      1  C   UNL d   1      -3.229  -4.715  -0.866  0.00  0.00     0.231 C 
ATOM      2  N   UNL d   1      -2.758  -6.005  -0.664  0.00  0.00    -0.326 N 
ATOM      3  O   UNL d   1      -4.367  -4.432  -1.249  0.00  0.00    -0.272 OA
ATOM      4  H   UNL d   1      -1.859  -6.094  -0.208  0.00  0.00     0.169 HD
ENDROOT
BRANCH   1   5
ATOM      5  C   UNL d   1      -2.280  -3.596  -0.469  0.00  0.00     0.185 C 
BRANCH   5   6
ATOM      6  S   UNL d   1      -0.704  -3.686  -1.357  0.00  0.00    -0.078 SA
BRANCH   6   7
ATOM      7  C   UNL d   1      -0.111  -2.059  -1.011  0.00  0.00     0.224 C 
ATOM      8  O   UNL d   1      -0.724  -1.306  -0.266  0.00  0.00    -0.280 OA
BRANCH   7   9
ATOM      9  C   UNL d   1       1.170  -1.713  -1.591  0.00  0.00     0.082 A 
ATOM     10  C   UNL d   1       2.225  -0.948  -0.982  0.00  0.00     0.084 A 
ATOM     11  N   UNL d   1       3.228  -0.764  -1.855  0.00  0.00    -0.259 N 
ATOM     12  O   UNL d   1       2.858  -1.384  -3.018  0.00  0.00    -0.241 OA
ATOM     13  HN  UNL d   1       4.099  -0.260  -1.684  1.00  0.00     0.195 HD
ATOM     14  C   UNL d   1       1.632  -1.947  -2.876  0.00  0.00     0.089 A 
ATOM     15  C   UNL d   1       1.118  -2.572  -4.112  0.00  0.00     0.080 C 
BRANCH  10  16
ATOM     16  C   UNL d   1       2.336  -0.358   0.359  0.00  0.00     0.015 A 
ATOM     17  C   UNL d   1       2.080  -1.057   1.550  0.00  0.00     0.046 A 
ATOM     18 CL   UNL d   1       1.683  -2.741   1.594  0.00  0.00    -0.083 Cl
ATOM     19  C   UNL d   1       2.220  -0.418   2.791  0.00  0.00     0.025 A 
ATOM     20  C   UNL d   1       2.654   0.905   2.865  0.00  0.00     0.002 A 
ATOM     21  C   UNL d   1       2.950   1.599   1.698  0.00  0.00     0.001 A 
ATOM     22  C   UNL d   1       2.785   0.976   0.457  0.00  0.00     0.015 A 
ENDBRANCH  10  16
ENDBRANCH   7   9
ENDBRANCH   6   7
ENDBRANCH   5   6
ENDBRANCH   1   5
BRANCH   2  23
ATOM     23  C   UNL d   1      -3.463  -7.199  -0.947  0.00  0.00     0.036 A 
ATOM     24  C   UNL d   1      -4.609  -7.242  -1.745  0.00  0.00     0.045 A 
ATOM     25  C   UNL d   1      -5.298  -8.444  -1.985  0.00  0.00     0.050 A 
ATOM     26  C   UNL d   1      -4.826  -9.623  -1.394  0.00  0.00     0.032 A 
ATOM     27  C   UNL d   1      -3.668  -9.612  -0.601  0.00  0.00     0.050 A 
ATOM     28  C   UNL d   1      -2.984  -8.398  -0.398  0.00  0.00     0.045 A 
BRANCH  25  29
ATOM     29  C   UNL d   1      -6.524  -8.437  -2.866  0.00  0.00     0.417 C 
ATOM     30  F   UNL d   1      -7.046  -9.678  -3.072  0.00  0.00    -0.166 F 
ATOM     31  F   UNL d   1      -7.537  -7.688  -2.351  0.00  0.00    -0.166 F 
ATOM     32  F   UNL d   1      -6.271  -7.932  -4.105  0.00  0.00    -0.166 F 
ENDBRANCH  25  29
BRANCH  27  33
ATOM     33  C   UNL d   1      -3.170 -10.880   0.052  0.00  0.00     0.417 C 
ATOM     34  F   UNL d   1      -3.869 -11.992  -0.312  0.00  0.00    -0.166 F 
ATOM     35  F   UNL d   1      -1.869 -11.143  -0.244  0.00  0.00    -0.166 F 
ATOM     36  F   UNL d   1      -3.243 -10.823   1.411  0.00  0.00    -0.166 F 
ENDBRANCH  27  33
ENDBRANCH   2  23
TORSDOF 8
