REMARK  4 active torsions:
REMARK  status: ('A' for Active; 'I' for Inactive)
REMARK    1  A    between atoms: C_9  and  C_3 
REMARK    2  A    between atoms: C_13  and  C_6 
REMARK    3  A    between atoms: C_7  and  C_10 
REMARK    4  A    between atoms: C_11  and  C_13 
ROOT
ATOM      1  N   UNL d   1       1.237   0.181  -0.134  0.00  0.00    -0.322 N 
ATOM      2  HN  UNL d   1       2.237   0.334  -0.268  1.00  0.00     0.169 HD
ATOM      3  C   UNL d   1       0.229   1.117  -0.012  0.00  0.00     0.137 A 
ATOM      4  N   UNL d   1      -0.991   0.578   0.154  0.00  0.00    -0.242 N 
ATOM      5  HN  UNL d   1      -1.882   1.062   0.265  1.00  0.00     0.196 HD
ATOM      6  C   UNL d   1       0.587  -0.955  -0.034  0.00  0.00     0.152 A 
ATOM      7  O   UNL d   1      -0.755  -0.795   0.138  0.00  0.00    -0.222 OA
ENDROOT
BRANCH   3   8
ATOM      8  C   UNL d   1       0.498   2.551  -0.038  0.00  0.00     0.010 A 
ATOM      9  C   UNL d   1       1.797   3.017  -0.287  0.00  0.00     0.016 A 
ATOM     10  C   UNL d   1       2.078   4.386  -0.295  0.00  0.00     0.017 A 
ATOM     11  C   UNL d   1       1.064   5.323  -0.053  0.00  0.00     0.048 A 
ATOM     12  C   UNL d   1      -0.238   4.859   0.192  0.00  0.00     0.017 A 
ATOM     13  C   UNL d   1      -0.518   3.488   0.198  0.00  0.00     0.016 A 
BRANCH  11  14
ATOM     14  C   UNL d   1       1.354   6.804  -0.049  0.00  0.00     0.417 C 
ATOM     15  F   UNL d   1       2.661   7.105  -0.290  0.00  0.00    -0.166 F 
ATOM     16  F   UNL d   1       0.637   7.478  -0.990  0.00  0.00    -0.166 F 
ATOM     17  F   UNL d   1       1.051   7.390   1.143  0.00  0.00    -0.166 F 
ENDBRANCH  11  14
ENDBRANCH   3   8
BRANCH   6  18
ATOM     18  C   UNL d   1       1.103  -2.345  -0.036  0.00  0.00     0.125 C 
BRANCH  18  19
ATOM     19  C   UNL d   1       1.160  -2.955  -1.416  0.00  0.00    -0.045 A 
ATOM     20  C   UNL d   1       2.300  -2.802  -2.220  0.00  0.00     0.050 A 
ATOM     21  C   UNL d   1       2.339  -3.369  -3.493  0.00  0.00     0.119 A 
ATOM     22  F   UNL d   1       3.440  -3.221  -4.243  0.00  0.00    -0.206 F 
ATOM     23  C   UNL d   1       1.262  -4.083  -3.996  0.00  0.00     0.084 A 
ATOM     24  C   UNL d   1       0.131  -4.224  -3.206  0.00  0.00     0.119 A 
ATOM     25  C   UNL d   1       0.066  -3.668  -1.929  0.00  0.00     0.050 A 
ATOM     26  F   UNL d   1      -0.920  -4.909  -3.676  0.00  0.00    -0.206 F 
ENDBRANCH  18  19
ENDBRANCH   6  18
TORSDOF 4
