REMARK  3 active torsions:
REMARK  status: ('A' for Active; 'I' for Inactive)
REMARK    1  A    between atoms: N_2  and  C_1 
REMARK    2  A    between atoms: N_4  and  C_1 
REMARK    3  A    between atoms: C_5  and  N_2 
ROOT
ATOM      1  C   UNL d   1       0.967   2.442   0.741  0.00  0.00     0.037 A 
ATOM      2  C   UNL d   1       2.070   2.882   0.010  0.00  0.00     0.071 A 
ATOM      3  C   UNL d   1       2.567   4.165   0.221  0.00  0.00     0.118 A 
ATOM      4  F   UNL d   1       3.633   4.581  -0.474  0.00  0.00    -0.206 F 
ATOM      5  C   UNL d   1       0.857   4.595   1.855  0.00  0.00     0.005 A 
ATOM      6  C   UNL d   1       0.338   3.317   1.634  0.00  0.00     0.029 A 
ATOM      7  C   UNL d   1       1.980   5.018   1.147  0.00  0.00     0.042 A 
ENDROOT
BRANCH   1   8
ATOM      8  N   UNL d   1       0.433   1.144   0.611  0.00  0.00    -0.333 N 
ATOM      9  H   UNL d   1      -0.570   1.062   0.742  0.00  0.00     0.168 HD
BRANCH   8  10
ATOM     10  C   UNL d   1       1.021   0.017   0.097  0.00  0.00     0.173 C 
ATOM     11  S   UNL d   1       0.000  -1.077  -0.665  0.00  0.00    -0.041 SA
BRANCH  10  12
ATOM     12  N   UNL d   1       2.375  -0.184   0.326  0.00  0.00    -0.367 N 
ATOM     13  C   UNL d   1       3.019   0.278   1.555  0.00  0.00     0.151 C 
ATOM     14  C   UNL d   1       3.180  -1.117  -0.458  0.00  0.00     0.151 C 
ENDBRANCH  10  12
ENDBRANCH   8  10
ENDBRANCH   1   8
TORSDOF 3
