REMARK  5 active torsions:
REMARK  status: ('A' for Active; 'I' for Inactive)
REMARK    1  A    between atoms: C_4  and  C_1 
REMARK    2  A    between atoms: C_2  and  C_5 
REMARK    3  A    between atoms: N_3  and  C_2 
REMARK    4  A    between atoms: C_12  and  N_3 
REMARK    5  A    between atoms: O_13  and  N_7 
ROOT
ATOM      1  C   UNL d   1      -2.202   2.513  -2.859  0.00  0.00     0.136 C 
ATOM      2  N   UNL d   1      -2.742   1.375  -3.219  0.00  0.00    -0.252 N 
ATOM      3  HN  UNL d   1      -2.439   0.460  -2.885  1.00  0.00     0.196 HD
ENDROOT
BRANCH   1   4
ATOM      4  C   UNL d   1      -1.089   2.447  -1.846  0.00  0.00     0.010 A 
ATOM      5  C   UNL d   1      -0.339   1.272  -1.713  0.00  0.00     0.031 A 
ATOM      6  C   UNL d   1       0.716   1.195  -0.787  0.00  0.00     0.048 A 
ATOM      7  C   UNL d   1       1.021   2.323  -0.008  0.00  0.00     0.016 A 
ATOM      8  C   UNL d   1       0.265   3.488  -0.122  0.00  0.00     0.002 A 
ATOM      9  C   UNL d   1      -0.798   3.542  -1.022  0.00  0.00     0.015 A 
BRANCH   6  10
ATOM     10  C   UNL d   1       1.522  -0.068  -0.624  0.00  0.00     0.417 C 
ATOM     11  F   UNL d   1       1.052  -1.119  -1.352  0.00  0.00    -0.166 F 
ATOM     12  F   UNL d   1       1.560  -0.498   0.668  0.00  0.00    -0.166 F 
ATOM     13  F   UNL d   1       2.822   0.095  -1.001  0.00  0.00    -0.166 F 
ENDBRANCH   6  10
ENDBRANCH   1   4
BRANCH   1  14
ATOM     14  N   UNL d   1      -2.674   3.720  -3.337  0.00  0.00    -0.340 N 
ATOM     15  H   UNL d   1      -3.458   3.570  -3.970  0.00  0.00     0.167 HD
BRANCH  14  16
ATOM     16  C   UNL d   1      -1.912   4.848  -3.710  0.00  0.00     0.033 A 
ATOM     17  C   UNL d   1      -0.558   4.781  -4.062  0.00  0.00     0.029 A 
ATOM     18  C   UNL d   1       0.169   5.944  -4.325  0.00  0.00     0.002 A 
ATOM     19  C   UNL d   1      -0.454   7.188  -4.258  0.00  0.00     0.000 A 
ATOM     20  C   UNL d   1      -1.810   7.267  -3.952  0.00  0.00     0.002 A 
ATOM     21  C   UNL d   1      -2.536   6.103  -3.692  0.00  0.00     0.029 A 
ENDBRANCH  14  16
ENDBRANCH   1  14
BRANCH   2  22
ATOM     22  O   UNL d   1      -3.795   1.580  -4.127  0.00  0.00    -0.288 OA
ATOM     23  H   UNL d   1      -4.123   0.671  -4.263  0.00  0.00     0.244 HD
ENDBRANCH   2  22
TORSDOF 5
