REMARK  3 active torsions:
REMARK  status: ('A' for Active; 'I' for Inactive)
REMARK    1  A    between atoms: C_5  and  C_3 
REMARK    2  A    between atoms: C_11  and  C_4 
REMARK    3  A    between atoms: C_8  and  C_10 
ROOT
ATOM      1  N   UNL d   1       1.249   0.192  -0.264  0.00  0.00    -0.318 N 
ATOM      2  HN  UNL d   1       2.236   0.341  -0.474  1.00  0.00     0.169 HD
ATOM      3  C   UNL d   1       0.618  -0.939  -0.070  0.00  0.00     0.184 A 
ATOM      4  C   UNL d   1       0.251   1.129  -0.113  0.00  0.00     0.138 A 
ATOM      5  N   UNL d   1      -0.969   0.595   0.076  0.00  0.00    -0.242 N 
ATOM      6  HN  UNL d   1      -1.861   1.079   0.173  1.00  0.00     0.196 HD
ATOM      7  O   UNL d   1      -0.726  -0.776   0.106  0.00  0.00    -0.217 OA
ENDROOT
BRANCH   3   8
ATOM      8  C   UNL d   1       1.137  -2.291   0.021  0.00  0.00     0.048 A 
ATOM      9  C   UNL d   1       2.365  -2.617   0.625  0.00  0.00     0.065 A 
ATOM     10  C   UNL d   1       2.788  -3.962   0.602  0.00  0.00     0.034 A 
ATOM     11  C   UNL d   1       1.982  -4.920   0.020  0.00  0.00     0.088 A 
ATOM     12  N   UNL d   1       0.794  -4.639  -0.543  0.00  0.00    -0.374 N 
ATOM     13  C   UNL d   1       0.403  -3.341  -0.531  0.00  0.00     0.104 A 
ATOM     14  HN  UNL d   1       0.214  -5.368  -0.959  1.00  0.00     0.164 HD
BRANCH   9  15
ATOM     15  C   UNL d   1       3.277  -1.628   1.312  0.00  0.00     0.418 C 
ATOM     16  F   UNL d   1       2.726  -0.439   1.658  0.00  0.00    -0.166 F 
ATOM     17  F   UNL d   1       3.758  -2.136   2.487  0.00  0.00    -0.166 F 
ATOM     18  F   UNL d   1       4.380  -1.345   0.566  0.00  0.00    -0.166 F 
ENDBRANCH   9  15
ENDBRANCH   3   8
BRANCH   4  19
ATOM     19  C   UNL d   1       0.540   2.557  -0.096  0.00  0.00     0.013 A 
ATOM     20  C   UNL d   1       1.861   3.002  -0.254  0.00  0.00     0.039 A 
ATOM     21  C   UNL d   1       2.158   4.363  -0.190  0.00  0.00     0.036 A 
ATOM     22 CL   UNL d   1       3.788   4.887  -0.371  0.00  0.00    -0.084 Cl
ATOM     23  C   UNL d   1       1.153   5.298   0.030  0.00  0.00     0.047 A 
ATOM     24  C   UNL d   1      -0.160   4.861   0.182  0.00  0.00     0.036 A 
ATOM     25  C   UNL d   1      -0.473   3.502   0.120  0.00  0.00     0.039 A 
ATOM     26 CL   UNL d   1      -1.409   6.011   0.464  0.00  0.00    -0.084 Cl
ENDBRANCH   4  19
TORSDOF 3
