REMARK  7 active torsions:
REMARK  status: ('A' for Active; 'I' for Inactive)
REMARK    1  A    between atoms: C_14  and  C_1 
REMARK       I    between atoms: C_2  and  N_7 
REMARK    2  A    between atoms: C_10  and  C_2 
REMARK    3  A    between atoms: C_3  and  C_10 
REMARK    4  A    between atoms: C_12  and  C_3 
REMARK    5  A    between atoms: C_4  and  C_12 
REMARK    6  A    between atoms: O_15  and  C_4 
REMARK    7  A    between atoms: N_7  and  C_14 
ROOT
ATOM      1  C   UNL d   1       4.366   1.863   0.174  0.00  0.00    -0.023 C 
ATOM      2  C   UNL d   1       5.016   1.325  -1.134  0.00  0.00     0.010 C 
ATOM      3  C   UNL d   1       5.416   1.532   1.282  0.00  0.00     0.010 C 
ATOM      4  C   UNL d   1       5.228  -0.187  -1.112  0.00  0.00     0.001 C 
ATOM      5  C   UNL d   1       5.735   0.036   1.399  0.00  0.00     0.001 C 
ATOM      6  C   UNL d   1       6.076  -0.639   0.073  0.00  0.00     0.000 C 
ENDROOT
BRANCH   1   7
ATOM      7  C   UNL d   1       4.151   3.405   0.013  0.00  0.00     0.112 C 
BRANCH   7   8
ATOM      8  C   UNL d   1       3.592   4.136   1.235  0.00  0.00     0.218 C 
ATOM      9  N   UNL d   1       2.849   5.268   0.955  0.00  0.00    -0.357 N 
ATOM     10  H   UNL d   1       2.884   5.657   0.023  0.00  0.00     0.162 HD
ATOM     11  O   UNL d   1       3.832   3.790   2.383  0.00  0.00    -0.274 OA
BRANCH   9  12
ATOM     12  C   UNL d   1       2.546   6.158   2.057  0.00  0.00     0.163 C 
BRANCH  12  13
ATOM     13  C   UNL d   1       1.401   7.076   1.804  0.00  0.00    -0.016 A 
ATOM     14  C   UNL d   1       0.894   7.947   2.751  0.00  0.00     0.150 A 
ATOM     15  O   UNL d   1      -0.148   8.659   2.259  0.00  0.00    -0.334 OA
ATOM     16  C   UNL d   1      -0.331   8.245   0.982  0.00  0.00     0.142 A 
ATOM     17  C   UNL d   1       0.589   7.276   0.652  0.00  0.00     0.035 A 
ENDBRANCH  12  13
ENDBRANCH   9  12
ENDBRANCH   7   8
ENDBRANCH   1   7
BRANCH   1  18
ATOM     18  C   UNL d   1       3.016   1.168   0.534  0.00  0.00     0.119 C 
BRANCH  18  19
ATOM     19  C   UNL d   1       1.846   1.280  -0.410  0.00  0.00     0.140 C 
ATOM     20  O   UNL d   1       0.676   1.124  -0.093  0.00  0.00    -0.650 OA
BRANCH  19  21
ATOM     21  O   UNL d   1       2.155   1.454  -1.702  0.00  0.00    -0.776 OA
ATOM     22  H   UNL d   1       1.292   1.371  -2.163  0.00  0.00     0.167 HD
ENDBRANCH  19  21
ENDBRANCH  18  19
ENDBRANCH   1  18
TORSDOF 7
