REMARK  4 active torsions:
REMARK  status: ('A' for Active; 'I' for Inactive)
REMARK    1  A    between atoms: C_2  and  C_1 
REMARK       I    between atoms: N_8  and  C_1 
REMARK    2  A    between atoms: C_9  and  C_5 
REMARK    3  A    between atoms: C_13  and  N_8 
REMARK    4  A    between atoms: O_14  and  C_9 
ROOT
ATOM      1  C   UNL d   1       0.044   0.824   1.065  0.00  0.00     0.100 C 
ATOM      2  C   UNL d   1      -0.006   2.348   1.333  0.00  0.00     0.022 C 
ATOM      3  C   UNL d   1      -2.172   1.765   1.274  0.00  0.00     0.023 C 
ATOM      4  C   UNL d   1      -1.463   0.420   0.972  0.00  0.00     0.105 C 
ATOM      5  C   UNL d   1      -0.636   3.096   0.185  0.00  0.00    -0.025 C 
ATOM      6  C   UNL d   1      -1.919   2.719   0.122  0.00  0.00    -0.025 C 
ATOM      7  C   UNL d   1      -1.210   2.402   2.289  0.00  0.00     0.018 C 
ENDROOT
BRANCH   1   8
ATOM      8  C   UNL d   1       0.805   0.261  -0.133  0.00  0.00     0.228 C 
ATOM      9  N   UNL d   1       0.405   0.718  -1.370  0.00  0.00    -0.327 N 
ATOM     10  H   UNL d   1      -0.246   1.490  -1.391  0.00  0.00     0.169 HD
ATOM     11  O   UNL d   1       1.565  -0.685   0.071  0.00  0.00    -0.273 OA
BRANCH   9  12
ATOM     12  C   UNL d   1       0.535   0.045  -2.604  0.00  0.00     0.034 A 
ATOM     13  C   UNL d   1       1.327  -1.083  -2.801  0.00  0.00     0.030 A 
ATOM     14  C   UNL d   1       1.235  -1.810  -3.992  0.00  0.00     0.009 A 
ATOM     15  C   UNL d   1       0.347  -1.420  -5.000  0.00  0.00    -0.062 A 
ATOM     16  C   UNL d   1      -0.368  -0.230  -4.845  0.00  0.00     0.009 A 
ATOM     17  C   UNL d   1       0.172  -2.271  -6.221  0.00  0.00     0.048 C 
ATOM     18  C   UNL d   1      -0.270   0.501  -3.658  0.00  0.00     0.030 A 
ENDBRANCH   9  12
ENDBRANCH   1   8
BRANCH   4  19
ATOM     19  C   UNL d   1      -1.818  -0.644   1.992  0.00  0.00     0.145 C 
ATOM     20  O   UNL d   1      -2.729  -0.545   2.800  0.00  0.00    -0.650 OA
BRANCH  19  21
ATOM     21  O   UNL d   1      -1.063  -1.762   1.901  0.00  0.00    -0.776 OA
ATOM     22  H   UNL d   1      -0.358  -1.764   1.221  0.00  0.00     0.167 HD
ENDBRANCH  19  21
ENDBRANCH   4  19
TORSDOF 4
