REMARK  11 active torsions:
REMARK  status: ('A' for Active; 'I' for Inactive)
REMARK    1  A    between atoms: C_2  and  C_1 
REMARK    2  A    between atoms: C_5  and  C_1 
REMARK    3  A    between atoms: C_6  and  C_2 
REMARK    4  A    between atoms: C_7  and  C_3 
REMARK    5  A    between atoms: C_9  and  C_3 
REMARK    6  A    between atoms: C_11  and  C_4 
REMARK    7  A    between atoms: O_21  and  C_5 
REMARK    8  A    between atoms: O_19  and  C_6 
REMARK    9  A    between atoms: O_20  and  C_7 
REMARK   10  A    between atoms: C_12  and  C_9 
REMARK   11  A    between atoms: O_22  and  C_12 
ROOT
ATOM      1  C   UNL d   1       2.581   0.292   0.147  0.00  0.00     0.077 C 
ATOM      2  C   UNL d   1       3.158   1.185  -0.703  0.00  0.00     0.060 C 
ATOM      3  C   UNL d   1       4.562   1.226  -0.987  0.00  0.00    -0.074 C 
ATOM      4  C   UNL d   1       5.737   1.282  -1.236  0.00  0.00     0.018 C 
ENDROOT
BRANCH   2   5
ATOM      5  C   UNL d   1       2.367   2.199  -1.436  0.00  0.00     0.051 A 
ATOM      6  N   UNL d   1       1.973   3.276  -0.724  0.00  0.00    -0.365 N 
ATOM      7  C   UNL d   1       1.291   4.235  -1.389  0.00  0.00     0.088 A 
ATOM      8  HN  UNL d   1       2.182   3.363   0.271  1.00  0.00     0.165 HD
ATOM      9  C   UNL d   1       0.969   4.163  -2.735  0.00  0.00     0.017 A 
ATOM     10  C   UNL d   1       1.372   3.042  -3.450  0.00  0.00     0.004 A 
ATOM     11  C   UNL d   1       2.094   2.048  -2.797  0.00  0.00     0.031 A 
ENDBRANCH   2   5
BRANCH   1  12
ATOM     12  C   UNL d   1       1.114   0.224   0.365  0.00  0.00     0.070 C 
ATOM     13  C   UNL d   1       0.449   0.446   1.536  0.00  0.00     0.044 C 
BRANCH  13  14
ATOM     14  C   UNL d   1       1.052   0.874   2.839  0.00  0.00     0.290 C 
ATOM     15  O   UNL d   1       0.385   0.981   3.864  0.00  0.00    -0.260 OA
BRANCH  14  16
ATOM     16  O   UNL d   1       2.385   1.093   2.787  0.00  0.00    -0.323 OA
ATOM     17  C   UNL d   1       2.963   1.431   4.052  0.00  0.00     0.213 C 
ENDBRANCH  14  16
ENDBRANCH  13  14
BRANCH  13  18
ATOM     18  C   UNL d   1      -1.056   0.249   1.711  0.00  0.00     0.157 C 
BRANCH  18  19
ATOM     19  C   UNL d   1      -1.811   1.543   1.462  0.00  0.00     0.262 C 
ATOM     20  O   UNL d   1      -1.308   2.629   1.207  0.00  0.00    -0.265 OA
BRANCH  19  21
ATOM     21  O   UNL d   1      -3.152   1.309   1.574  0.00  0.00    -0.326 OA
ATOM     22  C   UNL d   1      -3.964   2.458   1.334  0.00  0.00     0.213 C 
ENDBRANCH  19  21
ENDBRANCH  18  19
ENDBRANCH  13  18
BRANCH  12  23
ATOM     23  C   UNL d   1       0.280  -0.102  -0.851  0.00  0.00     0.294 C 
ATOM     24  O   UNL d   1      -0.873   0.262  -1.028  0.00  0.00    -0.259 OA
BRANCH  23  25
ATOM     25  O   UNL d   1       0.993  -0.842  -1.742  0.00  0.00    -0.322 OA
ATOM     26  C   UNL d   1       0.314  -1.065  -2.983  0.00  0.00     0.213 C 
ENDBRANCH  23  25
ENDBRANCH  12  23
ENDBRANCH   1  12
BRANCH   1  27
ATOM     27  C   UNL d   1       3.452  -0.742   0.828  0.00  0.00     0.295 C 
ATOM     28  O   UNL d   1       4.670  -0.818   0.767  0.00  0.00    -0.259 OA
BRANCH  27  29
ATOM     29  O   UNL d   1       2.689  -1.612   1.552  0.00  0.00    -0.322 OA
ATOM     30  C   UNL d   1       3.465  -2.540   2.318  0.00  0.00     0.213 C 
ENDBRANCH  27  29
ENDBRANCH   1  27
TORSDOF 11
