REMARK  4 active torsions:
REMARK  status: ('A' for Active; 'I' for Inactive)
REMARK    1  A    between atoms: C_9  and  S_1 
REMARK    2  A    between atoms: N_10  and  S_1 
REMARK    3  A    between atoms: S_2  and  C_8 
REMARK    4  A    between atoms: N_11  and  S_2 
ROOT
ATOM      1  C   UNL d   1      -1.284   3.126   1.259  0.00  0.00     0.027 A 
ATOM      2  C   UNL d   1      -2.469   5.112   1.795  0.00  0.00     0.027 A 
ATOM      3  C   UNL d   1      -2.562   3.634   1.806  0.00  0.00     0.194 A 
ATOM      4  C   UNL d   1      -0.472   4.237   0.974  0.00  0.00    -0.011 A 
ATOM      5  C   UNL d   1      -1.201   5.449   1.287  0.00  0.00    -0.011 A 
ATOM      6  C   UNL d   1      -3.064   7.389   1.991  0.00  0.00     0.080 A 
ATOM      7  C   UNL d   1       0.358   1.641   0.422  0.00  0.00     0.080 A 
ATOM      8  C   UNL d   1      -3.420   6.046   2.155  0.00  0.00     0.041 A 
ATOM      9  C   UNL d   1      -0.900   1.824   1.009  0.00  0.00     0.041 A 
ATOM     10  C   UNL d   1       0.798   4.045   0.455  0.00  0.00     0.015 A 
ATOM     11  C   UNL d   1      -0.864   6.779   1.109  0.00  0.00     0.015 A 
ATOM     12  O   UNL d   1      -3.507   2.970   2.177  0.00  0.00    -0.287 OA
ATOM     13  C   UNL d   1       1.217   2.735   0.182  0.00  0.00     0.026 A 
ATOM     14  C   UNL d   1      -1.811   7.754   1.449  0.00  0.00     0.026 A 
ENDROOT
BRANCH   6  15
ATOM     15  S   UNL d   1      -4.244   8.669   2.400  0.00  0.00     0.260 S 
ATOM     16  O   UNL d   1      -3.906   9.833   1.607  0.00  0.00    -0.200 OA
ATOM     17  O   UNL d   1      -5.561   8.075   2.333  0.00  0.00    -0.200 OA
BRANCH  15  18
ATOM     18  N   UNL d   1      -3.866   9.001   4.035  0.00  0.00    -0.307 N 
ATOM     19  C   UNL d   1      -4.213   7.953   5.017  0.00  0.00     0.135 C 
ATOM     20  C   UNL d   1      -4.663   8.556   6.345  0.00  0.00     0.021 C 
ATOM     21  C   UNL d   1      -3.515   8.867   7.298  0.00  0.00     0.002 C 
ATOM     22  C   UNL d   1      -2.565   9.945   6.797  0.00  0.00     0.002 C 
ATOM     23  C   UNL d   1      -1.851   9.560   5.508  0.00  0.00     0.021 C 
ATOM     24  C   UNL d   1      -2.665   9.844   4.253  0.00  0.00     0.135 C 
ENDBRANCH  15  18
ENDBRANCH   6  15
BRANCH   7  25
ATOM     25  S   UNL d   1       0.902  -0.019   0.032  0.00  0.00     0.260 S 
ATOM     26  O   UNL d   1       0.163  -0.916   0.891  0.00  0.00    -0.200 OA
ATOM     27  O   UNL d   1       2.351  -0.007   0.026  0.00  0.00    -0.200 OA
BRANCH  25  28
ATOM     28  N   UNL d   1       0.354  -0.239  -1.576  0.00  0.00    -0.307 N 
ATOM     29  C   UNL d   1       1.256   0.260  -2.637  0.00  0.00     0.135 C 
ATOM     30  C   UNL d   1       0.663   0.376  -4.037  0.00  0.00     0.021 C 
ATOM     31  C   UNL d   1       0.061  -0.913  -4.588  0.00  0.00     0.002 C 
ATOM     32  C   UNL d   1      -1.387  -1.119  -4.159  0.00  0.00     0.002 C 
ATOM     33  C   UNL d   1      -1.562  -1.360  -2.665  0.00  0.00     0.021 C 
ATOM     34  C   UNL d   1      -1.106  -0.195  -1.794  0.00  0.00     0.135 C 
ENDBRANCH  25  28
ENDBRANCH   7  25
TORSDOF 4
