REMARK  6 active torsions:
REMARK  status: ('A' for Active; 'I' for Inactive)
REMARK       I    between atoms: N_3  and  C_1 
REMARK    1  A    between atoms: C_9  and  C_1 
REMARK    2  A    between atoms: S_6  and  C_2 
REMARK    3  A    between atoms: C_5  and  N_3 
REMARK    4  A    between atoms: C_4  and  O_10 
REMARK    5  A    between atoms: C_17  and  S_6 
REMARK    6  A    between atoms: O_10  and  C_18 
ROOT
ATOM      1  C   UNL d   1       0.401  -2.704   2.087  0.00  0.00     0.101 A 
ATOM      2  C   UNL d   1       0.992  -1.444   1.914  0.00  0.00     0.069 A 
ATOM      3  N   UNL d   1       0.908  -3.630   2.942  0.00  0.00    -0.358 N 
ATOM      4  HN  UNL d   1       0.469  -4.545   3.053  1.00  0.00     0.166 HD
ATOM      5  C   UNL d   1       2.154  -1.143   2.624  0.00  0.00     0.034 A 
ATOM      6  C   UNL d   1       2.014  -3.294   3.639  0.00  0.00     0.089 A 
ATOM      7  C   UNL d   1       2.673  -2.082   3.509  0.00  0.00     0.019 A 
ENDROOT
BRANCH   2   8
ATOM      8  N   UNL d   1       0.479  -0.476   1.022  0.00  0.00    -0.320 N 
ATOM      9  C   UNL d   1      -0.399   0.486   1.497  0.00  0.00     0.256 C 
ATOM     10  O   UNL d   1      -0.895   0.480   2.620  0.00  0.00    -0.267 OA
ATOM     11  H   UNL d   1       1.077  -0.236   0.244  0.00  0.00     0.169 HD
BRANCH   9  12
ATOM     12  C   UNL d   1      -0.746   1.594   0.561  0.00  0.00     0.032 A 
ATOM     13  C   UNL d   1      -2.006   2.189   0.693  0.00  0.00     0.020 A 
ATOM     14  C   UNL d   1      -2.392   3.242  -0.149  0.00  0.00     0.038 A 
ATOM     15  C   UNL d   1      -1.499   3.737  -1.095  0.00  0.00     0.078 A 
ATOM     16  C   UNL d   1      -0.251   3.130  -1.241  0.00  0.00     0.038 A 
ATOM     17  C   UNL d   1       0.138   2.070  -0.414  0.00  0.00     0.020 A 
BRANCH  15  18
ATOM     18  O   UNL d   1      -1.744   4.751  -1.970  0.00  0.00    -0.255 OA
BRANCH  18  19
ATOM     19  C   UNL d   1      -2.558   5.843  -1.565  0.00  0.00     0.530 C 
ATOM     20  F   UNL d   1      -2.902   5.827  -0.261  0.00  0.00    -0.144 F 
ATOM     21  F   UNL d   1      -1.879   6.989  -1.798  0.00  0.00    -0.144 F 
ATOM     22  F   UNL d   1      -3.682   5.861  -2.313  0.00  0.00    -0.144 F 
ENDBRANCH  18  19
ENDBRANCH  15  18
ENDBRANCH   9  12
ENDBRANCH   2   8
BRANCH   1  23
ATOM     23  S   UNL d   1      -0.909  -3.283   1.023  0.00  0.00    -0.070 SA
BRANCH  23  24
ATOM     24  C   UNL d   1      -2.424  -2.999   1.918  0.00  0.00     0.007 A 
ATOM     25  C   UNL d   1      -2.529  -2.256   3.095  0.00  0.00     0.019 A 
ATOM     26  C   UNL d   1      -3.776  -2.035   3.692  0.00  0.00     0.008 A 
ATOM     27  C   UNL d   1      -4.944  -2.555   3.126  0.00  0.00    -0.062 A 
ATOM     28  C   UNL d   1      -4.842  -3.324   1.964  0.00  0.00     0.008 A 
ATOM     29  C   UNL d   1      -6.271  -2.327   3.783  0.00  0.00     0.048 C 
ATOM     30  C   UNL d   1      -3.596  -3.536   1.366  0.00  0.00     0.019 A 
ENDBRANCH  23  24
ENDBRANCH   1  23
TORSDOF 6
