REMARK  6 active torsions:
REMARK  status: ('A' for Active; 'I' for Inactive)
REMARK    1  A    between atoms: O_2  and  C_1 
REMARK    2  A    between atoms: C_3  and  O_2 
REMARK    3  A    between atoms: C_13  and  C_4 
REMARK    4  A    between atoms: O_12  and  N_5 
REMARK    5  A    between atoms: C_7  and  N_11 
REMARK    6  A    between atoms: N_11  and  C_13 
ROOT
ATOM      1  C   UNL d   1       0.869  -2.382  -0.137  0.00  0.00     0.086 A 
ATOM      2  C   UNL d   1       2.196  -2.706  -0.481  0.00  0.00    -0.007 A 
ATOM      3  C   UNL d   1      -0.140  -3.340  -0.288  0.00  0.00     0.037 A 
ATOM      4  C   UNL d   1       2.457  -3.954  -1.077  0.00  0.00     0.011 A 
ATOM      5  C   UNL d   1       1.434  -4.878  -1.280  0.00  0.00     0.001 A 
ATOM      6  C   UNL d   1       0.140  -4.579  -0.866  0.00  0.00     0.003 A 
ENDROOT
BRANCH   2   7
ATOM      7  C   UNL d   1       3.361  -1.792  -0.166  0.00  0.00     0.161 C 
BRANCH   7   8
ATOM      8  N   UNL d   1       3.321  -0.563  -0.928  0.00  0.00    -0.380 N 
ATOM      9  H   UNL d   1       2.787  -0.585  -1.787  0.00  0.00     0.160 HD
BRANCH   8  10
ATOM     10  C   UNL d   1       4.343   0.343  -0.842  0.00  0.00     0.199 C 
ATOM     11  N   UNL d   1       5.338   0.290  -0.026  0.00  0.00    -0.265 N 
ATOM     12  HN  UNL d   1       5.486  -0.435   0.677  1.00  0.00     0.194 HD
BRANCH  11  13
ATOM     13  O   UNL d   1       6.184   1.381  -0.255  0.00  0.00    -0.289 OA
ATOM     14  H   UNL d   1       6.902   1.224   0.384  0.00  0.00     0.244 HD
ENDBRANCH  11  13
ENDBRANCH   8  10
ENDBRANCH   7   8
ENDBRANCH   2   7
BRANCH   1  15
ATOM     15  O   UNL d   1       0.658  -1.131   0.370  0.00  0.00    -0.255 OA
BRANCH  15  16
ATOM     16  C   UNL d   1      -0.614  -0.534   0.151  0.00  0.00     0.530 C 
ATOM     17  F   UNL d   1      -1.237  -0.995  -0.956  0.00  0.00    -0.144 F 
ATOM     18  F   UNL d   1      -0.447   0.799  -0.004  0.00  0.00    -0.144 F 
ATOM     19  F   UNL d   1      -1.408  -0.741   1.223  0.00  0.00    -0.144 F 
ENDBRANCH  15  16
ENDBRANCH   1  15
TORSDOF 6
