REMARK  1 active torsions:
REMARK  status: ('A' for Active; 'I' for Inactive)
REMARK    1  A    between atoms: C_7  and  C_2 
ROOT
ATOM      1  O   UNL d   1      -1.841  -0.335   0.983  0.00  0.00    -0.264 OA
ATOM      2  C   UNL d   1      -1.881   0.577  -0.023  0.00  0.00     0.175 A 
ATOM      3  N   UNL d   1      -0.927   0.491  -0.902  0.00  0.00    -0.276 N 
ATOM      4  HN  UNL d   1      -0.767   1.068  -1.727  1.00  0.00     0.189 HD
ATOM      5  C   UNL d   1      -0.740  -1.071   0.691  0.00  0.00     0.235 A 
ATOM      6  N   UNL d   1      -0.193  -0.562  -0.446  0.00  0.00    -0.268 N 
ATOM      7  S   UNL d   1      -0.262  -2.335   1.623  0.00  0.00    -0.031 SA
ATOM      8  H   UNL d   1       0.634  -0.896  -0.927  0.00  0.00     0.190 HD
ENDROOT
BRANCH   2   9
ATOM      9  C   UNL d   1      -2.998   1.529   0.005  0.00  0.00     0.017 A 
ATOM     10  C   UNL d   1      -3.944   1.504   1.038  0.00  0.00     0.017 A 
ATOM     11  C   UNL d   1      -5.011   2.408   1.031  0.00  0.00     0.025 A 
ATOM     12  C   UNL d   1      -5.131   3.332  -0.005  0.00  0.00     0.034 A 
ATOM     13  C   UNL d   1      -4.190   3.367  -1.034  0.00  0.00     0.025 A 
ATOM     14 CL   UNL d   1      -6.452   4.434  -0.017  0.00  0.00    -0.084 Cl
ATOM     15  C   UNL d   1      -3.121   2.466  -1.029  0.00  0.00     0.017 A 
ENDBRANCH   2   9
TORSDOF 1
