REMARK  8 active torsions:
REMARK  status: ('A' for Active; 'I' for Inactive)
REMARK    1  A    between atoms: C_2  and  N_1 
REMARK    2  A    between atoms: C4_24  and  N_3 
REMARK    3  A    between atoms: N_3  and  C_7 
REMARK    4  A    between atoms: C_6  and  C_8 
REMARK    5  A    between atoms: C_7  and  C_6 
REMARK    6  A    between atoms: O_13  and  C_6 
REMARK    7  A    between atoms: C_15  and  C_7 
REMARK    8  A    between atoms: O_14  and  C_15 
ROOT
ATOM      1  C1  <1> d   1      -1.406  -3.131   8.210  0.00  0.00     0.134 C 
ATOM      2  C2  <1> d   1      -0.115  -2.604   7.949  0.00  0.00     0.111 C 
ATOM      3  C3  <1> d   1      -1.552  -4.183   9.155  0.00  0.00     0.111 C 
ATOM      4  N2  <1> d   1       0.932  -2.165   7.694  0.00  0.00    -0.191 NA
ATOM      5  N3  <1> d   1      -1.692  -5.063   9.897  0.00  0.00    -0.191 NA
ATOM      6  C4  <1> d   1      -2.494  -2.647   7.580  0.00  0.00     0.091 C 
ENDROOT
BRANCH   6   7
ATOM      7  N   UNK d   1      -2.596  -1.670   6.602  0.00  0.00    -0.291 NA
ATOM      8  H   UNK d   1      -3.567  -1.354   6.471  0.00  0.00     0.127 HD
BRANCH   7   9
ATOM      9  C   UNK d   1      -1.985  -1.808   5.241  0.00  0.00     0.116 C 
BRANCH   9  10
ATOM     10  C   UNK d   1      -1.689  -0.382   4.668  0.00  0.00     0.171 C 
BRANCH  10  11
ATOM     11  C   UNK d   1      -0.981  -0.247   3.328  0.00  0.00    -0.028 A 
ATOM     12  C   UNK d   1      -0.452  -1.326   2.604  0.00  0.00     0.012 A 
ATOM     13  C   UNK d   1       0.218  -1.122   1.393  0.00  0.00     0.037 A 
ATOM     14  C   UNK d   1       0.407   0.178   0.912  0.00  0.00     0.102 A 
ATOM     15  C   UNK d   1      -0.102   1.272   1.613  0.00  0.00     0.037 A 
ATOM     16  C   UNK d   1      -0.798   1.052   2.807  0.00  0.00     0.012 A 
BRANCH  14  17
ATOM     17  N   UNK d   1       1.176   0.392  -0.319  0.00  0.00    -0.116 N 
ATOM     18  O   UNK d   1       1.372   1.559  -0.685  0.00  0.00    -0.532 OA
ATOM     19  O   UNK d   1       1.589  -0.611  -0.921  0.00  0.00    -0.532 OA
ENDBRANCH  14  17
ENDBRANCH  10  11
BRANCH  10  20
ATOM     20  O   UNK d   1      -0.861   0.356   5.589  0.00  0.00    -0.389 OA
ATOM     21  H   UNK d   1      -0.224  -0.265   5.985  0.00  0.00     0.210 HD
ENDBRANCH  10  20
ENDBRANCH   9  10
BRANCH   9  22
ATOM     22  C   UNK d   1      -2.967  -2.638   4.382  0.00  0.00     0.186 C 
BRANCH  22  23
ATOM     23  O   UNK d   1      -4.252  -2.018   4.346  0.00  0.00    -0.399 OA
ATOM     24  H   UNK d   1      -4.831  -2.599   3.819  0.00  0.00     0.209 HD
ENDBRANCH  22  23
ENDBRANCH   9  22
ENDBRANCH   7   9
ENDBRANCH   6   7
TORSDOF 8
