REMARK  2 active torsions:
REMARK  status: ('A' for Active; 'I' for Inactive)
REMARK    1  A    between atoms: N_7  and  C_2 
REMARK    2  A    between atoms: C_10  and  C_5 
ROOT
ATOM      1  C   UNL d   1      -0.366  -1.203  -0.043  0.00  0.00     0.108 A 
ATOM      2  C   UNL d   1       0.989  -0.702   0.026  0.00  0.00     0.132 A 
ATOM      3  N   UNL d   1       1.079   0.615   0.194  0.00  0.00    -0.311 N 
ATOM      4  HN  UNL d   1       1.952   1.142   0.228  1.00  0.00     0.176 HD
ATOM      5  C   UNL d   1      -1.300  -0.188   0.113  0.00  0.00     0.056 A 
ATOM      6  S   UNL d   1      -0.423   1.269   0.341  0.00  0.00    -0.011 SA
ATOM      7  C   UNL d   1      -0.721  -2.565  -0.305  0.00  0.00     0.104 C 
ATOM      8  N   UNL d   1      -1.004  -3.677  -0.470  0.00  0.00    -0.191 NA
ENDROOT
BRANCH   2   9
ATOM      9  N   UNL d   1       2.081  -1.497  -0.187  0.00  0.00    -0.362 N 
ATOM     10  C   UNL d   1       3.335  -0.889  -0.674  0.00  0.00     0.150 C 
ATOM     11  C   UNL d   1       4.107  -1.959  -1.466  0.00  0.00     0.187 C 
ATOM     12  O   UNL d   1       4.369  -3.128  -0.666  0.00  0.00    -0.388 OA
ATOM     13  C   UNL d   1       3.142  -3.692  -0.167  0.00  0.00     0.187 C 
ATOM     14  C   UNL d   1       2.361  -2.664   0.670  0.00  0.00     0.150 C 
ENDBRANCH   2   9
BRANCH   5  15
ATOM     15  C   UNL d   1      -2.771  -0.188   0.117  0.00  0.00    -0.016 A 
ATOM     16  C   UNL d   1      -3.486  -1.203   0.772  0.00  0.00     0.013 A 
ATOM     17  C   UNL d   1      -4.884  -1.200   0.791  0.00  0.00     0.001 A 
ATOM     18  C   UNL d   1      -5.590  -0.179   0.162  0.00  0.00     0.000 A 
ATOM     19  C   UNL d   1      -4.901   0.833  -0.498  0.00  0.00     0.001 A 
ATOM     20  C   UNL d   1      -3.502   0.824  -0.527  0.00  0.00     0.013 A 
ENDBRANCH   5  15
TORSDOF 2
