REMARK  4 active torsions:
REMARK  status: ('A' for Active; 'I' for Inactive)
REMARK    1  A    between atoms: C_3  and  C_1 
REMARK       I    between atoms: N_6  and  C_3 
REMARK    2  A    between atoms: C_11  and  N_6 
REMARK    3  A    between atoms: C_12  and  N_8 
REMARK    4  A    between atoms: C_18  and  C_12 
ROOT
ATOM      1  C   UNL d   1      -1.613  -4.054  -0.387  0.00  0.00     0.254 C 
ATOM      2  N   UNL d   1      -2.560  -3.151   0.069  0.00  0.00    -0.352 N 
ATOM      3  O   UNL d   1      -1.815  -4.835  -1.305  0.00  0.00    -0.268 OA
ATOM      4  H   UNL d   1      -2.316  -2.693   0.942  0.00  0.00     0.163 HD
ENDROOT
BRANCH   2   5
ATOM      5  C   UNL d   1      -4.001  -3.237  -0.237  0.00  0.00     0.088 C 
ATOM      6  C   UNL d   1      -4.390  -3.451  -1.704  0.00  0.00     0.055 C 
ATOM      7  C   UNL d   1      -4.098  -2.222  -2.556  0.00  0.00     0.275 C 
ATOM      8  N   UNL d   1      -4.785  -1.006  -2.066  0.00  0.00     0.092 N 
ATOM      9  C   UNL d   1      -4.457  -0.762  -0.651  0.00  0.00     0.275 C 
ATOM     10  C   UNL d   1      -4.734  -1.978   0.248  0.00  0.00     0.055 C 
BRANCH   8  11
ATOM     11  C   UNL d   1      -4.367   0.121  -2.932  0.00  0.00     0.311 C 
BRANCH  11  12
ATOM     12  C   UNL d   1      -4.963   1.479  -2.617  0.00  0.00    -0.030 A 
ATOM     13  C   UNL d   1      -4.127   2.525  -2.191  0.00  0.00     0.009 A 
ATOM     14  C   UNL d   1      -4.639   3.806  -1.974  0.00  0.00     0.001 A 
ATOM     15  C   UNL d   1      -5.992   4.057  -2.182  0.00  0.00     0.000 A 
ATOM     16  C   UNL d   1      -6.835   3.027  -2.600  0.00  0.00     0.001 A 
ATOM     17  C   UNL d   1      -6.325   1.743  -2.814  0.00  0.00     0.009 A 
ENDBRANCH  11  12
ENDBRANCH   8  11
ENDBRANCH   2   5
BRANCH   1  18
ATOM     18  C   UNL d   1      -0.285  -4.096   0.315  0.00  0.00     0.066 A 
ATOM     19  C   UNL d   1       0.089  -3.297   1.387  0.00  0.00     0.092 A 
ATOM     20  O   UNL d   1      -0.653  -2.278   1.934  0.00  0.00    -0.339 OA
ATOM     21  C   UNL d   1       1.311  -3.474   2.035  0.00  0.00    -0.021 A 
ATOM     22  C   UNL d   1       0.244  -1.602   2.867  0.00  0.00     0.064 C 
ATOM     23  C   UNL d   1      -0.551  -1.327   4.143  0.00  0.00     0.046 C 
ATOM     24  C   UNL d   1       0.696  -0.283   2.227  0.00  0.00     0.046 C 
ATOM     25  C   UNL d   1       1.450  -2.517   3.155  0.00  0.00     0.079 C 
ATOM     26  C   UNL d   1       2.209  -4.452   1.643  0.00  0.00     0.010 A 
ATOM     27  C   UNL d   1       1.885  -5.231   0.538  0.00  0.00     0.002 A 
ATOM     28  C   UNL d   1       0.654  -5.053  -0.119  0.00  0.00     0.020 A 
ENDBRANCH   1  18
TORSDOF 4
