REMARK  2 active torsions:
REMARK  status: ('A' for Active; 'I' for Inactive)
REMARK    1  A    between atoms: C_6  and  C_3 
REMARK    2  A    between atoms: C_12  and  C_5 
ROOT
ATOM      1  N   UNL d   1      -0.467   1.614  -0.723  0.00  0.00    -0.358 N 
ATOM      2  HN  UNL d   1      -0.282   2.201  -1.537  1.00  0.00     0.166 HD
ATOM      3  C   UNL d   1      -2.383  -0.590   0.585  0.00  0.00     0.094 C 
ATOM      4  S   UNL d   1      -1.114  -1.590  -0.298  0.00  0.00    -0.118 SA
ATOM      5  C   UNL d   1      -1.622   1.716  -0.128  0.00  0.00     0.021 C 
ATOM      6  C   UNL d   1      -2.004   0.824   1.033  0.00  0.00     0.078 C 
ATOM      7  C   UNL d   1       0.536   0.727  -0.287  0.00  0.00     0.049 A 
ATOM      8  C   UNL d   1       0.388  -0.657  -0.060  0.00  0.00     0.028 A 
ATOM      9  C   UNL d   1       1.812   1.293  -0.141  0.00  0.00     0.031 A 
ATOM     10  C   UNL d   1       1.508  -1.420   0.320  0.00  0.00     0.021 A 
ATOM     11  C   UNL d   1       2.764  -0.832   0.473  0.00  0.00     0.002 A 
ATOM     12  C   UNL d   1       2.916   0.527   0.239  0.00  0.00     0.002 A 
ENDROOT
BRANCH   3  13
ATOM     13  C   UNL d   1      -3.779  -0.733  -0.035  0.00  0.00    -0.000 A 
ATOM     14  C   UNL d   1      -4.053  -0.625  -1.420  0.00  0.00     0.043 A 
ATOM     15 CL   UNL d   1      -2.904  -0.112  -2.609  0.00  0.00    -0.084 Cl
ATOM     16  C   UNL d   1      -5.324  -0.917  -1.938  0.00  0.00     0.024 A 
ATOM     17  C   UNL d   1      -6.368  -1.287  -1.101  0.00  0.00     0.003 A 
ATOM     18  C   UNL d   1      -6.153  -1.321   0.269  0.00  0.00     0.024 A 
ATOM     19  C   UNL d   1      -4.885  -1.036   0.796  0.00  0.00     0.043 A 
ATOM     20 CL   UNL d   1      -4.776  -1.053   2.528  0.00  0.00    -0.084 Cl
ENDBRANCH   3  13
BRANCH   5  21
ATOM     21  C   UNL d   1      -2.587   2.774  -0.609  0.00  0.00    -0.014 A 
ATOM     22  C   UNL d   1      -2.229   3.548  -1.724  0.00  0.00     0.013 A 
ATOM     23  C   UNL d   1      -3.071   4.560  -2.196  0.00  0.00     0.001 A 
ATOM     24  C   UNL d   1      -4.281   4.815  -1.559  0.00  0.00     0.000 A 
ATOM     25  C   UNL d   1      -4.653   4.053  -0.456  0.00  0.00     0.001 A 
ATOM     26  C   UNL d   1      -3.815   3.036   0.015  0.00  0.00     0.013 A 
ENDBRANCH   5  21
TORSDOF 2
