REMARK  6 active torsions:
REMARK  status: ('A' for Active; 'I' for Inactive)
REMARK    1  A    between atoms: C_10  and  C_3 
REMARK    2  A    between atoms: N_4  and  C_9 
REMARK    3  A    between atoms: C_21  and  C_8 
REMARK    4  A    between atoms: C_18  and  C_22 
REMARK    5  A    between atoms: S_19  and  C_21 
REMARK    6  A    between atoms: C_22  and  S_19 
ROOT
ATOM      1  N   UNL d   1       0.000   3.416   3.250  0.00  0.00    -0.277 N 
ATOM      2  HN  UNL d   1       0.206   3.160   4.215  1.00  0.00     0.189 HD
ATOM      3  C   UNL d   1       0.175   4.598   2.696  0.00  0.00     0.174 A 
ATOM      4  O   UNL d   1      -0.209   4.620   1.376  0.00  0.00    -0.277 OA
ATOM      5  N   UNL d   1      -0.516   2.591   2.273  0.00  0.00    -0.281 N 
ATOM      6  HN  UNL d   1      -0.763   1.607   2.373  1.00  0.00     0.189 HD
ATOM      7  C   UNL d   1      -0.627   3.325   1.185  0.00  0.00     0.149 A 
ENDROOT
BRANCH   7   8
ATOM      8  C   UNL d   1      -1.036   2.925  -0.184  0.00  0.00     0.160 C 
BRANCH   8   9
ATOM      9  S   UNL d   1      -2.834   2.705  -0.379  0.00  0.00    -0.156 SA
BRANCH   9  10
ATOM     10  C   UNL d   1      -3.341   4.453  -0.440  0.00  0.00     0.113 C 
BRANCH  10  11
ATOM     11  C   UNL d   1      -4.846   4.659  -0.443  0.00  0.00    -0.038 A 
ATOM     12  C   UNL d   1      -5.524   5.453  -1.420  0.00  0.00    -0.019 A 
ATOM     13  C   UNL d   1      -6.898   5.754  -1.216  0.00  0.00    -0.025 A 
ATOM     14  C   UNL d   1      -4.924   5.980  -2.592  0.00  0.00     0.013 A 
ATOM     15  C   UNL d   1      -7.584   6.597  -2.107  0.00  0.00     0.012 A 
ATOM     16  C   UNL d   1      -7.582   5.221  -0.117  0.00  0.00     0.012 A 
ATOM     17  C   UNL d   1      -6.950   7.126  -3.228  0.00  0.00     0.001 A 
ATOM     18  C   UNL d   1      -5.626   6.801  -3.481  0.00  0.00     0.001 A 
ATOM     19  C   UNL d   1      -6.932   4.405   0.801  0.00  0.00     0.001 A 
ATOM     20  C   UNL d   1      -5.576   4.144   0.650  0.00  0.00     0.009 A 
ENDBRANCH  10  11
ENDBRANCH   9  10
ENDBRANCH   8   9
ENDBRANCH   7   8
BRANCH   3  21
ATOM     21  C   UNL d   1       0.718   5.824   3.273  0.00  0.00     0.017 A 
ATOM     22  C   UNL d   1       1.200   5.811   4.595  0.00  0.00     0.018 A 
ATOM     23  C   UNL d   1       1.714   6.969   5.192  0.00  0.00     0.037 A 
ATOM     24  C   UNL d   1       1.750   8.161   4.462  0.00  0.00     0.102 A 
ATOM     25  C   UNL d   1       1.287   8.195   3.140  0.00  0.00     0.037 A 
ATOM     26  C   UNL d   1       0.776   7.029   2.553  0.00  0.00     0.018 A 
BRANCH  24  27
ATOM     27  N   UNL d   1       2.271   9.384   5.086  0.00  0.00    -0.116 N 
ATOM     28  O   UNL d   1       2.638   9.318   6.269  0.00  0.00    -0.532 OA
ATOM     29  O   UNL d   1       2.316  10.411   4.393  0.00  0.00    -0.532 OA
ENDBRANCH  24  27
ENDBRANCH   3  21
TORSDOF 6
