REMARK  0 active torsions:
REMARK  status: ('A' for Active; 'I' for Inactive)
ROOT
ATOM      1  N   UNL d   1       0.918   1.563   0.489  0.00  0.00    -0.362 N 
ATOM      2  HN  UNL d   1       0.826   2.402   1.063  1.00  0.00     0.165 HD
ATOM      3  N   UNL d   1       0.833  -1.451   0.571  0.00  0.00    -0.379 N 
ATOM      4  C   UNL d   1       2.157  -1.276  -0.034  0.00  0.00     0.028 C 
ATOM      5  C   UNL d   1      -0.218   0.774   0.212  0.00  0.00     0.058 A 
ATOM      6  C   UNL d   1      -0.264  -0.639   0.284  0.00  0.00     0.055 A 
ATOM      7  C   UNL d   1       2.076   1.230   0.019  0.00  0.00    -0.015 C 
ATOM      8  C   UNL d   1       2.322   0.017  -0.839  0.00  0.00     0.082 C 
ATOM      9  C   UNL d   1       2.388  -2.458  -0.996  0.00  0.00     0.038 C 
ATOM     10  C   UNL d   1       3.182  -1.362   1.111  0.00  0.00     0.038 C 
ATOM     11  C   UNL d   1      -1.399   1.484  -0.056  0.00  0.00     0.032 A 
ATOM     12  C   UNL d   1      -1.497  -1.279   0.054  0.00  0.00     0.031 A 
ATOM     13  C   UNL d   1       3.262   2.106   0.341  0.00  0.00     0.063 C 
ATOM     14  C   UNL d   1      -2.609   0.830  -0.279  0.00  0.00     0.002 A 
ATOM     15  C   UNL d   1      -2.657  -0.557  -0.229  0.00  0.00     0.002 A 
ATOM     16  H   UNL d   1       0.594  -2.415   0.781  0.00  0.00     0.160 HD
ENDROOT
TORSDOF 0
