REMARK  4 active torsions:
REMARK  status: ('A' for Active; 'I' for Inactive)
REMARK    1  A    between atoms: C_6  and  C_4 
REMARK    2  A    between atoms: C_7  and  C_8 
REMARK    3  A    between atoms: O_21  and  C_7 
REMARK    4  A    between atoms: C_24  and  O_21 
ROOT
ATOM      1  C   UNL d   1      -2.040   0.335   0.014  0.00  0.00    -0.006 C 
ATOM      2  C   UNL d   1      -1.055  -0.795  -0.019  0.00  0.00     0.189 C 
ATOM      3  C   UNL d   1       0.389  -0.408   0.035  0.00  0.00     0.021 A 
ATOM      4  C   UNL d   1      -3.238   0.146  -0.569  0.00  0.00     0.024 C 
ATOM      5  C   UNL d   1       0.771   0.945   0.033  0.00  0.00    -0.043 A 
ATOM      6  C   UNL d   1       3.112   0.279  -0.033  0.00  0.00     0.040 A 
ATOM      7  C   UNL d   1       2.131   1.277  -0.014  0.00  0.00     0.025 A 
ATOM      8  C   UNL d   1       1.369  -1.410   0.036  0.00  0.00     0.017 A 
ATOM      9  C   UNL d   1      -1.549   1.593   0.671  0.00  0.00     0.047 C 
ATOM     10  O   UNL d   1      -1.401  -1.966  -0.096  0.00  0.00    -0.287 OA
ATOM     11  C   UNL d   1       2.727  -1.068   0.010  0.00  0.00     0.018 A 
ATOM     12  C   UNL d   1      -0.254   2.047   0.012  0.00  0.00     0.044 C 
ENDROOT
BRANCH   4  13
ATOM     13  C   UNL d   1      -4.246   1.209  -0.677  0.00  0.00    -0.014 A 
ATOM     14  C   UNL d   1      -4.290   2.101  -1.764  0.00  0.00     0.045 A 
ATOM     15  C   UNL d   1      -5.195   3.166  -1.773  0.00  0.00     0.048 A 
ATOM     16 CL   UNL d   1      -3.221   1.942  -3.114  0.00  0.00    -0.083 Cl
ATOM     17  C   UNL d   1      -6.066   3.337  -0.700  0.00  0.00     0.035 A 
ATOM     18  C   UNL d   1      -6.054   2.447   0.372  0.00  0.00     0.024 A 
ATOM     19 CL   UNL d   1      -7.157   4.667  -0.691  0.00  0.00    -0.084 Cl
ATOM     20  C   UNL d   1      -5.146   1.385   0.384  0.00  0.00     0.015 A 
ENDBRANCH   4  13
BRANCH   6  21
ATOM     21  C   UNL d   1       4.527   0.715  -0.191  0.00  0.00     0.293 C 
ATOM     22  O   UNL d   1       4.854   1.888  -0.290  0.00  0.00    -0.259 OA
BRANCH  21  23
ATOM     23  O   UNL d   1       5.336  -0.359  -0.336  0.00  0.00    -0.318 OA
BRANCH  23  24
ATOM     24  C   UNL d   1       6.594  -0.084  -0.967  0.00  0.00     0.174 C 
ATOM     25  C   UNL d   1       6.400  -0.234  -2.466  0.00  0.00     0.034 C 
ENDBRANCH  23  24
ENDBRANCH  21  23
ENDBRANCH   6  21
TORSDOF 4
