REMARK  4 active torsions:
REMARK  status: ('A' for Active; 'I' for Inactive)
REMARK    1  A    between atoms: C_12  and  N_3 
REMARK    2  A    between atoms: O_11  and  C_9 
REMARK    3  A    between atoms: C_16  and  O_11 
REMARK    4  A    between atoms: C_19  and  C_12 
ROOT
ATOM      1  C   UNL d   1      -0.156  -0.841  -0.126  0.00  0.00     0.147 A 
ATOM      2  C   UNL d   1      -0.401   0.500  -0.133  0.00  0.00     0.151 A 
ATOM      3  N   UNL d   1       1.925   0.883   0.007  0.00  0.00    -0.260 N 
ATOM      4  N   UNL d   1      -1.288  -1.575  -0.167  0.00  0.00    -0.305 N 
ATOM      5  HN  UNL d   1      -1.371  -2.589  -0.239  1.00  0.00     0.171 HD
ATOM      6  N   UNL d   1       1.107  -1.361  -0.015  0.00  0.00    -0.287 N 
ATOM      7  C   UNL d   1       2.186  -0.496   0.128  0.00  0.00     0.333 A 
ATOM      8  C   UNL d   1       0.653   1.464  -0.099  0.00  0.00     0.282 A 
ATOM      9  C   UNL d   1      -2.260  -0.690  -0.092  0.00  0.00     0.233 A 
ATOM     10  N   UNL d   1      -1.772   0.599  -0.133  0.00  0.00    -0.309 N 
ATOM     11  O   UNL d   1       3.316  -0.933   0.365  0.00  0.00    -0.246 OA
ATOM     12  O   UNL d   1       0.454   2.674  -0.141  0.00  0.00    -0.265 OA
ATOM     13  C   UNL d   1       1.336  -2.791   0.038  0.00  0.00     0.163 C 
ATOM     14  C   UNL d   1      -2.587   1.785  -0.059  0.00  0.00     0.160 C 
ENDROOT
BRANCH   9  15
ATOM     15  O   UNL d   1      -3.550  -0.993   0.079  0.00  0.00    -0.279 OA
BRANCH  15  16
ATOM     16  C   UNL d   1      -3.873  -2.235   0.591  0.00  0.00     0.079 A 
ATOM     17  C   UNL d   1      -3.167  -2.804   1.662  0.00  0.00     0.040 A 
ATOM     18  C   UNL d   1      -3.492  -4.079   2.121  0.00  0.00     0.045 A 
ATOM     19  C   UNL d   1      -4.545  -4.765   1.531  0.00  0.00     0.116 A 
ATOM     20  C   UNL d   1      -5.282  -4.194   0.496  0.00  0.00     0.045 A 
ATOM     21  F   UNL d   1      -4.854  -5.993   1.966  0.00  0.00    -0.206 F 
ATOM     22  C   UNL d   1      -4.949  -2.921   0.025  0.00  0.00     0.040 A 
ENDBRANCH  15  16
ENDBRANCH   9  15
BRANCH   3  23
ATOM     23  C   UNL d   1       3.080   1.770   0.023  0.00  0.00     0.175 C 
BRANCH  23  24
ATOM     24  C   UNL d   1       3.713   1.894  -1.349  0.00  0.00    -0.040 A 
ATOM     25  C   UNL d   1       3.319   2.914  -2.225  0.00  0.00     0.009 A 
ATOM     26  C   UNL d   1       3.873   2.999  -3.506  0.00  0.00     0.001 A 
ATOM     27  C   UNL d   1       4.817   2.062  -3.925  0.00  0.00     0.000 A 
ATOM     28  C   UNL d   1       5.216   1.044  -3.064  0.00  0.00     0.001 A 
ATOM     29  C   UNL d   1       4.671   0.963  -1.782  0.00  0.00     0.009 A 
ENDBRANCH  23  24
ENDBRANCH   3  23
TORSDOF 4
