REMARK  1 active torsions:
REMARK  status: ('A' for Active; 'I' for Inactive)
REMARK    1  A    between atoms: C_15  and  C_5 
ROOT
ATOM      1  N   UNL d   1       1.452  -1.430   0.019  0.00  0.00    -0.344 N 
ATOM      2  HN  UNL d   1       0.943  -2.314   0.026  1.00  0.00     0.167 HD
ATOM      3  C   UNL d   1       0.787  -0.245   0.017  0.00  0.00     0.053 A 
ATOM      4  C   UNL d   1      -0.688  -0.343   0.007  0.00  0.00     0.010 A 
ATOM      5  C   UNL d   1       2.799  -1.413   0.013  0.00  0.00     0.085 A 
ATOM      6  C   UNL d   1       1.464   0.958   0.010  0.00  0.00    -0.005 A 
ATOM      7  N   UNL d   1       3.532  -0.291   0.005  0.00  0.00    -0.355 N 
ATOM      8  HN  UNL d   1       4.552  -0.313   0.002  1.00  0.00     0.166 HD
ATOM      9  S   UNL d   1      -0.925   2.464   0.234  0.00  0.00    -0.124 SA
ATOM     10  C   UNL d   1      -1.518   0.794   0.063  0.00  0.00     0.013 A 
ATOM     11  C   UNL d   1       0.843   2.308  -0.063  0.00  0.00     0.121 C 
ATOM     12  C   UNL d   1       2.846   0.863   0.001  0.00  0.00     0.099 A 
ATOM     13  C   UNL d   1      -1.323  -1.605  -0.037  0.00  0.00     0.039 A 
ATOM     14  C   UNL d   1      -2.918   0.653   0.043  0.00  0.00     0.021 A 
ATOM     15  C   UNL d   1      -2.710  -1.732  -0.042  0.00  0.00     0.035 A 
ATOM     16  C   UNL d   1      -3.517  -0.603  -0.008  0.00  0.00     0.025 A 
ATOM     17 CL   UNL d   1      -3.433  -3.295  -0.077  0.00  0.00    -0.084 Cl
ENDROOT
BRANCH   5  18
ATOM     18  C   UNL d   1       3.549  -2.725   0.005  0.00  0.00     0.045 C 
ATOM     19  C   UNL d   1       3.252  -3.533   1.267  0.00  0.00     0.017 C 
ATOM     20  C   UNL d   1       3.243  -3.532  -1.254  0.00  0.00     0.017 C 
ENDBRANCH   5  18
TORSDOF 1
