REMARK  3 active torsions:
REMARK  status: ('A' for Active; 'I' for Inactive)
REMARK    1  A    between atoms: C_7  and  N_1 
REMARK    2  A    between atoms: S_10  and  C_2 
REMARK    3  A    between atoms: C_13  and  S_10 
ROOT
ATOM      1  C   UNL d   1       4.727  -0.159   2.272  0.00  0.00    -0.107 C 
ATOM      2  C   UNL d   1       5.734  -0.433   2.871  0.00  0.00     0.013 C 
ATOM      3  C   UNL d   1       3.492   0.202   1.553  0.00  0.00     0.175 C 
ENDROOT
BRANCH   3   4
ATOM      4  S   UNL d   1       2.664  -1.272   0.868  0.00  0.00    -0.079 SA
BRANCH   4   5
ATOM      5  C   UNL d   1       1.130  -0.595   0.415  0.00  0.00     0.178 A 
ATOM      6  N   UNL d   1      -0.017  -1.299   0.048  0.00  0.00    -0.218 N 
ATOM      7  N   UNL d   1      -0.913  -0.378  -0.395  0.00  0.00     0.001 NA
ATOM      8  N   UNL d   1      -0.334   0.806  -0.279  0.00  0.00    -0.006 NA
ATOM      9  N   UNL d   1       0.927   0.691   0.227  0.00  0.00    -0.264 N 
ATOM     10  HN  UNL d   1       1.581   1.449   0.421  1.00  0.00     0.186 HD
BRANCH   6  11
ATOM     11  C   UNL d   1      -0.349  -2.687   0.086  0.00  0.00     0.068 A 
ATOM     12  C   UNL d   1      -0.021  -3.482   1.216  0.00  0.00    -0.033 A 
ATOM     13  C   UNL d   1      -0.238  -4.874   1.169  0.00  0.00     0.009 A 
ATOM     14  C   UNL d   1       0.430  -2.961   2.558  0.00  0.00     0.050 C 
ATOM     15  C   UNL d   1      -0.844  -5.472   0.074  0.00  0.00     0.001 A 
ATOM     16  C   UNL d   1      -1.266  -4.683  -0.985  0.00  0.00     0.009 A 
ATOM     17  C   UNL d   1      -1.037  -3.290  -1.006  0.00  0.00    -0.033 A 
ATOM     18  C   UNL d   1      -1.549  -2.607  -2.252  0.00  0.00     0.050 C 
ENDBRANCH   6  11
ENDBRANCH   4   5
ENDBRANCH   3   4
TORSDOF 3
