REMARK  5 active torsions:
REMARK  status: ('A' for Active; 'I' for Inactive)
REMARK    1  A    between atoms: N_8  and  C_3 
REMARK    2  A    between atoms: C_13  and  N_4 
REMARK       I    between atoms: C_9  and  N_8 
REMARK    3  A    between atoms: C_19  and  C_9 
REMARK    4  A    between atoms: O_24  and  C_14 
REMARK    5  A    between atoms: O_25  and  C_16 
ROOT
ATOM      1  C   UNL d   1      -0.477   2.616   0.500  0.00  0.00     0.123 C 
ATOM      2  N   UNL d   1      -1.791   2.361   1.110  0.00  0.00    -0.230 NA
ATOM      3  C   UNL d   1      -2.557   3.402   0.622  0.00  0.00     0.153 C 
ATOM      4  N   UNL d   1      -0.830   3.487  -0.671  0.00  0.00    -0.166 NA
ATOM      5  N   UNL d   1      -2.105   4.020  -0.437  0.00  0.00    -0.292 N 
ATOM      6  HN  UNL d   1      -2.581   4.740  -0.980  1.00  0.00     0.183 HD
ATOM      7  C   UNL d   1       0.399   1.410   0.215  0.00  0.00    -0.009 A 
ATOM      8  C   UNL d   1      -0.037   0.105   0.467  0.00  0.00    -0.044 A 
ATOM      9  C   UNL d   1       1.719   1.604  -0.248  0.00  0.00     0.050 A 
ATOM     10  C   UNL d   1      -2.380   1.029   0.943  0.00  0.00     0.105 C 
ATOM     11  C   UNL d   1       2.608   0.542  -0.410  0.00  0.00     0.102 A 
ATOM     12  C   UNL d   1       0.841  -0.977   0.251  0.00  0.00     0.047 A 
ATOM     13  C   UNL d   1       2.160  -0.767  -0.175  0.00  0.00     0.102 A 
ATOM     14  C   UNL d   1      -1.396  -0.135   1.069  0.00  0.00     0.054 C 
ATOM     15  C   UNL d   1       0.271   3.513   1.537  0.00  0.00     0.058 C 
ENDROOT
BRANCH   3  16
ATOM     16  N   UNL d   1      -3.698   3.871   1.188  0.00  0.00    -0.199 NA
ATOM     17  C   UNL d   1      -3.644   4.113   2.545  0.00  0.00     0.237 C 
ATOM     18  O   UNL d   1      -3.721   3.231   3.394  0.00  0.00    -0.274 OA
ATOM     19  H   UNL d   1      -3.997   4.661   0.634  0.00  0.00     0.139 HD
BRANCH  17  20
ATOM     20  C   UNL d   1      -3.566   5.557   2.963  0.00  0.00     0.026 A 
ATOM     21  C   UNL d   1      -3.157   6.580   2.090  0.00  0.00     0.016 A 
ATOM     22  C   UNL d   1      -3.093   7.906   2.534  0.00  0.00     0.001 A 
ATOM     23  C   UNL d   1      -3.417   8.220   3.851  0.00  0.00     0.000 A 
ATOM     24  C   UNL d   1      -3.798   7.210   4.733  0.00  0.00     0.001 A 
ATOM     25  C   UNL d   1      -3.869   5.885   4.292  0.00  0.00     0.016 A 
ENDBRANCH  17  20
ENDBRANCH   3  16
BRANCH   4  26
ATOM     26  C   UNL d   1      -0.669   3.037  -1.993  0.00  0.00     0.033 A 
ATOM     27  C   UNL d   1      -1.252   1.860  -2.492  0.00  0.00     0.027 A 
ATOM     28  C   UNL d   1      -1.052   1.452  -3.812  0.00  0.00     0.026 A 
ATOM     29  C   UNL d   1      -0.278   2.229  -4.663  0.00  0.00     0.034 A 
ATOM     30  C   UNL d   1       0.291   3.417  -4.203  0.00  0.00     0.026 A 
ATOM     31 CL   UNL d   1      -0.029   1.733  -6.290  0.00  0.00    -0.084 Cl
ATOM     32  C   UNL d   1       0.088   3.813  -2.878  0.00  0.00     0.027 A 
ENDBRANCH   4  26
BRANCH  11  33
ATOM     33  O   UNL d   1       3.920   0.692  -0.787  0.00  0.00    -0.353 OA
ATOM     34  C   UNL d   1       4.461   2.007  -0.760  0.00  0.00     0.210 C 
ENDBRANCH  11  33
BRANCH  13  35
ATOM     35  O   UNL d   1       3.096  -1.753  -0.356  0.00  0.00    -0.353 OA
ATOM     36  C   UNL d   1       2.692  -3.100  -0.173  0.00  0.00     0.210 C 
ENDBRANCH  13  35
TORSDOF 5
