REMARK  5 active torsions:
REMARK  status: ('A' for Active; 'I' for Inactive)
REMARK    1  A    between atoms: C_10  and  N_1 
REMARK    2  A    between atoms: C_9  and  C_6 
REMARK    3  A    between atoms: C_13  and  C_9 
REMARK    4  A    between atoms: N_14  and  N_11 
REMARK    5  A    between atoms: C_15  and  N_14 
ROOT
ATOM      1  N   UNL d   1      -0.475  -0.974  -0.980  0.00  0.00    -0.227 N 
ATOM      2  N   UNL d   1       0.675  -0.173   0.659  0.00  0.00    -0.226 N 
ATOM      3  HN  UNL d   1       1.461   0.083   1.255  1.00  0.00     0.210 HD
ATOM      4  N   UNL d   1       0.778  -0.863  -0.461  0.00  0.00    -0.220 N 
ATOM      5  HN  UNL d   1       1.636  -1.242  -0.863  1.00  0.00     0.210 HD
ATOM      6  C   UNL d   1      -1.339  -0.341  -0.085  0.00  0.00     0.125 A 
ATOM      7  N   UNL d   1      -0.621   0.150   0.909  0.00  0.00    -0.271 N 
ATOM      8  HN  UNL d   1      -0.972   0.672   1.712  1.00  0.00     0.190 HD
ENDROOT
BRANCH   6   9
ATOM      9  C   UNL d   1      -2.813  -0.228  -0.137  0.00  0.00     0.126 C 
BRANCH   9  10
ATOM     10  C   UNL d   1      -3.435  -1.549   0.218  0.00  0.00     0.087 C 
ATOM     11  N   UNL d   1      -4.288  -2.112  -0.577  0.00  0.00    -0.315 N 
ATOM     12  HN  UNL d   1      -4.539  -1.719  -1.484  1.00  0.00     0.185 HD
BRANCH  11  13
ATOM     13  N   UNL d   1      -4.820  -3.265  -0.106  0.00  0.00    -0.301 N 
ATOM     14  H   UNL d   1      -4.412  -3.769   0.678  0.00  0.00     0.187 HD
BRANCH  13  15
ATOM     15  C   UNL d   1      -5.748  -3.990  -0.874  0.00  0.00     0.048 A 
ATOM     16  C   UNL d   1      -6.124  -3.609  -2.172  0.00  0.00     0.034 A 
ATOM     17  C   UNL d   1      -7.101  -4.321  -2.875  0.00  0.00     0.044 A 
ATOM     18  C   UNL d   1      -7.730  -5.402  -2.271  0.00  0.00     0.116 A 
ATOM     19  C   UNL d   1      -7.398  -5.785  -0.979  0.00  0.00     0.044 A 
ATOM     20  F   UNL d   1      -8.675  -6.076  -2.938  0.00  0.00    -0.206 F 
ATOM     21  C   UNL d   1      -6.413  -5.079  -0.284  0.00  0.00     0.034 A 
ENDBRANCH  13  15
ENDBRANCH  11  13
ENDBRANCH   9  10
ENDBRANCH   6   9
BRANCH   1  22
ATOM     22  C   UNL d   1      -0.669  -1.671  -2.208  0.00  0.00     0.059 A 
ATOM     23  C   UNL d   1       0.429  -2.346  -2.777  0.00  0.00     0.031 A 
ATOM     24  C   UNL d   1       0.288  -3.076  -3.960  0.00  0.00     0.002 A 
ATOM     25  C   UNL d   1      -0.946  -3.137  -4.596  0.00  0.00     0.000 A 
ATOM     26  C   UNL d   1      -2.033  -2.456  -4.058  0.00  0.00     0.002 A 
ATOM     27  C   UNL d   1      -1.896  -1.721  -2.874  0.00  0.00     0.031 A 
ENDBRANCH   1  22
TORSDOF 5
