REMARK  3 active torsions:
REMARK  status: ('A' for Active; 'I' for Inactive)
REMARK    1  A    between atoms: C_11  and  C_2 
REMARK    2  A    between atoms: O_16  and  C_11 
REMARK    3  A    between atoms: C_17  and  O_16 
ROOT
ATOM      1  N   UNL d   1       0.309  -0.683  -0.069  0.00  0.00    -0.250 N 
ATOM      2  C   UNL d   1       1.635  -1.103  -0.070  0.00  0.00     0.126 A 
ATOM      3  C   UNL d   1       0.179   0.692  -0.074  0.00  0.00     0.158 A 
ATOM      4  C   UNL d   1      -0.819  -1.473   0.078  0.00  0.00     0.276 C 
ATOM      5  C   UNL d   1      -2.113  -0.736   0.001  0.00  0.00     0.128 C 
ATOM      6  N   UNL d   1      -0.924   1.358  -0.051  0.00  0.00    -0.344 N 
ATOM      7  HN  UNL d   1      -0.944   2.378  -0.039  1.00  0.00     0.167 HD
ATOM      8  C   UNL d   1       2.527  -0.098  -0.088  0.00  0.00     0.089 A 
ATOM      9  S   UNL d   1       1.756   1.455  -0.097  0.00  0.00    -0.063 SA
ATOM     10  C   UNL d   1      -2.068   0.603  -0.042  0.00  0.00     0.118 C 
ATOM     11  C   UNL d   1      -3.346  -1.437   0.018  0.00  0.00     0.106 C 
ATOM     12  N   UNL d   1      -4.389  -1.950   0.022  0.00  0.00    -0.191 NA
ATOM     13  O   UNL d   1      -0.823  -2.671   0.336  0.00  0.00    -0.266 OA
ENDROOT
BRANCH   2  14
ATOM     14  C   UNL d   1       2.099  -2.514  -0.069  0.00  0.00     0.311 C 
ATOM     15  O   UNL d   1       1.546  -3.442  -0.629  0.00  0.00    -0.258 OA
BRANCH  14  16
ATOM     16  O   UNL d   1       3.240  -2.586   0.666  0.00  0.00    -0.317 OA
BRANCH  16  17
ATOM     17  C   UNL d   1       3.631  -3.888   1.123  0.00  0.00     0.175 C 
ATOM     18  C   UNL d   1       3.197  -3.986   2.573  0.00  0.00     0.034 C 
ENDBRANCH  16  17
ENDBRANCH  14  16
ENDBRANCH   2  14
TORSDOF 3
