REMARK  3 active torsions:
REMARK  status: ('A' for Active; 'I' for Inactive)
REMARK    1  A    between atoms: C_11  and  C_2 
REMARK       I    between atoms: C_5  and  N_8 
REMARK    2  A    between atoms: C_6  and  C_5 
REMARK    3  A    between atoms: N_8  and  C_18 
ROOT
ATOM      1  C   UNL d   1       2.356  -1.650   0.229  0.00  0.00    -0.008 A 
ATOM      2  C   UNL d   1       2.355  -2.720  -0.673  0.00  0.00     0.016 A 
ATOM      3  C   UNL d   1       3.477  -1.475   1.048  0.00  0.00     0.016 A 
ATOM      4  C   UNL d   1       4.596  -3.373   0.022  0.00  0.00     0.035 A 
ATOM      5  C   UNL d   1       4.582  -2.327   0.944  0.00  0.00     0.030 A 
ATOM      6  C   UNL d   1       3.465  -3.572  -0.778  0.00  0.00     0.030 A 
ENDROOT
BRANCH   4   7
ATOM      7  N   UNL d   1       5.702  -4.227  -0.178  0.00  0.00    -0.323 N 
ATOM      8  C   UNL d   1       6.932  -4.178   0.461  0.00  0.00     0.263 C 
ATOM      9  O   UNL d   1       7.190  -3.440   1.409  0.00  0.00    -0.267 OA
ATOM     10  H   UNL d   1       5.618  -4.919  -0.912  0.00  0.00     0.169 HD
BRANCH   8  11
ATOM     11  C   UNL d   1       7.958  -5.067  -0.083  0.00  0.00     0.072 A 
ATOM     12  S   UNL d   1       7.671  -6.146  -1.382  0.00  0.00    -0.097 SA
ATOM     13  C   UNL d   1       9.300  -6.668  -1.401  0.00  0.00     0.050 A 
ATOM     14  C   UNL d   1      10.052  -6.055  -0.425  0.00  0.00     0.009 A 
ATOM     15  C   UNL d   1       9.275  -5.143   0.342  0.00  0.00     0.025 A 
ENDBRANCH   8  11
ENDBRANCH   4   7
BRANCH   1  16
ATOM     16  C   UNL d   1       1.212  -0.750   0.307  0.00  0.00     0.063 A 
ATOM     17  N   UNL d   1      -0.064  -1.165  -0.059  0.00  0.00    -0.292 N 
ATOM     18  N   UNL d   1      -0.960  -0.204   0.089  0.00  0.00    -0.061 NA
ATOM     19  HN  UNL d   1      -0.283  -2.101  -0.402  1.00  0.00     0.183 HD
ATOM     20  S   UNL d   1      -0.296   1.224   0.651  0.00  0.00    -0.010 SA
ATOM     21  C   UNL d   1       1.289   0.572   0.716  0.00  0.00     0.096 A 
ENDBRANCH   1  16
TORSDOF 3
