REMARK  8 active torsions:
REMARK  status: ('A' for Active; 'I' for Inactive)
REMARK    1  A    between atoms: C_18  and  N_4 
REMARK    2  A    between atoms: C_27  and  N_11 
REMARK    3  A    between atoms: C_24  and  C_12 
REMARK    4  A    between atoms: C_13  and  C_19 
REMARK    5  A    between atoms: C_19  and  C_18 
REMARK    6  A    between atoms: C_26  and  C_21 
REMARK    7  A    between atoms: C_32  and  C_27 
REMARK    8  A    between atoms: C_33  and  C_32 
ROOT
ATOM      1  N   UNL d   1       1.190  -0.631  -0.143  0.00  0.00    -0.203 N 
ATOM      2  C   UNL d   1       1.192   0.762  -0.092  0.00  0.00     0.136 A 
ATOM      3  C   UNL d   1      -1.209  -0.641  -0.437  0.00  0.00     0.062 A 
ATOM      4  N   UNL d   1       0.003   1.440  -0.169  0.00  0.00    -0.319 N 
ATOM      5  C   UNL d   1      -1.142   0.691  -0.372  0.00  0.00     0.118 A 
ATOM      6  C   UNL d   1       0.027  -1.430  -0.288  0.00  0.00     0.278 A 
ATOM      7  N   UNL d   1       2.450  -1.142  -0.080  0.00  0.00    -0.289 N 
ATOM      8  HN  UNL d   1       2.721  -2.125  -0.064  1.00  0.00     0.188 HD
ATOM      9  C   UNL d   1       2.506   1.135  -0.001  0.00  0.00     0.082 A 
ATOM     10  C   UNL d   1      -2.518   1.175  -0.641  0.00  0.00     0.271 C 
ATOM     11  N   UNL d   1      -3.344   0.055  -0.661  0.00  0.00    -0.342 N 
ATOM     12  C   UNL d   1       3.258  -0.069  -0.043  0.00  0.00     0.062 A 
ATOM     13  C   UNL d   1      -2.563  -1.171  -0.701  0.00  0.00     0.173 C 
ATOM     14  O   UNL d   1       0.064  -2.652  -0.322  0.00  0.00    -0.265 OA
ATOM     15  O   UNL d   1      -2.820   2.336  -0.862  0.00  0.00    -0.266 OA
ENDROOT
BRANCH   4  16
ATOM     16  C   UNL d   1       0.008   2.914  -0.219  0.00  0.00     0.217 C 
BRANCH  16  17
ATOM     17  C   UNL d   1      -0.785   3.586   0.914  0.00  0.00     0.203 C 
ATOM     18  O   UNL d   1      -1.359   2.966   1.809  0.00  0.00    -0.288 OA
BRANCH  17  19
ATOM     19  C   UNL d   1      -0.797   5.026   0.826  0.00  0.00     0.148 A 
ATOM     20  C   UNL d   1      -1.618   5.998   1.348  0.00  0.00     0.075 A 
ATOM     21  C   UNL d   1      -1.157   7.215   0.767  0.00  0.00     0.068 A 
ATOM     22  N   UNL d   1      -0.049   6.980   0.045  0.00  0.00    -0.260 N 
ATOM     23  O   UNL d   1       0.158   5.627   0.071  0.00  0.00    -0.234 OA
ATOM     24  HN  UNL d   1       0.527   7.675  -0.430  1.00  0.00     0.195 HD
BRANCH  21  25
ATOM     25  C   UNL d   1      -1.758   8.551   0.811  0.00  0.00    -0.007 A 
ATOM     26  C   UNL d   1      -2.887   8.821   1.596  0.00  0.00     0.014 A 
ATOM     27  C   UNL d   1      -3.506  10.075   1.539  0.00  0.00     0.001 A 
ATOM     28  C   UNL d   1      -3.002  11.071   0.705  0.00  0.00     0.000 A 
ATOM     29  C   UNL d   1      -1.867  10.826  -0.061  0.00  0.00     0.001 A 
ATOM     30  C   UNL d   1      -1.248   9.576  -0.004  0.00  0.00     0.014 A 
ENDBRANCH  21  25
ENDBRANCH  17  19
ENDBRANCH  16  17
ENDBRANCH   4  16
BRANCH  12  31
ATOM     31  C   UNL d   1       4.721  -0.160  -0.058  0.00  0.00    -0.008 A 
ATOM     32  C   UNL d   1       5.487   0.882  -0.613  0.00  0.00     0.014 A 
ATOM     33  C   UNL d   1       6.882   0.829  -0.606  0.00  0.00     0.001 A 
ATOM     34  C   UNL d   1       7.532  -0.265  -0.046  0.00  0.00     0.000 A 
ATOM     35  C   UNL d   1       6.785  -1.311   0.499  0.00  0.00     0.001 A 
ATOM     36  C   UNL d   1       5.388  -1.263   0.489  0.00  0.00     0.014 A 
ENDBRANCH  12  31
BRANCH  11  37
ATOM     37  C   UNL d   1      -4.717   0.154  -1.120  0.00  0.00     0.126 C 
BRANCH  37  38
ATOM     38  C   UNL d   1      -5.719  -0.839  -0.529  0.00  0.00     0.020 C 
BRANCH  38  39
ATOM     39  C   UNL d   1      -5.999  -0.689   0.970  0.00  0.00    -0.003 C 
ATOM     40  C   UNL d   1      -4.958  -1.343   1.863  0.00  0.00     0.005 C 
ENDBRANCH  38  39
ENDBRANCH  37  38
ENDBRANCH  11  37
TORSDOF 8
