REMARK  4 active torsions:
REMARK  status: ('A' for Active; 'I' for Inactive)
REMARK    1  A    between atoms: C_8  and  N_1 
REMARK    2  A    between atoms: C_4  and  C_2 
REMARK       I    between atoms: N_7  and  C_4 
REMARK    3  A    between atoms: C_16  and  N_7 
REMARK    4  A    between atoms: C_9  and  C_8 
ROOT
ATOM      1  N   UNL d   1       0.160  -0.938   0.214  0.00  0.00    -0.345 N 
ATOM      2  C   UNL d   1      -1.460   0.667  -0.260  0.00  0.00     0.105 C 
ATOM      3  C   UNL d   1       0.857   0.248   0.056  0.00  0.00     0.221 C 
ATOM      4  C   UNL d   1      -1.271  -0.742   0.264  0.00  0.00     0.140 C 
ATOM      5  C   UNL d   1      -0.137   1.379   0.021  0.00  0.00     0.118 C 
ATOM      6  O   UNL d   1       2.062   0.366  -0.075  0.00  0.00    -0.273 OA
ENDROOT
BRANCH   2   7
ATOM      7  C   UNL d   1      -1.839   0.710  -1.738  0.00  0.00     0.228 C 
ATOM      8  N   UNL d   1      -0.891   0.211  -2.616  0.00  0.00    -0.327 N 
ATOM      9  H   UNL d   1      -0.135  -0.341  -2.232  0.00  0.00     0.169 HD
ATOM     10  O   UNL d   1      -2.932   1.179  -2.059  0.00  0.00    -0.273 OA
BRANCH   8  11
ATOM     11  C   UNL d   1      -0.835   0.432  -4.012  0.00  0.00     0.034 A 
ATOM     12  C   UNL d   1      -1.692   1.299  -4.691  0.00  0.00     0.030 A 
ATOM     13  C   UNL d   1      -1.502   1.573  -6.050  0.00  0.00     0.009 A 
ATOM     14  C   UNL d   1      -0.453   0.981  -6.758  0.00  0.00    -0.062 A 
ATOM     15  C   UNL d   1       0.376   0.071  -6.095  0.00  0.00     0.009 A 
ATOM     16  C   UNL d   1      -0.229   1.344  -8.196  0.00  0.00     0.048 C 
ATOM     17  C   UNL d   1       0.189  -0.196  -4.732  0.00  0.00     0.030 A 
ENDBRANCH   8  11
ENDBRANCH   2   7
BRANCH   1  18
ATOM     18  C   UNL d   1       0.783  -2.245   0.111  0.00  0.00     0.190 C 
BRANCH  18  19
ATOM     19  C   UNL d   1       0.338  -3.171   1.181  0.00  0.00     0.070 A 
ATOM     20  O   UNL d   1      -0.450  -4.215   0.787  0.00  0.00    -0.325 OA
ATOM     21  C   UNL d   1      -0.660  -4.991   1.881  0.00  0.00     0.142 A 
ATOM     22  C   UNL d   1      -0.033  -4.453   2.980  0.00  0.00     0.027 A 
ATOM     23  C   UNL d   1       0.603  -3.269   2.532  0.00  0.00     0.036 A 
ENDBRANCH  18  19
ENDBRANCH   1  18
TORSDOF 4
