REMARK  2 active torsions:
REMARK  status: ('A' for Active; 'I' for Inactive)
REMARK    1  A    between atoms: CA_1  and  C_6 
REMARK    2  A    between atoms: OXT_8  and  C_6 
ROOT
ATOM      1  CA  UNL d   1      -0.683  -0.977  -0.209  0.00  0.00     0.336 C 
ATOM      2  C   UNL d   1       0.810  -1.221   0.101  0.00  0.00     0.044 C 
ATOM      3  N   UNL d   1      -1.076   0.394   0.276  0.00  0.00     0.118 N 
ATOM      4  S   UNL d   1       1.545   0.463  -0.009  0.00  0.00    -0.117 SA
ATOM      5  C   UNL d   1      -0.044   1.317  -0.239  0.00  0.00     0.200 C 
ATOM      6  C   UNL d   1       1.116  -1.754   1.505  0.00  0.00     0.029 C 
ATOM      7  C   UNL d   1       1.461  -2.098  -0.971  0.00  0.00     0.029 C 
ATOM      8  C   UNL d   1      -0.064   2.611   0.579  0.00  0.00     0.061 C 
ATOM      9  C   UNL d   1      -0.229   1.641  -1.727  0.00  0.00     0.061 C 
ATOM     10  H   UNL d   1      -0.943   0.391   1.294  0.00  0.00     0.319 HD
ENDROOT
BRANCH   1  11
ATOM     11  C   UNL d   1      -1.645  -2.004   0.402  0.00  0.00     0.175 C 
ATOM     12  O   UNL d   1      -1.440  -3.205   0.500  0.00  0.00    -0.648 OA
BRANCH  11  13
ATOM     13  OXT UNL d   1      -2.814  -1.424   0.786  0.00  0.00    -0.775 OA
ATOM     14  HXT UNL d   1      -2.751  -0.461   0.571  0.00  0.00     0.167 HD
ENDBRANCH  11  13
ENDBRANCH   1  11
TORSDOF 2
