REMARK  3 active torsions:
REMARK  status: ('A' for Active; 'I' for Inactive)
REMARK    1  A    between atoms: C_3  and  C_1 
REMARK       I    between atoms: N_5  and  C_3 
REMARK    2  A    between atoms: C_17  and  N_5 
REMARK    3  A    between atoms: C_16  and  C_17 
ROOT
ATOM      1  C   UNL d   1       1.532  -2.807   0.368  0.00  0.00     0.254 C 
ATOM      2  N   UNL d   1       2.732  -3.472   0.445  0.00  0.00    -0.353 N 
ATOM      3  O   UNL d   1       0.452  -3.389   0.450  0.00  0.00    -0.268 OA
ATOM      4  H   UNL d   1       3.584  -2.933   0.338  0.00  0.00     0.163 HD
ENDROOT
BRANCH   1   5
ATOM      5  C   UNL d   1       1.572  -1.316   0.173  0.00  0.00     0.068 A 
ATOM      6  C   UNL d   1       2.754  -0.559   0.029  0.00  0.00     0.117 A 
ATOM      7  C   UNL d   1       2.668   0.833  -0.186  0.00  0.00     0.103 A 
ATOM      8  O   UNL d   1       3.956  -1.228   0.086  0.00  0.00    -0.347 OA
ATOM      9  O   UNL d   1       3.728   1.683  -0.396  0.00  0.00    -0.348 OA
ATOM     10  C   UNL d   1       1.426   1.472  -0.174  0.00  0.00     0.040 A 
ATOM     11  C   UNL d   1       4.829   1.100  -1.093  0.00  0.00     0.178 C 
ATOM     12  C   UNL d   1       5.751   0.370  -0.131  0.00  0.00     0.053 C 
ATOM     13  C   UNL d   1       4.966  -0.524   0.810  0.00  0.00     0.178 C 
ATOM     14  C   UNL d   1       0.259   0.734  -0.007  0.00  0.00     0.004 A 
ATOM     15  C   UNL d   1       0.331  -0.650   0.154  0.00  0.00     0.020 A 
ENDBRANCH   1   5
BRANCH   2  16
ATOM     16  C   UNL d   1       2.850  -4.905   0.552  0.00  0.00     0.161 C 
BRANCH  16  17
ATOM     17  C   UNL d   1       3.648  -5.311   1.768  0.00  0.00    -0.038 A 
ATOM     18  C   UNL d   1       3.166  -5.008   3.054  0.00  0.00     0.048 A 
ATOM     19  C   UNL d   1       3.887  -5.449   4.143  0.00  0.00     0.105 A 
ATOM     20  O   UNL d   1       3.551  -5.261   5.448  0.00  0.00    -0.323 OA
ATOM     21  C   UNL d   1       5.053  -6.162   4.001  0.00  0.00     0.105 A 
ATOM     22  C   UNL d   1       4.618  -5.973   6.108  0.00  0.00     0.352 A 
ATOM     23  O   UNL d   1       5.596  -6.514   5.196  0.00  0.00    -0.323 OA
ATOM     24  C   UNL d   1       5.567  -6.468   2.760  0.00  0.00     0.040 A 
ATOM     25  C   UNL d   1       4.854  -6.038   1.634  0.00  0.00     0.012 A 
ENDBRANCH  16  17
ENDBRANCH   2  16
TORSDOF 3
