REMARK  2 active torsions:
REMARK  status: ('A' for Active; 'I' for Inactive)
REMARK    1  A    between atoms: C_5  and  S_1 
REMARK    2  A    between atoms: C_6  and  S_1 
ROOT
ATOM      1  N   UNL d   1       3.820  -2.026  -1.518  0.00  0.00    -0.196 NA
ATOM      2  C   UNL d   1       3.405  -1.117  -0.926  0.00  0.00     0.072 C 
ATOM      3  C   UNL d   1       2.881   0.056  -0.171  0.00  0.00     0.237 C 
ENDROOT
BRANCH   3   4
ATOM      4  S   UNL d   1       1.063  -0.138  -0.067  0.00  0.00     0.063 S 
ATOM      5  O   UNL d   1       0.774  -1.485   0.688  0.00  0.00    -0.252 OA
BRANCH   4   6
ATOM      6  C   UNL d   1       0.711   1.190   1.113  0.00  0.00     0.032 A 
ATOM      7  C   UNL d   1       0.286   0.888   2.414  0.00  0.00     0.021 A 
ATOM      8  C   UNL d   1       0.008   1.911   3.322  0.00  0.00     0.001 A 
ATOM      9  C   UNL d   1       0.143   3.241   2.933  0.00  0.00     0.000 A 
ATOM     10  C   UNL d   1       0.546   3.551   1.634  0.00  0.00     0.001 A 
ATOM     11  C   UNL d   1       0.824   2.529   0.723  0.00  0.00     0.021 A 
ENDBRANCH   4   6
ENDBRANCH   3   4
TORSDOF 2
