REMARK  3 active torsions:
REMARK  status: ('A' for Active; 'I' for Inactive)
REMARK    1  A    between atoms: N_2  and  S_1 
REMARK    2  A    between atoms: C_3  and  S_1 
REMARK    3  A    between atoms: C_5  and  N_2 
ROOT
ATOM      1  N   UNL d   1       4.122  -0.694   2.740  0.00  0.00    -0.191 NA
ATOM      2  C   UNL d   1       0.882  -1.907   1.966  0.00  0.00     0.043 A 
ATOM      3  C   UNL d   1       3.239  -1.424   2.557  0.00  0.00     0.101 C 
ATOM      4  C   UNL d   1       2.153  -2.341   2.374  0.00  0.00     0.066 A 
ATOM      5  C   UNL d   1       2.362  -3.696   2.668  0.00  0.00     0.024 A 
ATOM      6  C   UNL d   1      -0.156  -2.836   1.825  0.00  0.00     0.026 A 
ATOM      7  C   UNL d   1       1.315  -4.612   2.554  0.00  0.00     0.002 A 
ATOM      8  C   UNL d   1       0.059  -4.181   2.131  0.00  0.00     0.002 A 
ENDROOT
BRANCH   2   9
ATOM      9  N   UNL d   1       0.624  -0.525   1.646  0.00  0.00    -0.180 NA
ATOM     10  H   UNL d   1      -0.346  -0.278   1.862  0.00  0.00     0.146 HD
BRANCH   9  11
ATOM     11  S   UNL d   1       0.858  -0.120   0.001  0.00  0.00     0.245 S 
ATOM     12  O   UNL d   1      -0.437  -0.278  -0.626  0.00  0.00    -0.206 OA
ATOM     13  O   UNL d   1       2.046  -0.768  -0.504  0.00  0.00    -0.206 OA
BRANCH  11  14
ATOM     14  C   UNL d   1       1.201   1.619   0.141  0.00  0.00     0.074 A 
ATOM     15  C   UNL d   1       2.359   2.030   0.810  0.00  0.00     0.026 A 
ATOM     16  C   UNL d   1       2.611   3.391   0.986  0.00  0.00     0.025 A 
ATOM     17  C   UNL d   1       1.713   4.332   0.481  0.00  0.00     0.034 A 
ATOM     18  C   UNL d   1       0.572   3.923  -0.211  0.00  0.00     0.025 A 
ATOM     19 CL   UNL d   1       2.012   6.009   0.720  0.00  0.00    -0.084 Cl
ATOM     20  C   UNL d   1       0.311   2.561  -0.385  0.00  0.00     0.026 A 
ENDBRANCH  11  14
ENDBRANCH   9  11
ENDBRANCH   2   9
TORSDOF 3
