REMARK  5 active torsions:
REMARK  status: ('A' for Active; 'I' for Inactive)
REMARK    1  A    between atoms: C_4  and  C_1 
REMARK    2  A    between atoms: N_5  and  C_2 
REMARK       I    between atoms: C_3  and  N_6 
REMARK    3  A    between atoms: C_11  and  C_3 
REMARK    4  A    between atoms: O_15  and  C_4 
REMARK    5  A    between atoms: N_6  and  C_9 
ROOT
ATOM      1  C   UNL d   1       1.404  -0.171   0.117  0.00  0.00     0.066 A 
ATOM      2  C   UNL d   1       0.626  -1.346   0.038  0.00  0.00     0.047 A 
ATOM      3  C   UNL d   1       0.791   1.094   0.122  0.00  0.00     0.050 A 
ATOM      4  C   UNL d   1      -0.770  -1.177   0.001  0.00  0.00     0.033 A 
ATOM      5  C   UNL d   1      -0.595   1.247   0.106  0.00  0.00     0.036 A 
ATOM      6  C   UNL d   1      -1.375   0.093   0.058  0.00  0.00     0.032 A 
ENDROOT
BRANCH   5   7
ATOM      7  N   UNL d   1      -1.225   2.517   0.152  0.00  0.00    -0.323 N 
ATOM      8  C   UNL d   1      -0.568   3.733   0.022  0.00  0.00     0.256 C 
ATOM      9  O   UNL d   1       0.625   3.882  -0.229  0.00  0.00    -0.267 OA
ATOM     10  H   UNL d   1      -2.236   2.524   0.199  0.00  0.00     0.169 HD
BRANCH   8  11
ATOM     11  C   UNL d   1      -1.366   4.978   0.168  0.00  0.00     0.032 A 
ATOM     12  C   UNL d   1      -2.455   5.089   1.035  0.00  0.00     0.017 A 
ATOM     13  C   UNL d   1      -3.066   6.336   1.217  0.00  0.00     0.001 A 
ATOM     14  C   UNL d   1      -2.593   7.463   0.538  0.00  0.00     0.000 A 
ATOM     15  C   UNL d   1      -1.513   7.352  -0.332  0.00  0.00     0.001 A 
ATOM     16  C   UNL d   1      -0.903   6.114  -0.516  0.00  0.00     0.017 A 
ENDBRANCH   8  11
ENDBRANCH   5   7
BRANCH   1  17
ATOM     17  C   UNL d   1       2.899  -0.198   0.093  0.00  0.00     0.178 C 
ATOM     18  O   UNL d   1       3.574  -0.976  -0.563  0.00  0.00    -0.646 OA
BRANCH  17  19
ATOM     19  O   UNL d   1       3.470   0.718   0.914  0.00  0.00    -0.773 OA
ATOM     20  H   UNL d   1       2.857   1.282   1.422  0.00  0.00     0.167 HD
ENDBRANCH  17  19
ENDBRANCH   1  17
BRANCH   2  21
ATOM     21  N   UNL d   1       1.198  -2.609  -0.018  0.00  0.00    -0.376 N 
ATOM     22  C   UNL d   1       0.600  -3.693  -0.811  0.00  0.00     0.149 C 
ATOM     23  C   UNL d   1       1.703  -4.706  -1.174  0.00  0.00     0.187 C 
ATOM     24  O   UNL d   1       2.345  -5.223   0.006  0.00  0.00    -0.388 OA
ATOM     25  C   UNL d   1       2.961  -4.148   0.740  0.00  0.00     0.187 C 
ATOM     26  C   UNL d   1       1.923  -3.098   1.171  0.00  0.00     0.149 C 
ENDBRANCH   2  21
TORSDOF 5
