REMARK  4 active torsions:
REMARK  status: ('A' for Active; 'I' for Inactive)
REMARK    1  A    between atoms: C_9  and  C_1 
REMARK    2  A    between atoms: C_6  and  C_3 
REMARK    3  A    between atoms: N_4  and  C_7 
REMARK    4  A    between atoms: O_15  and  C_9 
ROOT
ATOM      1  C   UNL d   1       1.422   1.014   0.033  0.00  0.00     0.048 C 
ATOM      2  C   UNL d   1       1.310  -0.331  -0.032  0.00  0.00     0.021 C 
ATOM      3  C   UNL d   1       0.213   1.910  -0.191  0.00  0.00     0.071 C 
ATOM      4  N   UNL d   1       0.078  -0.904  -0.257  0.00  0.00    -0.330 N 
ATOM      5  C   UNL d   1      -1.124  -0.263  -0.327  0.00  0.00     0.222 C 
ATOM      6  C   UNL d   1      -1.133   1.195   0.027  0.00  0.00     0.117 C 
ATOM      7  O   UNL d   1      -2.156  -0.889  -0.555  0.00  0.00    -0.273 OA
ATOM      8  C   UNL d   1       2.427  -1.344   0.040  0.00  0.00     0.069 C 
ATOM      9  H   UNL d   1       0.013  -1.909  -0.392  0.00  0.00     0.168 HD
ENDROOT
BRANCH   3  10
ATOM     10  C   UNL d   1       0.173   3.193   0.652  0.00  0.00    -0.016 A 
ATOM     11  C   UNL d   1       0.069   4.490   0.104  0.00  0.00     0.110 A 
ATOM     12  C   UNL d   1      -0.045   5.631   0.913  0.00  0.00     0.037 A 
ATOM     13  C   UNL d   1      -0.058   5.491   2.298  0.00  0.00     0.002 A 
ATOM     14  C   UNL d   1       0.073   4.226   2.868  0.00  0.00     0.001 A 
ATOM     15  C   UNL d   1       0.195   3.093   2.058  0.00  0.00     0.010 A 
BRANCH  11  16
ATOM     16  N   UNL d   1       0.077   4.718  -1.334  0.00  0.00    -0.115 N 
ATOM     17  O   UNL d   1      -0.825   4.189  -1.996  0.00  0.00    -0.532 OA
ATOM     18  O   UNL d   1       0.968   5.449  -1.781  0.00  0.00    -0.532 OA
ENDBRANCH  11  16
ENDBRANCH   3  10
BRANCH   1  19
ATOM     19  C   UNL d   1       2.750   1.650   0.265  0.00  0.00     0.291 C 
ATOM     20  O   UNL d   1       3.616   1.187   0.991  0.00  0.00    -0.260 OA
BRANCH  19  21
ATOM     21  O   UNL d   1       2.832   2.816  -0.420  0.00  0.00    -0.323 OA
ATOM     22  C   UNL d   1       4.010   3.590  -0.167  0.00  0.00     0.213 C 
ENDBRANCH  19  21
ENDBRANCH   1  19
TORSDOF 4
