REMARK  4 active torsions:
REMARK  status: ('A' for Active; 'I' for Inactive)
REMARK    1  A    between atoms: N_7  and  C_2 
REMARK    2  A    between atoms: C_9  and  C_3 
REMARK       I    between atoms: C_8  and  N_7 
REMARK    3  A    between atoms: C_15  and  C_8 
REMARK    4  A    between atoms: O_19  and  C_9 
ROOT
ATOM      1  C   UNL d   1      -1.621  -0.744  -0.021  0.00  0.00    -0.002 C 
ATOM      2  C   UNL d   1      -3.041  -0.409   0.025  0.00  0.00     0.067 C 
ATOM      3  C   UNL d   1      -3.237   0.952  -0.210  0.00  0.00     0.108 C 
ATOM      4  C   UNL d   1      -0.821   0.388  -0.122  0.00  0.00     0.026 C 
ATOM      5  S   UNL d   1      -1.749   1.791  -0.341  0.00  0.00    -0.081 SA
ATOM      6  C   UNL d   1       0.657   0.415  -0.099  0.00  0.00     0.000 A 
ATOM      7  C   UNL d   1      -1.012  -2.117   0.067  0.00  0.00     0.121 C 
ATOM      8  S   UNL d   1       0.558  -2.291  -0.843  0.00  0.00    -0.124 SA
ATOM      9  C   UNL d   1       1.371  -0.776  -0.347  0.00  0.00     0.012 A 
ATOM     10  C   UNL d   1       1.387   1.581   0.192  0.00  0.00     0.038 A 
ATOM     11  C   UNL d   1       2.772  -0.794  -0.276  0.00  0.00     0.021 A 
ATOM     12  C   UNL d   1       2.783   1.553   0.243  0.00  0.00     0.035 A 
ATOM     13  C   UNL d   1       3.478   0.369   0.024  0.00  0.00     0.025 A 
ATOM     14 CL   UNL d   1       3.655   2.999   0.579  0.00  0.00    -0.084 Cl
ENDROOT
BRANCH   2  15
ATOM     15  N   UNL d   1      -4.129  -1.278   0.238  0.00  0.00    -0.321 N 
ATOM     16  C   UNL d   1      -4.077  -2.472   0.937  0.00  0.00     0.256 C 
ATOM     17  O   UNL d   1      -3.093  -2.898   1.534  0.00  0.00    -0.267 OA
ATOM     18  H   UNL d   1      -5.046  -0.864   0.094  0.00  0.00     0.169 HD
BRANCH  16  19
ATOM     19  C   UNL d   1      -5.338  -3.266   1.052  0.00  0.00     0.032 A 
ATOM     20  C   UNL d   1      -6.438  -3.116   0.198  0.00  0.00     0.017 A 
ATOM     21  C   UNL d   1      -7.577  -3.909   0.385  0.00  0.00     0.001 A 
ATOM     22  C   UNL d   1      -7.622  -4.856   1.407  0.00  0.00     0.000 A 
ATOM     23  C   UNL d   1      -6.523  -5.030   2.244  0.00  0.00     0.001 A 
ATOM     24  C   UNL d   1      -5.389  -4.241   2.064  0.00  0.00     0.017 A 
ENDBRANCH  16  19
ENDBRANCH   2  15
BRANCH   3  25
ATOM     25  C   UNL d   1      -4.439   1.770  -0.311  0.00  0.00     0.302 C 
ATOM     26  O   UNL d   1      -4.481   2.982  -0.491  0.00  0.00    -0.259 OA
BRANCH  25  27
ATOM     27  O   UNL d   1      -5.567   0.997  -0.176  0.00  0.00    -0.322 OA
ATOM     28  C   UNL d   1      -6.775   1.760  -0.237  0.00  0.00     0.213 C 
ENDBRANCH  25  27
ENDBRANCH   3  25
TORSDOF 4
