REMARK  3 active torsions:
REMARK  status: ('A' for Active; 'I' for Inactive)
REMARK    1  A    between atoms: C_2  and  S_1 
REMARK    2  A    between atoms: N_3  and  S_1 
REMARK    3  A    between atoms: C_11  and  N_3 
ROOT
ATOM      1  C   UNL d   1       0.366   1.513   0.526  0.00  0.00     0.101 A 
ATOM      2  C   UNL d   1      -0.906   1.669   1.085  0.00  0.00     0.058 A 
ATOM      3  N   UNL d   1      -1.294   6.399   2.151  0.00  0.00    -0.191 NA
ATOM      4  C   UNL d   1       1.202   2.634   0.381  0.00  0.00     0.028 A 
ATOM      5  C   UNL d   1      -0.934   5.352   1.800  0.00  0.00     0.099 C 
ATOM      6  C   UNL d   1      -1.323   2.941   1.511  0.00  0.00     0.048 A 
ATOM      7  C   UNL d   1      -0.493   4.057   1.366  0.00  0.00     0.046 A 
ATOM      8 CL   UNL d   1      -2.068   0.402   1.224  0.00  0.00    -0.083 Cl
ATOM      9  C   UNL d   1       0.769   3.900   0.788  0.00  0.00     0.024 A 
ENDROOT
BRANCH   1  10
ATOM     10  S   UNL d   1       1.020  -0.073   0.046  0.00  0.00     0.265 S 
ATOM     11  O   UNL d   1       0.484  -1.087   0.924  0.00  0.00    -0.200 OA
ATOM     12  O   UNL d   1       2.454   0.077  -0.097  0.00  0.00    -0.200 OA
BRANCH  10  13
ATOM     13  N   UNL d   1       0.365  -0.337  -1.481  0.00  0.00    -0.279 N 
ATOM     14  H   UNL d   1      -0.526  -0.831  -1.487  0.00  0.00     0.179 HD
BRANCH  13  15
ATOM     15  C   UNL d   1       0.684   0.554  -2.540  0.00  0.00     0.058 A 
ATOM     16  C   UNL d   1      -0.121   1.642  -2.854  0.00  0.00     0.117 A 
ATOM     17  N   UNL d   1       0.167   2.539  -3.826  0.00  0.00    -0.373 N 
ATOM     18  C   UNL d   1       1.303   2.327  -4.528  0.00  0.00     0.088 A 
ATOM     19  HN  UNL d   1      -0.442   3.334  -4.019  1.00  0.00     0.164 HD
ATOM     20  C   UNL d   1       2.167   1.268  -4.292  0.00  0.00     0.019 A 
ATOM     21  C   UNL d   1       1.854   0.374  -3.271  0.00  0.00     0.033 A 
ENDBRANCH  13  15
ENDBRANCH  10  13
ENDBRANCH   1  10
TORSDOF 3
