REMARK  7 active torsions:
REMARK  status: ('A' for Active; 'I' for Inactive)
REMARK    1  A    between atoms: C_2  and  S_1 
REMARK    2  A    between atoms: C_3  and  S_1 
REMARK    3  A    between atoms: C_10  and  C_2 
REMARK    4  A    between atoms: C_8  and  O_9 
REMARK    5  A    between atoms: O_9  and  C_16 
REMARK    6  A    between atoms: C_16  and  C_10 
REMARK    7  A    between atoms: O_23  and  C_10 
ROOT
ATOM      1  C   UNL d   1       1.063   0.894  -2.307  0.00  0.00     0.156 C 
ENDROOT
BRANCH   1   2
ATOM      2  C   UNL d   1       0.567  -0.277  -1.458  0.00  0.00     0.179 C 
BRANCH   2   3
ATOM      3  S   UNL d   1       1.102  -0.178   0.230  0.00  0.00     0.178 S 
ATOM      4  O   UNL d   1       0.508   1.002   0.823  0.00  0.00    -0.223 OA
ATOM      5  O   UNL d   1       2.541  -0.377   0.271  0.00  0.00    -0.223 OA
BRANCH   3   6
ATOM      6  C   UNL d   1       0.400  -1.603   1.026  0.00  0.00     0.059 A 
ATOM      7  C   UNL d   1       1.056  -2.835   0.905  0.00  0.00     0.025 A 
ATOM      8  C   UNL d   1       0.598  -3.933   1.634  0.00  0.00     0.025 A 
ATOM      9  C   UNL d   1      -0.501  -3.793   2.481  0.00  0.00     0.034 A 
ATOM     10  C   UNL d   1      -1.155  -2.565   2.598  0.00  0.00     0.025 A 
ATOM     11 CL   UNL d   1      -1.032  -5.136   3.415  0.00  0.00    -0.084 Cl
ATOM     12  C   UNL d   1      -0.703  -1.461   1.871  0.00  0.00     0.025 A 
ENDBRANCH   3   6
ENDBRANCH   2   3
ENDBRANCH   1   2
BRANCH   1  13
ATOM     13  C   UNL d   1       2.587   1.085  -2.253  0.00  0.00     0.208 C 
BRANCH  13  14
ATOM     14  O   UNL d   1       2.991   2.106  -3.173  0.00  0.00    -0.347 OA
BRANCH  14  15
ATOM     15  C   UNL d   1       4.335   2.411  -3.162  0.00  0.00     0.090 A 
ATOM     16  C   UNL d   1       4.847   3.105  -4.271  0.00  0.00     0.069 A 
ATOM     17  C   UNL d   1       6.201   3.457  -4.335  0.00  0.00     0.050 A 
ATOM     18 CL   UNL d   1       3.833   3.534  -5.604  0.00  0.00    -0.081 Cl
ATOM     19  C   UNL d   1       7.050   3.128  -3.282  0.00  0.00     0.035 A 
ATOM     20  C   UNL d   1       6.556   2.456  -2.167  0.00  0.00     0.026 A 
ATOM     21 CL   UNL d   1       8.712   3.553  -3.353  0.00  0.00    -0.084 Cl
ATOM     22  C   UNL d   1       5.205   2.099  -2.107  0.00  0.00     0.040 A 
ENDBRANCH  14  15
ENDBRANCH  13  14
ENDBRANCH   1  13
BRANCH   1  23
ATOM     23  O   UNL d   1       0.665   0.636  -3.663  0.00  0.00    -0.392 OA
ATOM     24  H   UNL d   1       1.132   1.294  -4.217  0.00  0.00     0.210 HD
ENDBRANCH   1  23
TORSDOF 7
