REMARK  6 active torsions:
REMARK  status: ('A' for Active; 'I' for Inactive)
REMARK    1  A    between atoms: C_11  and  C_3 
REMARK    2  A    between atoms: C_19  and  C_6 
REMARK       I    between atoms: C_8  and  N_9 
REMARK    3  A    between atoms: C_10  and  C_8 
REMARK    4  A    between atoms: N_9  and  N_13 
REMARK    5  A    between atoms: C_12  and  C_20 
REMARK       I    between atoms: N_13  and  C_12 
REMARK    6  A    between atoms: C_20  and  C_19 
ROOT
ATOM      1  C   UNL d   1       2.595  -2.437  -0.002  0.00  0.00     0.112 C 
ENDROOT
BRANCH   1   2
ATOM      2  C   UNL d   1       3.212  -3.822   0.087  0.00  0.00     0.236 C 
ATOM      3  N   UNL d   1       2.338  -4.872  -0.066  0.00  0.00    -0.267 N 
ATOM      4  H   UNL d   1       1.322  -4.763   0.025  0.00  0.00     0.190 HD
ATOM      5  O   UNL d   1       4.424  -3.985   0.233  0.00  0.00    -0.272 OA
BRANCH   3   6
ATOM      6  N   UNL d   1       2.833  -6.182   0.016  0.00  0.00    -0.263 N 
ATOM      7  C   UNL d   1       1.963  -7.190   0.378  0.00  0.00     0.270 C 
ATOM      8  O   UNL d   1       0.787  -6.967   0.664  0.00  0.00    -0.266 OA
ATOM      9  H   UNL d   1       3.844  -6.281  -0.020  0.00  0.00     0.190 HD
BRANCH   7  10
ATOM     10  C   UNL d   1       2.487  -8.589   0.404  0.00  0.00     0.034 A 
ATOM     11  C   UNL d   1       3.708  -8.961  -0.181  0.00  0.00     0.024 A 
ATOM     12  C   UNL d   1       4.121 -10.303  -0.176  0.00  0.00    -0.061 A 
ATOM     13  C   UNL d   1       5.416 -10.719  -0.813  0.00  0.00     0.048 C 
ATOM     14  C   UNL d   1       3.304 -11.273   0.420  0.00  0.00     0.007 A 
ATOM     15  C   UNL d   1       2.089 -10.912   0.998  0.00  0.00     0.002 A 
ATOM     16  C   UNL d   1       1.681  -9.579   0.988  0.00  0.00     0.017 A 
ENDBRANCH   7  10
ENDBRANCH   3   6
ENDBRANCH   1   2
BRANCH   1  17
ATOM     17  C   UNL d   1       1.791  -2.029   1.228  0.00  0.00     0.096 C 
BRANCH  17  18
ATOM     18  C   UNL d   1       0.480  -2.712   1.324  0.00  0.00     0.148 A 
ATOM     19  N   UNL d   1      -0.048  -3.618   0.534  0.00  0.00    -0.323 N 
ATOM     20  C   UNL d   1      -1.231  -3.926   1.178  0.00  0.00     0.137 A 
ATOM     21  HN  UNL d   1       0.322  -3.999  -0.336  1.00  0.00     0.169 HD
ATOM     22  N   UNL d   1      -1.440  -3.206   2.294  0.00  0.00    -0.242 N 
ATOM     23  O   UNL d   1      -0.303  -2.406   2.394  0.00  0.00    -0.223 OA
ATOM     24  HN  UNL d   1      -2.243  -3.237   2.921  1.00  0.00     0.196 HD
BRANCH  20  25
ATOM     25  C   UNL d   1      -2.138  -4.954   0.678  0.00  0.00     0.010 A 
ATOM     26  C   UNL d   1      -1.842  -5.637  -0.513  0.00  0.00     0.017 A 
ATOM     27  C   UNL d   1      -2.680  -6.650  -0.987  0.00  0.00     0.025 A 
ATOM     28  C   UNL d   1      -3.828  -6.983  -0.275  0.00  0.00     0.034 A 
ATOM     29  C   UNL d   1      -4.145  -6.312   0.904  0.00  0.00     0.025 A 
ATOM     30 CL   UNL d   1      -4.857  -8.235  -0.851  0.00  0.00    -0.084 Cl
ATOM     31  C   UNL d   1      -3.303  -5.301   1.379  0.00  0.00     0.017 A 
ENDBRANCH  20  25
ENDBRANCH  17  18
ENDBRANCH   1  17
TORSDOF 6
