REMARK  3 active torsions:
REMARK  status: ('A' for Active; 'I' for Inactive)
REMARK    1  A    between atoms: C_3  and  C_1 
REMARK    2  A    between atoms: N_7  and  C_2 
REMARK       I    between atoms: C_6  and  N_7 
REMARK       I    between atoms: N_10  and  C_6 
REMARK    3  A    between atoms: N_14  and  N_10 
ROOT
ATOM      1  C   UNL d   1      -1.364   0.851  -0.302  0.00  0.00     0.079 A 
ATOM      2  C   UNL d   1      -1.304  -0.601  -0.355  0.00  0.00     0.072 A 
ATOM      3  N   UNL d   1      -0.173   1.450  -0.448  0.00  0.00    -0.324 N 
ATOM      4  HN  UNL d   1      -0.028   2.459  -0.473  1.00  0.00     0.174 HD
ATOM      5  S   UNL d   1       1.022   0.323  -0.580  0.00  0.00    -0.024 SA
ATOM      6  C   UNL d   1      -0.003  -1.034  -0.494  0.00  0.00     0.100 A 
ENDROOT
BRANCH   2   7
ATOM      7  N   UNL d   1      -2.372  -1.484  -0.428  0.00  0.00    -0.305 N 
ATOM      8  C   UNL d   1      -2.961  -2.144   0.613  0.00  0.00     0.335 C 
ATOM      9  N   UNL d   1      -2.306  -2.128   1.827  0.00  0.00    -0.271 N 
ATOM     10  O   UNL d   1      -4.052  -2.679   0.409  0.00  0.00    -0.246 OA
ATOM     11  H   UNL d   1      -1.404  -1.670   1.900  0.00  0.00     0.185 HD
ATOM     12  H   UNL d   1      -3.097  -1.239  -1.096  0.00  0.00     0.171 HD
BRANCH   9  13
ATOM     13  N   UNL d   1      -2.794  -2.770   2.995  0.00  0.00    -0.236 NA
ATOM     14  C   UNL d   1      -4.169  -2.392   3.342  0.00  0.00     0.135 C 
ATOM     15  C   UNL d   1      -2.662  -4.225   2.901  0.00  0.00     0.135 C 
ENDBRANCH   9  13
ENDBRANCH   2   7
BRANCH   1  16
ATOM     16  C   UNL d   1      -2.552   1.697  -0.086  0.00  0.00     0.037 A 
ATOM     17  C   UNL d   1      -2.577   2.647   0.961  0.00  0.00     0.048 A 
ATOM     18 CL   UNL d   1      -1.292   2.829   2.115  0.00  0.00    -0.083 Cl
ATOM     19  C   UNL d   1      -3.681   3.493   1.146  0.00  0.00     0.025 A 
ATOM     20  C   UNL d   1      -4.795   3.385   0.324  0.00  0.00     0.003 A 
ATOM     21  C   UNL d   1      -4.801   2.442  -0.698  0.00  0.00     0.025 A 
ATOM     22  C   UNL d   1      -3.685   1.621  -0.919  0.00  0.00     0.048 A 
ATOM     23 CL   UNL d   1      -3.782   0.575  -2.298  0.00  0.00    -0.083 Cl
ENDBRANCH   1  16
TORSDOF 3
