REMARK  7 active torsions:
REMARK  status: ('A' for Active; 'I' for Inactive)
REMARK    1  A    between atoms: C_8  and  N_1 
REMARK    2  A    between atoms: S_9  and  C_2 
REMARK    3  A    between atoms: O_21  and  C_3 
REMARK    4  A    between atoms: C_11  and  C_8 
REMARK    5  A    between atoms: C_16  and  S_9 
REMARK    6  A    between atoms: C_13  and  C_16 
REMARK    7  A    between atoms: C_15  and  C_13 
ROOT
ATOM      1  N   UNL d   1       7.532  -8.299   1.840  0.00  0.00    -0.191 NA
ATOM      2  C   UNL d   1       6.919  -7.475   1.301  0.00  0.00     0.099 C 
ATOM      3  C   UNL d   1       4.789  -4.331  -0.617  0.00  0.00     0.011 A 
ATOM      4  C   UNL d   1       5.744  -5.084  -1.321  0.00  0.00     0.017 A 
ATOM      5  C   UNL d   1       4.514  -4.657   0.716  0.00  0.00     0.017 A 
ATOM      6  C   UNL d   1       6.172  -6.440   0.639  0.00  0.00     0.044 A 
ATOM      7  C   UNL d   1       5.204  -5.709   1.339  0.00  0.00     0.023 A 
ATOM      8  C   UNL d   1       6.428  -6.134  -0.699  0.00  0.00     0.023 A 
ENDROOT
BRANCH   3   9
ATOM      9  C   UNL d   1       4.166  -3.164  -1.314  0.00  0.00     0.169 C 
ATOM     10  O   UNL d   1       4.809  -2.621  -2.214  0.00  0.00    -0.291 OA
BRANCH   9  11
ATOM     11  C   UNL d   1       2.757  -2.729  -0.954  0.00  0.00     0.166 C 
BRANCH  11  12
ATOM     12  S   UNL d   1       2.715  -0.944  -0.573  0.00  0.00    -0.085 SA
BRANCH  12  13
ATOM     13  C   UNL d   1       1.020  -0.744  -0.288  0.00  0.00     0.165 A 
ATOM     14  N   UNL d   1       0.371   0.458  -0.198  0.00  0.00    -0.285 N 
ATOM     15  C   UNL d   1      -0.934   0.133   0.079  0.00  0.00     0.240 A 
ATOM     16  N   UNL d   1      -1.076  -1.170   0.099  0.00  0.00    -0.263 N 
ATOM     17  N   UNL d   1       0.164  -1.726  -0.116  0.00  0.00    -0.277 N 
ATOM     18  HN  UNL d   1      -1.948  -1.679   0.247  1.00  0.00     0.190 HD
ATOM     19  HN  UNL d   1       0.380  -2.722  -0.138  1.00  0.00     0.189 HD
BRANCH  14  20
ATOM     20  C   UNL d   1       0.871   1.789  -0.465  0.00  0.00     0.200 C 
BRANCH  20  21
ATOM     21  C   UNL d   1       0.992   2.563   0.796  0.00  0.00     0.070 A 
ATOM     22  O   UNL d   1      -0.165   3.088   1.300  0.00  0.00    -0.325 OA
ATOM     23  C   UNL d   1       0.163   3.747   2.442  0.00  0.00     0.142 A 
ATOM     24  C   UNL d   1       1.515   3.654   2.678  0.00  0.00     0.027 A 
ATOM     25  C   UNL d   1       2.053   2.892   1.613  0.00  0.00     0.036 A 
ENDBRANCH  20  21
ENDBRANCH  14  20
BRANCH  15  26
ATOM     26  O   UNL d   1      -1.925   0.986   0.287  0.00  0.00    -0.331 OA
ATOM     27  H   UNL d   1      -1.552   1.824   0.614  0.00  0.00     0.221 HD
ENDBRANCH  15  26
ENDBRANCH  12  13
ENDBRANCH  11  12
ENDBRANCH   9  11
ENDBRANCH   3   9
TORSDOF 7
