REMARK  7 active torsions:
REMARK  status: ('A' for Active; 'I' for Inactive)
REMARK    1  A    between atoms: C_12  and  N_1 
REMARK    2  A    between atoms: C_7  and  C_2 
REMARK    3  A    between atoms: O_11  and  C_7 
REMARK    4  A    between atoms: N_8  and  O_11 
REMARK    5  A    between atoms: C_13  and  C_10 
REMARK    6  A    between atoms: N_21  and  C_10 
REMARK    7  A    between atoms: C_14  and  C_15 
ROOT
ATOM      1  O   UNL d   1      -2.626   0.904   0.015  0.00  0.00    -0.193 OA
ENDROOT
BRANCH   1   2
ATOM      2  N   UNL d   1      -2.958   2.263  -0.233  0.00  0.00    -0.246 N 
ATOM      3  C   UNL d   1      -4.215   2.520  -0.018  0.00  0.00     0.109 C 
ATOM      4  HN  UNL d   1      -2.283   2.962  -0.546  1.00  0.00     0.196 HD
BRANCH   3   5
ATOM      5  C   UNL d   1      -4.660   3.951  -0.141  0.00  0.00     0.004 A 
ATOM      6  C   UNL d   1      -4.029   4.814  -1.036  0.00  0.00     0.015 A 
ATOM      7  C   UNL d   1      -4.381   6.172  -1.076  0.00  0.00     0.009 A 
ATOM      8  C   UNL d   1      -5.358   6.709  -0.214  0.00  0.00    -0.051 A 
ATOM      9  C   UNL d   1      -6.008   5.810   0.650  0.00  0.00     0.009 A 
ATOM     10  C   UNL d   1      -5.669   4.448   0.686  0.00  0.00     0.015 A 
BRANCH   8  11
ATOM     11  C   UNL d   1      -5.642   8.226  -0.201  0.00  0.00    -0.024 C 
ATOM     12  C   UNL d   1      -6.716   8.646   0.830  0.00  0.00     0.019 C 
ATOM     13  C   UNL d   1      -4.349   8.995   0.156  0.00  0.00     0.019 C 
ATOM     14  C   UNL d   1      -6.131   8.700  -1.586  0.00  0.00     0.019 C 
ENDBRANCH   8  11
ENDBRANCH   3   5
BRANCH   3  15
ATOM     15  N   UNL d   1      -5.158   1.571   0.317  0.00  0.00    -0.286 NA
ATOM     16  H   UNL d   1      -4.867   0.631   0.080  0.00  0.00     0.125 HD
ATOM     17  H   UNL d   1      -6.101   1.770   0.007  0.00  0.00     0.125 HD
ENDBRANCH   3  15
ENDBRANCH   1   2
BRANCH   1  18
ATOM     18  C   UNL d   1      -1.260   0.713  -0.152  0.00  0.00     0.319 C 
ATOM     19  O   UNL d   1      -0.486   1.563  -0.584  0.00  0.00    -0.257 OA
BRANCH  18  20
ATOM     20  C   UNL d   1      -0.817  -0.640   0.223  0.00  0.00     0.089 C 
ATOM     21  C   UNL d   1       0.461  -1.193   0.058  0.00  0.00     0.049 C 
ATOM     22  N   UNL d   1       0.388  -2.510   0.513  0.00  0.00    -0.260 N 
ATOM     23  C   UNL d   1       1.670  -0.619  -0.602  0.00  0.00     0.071 C 
ATOM     24  N   UNL d   1      -0.875  -2.827   0.885  0.00  0.00    -0.297 N 
ATOM     25  C   UNL d   1      -1.569  -1.689   0.816  0.00  0.00     0.041 C 
ATOM     26  HN  UNL d   1      -1.223  -3.745   1.162  1.00  0.00     0.187 HD
ATOM     27  C   UNL d   1      -2.967  -1.672   1.312  0.00  0.00     0.071 C 
BRANCH  22  28
ATOM     28  C   UNL d   1       1.397  -3.520   0.586  0.00  0.00     0.056 A 
ATOM     29  C   UNL d   1       1.027  -4.860   0.391  0.00  0.00     0.031 A 
ATOM     30  C   UNL d   1       1.993  -5.873   0.403  0.00  0.00     0.002 A 
ATOM     31  C   UNL d   1       3.328  -5.561   0.646  0.00  0.00     0.000 A 
ATOM     32  C   UNL d   1       3.696  -4.241   0.897  0.00  0.00     0.002 A 
ATOM     33  C   UNL d   1       2.735  -3.223   0.871  0.00  0.00     0.031 A 
ENDBRANCH  22  28
ENDBRANCH  18  20
ENDBRANCH   1  18
TORSDOF 7
