REMARK  2 active torsions:
REMARK  status: ('A' for Active; 'I' for Inactive)
REMARK    1  A    between atoms: C_7  and  C_1 
REMARK    2  A    between atoms: C_9  and  N_2 
ROOT
ATOM      1  C   UNL d   1       2.355   0.745  -0.072  0.00  0.00     0.201 A 
ATOM      2  N   UNL d   1       2.436  -0.645  -0.051  0.00  0.00    -0.260 N 
ATOM      3  C   UNL d   1       1.280  -1.442  -0.015  0.00  0.00     0.266 A 
ATOM      4  N   UNL d   1       1.212   1.374  -0.021  0.00  0.00    -0.337 N 
ATOM      5  HN  UNL d   1       1.191   2.394  -0.007  1.00  0.00     0.167 HD
ATOM      6  C   UNL d   1      -0.008  -0.734   0.016  0.00  0.00     0.060 A 
ATOM      7  C   UNL d   1       0.021   0.651   0.015  0.00  0.00     0.049 A 
ATOM      8  O   UNL d   1       1.266  -2.671   0.014  0.00  0.00    -0.267 OA
ATOM      9  C   UNL d   1      -1.222  -1.437   0.033  0.00  0.00     0.026 A 
ATOM     10  C   UNL d   1      -1.192   1.345   0.012  0.00  0.00     0.031 A 
ATOM     11  C   UNL d   1      -2.435  -0.740   0.017  0.00  0.00    -0.061 A 
ATOM     12  C   UNL d   1      -2.410   0.658   0.010  0.00  0.00     0.009 A 
ATOM     13  C   UNL d   1      -3.732  -1.493   0.028  0.00  0.00     0.048 C 
ENDROOT
BRANCH   2  14
ATOM     14  C   UNL d   1       3.674  -1.351  -0.055  0.00  0.00     0.044 A 
ATOM     15  C   UNL d   1       3.957  -2.237  -1.105  0.00  0.00     0.032 A 
ATOM     16  C   UNL d   1       5.132  -2.990  -1.097  0.00  0.00     0.026 A 
ATOM     17  C   UNL d   1       6.021  -2.870  -0.031  0.00  0.00     0.034 A 
ATOM     18  C   UNL d   1       5.747  -1.995   1.022  0.00  0.00     0.026 A 
ATOM     19 CL   UNL d   1       7.452  -3.822  -0.004  0.00  0.00    -0.084 Cl
ATOM     20  C   UNL d   1       4.572  -1.236   1.014  0.00  0.00     0.032 A 
ENDBRANCH   2  14
BRANCH   1  21
ATOM     21  C   UNL d   1       3.615   1.631  -0.223  0.00  0.00     0.449 C 
ATOM     22  F   UNL d   1       4.793   0.986  -0.427  0.00  0.00    -0.163 F 
ATOM     23  F   UNL d   1       3.491   2.484  -1.282  0.00  0.00    -0.163 F 
ATOM     24  F   UNL d   1       3.804   2.419   0.874  0.00  0.00    -0.163 F 
ENDBRANCH   1  21
TORSDOF 2
