REMARK  2 active torsions:
REMARK  status: ('A' for Active; 'I' for Inactive)
REMARK    1  A    between atoms: C_11  and  C_5 
REMARK    2  A    between atoms: N_18  and  C_6 
ROOT
ATOM      1  C   UNL d   1      -0.320   0.937  -0.104  0.00  0.00     0.066 A 
ATOM      2  C   UNL d   1       0.126  -0.323  -0.013  0.00  0.00     0.103 A 
ATOM      3  C   UNL d   1      -2.648  -0.018  -0.078  0.00  0.00     0.081 A 
ATOM      4  C   UNL d   1       0.628   2.059  -0.260  0.00  0.00     0.298 C 
ATOM      5  C   UNL d   1      -1.799   1.252  -0.113  0.00  0.00     0.115 A 
ATOM      6  C   UNL d   1      -2.094  -1.245   0.029  0.00  0.00     0.138 A 
ATOM      7  O   UNL d   1      -0.717  -1.414   0.074  0.00  0.00    -0.296 OA
ATOM      8  C   UNL d   1       1.556  -0.617  -0.000  0.00  0.00     0.033 A 
ATOM      9  O   UNL d   1       1.978   1.777  -0.083  0.00  0.00    -0.274 OA
ATOM     10  C   UNL d   1       2.445   0.453   0.003  0.00  0.00     0.092 A 
ATOM     11  C   UNL d   1      -4.064   0.130  -0.147  0.00  0.00     0.100 C 
ATOM     12  N   UNL d   1      -5.218   0.231  -0.224  0.00  0.00    -0.191 NA
ATOM     13  O   UNL d   1       0.251   3.188  -0.548  0.00  0.00    -0.259 OA
ATOM     14  C   UNL d   1       2.081  -1.915   0.024  0.00  0.00     0.017 A 
ATOM     15  C   UNL d   1       3.825   0.267   0.059  0.00  0.00     0.038 A 
ATOM     16  C   UNL d   1       3.464  -2.119   0.067  0.00  0.00     0.001 A 
ATOM     17  C   UNL d   1       4.335  -1.029   0.092  0.00  0.00     0.003 A 
ENDROOT
BRANCH   5  18
ATOM     18  C   UNL d   1      -2.241   2.274   0.933  0.00  0.00    -0.004 A 
ATOM     19  S   UNL d   1      -2.170   1.924   2.612  0.00  0.00    -0.105 SA
ATOM     20  C   UNL d   1      -2.866   3.432   3.020  0.00  0.00     0.050 A 
ATOM     21  C   UNL d   1      -3.119   4.203   1.909  0.00  0.00     0.008 A 
ATOM     22  C   UNL d   1      -2.754   3.538   0.705  0.00  0.00     0.016 A 
ENDBRANCH   5  18
BRANCH   6  23
ATOM     23  N   UNL d   1      -2.778  -2.434   0.100  0.00  0.00    -0.282 NA
ATOM     24  H   UNL d   1      -3.737  -2.430  -0.239  0.00  0.00     0.126 HD
ATOM     25  H   UNL d   1      -2.232  -3.228  -0.223  0.00  0.00     0.126 HD
ENDBRANCH   6  23
TORSDOF 2
