REMARK  10 active torsions:
REMARK  status: ('A' for Active; 'I' for Inactive)
REMARK    1  A    between atoms: N_3  and  C_1 
REMARK    2  A    between atoms: N_7  and  C_1 
REMARK       I    between atoms: C_2  and  N_5 
REMARK    3  A    between atoms: C_8  and  C_2 
REMARK    4  A    between atoms: N_5  and  N_3 
REMARK    5  A    between atoms: C_16  and  N_7 
REMARK    6  A    between atoms: C_11  and  C_8 
REMARK    7  A    between atoms: O_17  and  C_9 
REMARK    8  A    between atoms: C_10  and  C_11 
REMARK    9  A    between atoms: C_19  and  C_16 
REMARK   10  A    between atoms: C_18  and  C_19 
ROOT
ATOM      1  N   UNL d   1       0.265  -0.884   1.095  0.00  0.00    -0.274 N 
ATOM      2  H   UNL d   1      -0.749  -0.940   1.010  0.00  0.00     0.189 HD
ENDROOT
BRANCH   1   3
ATOM      3  C   UNL d   1       0.985  -0.161   0.176  0.00  0.00     0.186 C 
ATOM      4  S   UNL d   1       2.606  -0.386  -0.171  0.00  0.00    -0.040 SA
BRANCH   3   5
ATOM      5  N   UNL d   1       0.323   0.859  -0.449  0.00  0.00    -0.366 N 
ATOM      6  H   UNL d   1       0.931   1.412  -1.045  0.00  0.00     0.161 HD
BRANCH   5   7
ATOM      7  C   UNL d   1      -0.887   1.506   0.045  0.00  0.00     0.126 C 
BRANCH   7   8
ATOM      8  C   UNL d   1      -1.349   2.655  -0.853  0.00  0.00     0.058 C 
BRANCH   8   9
ATOM      9  C   UNL d   1      -2.593   3.308  -0.305  0.00  0.00    -0.057 A 
ATOM     10  C   UNL d   1      -2.499   4.323   0.657  0.00  0.00     0.007 A 
ATOM     11  C   UNL d   1      -3.654   4.899   1.193  0.00  0.00     0.001 A 
ATOM     12  C   UNL d   1      -4.910   4.464   0.773  0.00  0.00     0.000 A 
ATOM     13  C   UNL d   1      -5.013   3.454  -0.181  0.00  0.00     0.001 A 
ATOM     14  C   UNL d   1      -3.861   2.876  -0.717  0.00  0.00     0.007 A 
ENDBRANCH   8   9
ENDBRANCH   7   8
ENDBRANCH   5   7
ENDBRANCH   3   5
ENDBRANCH   1   3
BRANCH   1  15
ATOM     15  N   UNL d   1       0.844  -1.962   1.781  0.00  0.00    -0.268 N 
ATOM     16  C   UNL d   1       0.019  -2.943   2.297  0.00  0.00     0.236 C 
ATOM     17  O   UNL d   1      -1.204  -2.893   2.215  0.00  0.00    -0.272 OA
ATOM     18  H   UNL d   1       1.860  -2.010   1.800  0.00  0.00     0.190 HD
BRANCH  16  19
ATOM     19  C   UNL d   1       0.779  -4.045   3.008  0.00  0.00     0.109 C 
BRANCH  19  20
ATOM     20  C   UNL d   1      -0.084  -5.290   3.199  0.00  0.00     0.048 C 
BRANCH  20  21
ATOM     21  C   UNL d   1       0.674  -6.399   3.890  0.00  0.00    -0.058 A 
ATOM     22  C   UNL d   1       0.628  -6.528   5.287  0.00  0.00     0.010 A 
ATOM     23  C   UNL d   1       1.338  -7.546   5.927  0.00  0.00     0.037 A 
ATOM     24  C   UNL d   1       2.098  -8.432   5.177  0.00  0.00     0.065 A 
ATOM     25  C   UNL d   1       2.161  -8.322   3.793  0.00  0.00     0.037 A 
ATOM     26  C   UNL d   1       1.449  -7.304   3.151  0.00  0.00     0.010 A 
BRANCH  24  27
ATOM     27  O   UNL d   1       2.778  -9.409   5.845  0.00  0.00    -0.361 OA
ATOM     28  H   UNL d   1       3.261  -9.947   5.198  0.00  0.00     0.217 HD
ENDBRANCH  24  27
ENDBRANCH  20  21
ENDBRANCH  19  20
ENDBRANCH  16  19
ENDBRANCH   1  15
TORSDOF 10
