REMARK  3 active torsions:
REMARK  status: ('A' for Active; 'I' for Inactive)
REMARK    1  A    between atoms: C_3  and  C_1 
REMARK    2  A    between atoms: N_2  and  C_5 
REMARK    3  A    between atoms: N_14  and  C_6 
ROOT
ATOM      1  C   UNL d   1       1.441  -0.314   0.044  0.00  0.00     0.076 A 
ATOM      2  C   UNL d   1       0.474  -1.358  -0.010  0.00  0.00     0.054 A 
ATOM      3  C   UNL d   1      -0.893  -1.084  -0.063  0.00  0.00     0.103 A 
ATOM      4  C   UNL d   1       1.009   1.030   0.002  0.00  0.00     0.043 A 
ATOM      5  C   UNL d   1      -1.333   0.234  -0.076  0.00  0.00     0.038 A 
ATOM      6  C   UNL d   1      -0.389   1.262  -0.033  0.00  0.00     0.032 A 
ENDROOT
BRANCH   1   7
ATOM      7  C   UNL d   1       2.884  -0.744   0.181  0.00  0.00     0.419 C 
ATOM      8  F   UNL d   1       3.028  -2.097   0.324  0.00  0.00    -0.166 F 
ATOM      9  F   UNL d   1       3.638  -0.430  -0.910  0.00  0.00    -0.166 F 
ATOM     10  F   UNL d   1       3.515  -0.214   1.264  0.00  0.00    -0.166 F 
ENDBRANCH   1   7
BRANCH   4  11
ATOM     11  N   UNL d   1       1.796   2.175   0.137  0.00  0.00    -0.394 N 
ATOM     12  C   UNL d   1       3.139   2.323  -0.400  0.00  0.00     0.146 C 
ATOM     13  H   UNL d   1       1.262   3.023  -0.052  0.00  0.00     0.159 HD
ENDBRANCH   4  11
BRANCH   3  14
ATOM     14  N   UNL d   1      -1.868  -2.183  -0.076  0.00  0.00    -0.116 N 
ATOM     15  O   UNL d   1      -1.427  -3.342  -0.056  0.00  0.00    -0.532 OA
ATOM     16  O   UNL d   1      -3.070  -1.888  -0.104  0.00  0.00    -0.532 OA
ENDBRANCH   3  14
TORSDOF 3
