REMARK  2 active torsions:
REMARK  status: ('A' for Active; 'I' for Inactive)
REMARK    1  A    between atoms: N_5  and  C_2 
REMARK       I    between atoms: C_9  and  N_5 
REMARK    2  A    between atoms: C_12  and  C_9 
ROOT
ATOM      1  C   UNL d   1       1.638  -0.474   0.403  0.00  0.00     0.085 C 
ATOM      2  C   UNL d   1       2.973  -0.316   0.084  0.00  0.00     0.094 C 
ATOM      3  C   UNL d   1       0.884   0.712   0.149  0.00  0.00     0.003 C 
ATOM      4  C   UNL d   1       0.998  -1.709   0.821  0.00  0.00     0.302 C 
ATOM      5  O   UNL d   1      -0.410  -1.708   0.758  0.00  0.00    -0.274 OA
ATOM      6  S   UNL d   1       3.324   1.307  -0.301  0.00  0.00    -0.082 SA
ATOM      7  C   UNL d   1       1.679   1.768  -0.224  0.00  0.00     0.065 C 
ATOM      8  C   UNL d   1      -0.563   0.691   0.185  0.00  0.00     0.010 A 
ATOM      9  C   UNL d   1      -1.169  -0.556   0.406  0.00  0.00     0.090 A 
ATOM     10  O   UNL d   1       1.626  -2.696   1.188  0.00  0.00    -0.259 OA
ATOM     11  C   UNL d   1      -1.375   1.796  -0.088  0.00  0.00     0.015 A 
ATOM     12  C   UNL d   1      -2.547  -0.725   0.304  0.00  0.00     0.038 A 
ATOM     13  C   UNL d   1      -2.765   1.638  -0.166  0.00  0.00     0.001 A 
ATOM     14  C   UNL d   1      -3.345   0.380   0.008  0.00  0.00     0.003 A 
ENDROOT
BRANCH   2  15
ATOM     15  N   UNL d   1       3.946  -1.310   0.032  0.00  0.00    -0.316 N 
ATOM     16  C   UNL d   1       5.166  -1.227  -0.630  0.00  0.00     0.263 C 
ATOM     17  O   UNL d   1       5.627  -0.200  -1.127  0.00  0.00    -0.267 OA
ATOM     18  H   UNL d   1       3.656  -2.236   0.342  0.00  0.00     0.169 HD
BRANCH  16  19
ATOM     19  C   UNL d   1       5.891  -2.494  -0.774  0.00  0.00     0.072 A 
ATOM     20  S   UNL d   1       5.343  -3.974  -0.123  0.00  0.00    -0.097 SA
ATOM     21  C   UNL d   1       6.674  -4.835  -0.770  0.00  0.00     0.050 A 
ATOM     22  C   UNL d   1       7.537  -4.016  -1.462  0.00  0.00     0.009 A 
ATOM     23  C   UNL d   1       7.083  -2.664  -1.459  0.00  0.00     0.025 A 
ENDBRANCH  16  19
ENDBRANCH   2  15
TORSDOF 2
