REMARK  2 active torsions:
REMARK  status: ('A' for Active; 'I' for Inactive)
REMARK    1  A    between atoms: C_6  and  N_1 
REMARK    2  A    between atoms: C_10  and  C_9 
ROOT
ATOM      1  N   UNL d   1       1.913  -0.048  -0.102  0.00  0.00    -0.244 N 
ATOM      2  C   UNL d   1       1.152   0.924   0.514  0.00  0.00     0.266 A 
ATOM      3  C   UNL d   1       1.102  -1.004  -0.680  0.00  0.00     0.266 A 
ATOM      4  C   UNL d   1      -0.248   0.573   0.294  0.00  0.00     0.048 A 
ATOM      5  C   UNL d   1      -0.277  -0.609  -0.414  0.00  0.00     0.048 A 
ATOM      6  O   UNL d   1       1.467   1.935   1.120  0.00  0.00    -0.267 OA
ATOM      7  O   UNL d   1       1.361  -2.031  -1.279  0.00  0.00    -0.267 OA
ATOM      8  C   UNL d   1      -1.463  -1.230  -0.757  0.00  0.00     0.018 A 
ATOM      9  C   UNL d   1      -1.407   1.224   0.673  0.00  0.00     0.018 A 
ATOM     10  C   UNL d   1      -2.650  -0.599  -0.376  0.00  0.00     0.001 A 
ATOM     11  C   UNL d   1      -2.622   0.624   0.325  0.00  0.00     0.001 A 
ENDROOT
BRANCH   1  12
ATOM     12  C   UNL d   1       3.335  -0.077  -0.128  0.00  0.00     0.046 A 
ATOM     13  C   UNL d   1       4.098   0.626   0.816  0.00  0.00     0.031 A 
ATOM     14  C   UNL d   1       5.502   0.578   0.810  0.00  0.00     0.017 A 
ATOM     15  C   UNL d   1       6.182  -0.163  -0.157  0.00  0.00     0.009 A 
ATOM     16  C   UNL d   1       5.430  -0.850  -1.117  0.00  0.00     0.017 A 
ATOM     17  C   UNL d   1       4.029  -0.814  -1.097  0.00  0.00     0.031 A 
BRANCH  15  18
ATOM     18  C   UNL d   1       7.672  -0.269  -0.233  0.00  0.00     0.155 C 
ATOM     19  O   UNL d   1       8.181  -0.925  -1.143  0.00  0.00    -0.293 OA
ATOM     20  C   UNL d   1       8.557   0.417   0.777  0.00  0.00     0.096 C 
ENDBRANCH  15  18
ENDBRANCH   1  12
TORSDOF 2
