REMARK  3 active torsions:
REMARK  status: ('A' for Active; 'I' for Inactive)
REMARK    1  A    between atoms: S_10  and  C_7 
REMARK    2  A    between atoms: N_11  and  C_8 
REMARK    3  A    between atoms: O_12  and  C_9 
ROOT
ATOM      1  N   UNL d   1      -0.274   1.167   0.096  0.00  0.00    -0.313 N 
ATOM      2  HN  UNL d   1      -0.802   2.040   0.128  1.00  0.00     0.170 HD
ATOM      3  N   UNL d   1      -0.233  -1.175   0.051  0.00  0.00    -0.298 N 
ATOM      4  HN  UNL d   1      -0.725  -2.068   0.045  1.00  0.00     0.172 HD
ATOM      5  N   UNL d   1       1.794   0.041  -0.037  0.00  0.00    -0.302 N 
ATOM      6  HN  UNL d   1       2.812   0.058  -0.094  1.00  0.00     0.171 HD
ATOM      7  C   UNL d   1       1.054   1.140   0.023  0.00  0.00     0.149 A 
ATOM      8  C   UNL d   1      -0.860  -0.015   0.125  0.00  0.00     0.159 A 
ATOM      9  C   UNL d   1       1.091  -1.083  -0.015  0.00  0.00     0.227 A 
ENDROOT
BRANCH   8  10
ATOM     10  N   UNL d   1      -2.237  -0.038   0.201  0.00  0.00    -0.274 NA
ATOM     11  H   UNL d   1      -2.611  -0.891  -0.190  0.00  0.00     0.127 HD
ATOM     12  H   UNL d   1      -2.626   0.836  -0.127  0.00  0.00     0.127 HD
ENDBRANCH   8  10
BRANCH   9  13
ATOM     13  O   UNL d   1       1.854  -2.231  -0.076  0.00  0.00    -0.327 OA
ATOM     14  C   UNL d   1       1.081  -3.424  -0.034  0.00  0.00     0.213 C 
ENDBRANCH   9  13
BRANCH   7  15
ATOM     15  S   UNL d   1       1.855   2.730  -0.004  0.00  0.00    -0.098 SA
ATOM     16  C   UNL d   1       3.593   2.229  -0.065  0.00  0.00     0.099 C 
ENDBRANCH   7  15
TORSDOF 3
