REMARK  7 active torsions:
REMARK  status: ('A' for Active; 'I' for Inactive)
REMARK    1  A    between atoms: S_8  and  C_1 
REMARK    2  A    between atoms: C_7  and  N_4 
REMARK    3  A    between atoms: C_10  and  C_5 
REMARK    4  A    between atoms: C_9  and  C_7 
REMARK    5  A    between atoms: C_13  and  S_8 
REMARK    6  A    between atoms: C_12  and  C_9 
REMARK    7  A    between atoms: C_14  and  C_13 
ROOT
ATOM      1  C   UNL d   1       0.955  -0.639  -0.016  0.00  0.00     0.147 A 
ATOM      2  N   UNL d   1       1.047   0.673  -0.004  0.00  0.00    -0.335 N 
ATOM      3  HN  UNL d   1       1.901   1.232  -0.008  1.00  0.00     0.168 HD
ATOM      4  N   UNL d   1      -0.353  -1.049   0.012  0.00  0.00    -0.328 N 
ATOM      5  C   UNL d   1      -0.253   1.136   0.014  0.00  0.00     0.060 A 
ATOM      6  C   UNL d   1      -1.135   0.078   0.034  0.00  0.00     0.123 A 
ENDROOT
BRANCH   4   7
ATOM      7  C   UNL d   1      -0.887  -2.401  -0.032  0.00  0.00     0.214 C 
BRANCH   7   8
ATOM      8  C   UNL d   1      -1.097  -3.003   1.342  0.00  0.00     0.177 C 
ATOM      9  O   UNL d   1      -0.849  -2.401   2.385  0.00  0.00    -0.291 OA
BRANCH   8  10
ATOM     10  C   UNL d   1      -1.641  -4.395   1.425  0.00  0.00     0.011 A 
ATOM     11  C   UNL d   1      -2.063  -5.107   0.295  0.00  0.00     0.015 A 
ATOM     12  C   UNL d   1      -2.536  -6.417   0.426  0.00  0.00     0.001 A 
ATOM     13  C   UNL d   1      -2.593  -7.021   1.681  0.00  0.00     0.000 A 
ATOM     14  C   UNL d   1      -2.192  -6.313   2.812  0.00  0.00     0.001 A 
ATOM     15  C   UNL d   1      -1.722  -5.004   2.686  0.00  0.00     0.015 A 
ENDBRANCH   8  10
ENDBRANCH   7   8
ENDBRANCH   4   7
BRANCH   1  16
ATOM     16  S   UNL d   1       2.287  -1.748  -0.113  0.00  0.00    -0.089 SA
BRANCH  16  17
ATOM     17  C   UNL d   1       3.646  -0.727   0.527  0.00  0.00     0.121 C 
BRANCH  17  18
ATOM     18  C   UNL d   1       4.963  -1.473   0.549  0.00  0.00    -0.049 A 
ATOM     19  C   UNL d   1       5.871  -1.368  -0.518  0.00  0.00     0.008 A 
ATOM     20  C   UNL d   1       7.094  -2.038  -0.481  0.00  0.00     0.001 A 
ATOM     21  C   UNL d   1       7.428  -2.829   0.615  0.00  0.00     0.000 A 
ATOM     22  C   UNL d   1       6.533  -2.956   1.675  0.00  0.00     0.001 A 
ATOM     23  C   UNL d   1       5.306  -2.285   1.642  0.00  0.00     0.008 A 
ENDBRANCH  17  18
ENDBRANCH  16  17
ENDBRANCH   1  16
BRANCH   5  24
ATOM     24  C   UNL d   1      -0.630   2.541   0.037  0.00  0.00    -0.008 A 
ATOM     25  C   UNL d   1      -1.877   2.974  -0.445  0.00  0.00     0.014 A 
ATOM     26  C   UNL d   1      -2.237   4.323  -0.389  0.00  0.00     0.001 A 
ATOM     27  C   UNL d   1      -1.354   5.256   0.149  0.00  0.00     0.000 A 
ATOM     28  C   UNL d   1      -0.109   4.842   0.620  0.00  0.00     0.001 A 
ATOM     29  C   UNL d   1       0.253   3.493   0.559  0.00  0.00     0.014 A 
ENDBRANCH   5  24
TORSDOF 7
