REMARK  5 active torsions:
REMARK  status: ('A' for Active; 'I' for Inactive)
REMARK    1  A    between atoms: N_3  and  C_1 
REMARK    2  A    between atoms: N_8  and  C_1 
REMARK    3  A    between atoms: C_2  and  N_3 
REMARK    4  A    between atoms: C_13  and  N_8 
REMARK    5  A    between atoms: C_15  and  C_13 
ROOT
ATOM      1  N   UNL d   1       4.607   7.100  -1.020  0.00  0.00    -0.191 NA
ATOM      2  C   UNL d   1       4.435   5.956  -1.062  0.00  0.00     0.099 C 
ATOM      3  C   UNL d   1       4.219   4.538  -1.109  0.00  0.00     0.044 A 
ATOM      4  C   UNL d   1       3.754   1.771  -1.191  0.00  0.00    -0.040 A 
ATOM      5  C   UNL d   1       4.604   3.735  -0.034  0.00  0.00     0.023 A 
ATOM      6  C   UNL d   1       3.616   3.960  -2.230  0.00  0.00     0.023 A 
ATOM      7  C   UNL d   1       4.377   2.358  -0.076  0.00  0.00     0.010 A 
ATOM      8  C   UNL d   1       3.386   2.582  -2.271  0.00  0.00     0.010 A 
ENDROOT
BRANCH   4   9
ATOM      9  C   UNL d   1       3.452   0.295  -1.200  0.00  0.00     0.160 C 
BRANCH   9  10
ATOM     10  N   UNL d   1       2.518  -0.026  -0.142  0.00  0.00    -0.363 N 
ATOM     11  H   UNL d   1       2.906  -0.124   0.788  0.00  0.00     0.162 HD
BRANCH  10  12
ATOM     12  C   UNL d   1       1.164  -0.122  -0.162  0.00  0.00     0.172 C 
ATOM     13  S   UNL d   1       0.442  -0.427   1.321  0.00  0.00    -0.041 SA
BRANCH  12  14
ATOM     14  N   UNL d   1       0.543   0.079  -1.374  0.00  0.00    -0.332 N 
ATOM     15  H   UNL d   1       0.889   0.895  -1.871  0.00  0.00     0.168 HD
BRANCH  14  16
ATOM     16  C   UNL d   1      -0.817  -0.243  -1.644  0.00  0.00     0.057 A 
ATOM     17  C   UNL d   1      -1.338  -1.479  -1.242  0.00  0.00     0.055 A 
ATOM     18  C   UNL d   1      -2.699  -1.743  -1.370  0.00  0.00     0.036 A 
ATOM     19 CL   UNL d   1      -3.329  -3.244  -0.814  0.00  0.00    -0.084 Cl
ATOM     20  C   UNL d   1      -3.551  -0.795  -1.929  0.00  0.00     0.026 A 
ATOM     21  C   UNL d   1      -3.026   0.404  -2.420  0.00  0.00     0.028 A 
ATOM     22  C   UNL d   1      -1.656   0.668  -2.303  0.00  0.00     0.060 A 
ATOM     23 CL   UNL d   1      -1.045   2.158  -2.928  0.00  0.00    -0.082 Cl
ENDBRANCH  14  16
ENDBRANCH  12  14
ENDBRANCH  10  12
ENDBRANCH   9  10
ENDBRANCH   4   9
TORSDOF 5
