REMARK  6 active torsions:
REMARK  status: ('A' for Active; 'I' for Inactive)
REMARK    1  A    between atoms: O_11  and  C_1 
REMARK    2  A    between atoms: C_5  and  C_2 
REMARK    3  A    between atoms: O_13  and  C_3 
REMARK    4  A    between atoms: O_12  and  C_4 
REMARK    5  A    between atoms: N_10  and  C_5 
REMARK    6  A    between atoms: O_14  and  N_8 
ROOT
ATOM      1  C   UNL d   1      -5.521  -2.933  -0.234  0.00  0.00     0.135 A 
ATOM      2  C   UNL d   1      -3.808  -0.709  -0.280  0.00  0.00     0.009 A 
ATOM      3  C   UNL d   1      -4.121  -3.109  -0.355  0.00  0.00     0.105 A 
ATOM      4  C   UNL d   1      -6.059  -1.633  -0.216  0.00  0.00     0.105 A 
ATOM      5  C   UNL d   1      -5.192  -0.530  -0.247  0.00  0.00     0.054 A 
ATOM      6  C   UNL d   1      -3.276  -1.997  -0.320  0.00  0.00     0.054 A 
ENDROOT
BRANCH   2   7
ATOM      7  C   UNL d   1      -2.888   0.464  -0.294  0.00  0.00     0.108 C 
ATOM      8  N   UNL d   1      -1.687   0.317   0.193  0.00  0.00    -0.258 N 
ATOM      9  HN  UNL d   1      -1.331  -0.547   0.602  1.00  0.00     0.195 HD
BRANCH   8  10
ATOM     10  O   UNL d   1      -0.949   1.507   0.079  0.00  0.00    -0.289 OA
ATOM     11  H   UNL d   1      -0.143   1.293   0.586  0.00  0.00     0.244 HD
ENDBRANCH   8  10
BRANCH   7  12
ATOM     12  N   UNL d   1      -3.321   1.651  -0.836  0.00  0.00    -0.286 NA
ATOM     13  H   UNL d   1      -3.860   1.559  -1.690  0.00  0.00     0.125 HD
ATOM     14  H   UNL d   1      -2.527   2.276  -0.951  0.00  0.00     0.125 HD
ENDBRANCH   7  12
ENDBRANCH   2   7
BRANCH   4  15
ATOM     15  O   UNL d   1      -7.371  -1.241  -0.163  0.00  0.00    -0.353 OA
ATOM     16  C   UNL d   1      -8.393  -2.225  -0.180  0.00  0.00     0.210 C 
ENDBRANCH   4  15
BRANCH   3  17
ATOM     17  O   UNL d   1      -3.656  -4.396  -0.523  0.00  0.00    -0.353 OA
ATOM     18  C   UNL d   1      -2.329  -4.536  -1.023  0.00  0.00     0.210 C 
ENDBRANCH   3  17
BRANCH   1  19
ATOM     19  O   UNL d   1      -6.370  -4.012  -0.239  0.00  0.00    -0.351 OA
ATOM     20  C   UNL d   1      -6.098  -4.993   0.764  0.00  0.00     0.210 C 
ENDBRANCH   1  19
TORSDOF 6
