REMARK  7 active torsions:
REMARK  status: ('A' for Active; 'I' for Inactive)
REMARK    1  A    between atoms: C_7  and  C_1 
REMARK    2  A    between atoms: C_24  and  N_5 
REMARK       I    between atoms: N_12  and  C_7 
REMARK    3  A    between atoms: C_8  and  C_11 
REMARK    4  A    between atoms: C_10  and  N_14 
REMARK    5  A    between atoms: N_15  and  C_10 
REMARK    6  A    between atoms: N_14  and  N_12 
REMARK    7  A    between atoms: C_23  and  N_15 
ROOT
ATOM      1  C   UNL d   1       2.353  -0.729  -0.118  0.00  0.00     0.100 A 
ATOM      2  C   UNL d   1      -0.182  -0.648   0.083  0.00  0.00     0.043 A 
ATOM      3  C   UNL d   1       1.071  -1.447   0.050  0.00  0.00     0.201 A 
ATOM      4  C   UNL d   1       2.289   0.615  -0.114  0.00  0.00     0.112 A 
ATOM      5  N   UNL d   1       1.148   1.394   0.018  0.00  0.00    -0.355 N 
ATOM      6  C   UNL d   1      -0.114   0.762   0.048  0.00  0.00     0.048 A 
ATOM      7  C   UNL d   1      -1.410  -1.331   0.114  0.00  0.00     0.034 A 
ATOM      8  C   UNL d   1      -2.617  -0.626   0.073  0.00  0.00     0.049 A 
ATOM      9  C   UNL d   1      -1.338   1.450   0.022  0.00  0.00     0.031 A 
ATOM     10  O   UNL d   1       1.035  -2.673   0.119  0.00  0.00    -0.286 OA
ATOM     11  C   UNL d   1      -2.568   0.771   0.022  0.00  0.00     0.018 A 
ENDROOT
BRANCH   1  12
ATOM     12  C   UNL d   1       3.665  -1.394  -0.334  0.00  0.00     0.275 C 
ATOM     13  N   UNL d   1       3.678  -2.754  -0.104  0.00  0.00    -0.263 N 
ATOM     14  H   UNL d   1       2.802  -3.253   0.076  0.00  0.00     0.190 HD
ATOM     15  O   UNL d   1       4.652  -0.784  -0.742  0.00  0.00    -0.266 OA
BRANCH  13  16
ATOM     16  N   UNL d   1       4.742  -3.518  -0.612  0.00  0.00    -0.273 N 
ATOM     17  H   UNL d   1       5.414  -2.998  -1.178  0.00  0.00     0.189 HD
BRANCH  16  18
ATOM     18  C   UNL d   1       5.232  -4.602   0.068  0.00  0.00     0.191 C 
ATOM     19  S   UNL d   1       5.031  -4.884   1.706  0.00  0.00    -0.039 SA
BRANCH  18  20
ATOM     20  N   UNL d   1       5.942  -5.524  -0.662  0.00  0.00    -0.332 N 
ATOM     21  H   UNL d   1       6.435  -6.185  -0.070  0.00  0.00     0.168 HD
BRANCH  20  22
ATOM     22  C   UNL d   1       5.654  -6.012  -1.965  0.00  0.00     0.034 A 
ATOM     23  C   UNL d   1       4.690  -5.465  -2.818  0.00  0.00     0.031 A 
ATOM     24  C   UNL d   1       4.315  -6.123  -3.994  0.00  0.00     0.026 A 
ATOM     25  C   UNL d   1       4.909  -7.333  -4.332  0.00  0.00     0.034 A 
ATOM     26  C   UNL d   1       5.913  -7.865  -3.529  0.00  0.00     0.026 A 
ATOM     27 CL   UNL d   1       4.373  -8.186  -5.725  0.00  0.00    -0.084 Cl
ATOM     28  C   UNL d   1       6.289  -7.202  -2.354  0.00  0.00     0.031 A 
ENDBRANCH  20  22
ENDBRANCH  18  20
ENDBRANCH  16  18
ENDBRANCH  13  16
ENDBRANCH   1  12
BRANCH   5  29
ATOM     29  C   UNL d   1       1.241   2.865   0.077  0.00  0.00     0.124 C 
ATOM     30  C   UNL d   1       1.121   3.485  -1.307  0.00  0.00     0.027 C 
ENDBRANCH   5  29
BRANCH   8  31
ATOM     31  C   UNL d   1      -3.942  -1.350   0.054  0.00  0.00     0.417 C 
ATOM     32  F   UNL d   1      -3.825  -2.703   0.142  0.00  0.00    -0.166 F 
ATOM     33  F   UNL d   1      -4.755  -0.977   1.081  0.00  0.00    -0.166 F 
ATOM     34  F   UNL d   1      -4.646  -1.109  -1.087  0.00  0.00    -0.166 F 
ENDBRANCH   8  31
TORSDOF 7
