REMARK  7 active torsions:
REMARK  status: ('A' for Active; 'I' for Inactive)
REMARK    1  A    between atoms: N_2  and  C_1 
REMARK    2  A    between atoms: N_4  and  C_1 
REMARK    3  A    between atoms: C_5  and  N_2 
REMARK    4  A    between atoms: C_3  and  C_7 
REMARK    5  A    between atoms: O_13  and  C_3 
REMARK    6  A    between atoms: C_12  and  N_4 
REMARK    7  A    between atoms: C_19  and  O_13 
ROOT
ATOM      1  N   UNL d   1       0.183   1.207   0.149  0.00  0.00    -0.333 N 
ATOM      2  H   UNL d   1       0.599   0.287   0.053  0.00  0.00     0.168 HD
ENDROOT
BRANCH   1   3
ATOM      3  C   UNL d   1       1.113   2.178   0.527  0.00  0.00     0.176 C 
ATOM      4  S   UNL d   1       0.857   3.386   1.663  0.00  0.00    -0.041 SA
BRANCH   3   5
ATOM      5  N   UNL d   1       2.290   1.974  -0.189  0.00  0.00    -0.331 N 
ATOM      6  H   UNL d   1       2.128   1.774  -1.172  0.00  0.00     0.168 HD
BRANCH   5   7
ATOM      7  C   UNL d   1       3.590   2.446   0.104  0.00  0.00     0.073 A 
ATOM      8  C   UNL d   1       4.430   2.777  -0.963  0.00  0.00     0.143 A 
ATOM      9  F   UNL d   1       3.973   2.684  -2.222  0.00  0.00    -0.204 F 
ATOM     10  C   UNL d   1       5.730   3.227  -0.749  0.00  0.00     0.044 A 
ATOM     11  C   UNL d   1       6.217   3.320   0.555  0.00  0.00     0.003 A 
ATOM     12  C   UNL d   1       5.403   2.956   1.627  0.00  0.00     0.002 A 
ATOM     13  C   UNL d   1       4.093   2.518   1.404  0.00  0.00     0.033 A 
ENDBRANCH   5   7
ENDBRANCH   3   5
ENDBRANCH   1   3
BRANCH   1  14
ATOM     14  C   UNL d   1      -1.215   1.240   0.318  0.00  0.00     0.034 A 
ATOM     15  C   UNL d   1      -1.955   2.407   0.121  0.00  0.00     0.030 A 
ATOM     16  C   UNL d   1      -3.340   2.402   0.296  0.00  0.00     0.020 A 
ATOM     17  C   UNL d   1      -4.001   1.228   0.670  0.00  0.00     0.039 A 
ATOM     18  C   UNL d   1      -3.266   0.045   0.822  0.00  0.00     0.020 A 
ATOM     19  C   UNL d   1      -1.879   0.049   0.626  0.00  0.00     0.030 A 
BRANCH  17  20
ATOM     20  C   UNL d   1      -5.463   1.308   0.930  0.00  0.00     0.293 C 
ATOM     21  O   UNL d   1      -6.117   2.327   0.788  0.00  0.00    -0.259 OA
BRANCH  20  22
ATOM     22  O   UNL d   1      -5.923   0.124   1.408  0.00  0.00    -0.318 OA
BRANCH  22  23
ATOM     23  C   UNL d   1      -7.261   0.147   1.923  0.00  0.00     0.174 C 
ATOM     24  C   UNL d   1      -7.214   0.499   3.398  0.00  0.00     0.034 C 
ENDBRANCH  22  23
ENDBRANCH  20  22
ENDBRANCH  17  20
ENDBRANCH   1  14
TORSDOF 7
