REMARK  7 active torsions:
REMARK  status: ('A' for Active; 'I' for Inactive)
REMARK    1  A    between atoms: N_13  and  C_1 
REMARK    2  A    between atoms: C_21  and  N_2 
REMARK    3  A    between atoms: C_20  and  C_4 
REMARK    4  A    between atoms: C_9  and  S_16 
REMARK       I    between atoms: C_17  and  N_13 
REMARK    5  A    between atoms: S_16  and  C_23 
REMARK    6  A    between atoms: C_23  and  C_17 
REMARK    7  A    between atoms: C_24  and  C_21 
ROOT
ATOM      1  C   UNL d   1       1.625  -3.520  -1.263  0.00  0.00     0.098 C 
ATOM      2  C   UNL d   1       0.597  -4.258  -1.840  0.00  0.00     0.085 C 
ATOM      3  C   UNL d   1      -0.663  -3.549  -1.815  0.00  0.00    -0.021 C 
ATOM      4  C   UNL d   1      -0.511  -2.311  -1.222  0.00  0.00    -0.007 C 
ATOM      5  S   UNL d   1       1.100  -1.941  -0.889  0.00  0.00    -0.075 SA
ATOM      6  C   UNL d   1       0.767  -5.597  -2.318  0.00  0.00     0.103 C 
ATOM      7  N   UNL d   1       0.932  -6.687  -2.696  0.00  0.00    -0.191 NA
ATOM      8  C   UNL d   1      -2.019  -4.047  -2.242  0.00  0.00     0.042 C 
ATOM      9  C   UNL d   1      -1.605  -1.347  -0.890  0.00  0.00     0.051 C 
ATOM     10  C   UNL d   1      -3.104  -2.951  -2.141  0.00  0.00     0.009 C 
ATOM     11  C   UNL d   1      -2.972  -2.060  -0.886  0.00  0.00    -0.014 C 
ATOM     12  C   UNL d   1      -3.196  -2.854   0.407  0.00  0.00     0.010 C 
ENDROOT
BRANCH   1  13
ATOM     13  N   UNL d   1       2.948  -3.890  -1.012  0.00  0.00    -0.319 N 
ATOM     14  C   UNL d   1       3.823  -3.207  -0.173  0.00  0.00     0.232 C 
ATOM     15  O   UNL d   1       3.571  -2.180   0.458  0.00  0.00    -0.272 OA
ATOM     16  H   UNL d   1       3.240  -4.816  -1.311  0.00  0.00     0.169 HD
BRANCH  14  17
ATOM     17  C   UNL d   1       5.236  -3.763  -0.093  0.00  0.00     0.185 C 
BRANCH  17  18
ATOM     18  S   UNL d   1       5.315  -5.575  -0.121  0.00  0.00    -0.083 SA
BRANCH  18  19
ATOM     19  C   UNL d   1       7.016  -5.800   0.150  0.00  0.00     0.163 A 
ATOM     20  N   UNL d   1       7.635  -7.020   0.254  0.00  0.00    -0.307 N 
ATOM     21  C   UNL d   1       8.980  -6.749   0.464  0.00  0.00     0.135 A 
ATOM     22  N   UNL d   1       9.124  -5.432   0.463  0.00  0.00    -0.283 N 
ATOM     23  N   UNL d   1       7.900  -4.844   0.277  0.00  0.00    -0.278 N 
ATOM     24  HN  UNL d   1      10.006  -4.934   0.581  1.00  0.00     0.188 HD
ATOM     25  HN  UNL d   1       7.712  -3.842   0.243  1.00  0.00     0.189 HD
BRANCH  20  26
ATOM     26  C   UNL d   1       7.015  -8.318   0.053  0.00  0.00     0.159 C 
BRANCH  26  27
ATOM     27  C   UNL d   1       6.543  -9.011   1.307  0.00  0.00    -0.017 C 
ATOM     28  C   UNL d   1       6.592  -8.562   2.570  0.00  0.00     0.008 C 
ENDBRANCH  26  27
ENDBRANCH  20  26
BRANCH  21  29
ATOM     29  C   UNL d   1      10.100  -7.697   0.609  0.00  0.00     0.009 A 
ATOM     30  C   UNL d   1      11.371  -7.321   0.145  0.00  0.00     0.015 A 
ATOM     31  C   UNL d   1      12.470  -8.179   0.263  0.00  0.00     0.001 A 
ATOM     32  C   UNL d   1      12.319  -9.432   0.849  0.00  0.00     0.000 A 
ATOM     33  C   UNL d   1      11.076  -9.815   1.336  0.00  0.00     0.001 A 
ATOM     34  C   UNL d   1       9.984  -8.948   1.230  0.00  0.00     0.015 A 
ENDBRANCH  21  29
ENDBRANCH  18  19
ENDBRANCH  17  18
ENDBRANCH  14  17
ENDBRANCH   1  13
TORSDOF 7
