REMARK  4 active torsions:
REMARK  status: ('A' for Active; 'I' for Inactive)
REMARK    1  A    between atoms: C_2  and  S_1 
REMARK    2  A    between atoms: C_3  and  S_1 
REMARK    3  A    between atoms: C_4  and  C_3 
REMARK    4  A    between atoms: O_15  and  C_9 
ROOT
ATOM      1  S   UNL d   1       1.173   0.141  -0.053  0.00  0.00     0.155 S 
ATOM      2  O   UNL d   1       0.592  -0.781  -1.016  0.00  0.00    -0.227 OA
ATOM      3  O   UNL d   1       2.616   0.268   0.021  0.00  0.00    -0.227 OA
ENDROOT
BRANCH   1   4
ATOM      4  C   UNL d   1       0.540  -0.409   1.549  0.00  0.00     0.137 C 
ATOM      5  C   UNL d   1       0.879   0.462   2.754  0.00  0.00     0.136 C 
ATOM      6  C   UNL d   1       2.358   0.436   3.138  0.00  0.00     0.033 C 
ATOM      7  C   UNL d   1       2.847  -0.994   3.366  0.00  0.00     0.002 C 
ATOM      8  C   UNL d   1       2.475  -1.951   2.236  0.00  0.00     0.001 C 
ATOM      9  C   UNL d   1       1.000  -1.852   1.833  0.00  0.00     0.022 C 
BRANCH   5  10
ATOM     10  O   UNL d   1       0.416   1.793   2.598  0.00  0.00    -0.394 OA
ATOM     11  H   UNL d   1      -0.521   1.826   2.872  0.00  0.00     0.210 HD
ENDBRANCH   5  10
ENDBRANCH   1   4
BRANCH   1  12
ATOM     12  C   UNL d   1       0.478   1.763  -0.395  0.00  0.00     0.180 C 
BRANCH  12  13
ATOM     13  C   UNL d   1       1.047   2.391  -1.663  0.00  0.00    -0.022 A 
ATOM     14  C   UNL d   1       1.164   3.794  -1.772  0.00  0.00     0.042 A 
ATOM     15  C   UNL d   1       1.779   4.392  -2.878  0.00  0.00     0.048 A 
ATOM     16 CL   UNL d   1       0.533   4.860  -0.561  0.00  0.00    -0.084 Cl
ATOM     17  C   UNL d   1       2.257   3.599  -3.913  0.00  0.00     0.035 A 
ATOM     18  C   UNL d   1       2.073   2.225  -3.880  0.00  0.00     0.024 A 
ATOM     19 CL   UNL d   1       3.074   4.320  -5.243  0.00  0.00    -0.084 Cl
ATOM     20  C   UNL d   1       1.452   1.631  -2.775  0.00  0.00     0.011 A 
ENDBRANCH  12  13
ENDBRANCH   1  12
TORSDOF 4
