REMARK  5 active torsions:
REMARK  status: ('A' for Active; 'I' for Inactive)
REMARK    1  A    between atoms: C_7  and  N_1 
REMARK    2  A    between atoms: C_6  and  C_2 
REMARK    3  A    between atoms: C_9  and  C_7 
REMARK    4  A    between atoms: C_10  and  C_8 
REMARK    5  A    between atoms: O_19  and  C_10 
ROOT
ATOM      1  N   UNL d   1       1.573  -0.969  -0.031  0.00  0.00    -0.351 N 
ATOM      2  C   UNL d   1       1.480   1.258  -0.013  0.00  0.00    -0.008 A 
ATOM      3  C   UNL d   1       2.332   0.176  -0.042  0.00  0.00     0.104 A 
ATOM      4  C   UNL d   1       0.229  -0.646  -0.009  0.00  0.00     0.045 A 
ATOM      5  C   UNL d   1       0.142   0.753  -0.008  0.00  0.00     0.002 A 
ATOM      6  C   UNL d   1      -0.915  -1.463   0.002  0.00  0.00     0.030 A 
ATOM      7  C   UNL d   1      -1.144   1.341  -0.019  0.00  0.00     0.014 A 
ATOM      8  C   UNL d   1      -2.170  -0.849   0.011  0.00  0.00     0.002 A 
ATOM      9  C   UNL d   1      -2.286   0.535  -0.001  0.00  0.00     0.001 A 
ENDROOT
BRANCH   1  10
ATOM     10  C   UNL d   1       2.127  -2.320   0.007  0.00  0.00     0.167 C 
BRANCH  10  11
ATOM     11  C   UNL d   1       2.252  -2.921  -1.371  0.00  0.00    -0.034 A 
ATOM     12  C   UNL d   1       3.117  -2.364  -2.327  0.00  0.00     0.051 A 
ATOM     13  C   UNL d   1       3.203  -2.912  -3.605  0.00  0.00     0.119 A 
ATOM     14  F   UNL d   1       4.023  -2.354  -4.504  0.00  0.00    -0.206 F 
ATOM     15  C   UNL d   1       2.454  -4.023  -3.961  0.00  0.00     0.084 A 
ATOM     16  C   UNL d   1       1.618  -4.591  -3.013  0.00  0.00     0.119 A 
ATOM     17  C   UNL d   1       1.511  -4.058  -1.728  0.00  0.00     0.051 A 
ATOM     18  F   UNL d   1       0.896  -5.673  -3.334  0.00  0.00    -0.206 F 
ENDBRANCH  10  11
ENDBRANCH   1  10
BRANCH   2  19
ATOM     19  C   UNL d   1       1.951   2.607  -0.004  0.00  0.00     0.020 C 
ATOM     20  C   UNL d   1       1.340   3.634   0.605  0.00  0.00     0.082 C 
BRANCH  20  21
ATOM     21  C   UNL d   1       1.938   4.981   0.551  0.00  0.00     0.165 C 
ATOM     22  O   UNL d   1       2.984   5.256  -0.006  0.00  0.00    -0.647 OA
BRANCH  21  23
ATOM     23  O   UNL d   1       1.182   5.892   1.199  0.00  0.00    -0.773 OA
ATOM     24  H   UNL d   1       0.366   5.552   1.607  0.00  0.00     0.167 HD
ENDBRANCH  21  23
ENDBRANCH  20  21
ENDBRANCH   2  19
TORSDOF 5
