REMARK  5 active torsions:
REMARK  status: ('A' for Active; 'I' for Inactive)
REMARK    1  A    between atoms: C_2  and  C_1 
REMARK    2  A    between atoms: C_5  and  C_3 
REMARK    3  A    between atoms: C_6  and  C_4 
REMARK    4  A    between atoms: O_10  and  C_5 
REMARK    5  A    between atoms: O_9  and  C_6 
ROOT
ATOM      1  C   UNL d   1       1.350  -0.399   0.264  0.00  0.00    -0.009 A 
ATOM      2  C   UNL d   1       0.628   0.734   0.716  0.00  0.00     0.050 A 
ATOM      3  C   UNL d   1       0.585  -1.531  -0.096  0.00  0.00     0.013 A 
ATOM      4  C   UNL d   1      -0.783   0.725   0.759  0.00  0.00     0.018 A 
ATOM      5  C   UNL d   1      -0.816  -1.529  -0.057  0.00  0.00     0.001 A 
ATOM      6  C   UNL d   1      -1.500  -0.400   0.370  0.00  0.00     0.001 A 
ENDROOT
BRANCH   1   7
ATOM      7  C   UNL d   1       2.837  -0.482   0.213  0.00  0.00    -0.009 A 
ATOM      8  C   UNL d   1       3.574  -0.951  -0.904  0.00  0.00     0.050 A 
ATOM      9  C   UNL d   1       4.982  -1.025  -0.867  0.00  0.00     0.018 A 
ATOM     10  C   UNL d   1       5.683  -0.650   0.274  0.00  0.00     0.001 A 
ATOM     11  C   UNL d   1       4.984  -0.208   1.388  0.00  0.00     0.001 A 
ATOM     12  C   UNL d   1       3.587  -0.138   1.360  0.00  0.00     0.013 A 
BRANCH   8  13
ATOM     13  C   UNL d   1       2.926  -1.386  -2.169  0.00  0.00     0.293 C 
ATOM     14  O   UNL d   1       2.043  -0.788  -2.757  0.00  0.00    -0.259 OA
BRANCH  13  15
ATOM     15  O   UNL d   1       3.466  -2.584  -2.518  0.00  0.00    -0.322 OA
ATOM     16  C   UNL d   1       2.964  -3.173  -3.721  0.00  0.00     0.213 C 
ENDBRANCH  13  15
ENDBRANCH   8  13
ENDBRANCH   1   7
BRANCH   2  17
ATOM     17  C   UNL d   1       1.293   1.988   1.161  0.00  0.00     0.293 C 
ATOM     18  O   UNL d   1       2.210   2.546   0.589  0.00  0.00    -0.259 OA
BRANCH  17  19
ATOM     19  O   UNL d   1       0.722   2.367   2.336  0.00  0.00    -0.322 OA
ATOM     20  C   UNL d   1       1.230   3.568   2.921  0.00  0.00     0.213 C 
ENDBRANCH  17  19
ENDBRANCH   2  17
TORSDOF 5
