REMARK  5 active torsions:
REMARK  status: ('A' for Active; 'I' for Inactive)
REMARK    1  A    between atoms: N_3  and  S_1 
REMARK    2  A    between atoms: C_5  and  S_1 
REMARK    3  A    between atoms: N_2  and  C_4 
REMARK    4  A    between atoms: N_6  and  N_3 
REMARK    5  A    between atoms: C_16  and  C_15 
ROOT
ATOM      1  N   UNL d   1       0.580   0.632  -1.392  0.00  0.00    -0.223 N 
ATOM      2  H   UNL d   1      -0.114   0.046  -1.856  0.00  0.00     0.200 HD
ENDROOT
BRANCH   1   3
ATOM      3  S   UNL d   1       1.111   0.047   0.108  0.00  0.00     0.276 S 
ATOM      4  O   UNL d   1       2.557   0.086   0.149  0.00  0.00    -0.199 OA
ATOM      5  O   UNL d   1       0.389  -1.192   0.334  0.00  0.00    -0.199 OA
BRANCH   3   6
ATOM      6  C   UNL d   1       0.480   1.257   1.249  0.00  0.00     0.081 A 
ATOM      7  C   UNL d   1      -0.792   1.091   1.804  0.00  0.00     0.026 A 
ATOM      8  C   UNL d   1      -1.243   1.988   2.775  0.00  0.00     0.008 A 
ATOM      9  C   UNL d   1      -0.426   3.043   3.204  0.00  0.00    -0.062 A 
ATOM     10  C   UNL d   1       0.844   3.204   2.633  0.00  0.00     0.008 A 
ATOM     11  C   UNL d   1      -0.910   3.973   4.280  0.00  0.00     0.048 C 
ATOM     12  C   UNL d   1       1.300   2.311   1.659  0.00  0.00     0.026 A 
ENDBRANCH   3   6
ENDBRANCH   1   3
BRANCH   1  13
ATOM     13  N   UNL d   1       0.982   1.920  -1.845  0.00  0.00    -0.302 N 
ATOM     14  C   UNL d   1       0.557   2.261  -3.015  0.00  0.00     0.119 C 
ATOM     15  HN  UNL d   1       1.568   2.535  -1.281  1.00  0.00     0.186 HD
BRANCH  14  16
ATOM     16  C   UNL d   1       0.893   3.586  -3.573  0.00  0.00    -0.017 A 
ATOM     17  C   UNL d   1       1.696   4.468  -2.842  0.00  0.00     0.048 A 
ATOM     18  C   UNL d   1       1.974   5.734  -3.367  0.00  0.00     0.103 A 
ATOM     19  C   UNL d   1       1.460   6.116  -4.615  0.00  0.00     0.036 A 
ATOM     20  C   UNL d   1       0.669   5.222  -5.340  0.00  0.00     0.003 A 
ATOM     21  C   UNL d   1       0.384   3.956  -4.822  0.00  0.00     0.013 A 
BRANCH  18  22
ATOM     22  N   UNL d   1       2.802   6.673  -2.599  0.00  0.00    -0.116 N 
ATOM     23  O   UNL d   1       3.230   6.298  -1.499  0.00  0.00    -0.532 OA
ATOM     24  O   UNL d   1       3.020   7.786  -3.098  0.00  0.00    -0.532 OA
ENDBRANCH  18  22
ENDBRANCH  14  16
ENDBRANCH   1  13
TORSDOF 5
