REMARK  6 active torsions:
REMARK  status: ('A' for Active; 'I' for Inactive)
REMARK    1  A    between atoms: C_3  and  N_1 
REMARK    2  A    between atoms: S_20  and  C_2 
REMARK    3  A    between atoms: C_17  and  C_8 
REMARK    4  A    between atoms: C_19  and  C_11 
REMARK    5  A    between atoms: C_15  and  C_23 
REMARK    6  A    between atoms: C_23  and  C_19 
ROOT
ATOM      1  N   UNL d   1      -0.385   0.741  -0.018  0.00  0.00    -0.279 N 
ATOM      2  C   UNL d   1       0.840   0.107   0.131  0.00  0.00     0.164 C 
ATOM      3  N   UNL d   1       0.704  -1.189  -0.014  0.00  0.00    -0.278 N 
ATOM      4  HN  UNL d   1       1.459  -1.875  -0.030  1.00  0.00     0.189 HD
ATOM      5  N   UNL d   1      -0.626  -1.457  -0.138  0.00  0.00    -0.286 N 
ATOM      6  HN  UNL d   1      -1.037  -2.382  -0.268  1.00  0.00     0.188 HD
ATOM      7  C   UNL d   1      -1.294  -0.321  -0.064  0.00  0.00     0.105 C 
ENDROOT
BRANCH   7   8
ATOM      8  C   UNL d   1      -2.788  -0.228  -0.101  0.00  0.00     0.086 C 
BRANCH   8   9
ATOM      9  C   UNL d   1      -3.446  -1.611  -0.184  0.00  0.00     0.094 C 
BRANCH   9  10
ATOM     10  C   UNL d   1      -4.917  -1.506  -0.049  0.00  0.00     0.148 A 
ATOM     11  N   UNL d   1      -5.797  -0.960  -0.856  0.00  0.00    -0.323 N 
ATOM     12  C   UNL d   1      -6.988  -1.171  -0.190  0.00  0.00     0.137 A 
ATOM     13  HN  UNL d   1      -5.640  -0.496  -1.751  1.00  0.00     0.169 HD
ATOM     14  N   UNL d   1      -6.843  -1.799   0.990  0.00  0.00    -0.242 N 
ATOM     15  O   UNL d   1      -5.472  -2.024   1.082  0.00  0.00    -0.223 OA
ATOM     16  HN  UNL d   1      -7.569  -2.052   1.661  1.00  0.00     0.196 HD
BRANCH  12  17
ATOM     17  C   UNL d   1      -8.270  -0.736  -0.732  0.00  0.00     0.010 A 
ATOM     18  C   UNL d   1      -8.325  -0.105  -1.986  0.00  0.00     0.017 A 
ATOM     19  C   UNL d   1      -9.545   0.321  -2.519  0.00  0.00     0.025 A 
ATOM     20  C   UNL d   1     -10.720   0.119  -1.802  0.00  0.00     0.034 A 
ATOM     21  C   UNL d   1     -10.687  -0.508  -0.558  0.00  0.00     0.025 A 
ATOM     22 CL   UNL d   1     -12.222   0.645  -2.457  0.00  0.00    -0.084 Cl
ATOM     23  C   UNL d   1      -9.467  -0.934  -0.025  0.00  0.00     0.017 A 
ENDBRANCH  12  17
ENDBRANCH   9  10
ENDBRANCH   8   9
ENDBRANCH   7   8
BRANCH   1  24
ATOM     24  C   UNL d   1      -0.662   2.141  -0.046  0.00  0.00     0.050 A 
ATOM     25  C   UNL d   1       0.062   3.045  -0.867  0.00  0.00    -0.013 A 
ATOM     26  C   UNL d   1      -0.215   4.426  -0.734  0.00  0.00     0.042 A 
ATOM     27  C   UNL d   1       1.067   2.614  -1.909  0.00  0.00     0.052 C 
ATOM     28 CL   UNL d   1       0.677   5.627  -1.605  0.00  0.00    -0.084 Cl
ATOM     29  C   UNL d   1      -1.224   4.887   0.115  0.00  0.00     0.024 A 
ATOM     30  C   UNL d   1      -1.962   3.986   0.870  0.00  0.00     0.004 A 
ATOM     31  C   UNL d   1      -1.671   2.625   0.806  0.00  0.00     0.031 A 
ENDBRANCH   1  24
BRANCH   2  32
ATOM     32  S   UNL d   1       2.319   0.842   0.666  0.00  0.00    -0.105 SA
ATOM     33  H   UNL d   1       1.869   2.071   0.952  0.00  0.00     0.110 HD
ENDBRANCH   2  32
TORSDOF 6
