REMARK  4 active torsions:
REMARK  status: ('A' for Active; 'I' for Inactive)
REMARK    1  A    between atoms: C_7  and  C_1 
REMARK    2  A    between atoms: C_10  and  C_4 
REMARK    3  A    between atoms: O_17  and  C_7 
REMARK       I    between atoms: C_9  and  N_11 
REMARK    4  A    between atoms: N_11  and  C_16 
ROOT
ATOM      1  C   UNL d   1      -1.115  -1.500   0.142  0.00  0.00     0.052 A 
ATOM      2  N   UNL d   1      -1.171   1.256  -0.011  0.00  0.00    -0.355 N 
ATOM      3  HN  UNL d   1      -1.191   2.274  -0.074  1.00  0.00     0.166 HD
ATOM      4  C   UNL d   1      -2.332   0.558   0.029  0.00  0.00     0.044 A 
ATOM      5  C   UNL d   1      -2.335  -0.823   0.118  0.00  0.00     0.049 A 
ATOM      6  C   UNL d   1       0.108  -0.794   0.120  0.00  0.00     0.007 A 
ATOM      7  C   UNL d   1       0.004   0.608   0.032  0.00  0.00     0.044 A 
ATOM      8  C   UNL d   1       1.400  -1.381   0.195  0.00  0.00     0.015 A 
ATOM      9  C   UNL d   1       1.167   1.364  -0.016  0.00  0.00     0.030 A 
ATOM     10  C   UNL d   1       2.551  -0.598   0.134  0.00  0.00     0.001 A 
ATOM     11  C   UNL d   1       2.434   0.779   0.024  0.00  0.00     0.002 A 
ENDROOT
BRANCH   4  12
ATOM     12  C   UNL d   1      -3.571   1.355  -0.058  0.00  0.00    -0.009 A 
ATOM     13  C   UNL d   1      -3.667   2.629   0.527  0.00  0.00     0.016 A 
ATOM     14  C   UNL d   1      -4.846   3.386   0.440  0.00  0.00     0.030 A 
ATOM     15  C   UNL d   1      -5.962   2.896  -0.247  0.00  0.00     0.034 A 
ATOM     16  C   UNL d   1      -5.877   1.636  -0.834  0.00  0.00     0.030 A 
ATOM     17  C   UNL d   1      -4.701   0.881  -0.743  0.00  0.00     0.016 A 
BRANCH  15  18
ATOM     18  N   UNL d   1      -7.113   3.713  -0.302  0.00  0.00    -0.328 N 
ATOM     19  C   UNL d   1      -8.309   3.423  -0.934  0.00  0.00     0.218 C 
ATOM     20  O   UNL d   1      -8.590   2.401  -1.548  0.00  0.00    -0.274 OA
ATOM     21  C   UNL d   1      -9.328   4.530  -0.813  0.00  0.00     0.117 C 
ATOM     22  H   UNL d   1      -7.039   4.605   0.165  0.00  0.00     0.169 HD
ENDBRANCH  15  18
ENDBRANCH   4  12
BRANCH   1  23
ATOM     23  C   UNL d   1      -1.205  -2.975   0.201  0.00  0.00     0.177 C 
ATOM     24  O   UNL d   1      -1.953  -3.557   0.966  0.00  0.00    -0.646 OA
BRANCH  23  25
ATOM     25  O   UNL d   1      -0.467  -3.599  -0.741  0.00  0.00    -0.773 OA
ATOM     26  H   UNL d   1      -0.022  -3.006  -1.376  0.00  0.00     0.167 HD
ENDBRANCH  23  25
ENDBRANCH   1  23
TORSDOF 4
