REMARK  7 active torsions:
REMARK  status: ('A' for Active; 'I' for Inactive)
REMARK    1  A    between atoms: C_15  and  N_1 
REMARK    2  A    between atoms: C_2  and  S_14 
REMARK    3  A    between atoms: C_16  and  N_3 
REMARK    4  A    between atoms: C_13  and  C_6 
REMARK    5  A    between atoms: C_19  and  C_8 
REMARK    6  A    between atoms: S_14  and  C_19 
REMARK    7  A    between atoms: C_25  and  C_15 
ROOT
ATOM      1  C   UNL d   1       5.014   1.547  -0.281  0.00  0.00     0.152 A 
ATOM      2  N   UNL d   1       5.015   2.919  -0.024  0.00  0.00    -0.301 N 
ATOM      3  N   UNL d   1       6.234   1.045  -0.285  0.00  0.00    -0.334 N 
ATOM      4  HN  UNL d   1       6.499   0.071  -0.431  1.00  0.00     0.168 HD
ATOM      5  C   UNL d   1       7.071   2.105  -0.054  0.00  0.00     0.067 A 
ATOM      6  C   UNL d   1       6.349   3.262   0.110  0.00  0.00     0.130 A 
ENDROOT
BRANCH   1   7
ATOM      7  S   UNL d   1       3.617   0.623  -0.797  0.00  0.00    -0.086 SA
BRANCH   7   8
ATOM      8  C   UNL d   1       4.313  -1.048  -0.849  0.00  0.00     0.160 C 
BRANCH   8   9
ATOM      9  C   UNL d   1       3.276  -2.080  -1.218  0.00  0.00     0.110 A 
ATOM     10  N   UNL d   1       2.943  -2.432  -2.488  0.00  0.00    -0.306 N 
ATOM     11  C   UNL d   1       2.033  -3.456  -2.341  0.00  0.00     0.194 A 
ATOM     12  N   UNL d   1       1.866  -3.629  -0.978  0.00  0.00    -0.275 N 
ATOM     13  S   UNL d   1       1.224  -4.370  -3.462  0.00  0.00    -0.039 SA
ATOM     14  N   UNL d   1       2.653  -2.759  -0.292  0.00  0.00    -0.286 N 
ATOM     15  H   UNL d   1       1.279  -4.314  -0.519  0.00  0.00     0.189 HD
ATOM     16  HN  UNL d   1       2.738  -2.659   0.720  1.00  0.00     0.188 HD
BRANCH  10  17
ATOM     17  C   UNL d   1       3.365  -1.826  -3.752  0.00  0.00     0.171 C 
BRANCH  17  18
ATOM     18  C   UNL d   1       4.581  -2.486  -4.364  0.00  0.00    -0.040 A 
ATOM     19  C   UNL d   1       4.457  -3.580  -5.235  0.00  0.00     0.009 A 
ATOM     20  C   UNL d   1       5.584  -4.213  -5.759  0.00  0.00     0.001 A 
ATOM     21  C   UNL d   1       6.856  -3.761  -5.422  0.00  0.00     0.000 A 
ATOM     22  C   UNL d   1       6.994  -2.656  -4.584  0.00  0.00     0.001 A 
ATOM     23  C   UNL d   1       5.869  -2.018  -4.072  0.00  0.00     0.009 A 
ENDBRANCH  17  18
ENDBRANCH  10  17
ENDBRANCH   8   9
ENDBRANCH   7   8
ENDBRANCH   1   7
BRANCH   2  24
ATOM     24  C   UNL d   1       3.944   3.856   0.043  0.00  0.00     0.041 A 
ATOM     25  C   UNL d   1       2.672   3.477   0.482  0.00  0.00     0.030 A 
ATOM     26  C   UNL d   1       1.613   4.387   0.434  0.00  0.00     0.009 A 
ATOM     27  C   UNL d   1       1.807   5.688  -0.040  0.00  0.00    -0.062 A 
ATOM     28  C   UNL d   1       3.095   6.089  -0.410  0.00  0.00     0.009 A 
ATOM     29  C   UNL d   1       0.638   6.616  -0.181  0.00  0.00     0.048 C 
ATOM     30  C   UNL d   1       4.159   5.184  -0.358  0.00  0.00     0.030 A 
ENDBRANCH   2  24
BRANCH   5  31
ATOM     31  C   UNL d   1       8.562   2.008  -0.024  0.00  0.00     0.033 A 
ATOM     32  S   UNL d   1       9.620   3.321   0.263  0.00  0.00    -0.100 SA
ATOM     33  C   UNL d   1      11.004   2.336   0.069  0.00  0.00     0.050 A 
ATOM     34  C   UNL d   1      10.669   1.028  -0.205  0.00  0.00     0.008 A 
ATOM     35  C   UNL d   1       9.255   0.837  -0.250  0.00  0.00     0.021 A 
ENDBRANCH   5  31
TORSDOF 7
