REMARK  2 active torsions:
REMARK  status: ('A' for Active; 'I' for Inactive)
REMARK    1  A    between atoms: N_8  and  C_4 
REMARK    2  A    between atoms: C_21  and  C_17 
ROOT
ATOM      1  C   UNL d   1      -1.033   0.259   0.103  0.00  0.00     0.058 A 
ATOM      2  N   UNL d   1      -1.875   1.354   0.078  0.00  0.00    -0.335 N 
ATOM      3  HN  UNL d   1      -1.575   2.324  -0.016  1.00  0.00     0.168 HD
ATOM      4  C   UNL d   1      -3.130   0.952   0.192  0.00  0.00     0.149 A 
ATOM      5  C   UNL d   1      -1.654  -0.962   0.240  0.00  0.00     0.014 A 
ATOM      6  S   UNL d   1      -3.333  -0.770   0.289  0.00  0.00    -0.056 SA
ATOM      7  C   UNL d   1       0.422   0.303   0.043  0.00  0.00    -0.002 A 
ATOM      8  C   UNL d   1      -0.957  -2.268   0.378  0.00  0.00     0.053 C 
ATOM      9  C   UNL d   1       1.135  -0.911  -0.123  0.00  0.00    -0.045 A 
ATOM     10  C   UNL d   1       0.389  -2.213  -0.357  0.00  0.00     0.044 C 
ATOM     11  C   UNL d   1       1.122   1.505   0.180  0.00  0.00     0.014 A 
ATOM     12  C   UNL d   1       2.535  -0.896  -0.145  0.00  0.00     0.008 A 
ATOM     13  C   UNL d   1       2.519   1.503   0.169  0.00  0.00     0.001 A 
ATOM     14  C   UNL d   1       3.222   0.307   0.012  0.00  0.00     0.001 A 
ENDROOT
BRANCH   4  15
ATOM     15  N   UNL d   1      -4.268   1.685   0.250  0.00  0.00    -0.346 N 
ATOM     16  C   UNL d   1      -4.134   2.970   0.190  0.00  0.00     0.101 C 
ATOM     17  HN  UNL d   1      -5.184   1.245   0.335  1.00  0.00     0.167 HD
BRANCH  16  18
ATOM     18  C   UNL d   1      -5.332   3.837   0.200  0.00  0.00    -0.018 A 
ATOM     19  C   UNL d   1      -5.167   5.202  -0.043  0.00  0.00     0.052 A 
ATOM     20  C   UNL d   1      -6.314   5.946  -0.208  0.00  0.00     0.105 A 
ATOM     21  O   UNL d   1      -6.362   7.258  -0.570  0.00  0.00    -0.323 OA
ATOM     22  C   UNL d   1      -7.573   5.396  -0.088  0.00  0.00     0.105 A 
ATOM     23  C   UNL d   1      -7.759   7.371  -0.907  0.00  0.00     0.352 C 
ATOM     24  O   UNL d   1      -8.555   6.296  -0.368  0.00  0.00    -0.323 OA
ATOM     25  C   UNL d   1      -7.762   4.070   0.228  0.00  0.00     0.040 A 
ATOM     26  C   UNL d   1      -6.620   3.275   0.357  0.00  0.00     0.016 A 
ENDBRANCH  16  18
ENDBRANCH   4  15
TORSDOF 2
