REMARK  2 active torsions:
REMARK  status: ('A' for Active; 'I' for Inactive)
REMARK    1  A    between atoms: C_7  and  C_2 
REMARK    2  A    between atoms: O_13  and  C_10 
ROOT
ATOM      1  C   UNL d   1       2.420  -1.678  -0.030  0.00  0.00    -0.008 A 
ATOM      2  C   UNL d   1       2.589  -2.625  -1.052  0.00  0.00     0.016 A 
ATOM      3  C   UNL d   1       3.409  -1.573   0.955  0.00  0.00     0.016 A 
ATOM      4  C   UNL d   1       4.703  -3.332  -0.102  0.00  0.00     0.068 A 
ATOM      5  C   UNL d   1       4.548  -2.385   0.911  0.00  0.00     0.037 A 
ATOM      6  C   UNL d   1       3.725  -3.446  -1.088  0.00  0.00     0.037 A 
ENDROOT
BRANCH   1   7
ATOM      7  C   UNL d   1       1.248  -0.815   0.031  0.00  0.00     0.063 A 
ATOM      8  N   UNL d   1       0.769  -0.338   1.248  0.00  0.00    -0.292 N 
ATOM      9  N   UNL d   1      -0.294   0.435   1.094  0.00  0.00    -0.061 NA
ATOM     10  HN  UNL d   1       1.187  -0.559   2.152  1.00  0.00     0.183 HD
ATOM     11  S   UNL d   1      -0.731   0.625  -0.507  0.00  0.00    -0.010 SA
ATOM     12  C   UNL d   1       0.543  -0.374  -1.075  0.00  0.00     0.096 A 
ENDBRANCH   1   7
BRANCH   4  13
ATOM     13  O   UNL d   1       5.859  -4.059  -0.045  0.00  0.00    -0.356 OA
ATOM     14  C   UNL d   1       5.812  -5.345  -0.653  0.00  0.00     0.210 C 
ENDBRANCH   4  13
TORSDOF 2
