REMARK  4 active torsions:
REMARK  status: ('A' for Active; 'I' for Inactive)
REMARK    1  A    between atoms: N_11  and  C_2 
REMARK    2  A    between atoms: C_3  and  N_12 
REMARK    3  A    between atoms: N_12  and  N_6 
REMARK    4  A    between atoms: C_14  and  C_15 
ROOT
ATOM      1  C   UNL d   1      -0.491  -0.061  -0.004  0.00  0.00     0.071 A 
ATOM      2  C   UNL d   1       0.171   1.190  -0.031  0.00  0.00     0.050 A 
ATOM      3  C   UNL d   1      -1.917  -0.199   0.090  0.00  0.00     0.102 C 
ATOM      4  N   UNL d   1      -3.068  -0.353   0.151  0.00  0.00    -0.191 NA
ATOM      5  C   UNL d   1       1.585   1.135  -0.028  0.00  0.00     0.032 A 
ATOM      6  C   UNL d   1       0.231  -1.272  -0.001  0.00  0.00     0.038 A 
ATOM      7  C   UNL d   1       1.624  -1.275   0.006  0.00  0.00    -0.018 A 
ATOM      8  C   UNL d   1       2.308  -0.068  -0.001  0.00  0.00     0.015 A 
ENDROOT
BRANCH   2   9
ATOM      9  N   UNL d   1      -0.466   2.426  -0.058  0.00  0.00    -0.388 N 
ATOM     10  C   UNL d   1       0.120   3.617   0.548  0.00  0.00     0.149 C 
ATOM     11  C   UNL d   1      -1.741   2.655  -0.741  0.00  0.00     0.149 C 
ENDBRANCH   2   9
BRANCH   7  12
ATOM     12  C   UNL d   1       2.365  -2.553   0.030  0.00  0.00     0.118 C 
ATOM     13  N   UNL d   1       1.727  -3.680   0.030  0.00  0.00    -0.309 N 
ATOM     14  HN  UNL d   1       0.708  -3.725   0.013  1.00  0.00     0.186 HD
BRANCH  13  15
ATOM     15  N   UNL d   1       2.500  -4.803   0.054  0.00  0.00    -0.277 N 
ATOM     16  H   UNL d   1       3.513  -4.741   0.072  0.00  0.00     0.189 HD
BRANCH  15  17
ATOM     17  C   UNL d   1       1.923  -6.045   0.056  0.00  0.00     0.184 C 
ATOM     18  S   UNL d   1       2.815  -7.443   0.086  0.00  0.00    -0.040 SA
ATOM     19  N   UNL d   1       0.570  -6.057   0.031  0.00  0.00    -0.375 N 
ATOM     20  H   UNL d   1       0.102  -5.159   0.027  0.00  0.00     0.158 HD
ATOM     21  H   UNL d   1       0.042  -6.917   0.039  0.00  0.00     0.158 HD
ENDBRANCH  15  17
ENDBRANCH  13  15
ENDBRANCH   7  12
TORSDOF 4
