REMARK  4 active torsions:
REMARK  status: ('A' for Active; 'I' for Inactive)
REMARK    1  A    between atoms: C_6  and  N_1 
REMARK    2  A    between atoms: C_5  and  C_6 
REMARK       I    between atoms: N_14  and  C_5 
REMARK    3  A    between atoms: N_7  and  N_14 
REMARK    4  A    between atoms: C_10  and  C_12 
ROOT
ATOM      1  C   UNL d   1       2.564   2.930  -0.429  0.00  0.00     0.254 C 
ATOM      2  N   UNL d   1       3.611   2.375  -1.158  0.00  0.00    -0.269 N 
ATOM      3  O   UNL d   1       2.670   3.752   0.477  0.00  0.00    -0.270 OA
ATOM      4  H   UNL d   1       3.437   1.439  -1.537  0.00  0.00     0.190 HD
ENDROOT
BRANCH   1   5
ATOM      5  C   UNL d   1       1.195   2.368  -0.873  0.00  0.00     0.236 C 
BRANCH   5   6
ATOM      6  N   UNL d   1       0.744   1.154  -0.169  0.00  0.00    -0.307 N 
ATOM      7  C   UNL d   1       1.655   0.090  -0.116  0.00  0.00     0.234 C 
ATOM      8  C   UNL d   1       1.337  -0.976   0.901  0.00  0.00     0.182 C 
ATOM      9  O   UNL d   1       2.679   0.041  -0.802  0.00  0.00    -0.272 OA
ATOM     10  S   UNL d   1      -0.085  -1.897   0.320  0.00  0.00    -0.118 SA
ATOM     11  C   UNL d   1      -1.148  -0.486   0.033  0.00  0.00     0.028 A 
ATOM     12  C   UNL d   1      -0.679   0.845  -0.120  0.00  0.00     0.054 A 
ATOM     13  C   UNL d   1      -2.517  -0.784  -0.063  0.00  0.00     0.021 A 
ATOM     14  C   UNL d   1      -1.651   1.845  -0.304  0.00  0.00     0.031 A 
ATOM     15  C   UNL d   1      -3.016   1.538  -0.386  0.00  0.00     0.002 A 
ATOM     16  C   UNL d   1      -3.449   0.225  -0.280  0.00  0.00     0.002 A 
ENDBRANCH   5   6
ENDBRANCH   1   5
BRANCH   2  17
ATOM     17  N   UNL d   1       4.912   2.732  -0.921  0.00  0.00    -0.307 N 
ATOM     18  C   UNL d   1       5.783   1.943  -1.471  0.00  0.00     0.144 C 
ATOM     19  HN  UNL d   1       5.172   3.545  -0.363  1.00  0.00     0.186 HD
BRANCH  18  20
ATOM     20  C   UNL d   1       7.193   2.167  -1.344  0.00  0.00     0.091 A 
ATOM     21  O   UNL d   1       8.038   1.307  -1.990  0.00  0.00    -0.321 OA
ATOM     22  C   UNL d   1       9.306   1.722  -1.734  0.00  0.00     0.142 A 
ATOM     23  C   UNL d   1       9.292   2.837  -0.929  0.00  0.00     0.027 A 
ATOM     24  C   UNL d   1       7.930   3.125  -0.677  0.00  0.00     0.040 A 
ENDBRANCH  18  20
ENDBRANCH   2  17
TORSDOF 4
