REMARK  2 active torsions:
REMARK  status: ('A' for Active; 'I' for Inactive)
REMARK    1  A    between atoms: C_7  and  C_6 
REMARK    2  A    between atoms: N_11  and  C_9 
ROOT
ATOM      1  C   UNL d   1       1.061   0.626   0.235  0.00  0.00     0.026 C 
ATOM      2  C   UNL d   1       0.127   0.561   1.443  0.00  0.00     0.194 C 
ATOM      3  C   UNL d   1       0.271   1.260  -0.889  0.00  0.00    -0.010 A 
ATOM      4  C   UNL d   1      -1.007   1.377   1.015  0.00  0.00     0.027 A 
ATOM      5  C   UNL d   1      -0.895   1.746  -0.328  0.00  0.00    -0.001 A 
ATOM      6  C   UNL d   1       2.382   0.413   0.328  0.00  0.00     0.018 C 
ATOM      7  O   UNL d   1       0.384   0.002   2.497  0.00  0.00    -0.287 OA
ATOM      8  C   UNL d   1      -1.777   2.560  -0.996  0.00  0.00    -0.024 A 
ATOM      9  C   UNL d   1       0.529   1.448  -2.246  0.00  0.00     0.013 A 
ATOM     10  C   UNL d   1      -2.085   1.849   1.758  0.00  0.00     0.016 A 
ATOM     11  C   UNL d   1      -2.988   2.713   1.108  0.00  0.00     0.002 A 
ATOM     12  C   UNL d   1      -0.366   2.251  -2.960  0.00  0.00     0.002 A 
ATOM     13  C   UNL d   1      -2.844   3.072  -0.245  0.00  0.00     0.012 A 
ATOM     14  C   UNL d   1      -1.490   2.831  -2.348  0.00  0.00     0.012 A 
ENDROOT
BRANCH   6  15
ATOM     15  C   UNL d   1       3.288   1.043  -0.607  0.00  0.00     0.018 C 
ATOM     16  C   UNL d   1       4.604   0.906  -0.758  0.00  0.00     0.084 C 
BRANCH  16  17
ATOM     17  N   UNL d   1       5.409   1.603  -1.655  0.00  0.00    -0.398 N 
ATOM     18  C   UNL d   1       4.911   2.680  -2.521  0.00  0.00     0.148 C 
ATOM     19  C   UNL d   1       6.866   1.575  -1.554  0.00  0.00     0.148 C 
ENDBRANCH  16  17
ENDBRANCH   6  15
TORSDOF 2
