REMARK  4 active torsions:
REMARK  status: ('A' for Active; 'I' for Inactive)
REMARK    1  A    between atoms: N_11  and  C_1 
REMARK    2  A    between atoms: C_2  and  C_3 
REMARK    3  A    between atoms: N_8  and  N_11 
REMARK    4  A    between atoms: C_21  and  C_18 
ROOT
ATOM      1  N   UNL d   1      -0.053   2.165   0.271  0.00  0.00    -0.203 NA
ATOM      2  H   UNL d   1       0.672   2.525  -0.359  0.00  0.00     0.153 HD
ENDROOT
BRANCH   1   3
ATOM      3  N   UNL d   1      -1.235   2.836   0.188  0.00  0.00    -0.327 N 
ATOM      4  C   UNL d   1      -1.191   4.021   0.709  0.00  0.00     0.113 C 
ATOM      5  HN  UNL d   1      -2.072   2.445  -0.243  1.00  0.00     0.180 HD
BRANCH   4   6
ATOM      6  C   UNL d   1      -2.379   4.894   0.744  0.00  0.00    -0.018 A 
ATOM      7  C   UNL d   1      -2.278   6.150   1.349  0.00  0.00     0.040 A 
ATOM      8  C   UNL d   1      -3.401   6.977   1.397  0.00  0.00     0.073 A 
ATOM      9 CL   UNL d   1      -3.277   8.522   2.148  0.00  0.00    -0.081 Cl
ATOM     10  C   UNL d   1      -4.608   6.552   0.844  0.00  0.00     0.138 A 
ATOM     11  C   UNL d   1      -4.711   5.301   0.241  0.00  0.00     0.045 A 
ATOM     12  F   UNL d   1      -5.695   7.338   0.884  0.00  0.00    -0.204 F 
ATOM     13  C   UNL d   1      -3.593   4.467   0.191  0.00  0.00     0.016 A 
ENDBRANCH   4   6
ENDBRANCH   1   3
BRANCH   1  14
ATOM     14  C   UNL d   1      -0.129   0.745   0.132  0.00  0.00     0.071 A 
ATOM     15  C   UNL d   1       0.855   0.080  -0.633  0.00  0.00     0.059 A 
ATOM     16  C   UNL d   1       0.878  -1.314  -0.761  0.00  0.00     0.042 A 
ATOM     17 CL   UNL d   1       2.082   0.981  -1.464  0.00  0.00    -0.082 Cl
ATOM     18  C   UNL d   1      -0.079  -2.099  -0.108  0.00  0.00     0.051 A 
ATOM     19  C   UNL d   1      -1.056  -1.457   0.665  0.00  0.00     0.042 A 
ATOM     20  C   UNL d   1      -1.079  -0.059   0.796  0.00  0.00     0.059 A 
ATOM     21 CL   UNL d   1      -2.280   0.577   1.873  0.00  0.00    -0.082 Cl
BRANCH  18  22
ATOM     22  C   UNL d   1      -0.055  -3.604  -0.196  0.00  0.00     0.417 C 
ATOM     23  F   UNL d   1       0.934  -4.085  -0.998  0.00  0.00    -0.166 F 
ATOM     24  F   UNL d   1       0.131  -4.187   1.020  0.00  0.00    -0.166 F 
ATOM     25  F   UNL d   1      -1.217  -4.115  -0.685  0.00  0.00    -0.166 F 
ENDBRANCH  18  22
ENDBRANCH   1  14
TORSDOF 4
