REMARK  4 active torsions:
REMARK  status: ('A' for Active; 'I' for Inactive)
REMARK    1  A    between atoms: C_7  and  C_1 
REMARK    2  A    between atoms: N_9  and  C_4 
REMARK    3  A    between atoms: O_10  and  C_7 
REMARK    4  A    between atoms: C_11  and  O_10 
ROOT
ATOM      1  C   UNL d   1      -1.147  -1.307  -0.044  0.00  0.00     0.117 A 
ATOM      2  N   UNL d   1       0.245  -1.399  -0.093  0.00  0.00    -0.332 N 
ATOM      3  HN  UNL d   1       0.771  -2.273  -0.095  1.00  0.00     0.168 HD
ATOM      4  C   UNL d   1       0.780  -0.208  -0.137  0.00  0.00     0.142 A 
ATOM      5  C   UNL d   1      -1.627  -0.009  -0.057  0.00  0.00     0.089 A 
ATOM      6  S   UNL d   1      -0.327   1.103  -0.108  0.00  0.00    -0.064 SA
ENDROOT
BRANCH   1   7
ATOM      7  C   UNL d   1      -2.016  -2.478   0.075  0.00  0.00     0.310 C 
ATOM      8  O   UNL d   1      -3.236  -2.397   0.167  0.00  0.00    -0.258 OA
BRANCH   7   9
ATOM      9  O   UNL d   1      -1.310  -3.643   0.151  0.00  0.00    -0.317 OA
BRANCH   9  10
ATOM     10  C   UNL d   1      -2.038  -4.775   0.642  0.00  0.00     0.175 C 
ATOM     11  C   UNL d   1      -1.936  -4.786   2.155  0.00  0.00     0.034 C 
ENDBRANCH   9  10
ENDBRANCH   7   9
ENDBRANCH   1   7
BRANCH   4  12
ATOM     12  N   UNL d   1       2.106   0.000  -0.182  0.00  0.00    -0.380 N 
ATOM     13  H   UNL d   1       2.687  -0.792   0.066  0.00  0.00     0.158 HD
ATOM     14  H   UNL d   1       2.463   0.898   0.118  0.00  0.00     0.158 HD
ENDBRANCH   4  12
TORSDOF 4
