REMARK  7 active torsions:
REMARK  status: ('A' for Active; 'I' for Inactive)
REMARK    1  A    between atoms: C_5  and  C_1 
REMARK    2  A    between atoms: C_2  and  C_3 
REMARK    3  A    between atoms: C_4  and  C_11 
REMARK       I    between atoms: N_10  and  C_5 
REMARK    4  A    between atoms: O_15  and  C_6 
REMARK    5  A    between atoms: C_7  and  C_19 
REMARK    6  A    between atoms: C_11  and  N_10 
REMARK    7  A    between atoms: C_19  and  O_15 
ROOT
ATOM      1  C   UNL d   1       0.749   1.467   0.484  0.00  0.00     0.098 A 
ATOM      2  C   UNL d   1      -0.623   1.179   0.445  0.00  0.00     0.069 A 
ATOM      3  C   UNL d   1       1.638   0.387   0.543  0.00  0.00     0.159 A 
ATOM      4  N   UNL d   1       1.251  -0.914   0.511  0.00  0.00    -0.346 N 
ATOM      5  HN  UNL d   1       1.935  -1.670   0.552  1.00  0.00     0.167 HD
ATOM      6  C   UNL d   1      -0.065  -1.170   0.425  0.00  0.00     0.091 A 
ATOM      7  C   UNL d   1      -1.021  -0.177   0.410  0.00  0.00     0.034 A 
ENDROOT
BRANCH   1   8
ATOM      8  C   UNL d   1       1.332   2.814   0.273  0.00  0.00     0.257 C 
ATOM      9  N   UNL d   1       1.056   3.816   1.182  0.00  0.00    -0.352 N 
ATOM     10  H   UNL d   1       0.274   3.717   1.816  0.00  0.00     0.163 HD
ATOM     11  O   UNL d   1       2.027   2.990  -0.722  0.00  0.00    -0.267 OA
BRANCH   9  12
ATOM     12  C   UNL d   1       1.517   5.163   0.896  0.00  0.00     0.163 C 
BRANCH  12  13
ATOM     13  C   UNL d   1       1.372   6.243   1.959  0.00  0.00    -0.013 A 
ATOM     14  C   UNL d   1       0.557   6.150   3.106  0.00  0.00     0.044 A 
ATOM     15  C   UNL d   1       0.519   7.174   4.064  0.00  0.00     0.048 A 
ATOM     16 CL   UNL d   1      -0.496   4.814   3.434  0.00  0.00    -0.084 Cl
ATOM     17  C   UNL d   1       1.276   8.321   3.888  0.00  0.00     0.036 A 
ATOM     18  C   UNL d   1       2.046   8.477   2.748  0.00  0.00     0.031 A 
ATOM     19 CL   UNL d   1       1.245   9.567   5.077  0.00  0.00    -0.084 Cl
ATOM     20  C   UNL d   1       2.087   7.466   1.766  0.00  0.00    -0.051 A 
ATOM     21  C   UNL d   1       2.936   7.764   0.551  0.00  0.00     0.049 C 
ENDBRANCH  12  13
ENDBRANCH   9  12
ENDBRANCH   1   8
BRANCH   2  22
ATOM     22  C   UNL d   1      -1.732   2.189   0.418  0.00  0.00     0.418 C 
ATOM     23  F   UNL d   1      -1.356   3.490   0.468  0.00  0.00    -0.166 F 
ATOM     24  F   UNL d   1      -2.510   2.068  -0.692  0.00  0.00    -0.166 F 
ATOM     25  F   UNL d   1      -2.576   2.017   1.473  0.00  0.00    -0.166 F 
ENDBRANCH   2  22
BRANCH   3  26
ATOM     26  O   UNL d   1       2.987   0.640   0.694  0.00  0.00    -0.326 OA
BRANCH  26  27
ATOM     27  C   UNL d   1       3.777  -0.542   0.904  0.00  0.00     0.294 C 
BRANCH  27  28
ATOM     28  C   UNL d   1       5.139  -0.196   1.482  0.00  0.00     0.408 C 
ATOM     29  F   UNL d   1       5.073   0.819   2.372  0.00  0.00    -0.169 F 
ATOM     30  F   UNL d   1       5.655  -1.265   2.140  0.00  0.00    -0.169 F 
ATOM     31  F   UNL d   1       6.024   0.146   0.521  0.00  0.00    -0.169 F 
ENDBRANCH  27  28
ENDBRANCH  26  27
ENDBRANCH   3  26
TORSDOF 7
