REMARK  8 active torsions:
REMARK  status: ('A' for Active; 'I' for Inactive)
REMARK    1  A    between atoms: C_9  and  C_1 
REMARK    2  A    between atoms: N_20  and  C_3 
REMARK    3  A    between atoms: C_12  and  C_6 
REMARK       I    between atoms: N_14  and  C_9 
REMARK    4  A    between atoms: C_18  and  C_10 
REMARK    5  A    between atoms: C_13  and  N_15 
REMARK    6  A    between atoms: N_17  and  C_13 
REMARK    7  A    between atoms: N_15  and  N_14 
REMARK    8  A    between atoms: C_27  and  N_17 
ROOT
ATOM      1  C   UNL d   1       2.352   0.041  -0.084  0.00  0.00     0.174 A 
ATOM      2  C   UNL d   1       0.242   0.877  -0.016  0.00  0.00     0.058 A 
ATOM      3  C   UNL d   1       1.627   1.219  -0.042  0.00  0.00     0.081 A 
ATOM      4  C   UNL d   1       0.223  -0.521  -0.017  0.00  0.00     0.162 A 
ATOM      5  O   UNL d   1       1.493  -1.018  -0.025  0.00  0.00    -0.285 OA
ATOM      6  C   UNL d   1      -1.011   1.525   0.036  0.00  0.00     0.017 A 
ATOM      7  N   UNL d   1      -0.856  -1.324  -0.009  0.00  0.00    -0.335 N 
ATOM      8  HN  UNL d   1      -0.784  -2.342   0.003  1.00  0.00     0.168 HD
ATOM      9  C   UNL d   1      -2.043  -0.679  -0.019  0.00  0.00     0.045 A 
ATOM     10  C   UNL d   1      -2.155   0.711   0.034  0.00  0.00     0.045 A 
ENDROOT
BRANCH   1  11
ATOM     11  C   UNL d   1       3.775  -0.197  -0.212  0.00  0.00     0.296 C 
ATOM     12  N   UNL d   1       4.418   0.815  -0.905  0.00  0.00    -0.262 N 
ATOM     13  H   UNL d   1       3.884   1.576  -1.322  0.00  0.00     0.190 HD
ATOM     14  O   UNL d   1       4.382  -1.160   0.252  0.00  0.00    -0.264 OA
BRANCH  12  15
ATOM     15  N   UNL d   1       5.810   0.910  -0.953  0.00  0.00    -0.273 N 
ATOM     16  H   UNL d   1       6.329   0.283  -0.338  0.00  0.00     0.189 HD
BRANCH  15  17
ATOM     17  C   UNL d   1       6.436   1.387  -2.073  0.00  0.00     0.191 C 
ATOM     18  S   UNL d   1       5.737   1.481  -3.594  0.00  0.00    -0.039 SA
BRANCH  17  19
ATOM     19  N   UNL d   1       7.716   1.851  -1.934  0.00  0.00    -0.332 N 
ATOM     20  H   UNL d   1       8.169   1.998  -2.831  0.00  0.00     0.168 HD
BRANCH  19  21
ATOM     21  C   UNL d   1       8.258   2.631  -0.879  0.00  0.00     0.034 A 
ATOM     22  C   UNL d   1       7.617   2.883   0.337  0.00  0.00     0.029 A 
ATOM     23  C   UNL d   1       8.155   3.796   1.252  0.00  0.00     0.002 A 
ATOM     24  C   UNL d   1       9.338   4.467   0.961  0.00  0.00     0.000 A 
ATOM     25  C   UNL d   1      10.002   4.205  -0.233  0.00  0.00     0.002 A 
ATOM     26  C   UNL d   1       9.470   3.286  -1.143  0.00  0.00     0.029 A 
ENDBRANCH  19  21
ENDBRANCH  17  19
ENDBRANCH  15  17
ENDBRANCH  12  15
ENDBRANCH   1  11
BRANCH   3  27
ATOM     27  N   UNL d   1       2.157   2.464  -0.040  0.00  0.00    -0.396 N 
ATOM     28  H   UNL d   1       1.514   3.256   0.047  0.00  0.00     0.156 HD
ATOM     29  H   UNL d   1       3.044   2.659   0.420  0.00  0.00     0.156 HD
ENDBRANCH   3  27
BRANCH   6  30
ATOM     30  C   UNL d   1      -1.144   2.972   0.120  0.00  0.00     0.086 A 
ATOM     31  O   UNL d   1      -0.179   3.730  -0.479  0.00  0.00    -0.322 OA
ATOM     32  C   UNL d   1      -0.500   5.035  -0.290  0.00  0.00     0.142 A 
ATOM     33  C   UNL d   1      -1.673   5.140   0.415  0.00  0.00     0.027 A 
ATOM     34  C   UNL d   1      -2.098   3.811   0.668  0.00  0.00     0.040 A 
ENDBRANCH   6  30
BRANCH   9  35
ATOM     35  C   UNL d   1      -3.245  -1.542  -0.104  0.00  0.00    -0.009 A 
ATOM     36  C   UNL d   1      -3.299  -2.787   0.547  0.00  0.00     0.014 A 
ATOM     37  C   UNL d   1      -4.435  -3.605   0.467  0.00  0.00     0.007 A 
ATOM     38  C   UNL d   1      -5.549  -3.202  -0.278  0.00  0.00    -0.062 A 
ATOM     39  C   UNL d   1      -5.515  -1.968  -0.928  0.00  0.00     0.007 A 
ATOM     40  C   UNL d   1      -6.758  -4.087  -0.369  0.00  0.00     0.048 C 
ATOM     41  C   UNL d   1      -4.378  -1.156  -0.844  0.00  0.00     0.014 A 
ENDBRANCH   9  35
TORSDOF 8
