REMARK  4 active torsions:
REMARK  status: ('A' for Active; 'I' for Inactive)
REMARK    1  A    between atoms: C_2  and  C_1 
REMARK       I    between atoms: N_5  and  C_2 
REMARK    2  A    between atoms: C_3  and  C_4 
REMARK    3  A    between atoms: C_7  and  N_5 
REMARK    4  A    between atoms: C_6  and  C_7 
ROOT
ATOM      1  C   UNL d   1       1.004   2.506  -0.529  0.00  0.00     0.255 C 
ATOM      2  N   UNL d   1       0.508   3.704  -0.007  0.00  0.00    -0.348 N 
ATOM      3  O   UNL d   1       2.139   2.368  -0.984  0.00  0.00    -0.267 OA
ATOM      4  C   UNL d   1      -0.915   4.002   0.132  0.00  0.00     0.153 C 
ENDROOT
BRANCH   1   5
ATOM      5  C   UNL d   1       0.169   1.292  -0.526  0.00  0.00     0.062 A 
ATOM      6  C   UNL d   1       0.023   0.464  -1.649  0.00  0.00     0.066 A 
ATOM      7  C   UNL d   1      -0.710  -0.726  -1.502  0.00  0.00     0.034 A 
ATOM      8  C   UNL d   1      -1.267  -1.035  -0.272  0.00  0.00     0.088 A 
ATOM      9  N   UNL d   1      -1.125  -0.258   0.820  0.00  0.00    -0.374 N 
ATOM     10  C   UNL d   1      -0.392   0.871   0.676  0.00  0.00     0.105 A 
ATOM     11  HN  UNL d   1      -1.550  -0.508   1.712  1.00  0.00     0.164 HD
BRANCH   6  12
ATOM     12  C   UNL d   1       0.646   0.757  -2.988  0.00  0.00     0.418 C 
ATOM     13  F   UNL d   1       0.915   2.064  -3.240  0.00  0.00    -0.166 F 
ATOM     14  F   UNL d   1       1.796   0.061  -3.195  0.00  0.00    -0.166 F 
ATOM     15  F   UNL d   1      -0.186   0.379  -4.007  0.00  0.00    -0.166 F 
ENDBRANCH   6  12
ENDBRANCH   1   5
BRANCH   2  16
ATOM     16  C   UNL d   1       1.396   4.874  -0.023  0.00  0.00     0.165 C 
BRANCH  16  17
ATOM     17  C   UNL d   1       2.454   4.863   1.060  0.00  0.00    -0.019 A 
ATOM     18  C   UNL d   1       2.245   5.356   2.357  0.00  0.00     0.042 A 
ATOM     19 CL   UNL d   1       0.739   6.045   2.850  0.00  0.00    -0.084 Cl
ATOM     20  C   UNL d   1       3.275   5.327   3.308  0.00  0.00     0.024 A 
ATOM     21  C   UNL d   1       4.525   4.806   2.980  0.00  0.00     0.002 A 
ATOM     22  C   UNL d   1       4.751   4.314   1.700  0.00  0.00     0.001 A 
ATOM     23  C   UNL d   1       3.727   4.346   0.751  0.00  0.00     0.010 A 
ENDBRANCH  16  17
ENDBRANCH   2  16
TORSDOF 4
