REMARK  7 active torsions:
REMARK  status: ('A' for Active; 'I' for Inactive)
REMARK    1  A    between atoms: C_9  and  C_3 
REMARK    2  A    between atoms: C_5  and  C_4 
REMARK    3  A    between atoms: C_13  and  C_7 
REMARK    4  A    between atoms: O_16  and  C_9 
REMARK    5  A    between atoms: O_15  and  C_13 
REMARK    6  A    between atoms: C_17  and  O_15 
REMARK    7  A    between atoms: C_18  and  O_16 
ROOT
ATOM      1  C   UNL d   1       0.021  -2.610  -0.020  0.00  0.00     0.047 A 
ATOM      2  C   UNL d   1       0.497  -3.461   0.977  0.00  0.00    -0.014 A 
ATOM      3  S   UNL d   1      -0.762  -3.495  -1.271  0.00  0.00    -0.099 SA
ATOM      4  C   UNL d   1      -0.527  -4.983  -0.477  0.00  0.00     0.051 A 
ATOM      5  C   UNL d   1       0.151  -4.830   0.708  0.00  0.00     0.018 A 
ENDROOT
BRANCH   1   6
ATOM      6  C   UNL d   1       0.148  -1.168  -0.077  0.00  0.00     0.092 A 
ATOM      7  N   UNL d   1       1.176  -0.541   0.459  0.00  0.00    -0.344 N 
ATOM      8  C   UNL d   1       1.052   0.842   0.302  0.00  0.00     0.115 A 
ATOM      9  HN  UNL d   1       1.957  -1.003   0.926  1.00  0.00     0.167 HD
ATOM     10  C   UNL d   1      -0.094   1.229  -0.367  0.00  0.00     0.087 A 
ATOM     11  S   UNL d   1      -1.017  -0.138  -0.813  0.00  0.00    -0.080 SA
BRANCH   8  12
ATOM     12  C   UNL d   1       2.076   1.784   0.754  0.00  0.00     0.310 C 
ATOM     13  O   UNL d   1       1.998   2.994   0.565  0.00  0.00    -0.258 OA
BRANCH  12  14
ATOM     14  O   UNL d   1       3.152   1.158   1.315  0.00  0.00    -0.317 OA
BRANCH  14  15
ATOM     15  C   UNL d   1       4.337   1.957   1.416  0.00  0.00     0.175 C 
ATOM     16  C   UNL d   1       5.104   1.837   0.110  0.00  0.00     0.034 C 
ENDBRANCH  14  15
ENDBRANCH  12  14
ENDBRANCH   8  12
ENDBRANCH   1   6
BRANCH   2  17
ATOM     17  C   UNL d   1       1.241  -3.022   2.213  0.00  0.00     0.215 C 
BRANCH  17  18
ATOM     18  O   UNL d   1       0.312  -2.580   3.202  0.00  0.00    -0.347 OA
BRANCH  18  19
ATOM     19  C   UNL d   1       0.744  -1.729   4.178  0.00  0.00     0.069 A 
ATOM     20  C   UNL d   1       1.982  -1.090   4.242  0.00  0.00     0.037 A 
ATOM     21  C   UNL d   1       2.262  -0.200   5.285  0.00  0.00     0.003 A 
ATOM     22  C   UNL d   1       1.312   0.048   6.274  0.00  0.00     0.000 A 
ATOM     23  C   UNL d   1       0.080  -0.596   6.224  0.00  0.00     0.003 A 
ATOM     24  C   UNL d   1      -0.201  -1.478   5.178  0.00  0.00     0.037 A 
ENDBRANCH  18  19
ENDBRANCH  17  18
ENDBRANCH   2  17
TORSDOF 7
