REMARK  4 active torsions:
REMARK  status: ('A' for Active; 'I' for Inactive)
REMARK    1  A    between atoms: C_8  and  C_3 
REMARK    2  A    between atoms: C_11  and  C_4 
REMARK    3  A    between atoms: S_15  and  C_12 
REMARK    4  A    between atoms: C_20  and  S_15 
ROOT
ATOM      1  N   UNL d   1       1.287   0.194  -0.086  0.00  0.00    -0.322 N 
ATOM      2  HN  UNL d   1       2.291   0.339  -0.191  1.00  0.00     0.169 HD
ATOM      3  C   UNL d   1       0.285   1.136   0.000  0.00  0.00     0.139 A 
ATOM      4  C   UNL d   1       0.627  -0.941  -0.001  0.00  0.00     0.156 A 
ATOM      5  N   UNL d   1      -0.944   0.611   0.124  0.00  0.00    -0.242 N 
ATOM      6  HN  UNL d   1      -1.834   1.103   0.201  1.00  0.00     0.196 HD
ATOM      7  O   UNL d   1      -0.721  -0.763   0.123  0.00  0.00    -0.222 OA
ENDROOT
BRANCH   3   8
ATOM      8  C   UNL d   1       0.563   2.560  -0.017  0.00  0.00     0.025 A 
ATOM      9  C   UNL d   1      -0.450   3.501   0.129  0.00  0.00     0.104 A 
ATOM     10  N   UNL d   1      -0.251   4.843   0.151  0.00  0.00    -0.360 N 
ATOM     11  C   UNL d   1       1.017   5.286   0.015  0.00  0.00     0.069 A 
ATOM     12  HN  UNL d   1      -1.029   5.492   0.267  1.00  0.00     0.166 HD
ATOM     13  C   UNL d   1       2.095   4.426  -0.157  0.00  0.00     0.038 A 
ATOM     14  C   UNL d   1       1.863   3.049  -0.166  0.00  0.00     0.019 A 
BRANCH  11  15
ATOM     15  S   UNL d   1       1.298   7.046   0.026  0.00  0.00    -0.113 SA
BRANCH  15  16
ATOM     16  C   UNL d   1      -0.126   7.582   1.029  0.00  0.00     0.076 C 
ATOM     17  C   UNL d   1      -0.129   9.095   1.164  0.00  0.00     0.016 C 
ENDBRANCH  15  16
ENDBRANCH  11  15
ENDBRANCH   3   8
BRANCH   4  18
ATOM     18  C   UNL d   1       1.136  -2.352  -0.002  0.00  0.00     0.016 C 
ATOM     19  C   UNL d   1       2.669  -2.358  -0.149  0.00  0.00     0.023 C 
ATOM     20  C   UNL d   1       0.764  -3.038   1.323  0.00  0.00     0.023 C 
ATOM     21  C   UNL d   1       0.524  -3.131  -1.176  0.00  0.00     0.023 C 
ENDBRANCH   4  18
TORSDOF 4
