REMARK  3 active torsions:
REMARK  status: ('A' for Active; 'I' for Inactive)
REMARK    1  A    between atoms: C_7  and  N_1 
REMARK    2  A    between atoms: C_8  and  N_2 
REMARK    3  A    between atoms: C_9  and  C_7 
ROOT
ATOM      1  N   UNL d   1      -2.027   1.773   0.023  0.00  0.00    -0.259 N 
ATOM      2  N   UNL d   1      -1.412  -0.512  -0.139  0.00  0.00    -0.279 N 
ATOM      3  C   UNL d   1      -2.434   0.439   0.009  0.00  0.00     0.334 C 
ATOM      4  C   UNL d   1      -0.702   2.151   0.210  0.00  0.00     0.292 C 
ATOM      5  C   UNL d   1       0.295   1.122  -0.123  0.00  0.00     0.200 C 
ATOM      6  C   UNL d   1      -0.087  -0.141  -0.255  0.00  0.00     0.146 C 
ATOM      7  O   UNL d   1      -3.616   0.104   0.140  0.00  0.00    -0.246 OA
ATOM      8  O   UNL d   1      -0.333   3.239   0.651  0.00  0.00    -0.264 OA
ATOM      9  F   UNL d   1       1.586   1.493  -0.205  0.00  0.00    -0.199 F 
ENDROOT
BRANCH   1  10
ATOM     10  C   UNL d   1      -3.047   2.844   0.055  0.00  0.00     0.176 C 
BRANCH  10  11
ATOM     11  C   UNL d   1      -2.798   3.832  -1.088  0.00  0.00    -0.029 C 
ATOM     12  C   UNL d   1      -2.355   5.161  -0.842  0.00  0.00    -0.018 C 
ATOM     13  C   UNL d   1      -1.474   5.738  -1.789  0.00  0.00    -0.025 C 
ATOM     14  C   UNL d   1      -2.713   5.937   0.280  0.00  0.00     0.013 C 
ATOM     15  C   UNL d   1      -0.826   6.949  -1.482  0.00  0.00     0.012 C 
ATOM     16  C   UNL d   1      -1.266   5.110  -3.021  0.00  0.00     0.012 C 
ATOM     17  C   UNL d   1      -1.167   7.678  -0.349  0.00  0.00     0.001 C 
ATOM     18  C   UNL d   1      -2.162   7.202   0.499  0.00  0.00     0.001 C 
ATOM     19  C   UNL d   1      -1.959   3.946  -3.353  0.00  0.00     0.002 C 
ATOM     20  C   UNL d   1      -2.718   3.299  -2.384  0.00  0.00     0.010 C 
ENDBRANCH  10  11
ENDBRANCH   1  10
BRANCH   2  21
ATOM     21  C   UNL d   1      -1.770  -1.929  -0.062  0.00  0.00     0.232 C 
ATOM     22  O   UNL d   1      -0.785  -2.749  -0.735  0.00  0.00    -0.366 OA
ATOM     23  C   UNL d   1      -0.318  -3.751   0.179  0.00  0.00     0.170 C 
ATOM     24  C   UNL d   1      -1.360  -3.857   1.266  0.00  0.00     0.031 C 
ATOM     25  C   UNL d   1      -1.838  -2.432   1.379  0.00  0.00     0.056 C 
ENDBRANCH   2  21
TORSDOF 3
