REMARK  6 active torsions:
REMARK  status: ('A' for Active; 'I' for Inactive)
REMARK    1  A    between atoms: N_2  and  C_1 
REMARK    2  A    between atoms: O_8  and  C_3 
REMARK    3  A    between atoms: C_5  and  C_12 
REMARK    4  A    between atoms: C_6  and  C_5 
REMARK    5  A    between atoms: O_14  and  C_6 
REMARK    6  A    between atoms: C_12  and  O_8 
ROOT
ATOM      1  C   UNL d   1       1.426  -0.610  -0.250  0.00  0.00     0.137 A 
ATOM      2  C   UNL d   1       2.410   0.385  -0.365  0.00  0.00     0.102 A 
ATOM      3  C   UNL d   1       0.135  -0.461  -0.771  0.00  0.00     0.062 A 
ATOM      4  C   UNL d   1       2.069   1.555  -1.048  0.00  0.00     0.041 A 
ATOM      5  C   UNL d   1      -0.175   0.714  -1.441  0.00  0.00     0.036 A 
ATOM      6  C   UNL d   1       0.782   1.717  -1.582  0.00  0.00     0.026 A 
ATOM      7 CL   UNL d   1      -1.748   0.934  -2.099  0.00  0.00    -0.084 Cl
ENDROOT
BRANCH   2   8
ATOM      8  O   UNL d   1       3.631   0.132   0.191  0.00  0.00    -0.343 OA
BRANCH   8   9
ATOM      9  C   UNL d   1       4.540   1.216   0.456  0.00  0.00     0.135 C 
ATOM     10  C   UNL d   1       5.936   0.593   0.538  0.00  0.00     0.040 C 
BRANCH   9  11
ATOM     11  C   UNL d   1       4.140   1.867   1.783  0.00  0.00     0.142 C 
BRANCH  11  12
ATOM     12  C   UNL d   1       4.961   3.090   2.083  0.00  0.00     0.141 C 
ATOM     13  O   UNL d   1       5.505   3.786   1.240  0.00  0.00    -0.650 OA
BRANCH  12  14
ATOM     14  O   UNL d   1       4.999   3.388   3.402  0.00  0.00    -0.776 OA
ATOM     15  H   UNL d   1       4.505   2.770   3.973  0.00  0.00     0.167 HD
ENDBRANCH  12  14
ENDBRANCH  11  12
ENDBRANCH   9  11
ENDBRANCH   8   9
ENDBRANCH   2   8
BRANCH   1  16
ATOM     16  N   UNL d   1       1.714  -1.826   0.480  0.00  0.00    -0.113 N 
ATOM     17  O   UNL d   1       2.529  -2.614  -0.016  0.00  0.00    -0.532 OA
ATOM     18  O   UNL d   1       1.078  -2.006   1.529  0.00  0.00    -0.532 OA
ENDBRANCH   1  16
TORSDOF 6
