REMARK  4 active torsions:
REMARK  status: ('A' for Active; 'I' for Inactive)
REMARK    1  A    between atoms: C_2  and  C_1 
REMARK    2  A    between atoms: C_3  and  C_1 
REMARK    3  A    between atoms: C_4  and  C_2 
REMARK    4  A    between atoms: O_14  and  C_2 
ROOT
ATOM      1  C   UNL d   1       0.189  -1.273   0.369  0.00  0.00     0.251 C 
ENDROOT
BRANCH   1   2
ATOM      2  C   UNL d   1       1.026  -0.069  -0.083  0.00  0.00     0.217 C 
ATOM      3  O   UNL d   1       2.177  -0.248  -0.501  0.00  0.00    -0.287 OA
BRANCH   2   4
ATOM      4  C   UNL d   1       0.431   1.247   0.019  0.00  0.00     0.123 A 
ATOM      5  O   UNL d   1      -0.817   1.395   0.557  0.00  0.00    -0.319 OA
ATOM      6  C   UNL d   1      -1.116   2.719   0.527  0.00  0.00     0.142 A 
ATOM      7  C   UNL d   1      -0.077   3.435  -0.017  0.00  0.00     0.027 A 
ATOM      8  C   UNL d   1       0.925   2.489  -0.339  0.00  0.00     0.043 A 
ENDBRANCH   2   4
ENDBRANCH   1   2
BRANCH   1   9
ATOM      9  C   UNL d   1      -0.589  -1.786  -0.792  0.00  0.00     0.089 A 
ATOM     10  O   UNL d   1      -1.827  -1.243  -0.984  0.00  0.00    -0.324 OA
ATOM     11  C   UNL d   1      -2.362  -1.841  -2.079  0.00  0.00     0.142 A 
ATOM     12  C   UNL d   1      -1.488  -2.764  -2.600  0.00  0.00     0.027 A 
ATOM     13  C   UNL d   1      -0.341  -2.731  -1.771  0.00  0.00     0.038 A 
ENDBRANCH   1   9
BRANCH   1  14
ATOM     14  O   UNL d   1       1.047  -2.337   0.805  0.00  0.00    -0.381 OA
ATOM     15  H   UNL d   1       1.825  -2.303   0.213  0.00  0.00     0.211 HD
ENDBRANCH   1  14
TORSDOF 4
