REMARK  4 active torsions:
REMARK  status: ('A' for Active; 'I' for Inactive)
REMARK       I    between atoms: N_3  and  C_1 
REMARK    1  A    between atoms: C_4  and  C_1 
REMARK    2  A    between atoms: S_6  and  C_2 
REMARK    3  A    between atoms: C_5  and  N_3 
REMARK    4  A    between atoms: C_14  and  S_6 
ROOT
ATOM      1  C   UNL d   1       0.513   1.889   3.098  0.00  0.00     0.101 A 
ATOM      2  C   UNL d   1       1.032   1.775   1.797  0.00  0.00     0.069 A 
ATOM      3  N   UNL d   1       1.064   2.698   4.038  0.00  0.00    -0.358 N 
ATOM      4  HN  UNL d   1       0.666   2.768   4.975  1.00  0.00     0.166 HD
ATOM      5  C   UNL d   1       2.167   2.528   1.479  0.00  0.00     0.034 A 
ATOM      6  C   UNL d   1       2.160   3.406   3.690  0.00  0.00     0.089 A 
ATOM      7  C   UNL d   1       2.741   3.358   2.436  0.00  0.00     0.019 A 
ENDROOT
BRANCH   2   8
ATOM      8  N   UNL d   1       0.445   0.949   0.802  0.00  0.00    -0.320 N 
ATOM      9  C   UNL d   1       1.214   0.051   0.068  0.00  0.00     0.263 C 
ATOM     10  O   UNL d   1       2.409  -0.111   0.279  0.00  0.00    -0.267 OA
ATOM     11  H   UNL d   1      -0.547   0.751   0.869  0.00  0.00     0.169 HD
BRANCH   9  12
ATOM     12  C   UNL d   1       0.515  -0.752  -0.938  0.00  0.00     0.072 A 
ATOM     13  S   UNL d   1      -1.138  -0.546  -1.324  0.00  0.00    -0.097 SA
ATOM     14  C   UNL d   1      -1.079  -1.758  -2.532  0.00  0.00     0.050 A 
ATOM     15  C   UNL d   1       0.172  -2.324  -2.636  0.00  0.00     0.009 A 
ATOM     16  C   UNL d   1       1.089  -1.745  -1.714  0.00  0.00     0.025 A 
ENDBRANCH   9  12
ENDBRANCH   2   8
BRANCH   1  17
ATOM     17  S   UNL d   1      -0.888   0.938   3.660  0.00  0.00    -0.070 SA
BRANCH  17  18
ATOM     18  C   UNL d   1      -0.140  -0.456   4.508  0.00  0.00     0.007 A 
ATOM     19  C   UNL d   1      -0.757  -0.960   5.663  0.00  0.00     0.019 A 
ATOM     20  C   UNL d   1      -0.343  -2.175   6.227  0.00  0.00     0.008 A 
ATOM     21  C   UNL d   1       0.696  -2.909   5.645  0.00  0.00    -0.062 A 
ATOM     22  C   UNL d   1       1.364  -2.368   4.543  0.00  0.00     0.008 A 
ATOM     23  C   UNL d   1       1.065  -4.260   6.183  0.00  0.00     0.048 C 
ATOM     24  C   UNL d   1       0.950  -1.154   3.981  0.00  0.00     0.019 A 
ENDBRANCH  17  18
ENDBRANCH   1  17
TORSDOF 4
