REMARK  4 active torsions:
REMARK  status: ('A' for Active; 'I' for Inactive)
REMARK       I    between atoms: N_4  and  C_1 
REMARK       I    between atoms: N_5  and  C_1 
REMARK    1  A    between atoms: C_12  and  N_4 
REMARK    2  A    between atoms: C_13  and  N_5 
REMARK    3  A    between atoms: C_6  and  C_7 
REMARK    4  A    between atoms: C_14  and  C_13 
ROOT
ATOM      1  N   UNL d   1      -2.832   2.320  -7.586  0.00  0.00    -0.191 NA
ATOM      2  C   UNL d   1      -2.827   1.956  -6.486  0.00  0.00     0.099 C 
ATOM      3  C   UNL d   1      -2.825   1.511  -5.122  0.00  0.00     0.044 A 
ATOM      4  C   UNL d   1      -2.832   0.640  -2.447  0.00  0.00    -0.040 A 
ATOM      5  C   UNL d   1      -2.249   0.284  -4.782  0.00  0.00     0.023 A 
ATOM      6  C   UNL d   1      -3.407   2.303  -4.127  0.00  0.00     0.023 A 
ATOM      7  C   UNL d   1      -2.255  -0.150  -3.453  0.00  0.00     0.010 A 
ATOM      8  C   UNL d   1      -3.410   1.869  -2.797  0.00  0.00     0.010 A 
ENDROOT
BRANCH   4   9
ATOM      9  C   UNL d   1      -2.883   0.153  -1.021  0.00  0.00     0.162 C 
BRANCH   9  10
ATOM     10  N   UNL d   1      -1.561  -0.041  -0.464  0.00  0.00    -0.339 N 
ATOM     11  C   UNL d   1      -1.134  -1.288  -0.069  0.00  0.00     0.320 C 
ATOM     12  N   UNL d   1       0.118  -1.243   0.506  0.00  0.00    -0.309 N 
ATOM     13  O   UNL d   1      -1.837  -2.282  -0.203  0.00  0.00    -0.247 OA
ATOM     14  H   UNL d   1       0.464  -0.328   0.749  0.00  0.00     0.170 HD
ATOM     15  H   UNL d   1      -0.893   0.708  -0.554  0.00  0.00     0.164 HD
BRANCH  12  16
ATOM     16  C   UNL d   1       0.844  -2.345   1.008  0.00  0.00     0.036 A 
ATOM     17  C   UNL d   1       0.516  -3.670   0.730  0.00  0.00     0.030 A 
ATOM     18  C   UNL d   1       1.260  -4.721   1.278  0.00  0.00     0.010 A 
ATOM     19  C   UNL d   1       2.363  -4.487   2.118  0.00  0.00    -0.051 A 
ATOM     20  C   UNL d   1       2.691  -3.148   2.378  0.00  0.00     0.010 A 
ATOM     21  C   UNL d   1       1.948  -2.092   1.824  0.00  0.00     0.030 A 
BRANCH  19  22
ATOM     22  C   UNL d   1       3.150  -5.676   2.695  0.00  0.00    -0.024 C 
ATOM     23  C   UNL d   1       4.350  -5.258   3.573  0.00  0.00     0.019 C 
ATOM     24  C   UNL d   1       2.221  -6.545   3.570  0.00  0.00     0.019 C 
ATOM     25  C   UNL d   1       3.707  -6.539   1.541  0.00  0.00     0.019 C 
ENDBRANCH  19  22
ENDBRANCH  12  16
ENDBRANCH   9  10
ENDBRANCH   4   9
TORSDOF 4
