REMARK  5 active torsions:
REMARK  status: ('A' for Active; 'I' for Inactive)
REMARK    1  A    between atoms: S_2  and  C_1 
REMARK    2  A    between atoms: N_8  and  S_2 
REMARK    3  A    between atoms: C_7  and  C_11 
REMARK    4  A    between atoms: C_19  and  N_8 
REMARK    5  A    between atoms: C_20  and  C_19 
ROOT
ATOM      1  N   UNL d   1      -0.309  -3.545  -1.370  0.00  0.00    -0.211 NA
ATOM      2  H   UNL d   1      -0.405  -4.558  -1.303  0.00  0.00     0.140 HD
ENDROOT
BRANCH   1   3
ATOM      3  S   UNL d   1      -0.775  -2.773   0.050  0.00  0.00     0.248 S 
ATOM      4  O   UNL d   1      -0.675  -1.344  -0.149  0.00  0.00    -0.205 OA
ATOM      5  O   UNL d   1      -0.131  -3.450   1.150  0.00  0.00    -0.205 OA
BRANCH   3   6
ATOM      6  C   UNL d   1      -2.514  -3.071   0.277  0.00  0.00     0.117 A 
ATOM      7  S   UNL d   1      -2.989  -4.713   0.396  0.00  0.00    -0.068 SA
ATOM      8  C   UNL d   1      -4.617  -4.283   0.629  0.00  0.00     0.070 A 
ATOM      9 BR   UNL d   1      -5.952  -5.573   0.901  0.00  0.00    -0.042 Br
ATOM     10  C   UNL d   1      -4.811  -2.927   0.587  0.00  0.00     0.037 A 
ATOM     11  C   UNL d   1      -3.599  -2.216   0.379  0.00  0.00     0.053 A 
ATOM     12 BR   UNL d   1      -6.444  -1.997   0.778  0.00  0.00    -0.049 Br
ENDBRANCH   3   6
ENDBRANCH   1   3
BRANCH   1  13
ATOM     13  C   UNL d   1      -0.798  -2.952  -2.617  0.00  0.00     0.143 C 
BRANCH  13  14
ATOM     14  C   UNL d   1      -0.315  -3.734  -3.815  0.00  0.00    -0.044 A 
ATOM     15  C   UNL d   1      -1.085  -4.782  -4.335  0.00  0.00     0.009 A 
ATOM     16  C   UNL d   1      -0.623  -5.532  -5.420  0.00  0.00     0.017 A 
ATOM     17  C   UNL d   1       0.623  -5.254  -6.002  0.00  0.00     0.047 A 
ATOM     18  C   UNL d   1       1.390  -4.200  -5.484  0.00  0.00     0.017 A 
ATOM     19  C   UNL d   1       0.929  -3.451  -4.397  0.00  0.00     0.009 A 
BRANCH  17  20
ATOM     20  C   UNL d   1       1.144  -6.080  -7.153  0.00  0.00     0.417 C 
ATOM     21  F   UNL d   1       0.300  -7.083  -7.528  0.00  0.00    -0.166 F 
ATOM     22  F   UNL d   1       1.361  -5.338  -8.274  0.00  0.00    -0.166 F 
ATOM     23  F   UNL d   1       2.331  -6.683  -6.866  0.00  0.00    -0.166 F 
ENDBRANCH  17  20
ENDBRANCH  13  14
ENDBRANCH   1  13
TORSDOF 5
