REMARK  3 active torsions:
REMARK  status: ('A' for Active; 'I' for Inactive)
REMARK       I    between atoms: C_2  and  N_1 
REMARK       I    between atoms: N_7  and  C_2 
REMARK    1  A    between atoms: C_13  and  C_4 
REMARK    2  A    between atoms: C_5  and  C_12 
REMARK    3  A    between atoms: C_23  and  N_7 
ROOT
ATOM      1  N   UNL d   1      -2.588   0.323  -0.275  0.00  0.00    -0.321 N 
ATOM      2  C   UNL d   1      -3.589   0.539  -1.220  0.00  0.00     0.323 C 
ATOM      3  C   UNL d   1      -0.227   0.780   0.171  0.00  0.00    -0.017 A 
ATOM      4  C   UNL d   1      -1.639   1.320   0.258  0.00  0.00     0.156 C 
ATOM      5  C   UNL d   1       0.047  -0.561  -0.033  0.00  0.00    -0.007 A 
ATOM      6  N   UNL d   1      -3.785   1.845  -1.620  0.00  0.00    -0.309 N 
ATOM      7  C   UNL d   1      -2.377  -1.068   0.179  0.00  0.00     0.134 C 
ATOM      8  S   UNL d   1       1.710  -0.903  -0.094  0.00  0.00    -0.106 SA
ATOM      9  C   UNL d   1      -0.996  -1.617  -0.219  0.00  0.00     0.067 C 
ATOM     10  C   UNL d   1       0.988   1.539   0.247  0.00  0.00     0.018 A 
ATOM     11  C   UNL d   1       2.109   0.746   0.124  0.00  0.00     0.051 A 
ATOM     12  O   UNL d   1      -4.237  -0.407  -1.660  0.00  0.00    -0.247 OA
ATOM     13  H   UNL d   1      -3.248   2.564  -1.178  0.00  0.00     0.170 HD
ENDROOT
BRANCH   4  14
ATOM     14  C   UNL d   1      -1.934   1.693   1.712  0.00  0.00    -0.031 A 
ATOM     15  C   UNL d   1      -2.875   2.706   1.967  0.00  0.00     0.010 A 
ATOM     16  C   UNL d   1      -3.200   3.082   3.275  0.00  0.00     0.017 A 
ATOM     17  C   UNL d   1      -2.601   2.450   4.372  0.00  0.00     0.047 A 
ATOM     18  C   UNL d   1      -1.676   1.429   4.133  0.00  0.00     0.017 A 
ATOM     19  C   UNL d   1      -1.355   1.051   2.824  0.00  0.00     0.010 A 
BRANCH  17  20
ATOM     20  C   UNL d   1      -2.961   2.867   5.777  0.00  0.00     0.417 C 
ATOM     21  F   UNL d   1      -2.317   2.153   6.742  0.00  0.00    -0.166 F 
ATOM     22  F   UNL d   1      -2.665   4.174   6.022  0.00  0.00    -0.166 F 
ATOM     23  F   UNL d   1      -4.290   2.731   6.038  0.00  0.00    -0.166 F 
ENDBRANCH  17  20
ENDBRANCH   4  14
BRANCH   6  24
ATOM     24  C   UNL d   1      -4.655   2.313  -2.637  0.00  0.00     0.036 A 
ATOM     25  C   UNL d   1      -5.539   1.506  -3.355  0.00  0.00     0.029 A 
ATOM     26  C   UNL d   1      -6.310   2.038  -4.395  0.00  0.00     0.002 A 
ATOM     27  C   UNL d   1      -6.209   3.386  -4.725  0.00  0.00     0.000 A 
ATOM     28  C   UNL d   1      -5.357   4.211  -3.996  0.00  0.00     0.002 A 
ATOM     29  C   UNL d   1      -4.591   3.679  -2.953  0.00  0.00     0.029 A 
ENDBRANCH   6  24
TORSDOF 3
