REMARK  2 active torsions:
REMARK  status: ('A' for Active; 'I' for Inactive)
REMARK    1  A    between atoms: C_6  and  C_1 
REMARK    2  A    between atoms: C_10  and  C_6 
ROOT
ATOM      1  C   UNL d   1      -2.378   0.100   0.009  0.00  0.00     0.128 A 
ATOM      2  O   UNL d   1      -1.566  -1.001   0.010  0.00  0.00    -0.304 OA
ATOM      3  C   UNL d   1      -0.277  -0.566  -0.017  0.00  0.00     0.108 A 
ATOM      4  C   UNL d   1      -0.245   0.825  -0.037  0.00  0.00     0.004 A 
ATOM      5  C   UNL d   1      -1.603   1.243  -0.055  0.00  0.00     0.055 A 
ATOM      6  C   UNL d   1       0.867  -1.364  -0.013  0.00  0.00     0.070 A 
ATOM      7  C   UNL d   1       2.103  -0.715  -0.012  0.00  0.00     0.050 A 
ATOM      8  C   UNL d   1       1.005   1.469  -0.033  0.00  0.00     0.038 A 
ATOM      9  C   UNL d   1       2.165   0.679  -0.017  0.00  0.00     0.036 A 
ATOM     10 CL   UNL d   1       0.772  -3.077  -0.000  0.00  0.00    -0.081 Cl
ATOM     11 CL   UNL d   1       3.704   1.453   0.003  0.00  0.00    -0.084 Cl
ENDROOT
BRANCH   1  12
ATOM     12  C   UNL d   1      -3.814  -0.074   0.046  0.00  0.00     0.215 C 
ATOM     13  O   UNL d   1      -4.601   0.763  -0.393  0.00  0.00    -0.284 OA
BRANCH  12  14
ATOM     14  C   UNL d   1      -4.376  -1.305   0.677  0.00  0.00     0.017 A 
ATOM     15  C   UNL d   1      -5.571  -1.842   0.178  0.00  0.00     0.017 A 
ATOM     16  C   UNL d   1      -6.129  -2.979   0.772  0.00  0.00     0.020 A 
ATOM     17  C   UNL d   1      -5.501  -3.567   1.871  0.00  0.00     0.011 A 
ATOM     18  C   UNL d   1      -4.322  -3.030   2.385  0.00  0.00     0.020 A 
ATOM     19 BR   UNL d   1      -6.259  -5.097   2.680  0.00  0.00    -0.051 Br
ATOM     20  C   UNL d   1      -3.763  -1.897   1.792  0.00  0.00     0.017 A 
ENDBRANCH  12  14
ENDBRANCH   1  12
TORSDOF 2
