REMARK  7 active torsions:
REMARK  status: ('A' for Active; 'I' for Inactive)
REMARK    1  A    between atoms: C_6  and  C_1 
REMARK    2  A    between atoms: C_13  and  N_2 
REMARK    3  A    between atoms: C_9  and  C_3 
REMARK    4  A    between atoms: C_8  and  C_4 
REMARK    5  A    between atoms: C_20  and  C_13 
REMARK    6  A    between atoms: C_24  and  C_20 
REMARK    7  A    between atoms: O_21  and  C_24 
ROOT
ATOM      1  C   UNL d   1      -0.350   1.095  -0.134  0.00  0.00     0.011 A 
ATOM      2  N   UNL d   1       0.902  -0.769  -0.004  0.00  0.00    -0.345 N 
ATOM      3  C   UNL d   1       0.969   0.634  -0.166  0.00  0.00     0.057 A 
ATOM      4  C   UNL d   1      -0.429  -1.156   0.196  0.00  0.00     0.046 A 
ATOM      5  C   UNL d   1      -1.185  -0.001   0.146  0.00  0.00     0.045 A 
ENDROOT
BRANCH   4   6
ATOM      6  C   UNL d   1      -0.980  -2.511   0.357  0.00  0.00    -0.009 A 
ATOM      7  C   UNL d   1      -2.123  -2.864  -0.390  0.00  0.00     0.015 A 
ATOM      8  C   UNL d   1      -2.698  -4.132  -0.284  0.00  0.00     0.024 A 
ATOM      9  C   UNL d   1      -2.123  -5.074   0.561  0.00  0.00     0.034 A 
ATOM     10  C   UNL d   1      -1.009  -4.741   1.328  0.00  0.00     0.024 A 
ATOM     11 CL   UNL d   1      -2.793  -6.655   0.658  0.00  0.00    -0.084 Cl
ATOM     12  C   UNL d   1      -0.462  -3.454   1.249  0.00  0.00     0.015 A 
ENDBRANCH   4   6
BRANCH   2  13
ATOM     13  C   UNL d   1       2.061  -1.649   0.092  0.00  0.00     0.131 C 
BRANCH  13  14
ATOM     14  C   UNL d   1       2.111  -2.929  -0.756  0.00  0.00     0.046 C 
BRANCH  14  15
ATOM     15  C   UNL d   1       1.667  -2.800  -2.203  0.00  0.00     0.168 C 
BRANCH  15  16
ATOM     16  O   UNL d   1       2.603  -2.007  -2.926  0.00  0.00    -0.396 OA
ATOM     17  C   UNL d   1       2.304  -2.017  -4.320  0.00  0.00     0.201 C 
ENDBRANCH  15  16
ENDBRANCH  14  15
ENDBRANCH  13  14
ENDBRANCH   2  13
BRANCH   1  18
ATOM     18  C   UNL d   1      -0.843   2.509  -0.299  0.00  0.00     0.017 A 
ATOM     19  S   UNL d   1      -2.312   3.071   0.388  0.00  0.00    -0.101 SA
ATOM     20  C   UNL d   1      -2.041   4.667  -0.157  0.00  0.00     0.050 A 
ATOM     21  C   UNL d   1      -0.900   4.758  -0.923  0.00  0.00     0.008 A 
ATOM     22  C   UNL d   1      -0.219   3.510  -1.015  0.00  0.00     0.020 A 
ENDBRANCH   1  18
BRANCH   3  23
ATOM     23  C   UNL d   1       2.211   1.446  -0.177  0.00  0.00    -0.008 A 
ATOM     24  C   UNL d   1       3.268   1.210  -1.062  0.00  0.00     0.014 A 
ATOM     25  C   UNL d   1       4.407   2.025  -1.056  0.00  0.00     0.001 A 
ATOM     26  C   UNL d   1       4.483   3.127  -0.209  0.00  0.00     0.000 A 
ATOM     27  C   UNL d   1       3.429   3.400   0.657  0.00  0.00     0.001 A 
ATOM     28  C   UNL d   1       2.322   2.549   0.693  0.00  0.00     0.014 A 
ENDBRANCH   3  23
TORSDOF 7
