REMARK  2 active torsions:
REMARK  status: ('A' for Active; 'I' for Inactive)
REMARK    1  A    between atoms: C_6  and  C_1 
REMARK    2  A    between atoms: O_13  and  C_6 
ROOT
ATOM      1  C   UNL d   1       2.595   1.416  -0.028  0.00  0.00     0.114 A 
ATOM      2  C   UNL d   1       3.023   0.006  -0.033  0.00  0.00     0.305 A 
ATOM      3  C   UNL d   1       1.289   1.733  -0.003  0.00  0.00     0.039 A 
ATOM      4  O   UNL d   1       2.045  -0.976  -0.014  0.00  0.00    -0.274 OA
ATOM      5  C   UNL d   1       0.274   0.691   0.008  0.00  0.00     0.001 A 
ATOM      6  C   UNL d   1       0.681  -0.640  -0.001  0.00  0.00     0.089 A 
ATOM      7  O   UNL d   1       4.219  -0.278  -0.051  0.00  0.00    -0.259 OA
ATOM      8  C   UNL d   1      -1.092   0.981   0.019  0.00  0.00     0.038 A 
ATOM      9  C   UNL d   1      -0.236  -1.689  -0.001  0.00  0.00     0.040 A 
ATOM     10  C   UNL d   1      -2.021  -0.064   0.015  0.00  0.00     0.035 A 
ATOM     11  C   UNL d   1      -1.599  -1.395   0.005  0.00  0.00     0.026 A 
ATOM     12 CL   UNL d   1      -3.704   0.293   0.020  0.00  0.00    -0.084 Cl
ENDROOT
BRANCH   1  13
ATOM     13  C   UNL d   1       3.570   2.533  -0.055  0.00  0.00     0.182 C 
ATOM     14  O   UNL d   1       3.234   3.709  -0.058  0.00  0.00    -0.646 OA
BRANCH  13  15
ATOM     15  O   UNL d   1       4.870   2.171  -0.080  0.00  0.00    -0.772 OA
ATOM     16  H   UNL d   1       5.042   1.198  -0.077  0.00  0.00     0.167 HD
ENDBRANCH  13  15
ENDBRANCH   1  13
TORSDOF 2
