REMARK  5 active torsions:
REMARK  status: ('A' for Active; 'I' for Inactive)
REMARK       I    between atoms: C_4  and  N_1 
REMARK       I    between atoms: C_6  and  N_1 
REMARK    1  A    between atoms: C_7  and  C_2 
REMARK    2  A    between atoms: C_3  and  C_10 
REMARK    3  A    between atoms: C_11  and  C_4 
REMARK       I    between atoms: N_15  and  C_6 
REMARK    4  A    between atoms: C_9  and  C_24 
REMARK    5  A    between atoms: C_24  and  N_15 
ROOT
ATOM      1  N   UNL d   1       1.223  -0.086   0.005  0.00  0.00    -0.275 N 
ATOM      2  C   UNL d   1       0.285   0.467   0.866  0.00  0.00     0.259 C 
ATOM      3  C   UNL d   1       2.570   0.191  -0.064  0.00  0.00     0.323 C 
ATOM      4  N   UNL d   1       3.048   1.025   0.895  0.00  0.00    -0.338 N 
ATOM      5  O   UNL d   1       0.557   1.241   1.776  0.00  0.00    -0.267 OA
ATOM      6  O   UNL d   1       3.250  -0.306  -0.956  0.00  0.00    -0.247 OA
ATOM      7  H   UNL d   1       0.937  -0.774  -0.674  0.00  0.00     0.173 HD
ATOM      8  H   UNL d   1       2.396   1.311   1.621  0.00  0.00     0.164 HD
ENDROOT
BRANCH   4   9
ATOM      9  C   UNL d   1       4.433   1.387   1.053  0.00  0.00     0.170 C 
BRANCH   9  10
ATOM     10  C   UNL d   1       4.891   0.882   2.385  0.00  0.00     0.001 A 
ATOM     11  S   UNL d   1       4.699   1.842   3.791  0.00  0.00    -0.092 SA
ATOM     12  C   UNL d   1       5.417   0.656   4.807  0.00  0.00     0.022 A 
ATOM     13  C   UNL d   1       5.776  -0.460   4.072  0.00  0.00     0.021 A 
ATOM     14  C   UNL d   1       5.474  -0.331   2.684  0.00  0.00     0.018 A 
BRANCH  12  15
ATOM     15  C   UNL d   1       5.595   0.880   6.226  0.00  0.00     0.021 A 
ATOM     16  S   UNL d   1       6.866   0.122   7.103  0.00  0.00    -0.101 SA
ATOM     17  C   UNL d   1       6.419   0.884   8.565  0.00  0.00     0.050 A 
ATOM     18  C   UNL d   1       5.320   1.696   8.407  0.00  0.00     0.008 A 
ATOM     19  C   UNL d   1       4.844   1.690   7.062  0.00  0.00     0.021 A 
ENDBRANCH  12  15
ENDBRANCH   9  10
ENDBRANCH   4   9
BRANCH   2  20
ATOM     20  C   UNL d   1      -1.113   0.004   0.700  0.00  0.00     0.033 A 
ATOM     21  C   UNL d   1      -1.886  -0.152   1.859  0.00  0.00     0.033 A 
ATOM     22  C   UNL d   1      -3.178  -0.694   1.790  0.00  0.00     0.048 A 
ATOM     23  C   UNL d   1      -3.713  -1.001   0.529  0.00  0.00     0.016 A 
ATOM     24  C   UNL d   1      -2.965  -0.789  -0.633  0.00  0.00     0.002 A 
ATOM     25  C   UNL d   1      -1.661  -0.297  -0.550  0.00  0.00     0.017 A 
BRANCH  22  26
ATOM     26  C   UNL d   1      -3.955  -1.005   3.046  0.00  0.00     0.417 C 
ATOM     27  F   UNL d   1      -3.289  -0.686   4.191  0.00  0.00    -0.166 F 
ATOM     28  F   UNL d   1      -5.147  -0.352   3.109  0.00  0.00    -0.166 F 
ATOM     29  F   UNL d   1      -4.247  -2.332   3.146  0.00  0.00    -0.166 F 
ENDBRANCH  22  26
ENDBRANCH   2  20
TORSDOF 5
