REMARK  4 active torsions:
REMARK  status: ('A' for Active; 'I' for Inactive)
REMARK    1  A    between atoms: C_6  and  C_2 
REMARK       I    between atoms: C_9  and  N_3 
REMARK    2  A    between atoms: C_12  and  C_9 
REMARK    3  A    between atoms: S_14  and  C_12 
REMARK    4  A    between atoms: C_18  and  S_14 
ROOT
ATOM      1  C   UNL d   1       0.981  -0.779   0.141  0.00  0.00     0.049 A 
ATOM      2  C   UNL d   1       2.384  -1.335   0.175  0.00  0.00     0.245 C 
ATOM      3  N   UNL d   1       3.320  -0.239  -0.236  0.00  0.00    -0.333 N 
ATOM      4  C   UNL d   1       0.599   0.541  -0.003  0.00  0.00    -0.019 A 
ATOM      5  N   UNL d   1      -0.156  -1.539   0.205  0.00  0.00    -0.356 N 
ATOM      6  C   UNL d   1      -0.822   0.587   0.010  0.00  0.00    -0.001 A 
ATOM      7  C   UNL d   1      -1.268  -0.732   0.122  0.00  0.00     0.043 A 
ATOM      8  C   UNL d   1       4.586  -0.444  -0.783  0.00  0.00     0.230 C 
ATOM      9  C   UNL d   1       2.996   1.126   0.248  0.00  0.00     0.131 C 
ATOM     10  C   UNL d   1       1.603   1.622  -0.180  0.00  0.00     0.061 C 
ATOM     11  O   UNL d   1       5.296   0.516  -1.112  0.00  0.00    -0.273 OA
ATOM     12  C   UNL d   1      -1.781   1.616  -0.078  0.00  0.00     0.014 A 
ATOM     13  C   UNL d   1      -2.625  -1.076   0.131  0.00  0.00     0.030 A 
ATOM     14  C   UNL d   1      -3.144   1.288  -0.060  0.00  0.00     0.001 A 
ATOM     15  C   UNL d   1      -3.557  -0.039   0.037  0.00  0.00     0.002 A 
ATOM     16  H   UNL d   1      -0.199  -2.545   0.299  0.00  0.00     0.166 HD
ENDROOT
BRANCH   2  17
ATOM     17  C   UNL d   1       2.755  -2.044   1.509  0.00  0.00     0.413 C 
ATOM     18  F   UNL d   1       1.725  -2.115   2.382  0.00  0.00    -0.168 F 
ATOM     19  F   UNL d   1       3.143  -3.321   1.264  0.00  0.00    -0.168 F 
ATOM     20  F   UNL d   1       3.784  -1.436   2.145  0.00  0.00    -0.168 F 
ENDBRANCH   2  17
BRANCH   8  21
ATOM     21  C   UNL d   1       5.182  -1.848  -0.882  0.00  0.00     0.182 C 
BRANCH  21  22
ATOM     22  S   UNL d   1       4.409  -2.982  -2.074  0.00  0.00    -0.121 SA
BRANCH  22  23
ATOM     23  C   UNL d   1       4.238  -1.957  -3.515  0.00  0.00     0.001 A 
ATOM     24  C   UNL d   1       5.276  -1.147  -3.981  0.00  0.00     0.020 A 
ATOM     25  C   UNL d   1       5.071  -0.300  -5.073  0.00  0.00     0.025 A 
ATOM     26  C   UNL d   1       3.834  -0.280  -5.713  0.00  0.00     0.034 A 
ATOM     27  C   UNL d   1       2.810  -1.126  -5.292  0.00  0.00     0.025 A 
ATOM     28 CL   UNL d   1       3.566   0.800  -7.023  0.00  0.00    -0.084 Cl
ATOM     29  C   UNL d   1       3.015  -1.969  -4.197  0.00  0.00     0.020 A 
ENDBRANCH  22  23
ENDBRANCH  21  22
ENDBRANCH   8  21
TORSDOF 4
