REMARK  4 active torsions:
REMARK  status: ('A' for Active; 'I' for Inactive)
REMARK    1  A    between atoms: C_10  and  C_1 
REMARK    2  A    between atoms: C_5  and  C_2 
REMARK    3  A    between atoms: N_8  and  C_3 
REMARK    4  A    between atoms: C_6  and  C_7 
REMARK       I    between atoms: C_7  and  N_8 
ROOT
ATOM      1  C   UNL d   1       1.353   0.898  -0.248  0.00  0.00     0.023 A 
ATOM      2  C   UNL d   1       0.045   1.337  -0.052  0.00  0.00     0.102 A 
ATOM      3  C   UNL d   1       1.430  -0.548  -0.334  0.00  0.00     0.053 A 
ATOM      4  S   UNL d   1      -1.067   0.032  -0.087  0.00  0.00    -0.094 SA
ATOM      5  C   UNL d   1       0.174  -1.114  -0.279  0.00  0.00     0.081 A 
ENDROOT
BRANCH   3   6
ATOM      6  N   UNL d   1       2.627  -1.261  -0.434  0.00  0.00    -0.322 N 
ATOM      7  C   UNL d   1       2.743  -2.653  -0.525  0.00  0.00     0.277 C 
ATOM      8  O   UNL d   1       1.802  -3.387  -0.837  0.00  0.00    -0.268 OA
ATOM      9  H   UNL d   1       3.479  -0.711  -0.381  0.00  0.00     0.169 HD
BRANCH   7  10
ATOM     10  C   UNL d   1       4.164  -3.199  -0.239  0.00  0.00     0.269 C 
ATOM     11 CL   UNL d   1       4.839  -2.370   1.201  0.00  0.00    -0.073 Cl
ATOM     12 CL   UNL d   1       4.115  -4.950   0.079  0.00  0.00    -0.073 Cl
ATOM     13 CL   UNL d   1       5.188  -2.853  -1.654  0.00  0.00    -0.073 Cl
ENDBRANCH   7  10
ENDBRANCH   3   6
BRANCH   1  14
ATOM     14  C   UNL d   1       2.469   1.841  -0.343  0.00  0.00    -0.022 A 
ATOM     15  C   UNL d   1       3.554   1.760   0.541  0.00  0.00     0.012 A 
ATOM     16  C   UNL d   1       4.629   2.643   0.422  0.00  0.00     0.001 A 
ATOM     17  C   UNL d   1       4.621   3.628  -0.564  0.00  0.00     0.000 A 
ATOM     18  C   UNL d   1       3.541   3.726  -1.439  0.00  0.00     0.001 A 
ATOM     19  C   UNL d   1       2.478   2.829  -1.341  0.00  0.00     0.012 A 
ENDBRANCH   1  14
BRANCH   2  20
ATOM     20  C   UNL d   1      -0.496   2.721   0.144  0.00  0.00     0.424 C 
ATOM     21  F   UNL d   1       0.376   3.543   0.782  0.00  0.00    -0.166 F 
ATOM     22  F   UNL d   1      -0.791   3.309  -1.045  0.00  0.00    -0.166 F 
ATOM     23  F   UNL d   1      -1.638   2.744   0.882  0.00  0.00    -0.166 F 
ENDBRANCH   2  20
TORSDOF 4
