REMARK  7 active torsions:
REMARK  status: ('A' for Active; 'I' for Inactive)
REMARK    1  A    between atoms: C_6  and  C_1 
REMARK    2  A    between atoms: C_10  and  C_2 
REMARK    3  A    between atoms: C_7  and  C_3 
REMARK    4  A    between atoms: O_11  and  C_6 
REMARK    5  A    between atoms: O_12  and  C_7 
REMARK    6  A    between atoms: C_15  and  O_11 
REMARK    7  A    between atoms: C_14  and  O_12 
ROOT
ATOM      1  C   UNL d   1      -1.436  -0.729   0.062  0.00  0.00     0.070 A 
ATOM      2  C   UNL d   1      -0.070  -1.221   0.025  0.00  0.00    -0.007 A 
ATOM      3  C   UNL d   1       0.772  -0.108   0.061  0.00  0.00     0.116 A 
ATOM      4  N   UNL d   1      -0.035   1.001   0.154  0.00  0.00    -0.354 N 
ATOM      5  C   UNL d   1      -1.357   0.659   0.116  0.00  0.00     0.022 A 
ATOM      6  C   UNL d   1      -2.403   1.719   0.098  0.00  0.00     0.069 C 
ATOM      7  H   UNL d   1       0.329   1.947   0.170  0.00  0.00     0.166 HD
ENDROOT
BRANCH   1   8
ATOM      8  C   UNL d   1      -2.671  -1.524  -0.033  0.00  0.00     0.295 C 
ATOM      9  O   UNL d   1      -2.690  -2.744  -0.142  0.00  0.00    -0.259 OA
BRANCH   8  10
ATOM     10  O   UNL d   1      -3.789  -0.743  -0.081  0.00  0.00    -0.318 OA
BRANCH  10  11
ATOM     11  C   UNL d   1      -4.955  -1.352  -0.646  0.00  0.00     0.174 C 
ATOM     12  C   UNL d   1      -4.901  -1.168  -2.152  0.00  0.00     0.034 C 
ENDBRANCH  10  11
ENDBRANCH   8  10
ENDBRANCH   1   8
BRANCH   2  13
ATOM     13  C   UNL d   1       0.327  -2.668  -0.108  0.00  0.00     0.037 C 
ATOM     14  C   UNL d   1       0.427  -3.378   1.233  0.00  0.00     0.010 C 
ENDBRANCH   2  13
BRANCH   3  15
ATOM     15  C   UNL d   1       2.200   0.080  -0.039  0.00  0.00     0.310 C 
ATOM     16  O   UNL d   1       2.733   1.186  -0.101  0.00  0.00    -0.258 OA
BRANCH  15  17
ATOM     17  O   UNL d   1       2.855  -1.102  -0.139  0.00  0.00    -0.317 OA
BRANCH  17  18
ATOM     18  C   UNL d   1       4.202  -1.022  -0.623  0.00  0.00     0.175 C 
ATOM     19  C   UNL d   1       4.170  -1.104  -2.139  0.00  0.00     0.034 C 
ENDBRANCH  17  18
ENDBRANCH  15  17
ENDBRANCH   3  15
TORSDOF 7
