REMARK  3 active torsions:
REMARK  status: ('A' for Active; 'I' for Inactive)
REMARK    1  A    between atoms: N_2  and  C_1 
REMARK    2  A    between atoms: C_3  and  C_7 
REMARK    3  A    between atoms: N_5  and  C_11 
ROOT
ATOM      1  C   UNL d   1       0.221  -2.785  -0.268  0.00  0.00     0.178 C 
ATOM      2  N   UNL d   1       0.187  -3.664   0.916  0.00  0.00    -0.270 NA
ATOM      3  N   UNL d   1      -0.845  -3.240  -1.195  0.00  0.00    -0.270 NA
ATOM      4  C   UNL d   1      -0.153  -4.889   0.291  0.00  0.00     0.033 A 
ATOM      5  C   UNL d   1      -0.411  -7.218  -0.041  0.00  0.00     0.104 A 
ATOM      6  C   UNL d   1      -0.778  -4.645  -0.934  0.00  0.00     0.031 A 
ATOM      7  C   UNL d   1       0.014  -6.164   0.781  0.00  0.00     0.061 A 
ATOM      8  C   UNL d   1      -1.293  -5.665  -1.705  0.00  0.00     0.028 A 
ATOM      9  C   UNL d   1      -1.075  -6.976  -1.268  0.00  0.00     0.038 A 
ATOM     10  H   UNL d   1       1.084  -3.718   1.389  0.00  0.00     0.129 HD
ATOM     11  H   UNL d   1      -1.733  -2.916  -0.819  0.00  0.00     0.129 HD
ENDROOT
BRANCH   1  12
ATOM     12  C   UNL d   1       0.224  -1.314   0.064  0.00  0.00     0.017 A 
ATOM     13  S   UNL d   1       1.521  -0.338  -0.512  0.00  0.00    -0.068 SA
ATOM     14  C   UNL d   1       0.939   1.032   0.297  0.00  0.00     0.144 A 
ATOM     15  C   UNL d   1      -0.240   0.793   0.968  0.00  0.00     0.045 A 
ATOM     16  C   UNL d   1      -0.658  -0.569   0.828  0.00  0.00     0.020 A 
BRANCH  14  17
ATOM     17  N   UNL d   1       1.676   2.271   0.247  0.00  0.00    -0.108 N 
ATOM     18  O   UNL d   1       1.194   3.213   0.888  0.00  0.00    -0.531 OA
ATOM     19  O   UNL d   1       2.721   2.307  -0.412  0.00  0.00    -0.531 OA
ENDBRANCH  14  17
ENDBRANCH   1  12
BRANCH   5  20
ATOM     20  N   UNL d   1      -0.118  -8.600   0.362  0.00  0.00    -0.116 N 
ATOM     21  O   UNL d   1       0.494  -8.772   1.426  0.00  0.00    -0.532 OA
ATOM     22  O   UNL d   1      -0.482  -9.511  -0.395  0.00  0.00    -0.532 OA
ENDBRANCH   5  20
TORSDOF 3
