REMARK  3 active torsions:
REMARK  status: ('A' for Active; 'I' for Inactive)
REMARK    1  A    between atoms: C_14  and  N_2 
REMARK    2  A    between atoms: C_17  and  N_10 
REMARK    3  A    between atoms: C_18  and  C_17 
ROOT
ATOM      1  C   UNL d   1       0.798   0.455  -0.110  0.00  0.00     0.074 A 
ATOM      2  N   UNL d   1       3.102   1.161   0.035  0.00  0.00    -0.254 N 
ATOM      3  C   UNL d   1       1.268  -0.819  -0.176  0.00  0.00     0.093 A 
ATOM      4  C   UNL d   1       3.546  -0.187  -0.024  0.00  0.00     0.186 A 
ATOM      5  C   UNL d   1       1.736   1.553   0.021  0.00  0.00     0.268 A 
ATOM      6  N   UNL d   1       2.580  -1.163  -0.147  0.00  0.00    -0.326 N 
ATOM      7  C   UNL d   1      -0.627   0.455  -0.178  0.00  0.00    -0.023 A 
ATOM      8  C   UNL d   1      -1.133  -0.838  -0.211  0.00  0.00     0.020 A 
ATOM      9  S   UNL d   1       0.097  -2.020  -0.263  0.00  0.00    -0.073 SA
ATOM     10  N   UNL d   1      -3.396  -0.055   0.381  0.00  0.00     0.097 N 
ATOM     11  C   UNL d   1      -2.598  -1.173  -0.186  0.00  0.00     0.319 C 
ATOM     12  S   UNL d   1       5.123  -0.766   0.113  0.00  0.00    -0.040 SA
ATOM     13  C   UNL d   1      -1.546   1.641  -0.125  0.00  0.00     0.071 C 
ATOM     14  O   UNL d   1       1.326   2.709   0.098  0.00  0.00    -0.267 OA
ATOM     15  C   UNL d   1      -3.020   1.209  -0.307  0.00  0.00     0.278 C 
ATOM     16  H   UNL d   1       2.853  -2.139  -0.164  0.00  0.00     0.169 HD
ENDROOT
BRANCH  10  17
ATOM     17  C   UNL d   1      -3.224   0.015   1.849  0.00  0.00     0.311 C 
BRANCH  17  18
ATOM     18  C   UNL d   1      -4.027   1.121   2.500  0.00  0.00    -0.030 A 
ATOM     19  C   UNL d   1      -5.425   1.129   2.411  0.00  0.00     0.009 A 
ATOM     20  C   UNL d   1      -6.162   2.181   2.956  0.00  0.00     0.001 A 
ATOM     21  C   UNL d   1      -5.510   3.230   3.600  0.00  0.00     0.000 A 
ATOM     22  C   UNL d   1      -4.120   3.224   3.713  0.00  0.00     0.001 A 
ATOM     23  C   UNL d   1      -3.382   2.173   3.169  0.00  0.00     0.009 A 
ENDBRANCH  17  18
ENDBRANCH  10  17
BRANCH   2  24
ATOM     24  C   UNL d   1       4.048   2.237   0.119  0.00  0.00     0.045 A 
ATOM     25  C   UNL d   1       3.990   3.150   1.183  0.00  0.00     0.030 A 
ATOM     26  C   UNL d   1       4.903   4.204   1.261  0.00  0.00     0.002 A 
ATOM     27  C   UNL d   1       5.867   4.366   0.269  0.00  0.00     0.000 A 
ATOM     28  C   UNL d   1       5.919   3.479  -0.805  0.00  0.00     0.002 A 
ATOM     29  C   UNL d   1       5.012   2.420  -0.881  0.00  0.00     0.030 A 
ENDBRANCH   2  24
TORSDOF 3
