REMARK  4 active torsions:
REMARK  status: ('A' for Active; 'I' for Inactive)
REMARK    1  A    between atoms: C_13  and  C_3 
REMARK    2  A    between atoms: C_14  and  C_4 
REMARK    3  A    between atoms: C_16  and  N_5 
REMARK    4  A    between atoms: C_17  and  C_8 
ROOT
ATOM      1  N   UNL d   1       0.924  -0.664  -0.061  0.00  0.00    -0.292 N 
ATOM      2  HN  UNL d   1       1.760  -1.247  -0.100  1.00  0.00     0.187 HD
ATOM      3  C   UNL d   1      -0.478   1.122  -0.007  0.00  0.00     0.013 A 
ATOM      4  C   UNL d   1       0.866   0.677   0.004  0.00  0.00     0.077 A 
ATOM      5  N   UNL d   1      -0.374  -1.079  -0.063  0.00  0.00    -0.266 N 
ATOM      6  C   UNL d   1      -1.243  -0.013  -0.083  0.00  0.00     0.130 A 
ENDROOT
BRANCH   3   7
ATOM      7  C   UNL d   1      -1.024   2.430   0.037  0.00  0.00     0.051 C 
ATOM      8  C   UNL d   1      -1.276   3.137   1.145  0.00  0.00     0.111 A 
ATOM      9  N   UNL d   1      -1.745   4.425   1.132  0.00  0.00    -0.331 N 
ATOM     10  C   UNL d   1      -1.062   2.680   2.547  0.00  0.00     0.316 A 
ATOM     11  C   UNL d   1      -1.782   4.725   2.390  0.00  0.00     0.162 A 
ATOM     12  HN  UNL d   1      -2.001   5.002   0.331  1.00  0.00     0.168 HD
ATOM     13  O   UNL d   1      -1.401   3.778   3.277  0.00  0.00    -0.256 OA
ATOM     14  O   UNL d   1      -0.700   1.603   2.983  0.00  0.00    -0.257 OA
BRANCH  11  15
ATOM     15  C   UNL d   1      -2.232   5.996   2.973  0.00  0.00     0.015 A 
ATOM     16  C   UNL d   1      -2.666   7.012   2.114  0.00  0.00     0.016 A 
ATOM     17  C   UNL d   1      -3.160   8.207   2.639  0.00  0.00     0.001 A 
ATOM     18  C   UNL d   1      -3.216   8.389   4.020  0.00  0.00     0.000 A 
ATOM     19  C   UNL d   1      -2.764   7.387   4.879  0.00  0.00     0.001 A 
ATOM     20  C   UNL d   1      -2.268   6.190   4.358  0.00  0.00     0.016 A 
ENDBRANCH  11  15
ENDBRANCH   3   7
BRANCH   4  21
ATOM     21  C   UNL d   1       2.116   1.526   0.061  0.00  0.00     0.033 A 
ATOM     22  S   UNL d   1       2.141   3.236   0.178  0.00  0.00    -0.100 SA
ATOM     23  C   UNL d   1       3.844   3.295   0.172  0.00  0.00     0.050 A 
ATOM     24  C   UNL d   1       4.398   2.039   0.077  0.00  0.00     0.008 A 
ATOM     25  C   UNL d   1       3.401   1.017   0.021  0.00  0.00     0.021 A 
ENDBRANCH   4  21
BRANCH   5  26
ATOM     26  C   UNL d   1      -0.720  -2.462  -0.057  0.00  0.00     0.056 A 
ATOM     27  C   UNL d   1       0.288  -3.435  -0.019  0.00  0.00     0.031 A 
ATOM     28  C   UNL d   1      -0.047  -4.793   0.002  0.00  0.00     0.002 A 
ATOM     29  C   UNL d   1      -1.384  -5.188  -0.016  0.00  0.00     0.000 A 
ATOM     30  C   UNL d   1      -2.392  -4.228  -0.056  0.00  0.00     0.002 A 
ATOM     31  C   UNL d   1      -2.064  -2.869  -0.075  0.00  0.00     0.031 A 
ENDBRANCH   5  26
TORSDOF 4
