REMARK  3 active torsions:
REMARK  status: ('A' for Active; 'I' for Inactive)
REMARK    1  A    between atoms: N_6  and  C_1 
REMARK    2  A    between atoms: C_10  and  N_2 
REMARK       I    between atoms: C_7  and  N_6 
REMARK    3  A    between atoms: C_9  and  C_7 
ROOT
ATOM      1  C   UNL d   1      -0.414  -1.131   0.161  0.00  0.00     0.132 C 
ATOM      2  N   UNL d   1       0.896  -0.723  -0.075  0.00  0.00    -0.240 N 
ATOM      3  N   UNL d   1       0.966   0.626  -0.236  0.00  0.00    -0.297 N 
ATOM      4  HN  UNL d   1       1.752   1.174  -0.587  1.00  0.00     0.187 HD
ATOM      5  C   UNL d   1      -1.108   0.013   0.485  0.00  0.00     0.076 C 
ATOM      6  C   UNL d   1      -0.228   1.074   0.168  0.00  0.00     0.026 C 
ATOM      7  C   UNL d   1      -0.509   2.531   0.187  0.00  0.00     0.070 C 
ENDROOT
BRANCH   1   8
ATOM      8  N   UNL d   1      -0.854  -2.441   0.020  0.00  0.00    -0.307 N 
ATOM      9  C   UNL d   1      -1.772  -2.986   0.891  0.00  0.00     0.257 C 
ATOM     10  O   UNL d   1      -2.212  -2.453   1.906  0.00  0.00    -0.267 OA
ATOM     11  H   UNL d   1      -0.303  -3.069  -0.557  0.00  0.00     0.170 HD
BRANCH   9  12
ATOM     12  C   UNL d   1      -2.160  -4.386   0.586  0.00  0.00     0.032 A 
ATOM     13  C   UNL d   1      -2.264  -5.309   1.636  0.00  0.00     0.020 A 
ATOM     14  C   UNL d   1      -2.724  -6.602   1.382  0.00  0.00     0.043 A 
ATOM     15  C   UNL d   1      -3.083  -6.959   0.086  0.00  0.00     0.116 A 
ATOM     16  C   UNL d   1      -2.964  -6.057  -0.968  0.00  0.00     0.043 A 
ATOM     17  F   UNL d   1      -3.567  -8.185  -0.150  0.00  0.00    -0.206 F 
ATOM     18  C   UNL d   1      -2.494  -4.765  -0.722  0.00  0.00     0.020 A 
ENDBRANCH   9  12
ENDBRANCH   1   8
BRANCH   2  19
ATOM     19  C   UNL d   1       2.077  -1.522  -0.086  0.00  0.00     0.058 A 
ATOM     20  C   UNL d   1       3.246  -1.021  -0.670  0.00  0.00     0.031 A 
ATOM     21  C   UNL d   1       4.404  -1.802  -0.690  0.00  0.00     0.002 A 
ATOM     22  C   UNL d   1       4.407  -3.072  -0.113  0.00  0.00     0.000 A 
ATOM     23  C   UNL d   1       3.260  -3.560   0.507  0.00  0.00     0.002 A 
ATOM     24  C   UNL d   1       2.101  -2.784   0.531  0.00  0.00     0.031 A 
ENDBRANCH   2  19
TORSDOF 3
