REMARK  4 active torsions:
REMARK  status: ('A' for Active; 'I' for Inactive)
REMARK       I    between atoms: N_2  and  C_1 
REMARK    1  A    between atoms: C_3  and  C_1 
REMARK    2  A    between atoms: C_4  and  N_2 
REMARK    3  A    between atoms: C_8  and  C_3 
REMARK    4  A    between atoms: C_11  and  C_3 
ROOT
ATOM      1  C   UNL d   1       1.143   0.156  -0.309  0.00  0.00     0.227 C 
ATOM      2  N   UNL d   1       0.613  -1.119  -0.457  0.00  0.00    -0.356 N 
ATOM      3  O   UNL d   1       2.320   0.411  -0.524  0.00  0.00    -0.273 OA
ATOM      4  H   UNL d   1      -0.217  -1.300   0.089  0.00  0.00     0.162 HD
ENDROOT
BRANCH   1   5
ATOM      5  C   UNL d   1       0.109   1.191   0.214  0.00  0.00     0.115 C 
BRANCH   5   6
ATOM      6  C   UNL d   1       0.093   1.210   1.738  0.00  0.00    -0.045 A 
ATOM      7  C   UNL d   1       1.267   1.414   2.480  0.00  0.00     0.008 A 
ATOM      8  C   UNL d   1       1.245   1.385   3.876  0.00  0.00     0.001 A 
ATOM      9  C   UNL d   1       0.049   1.151   4.551  0.00  0.00     0.000 A 
ATOM     10  C   UNL d   1      -1.128   0.963   3.831  0.00  0.00     0.001 A 
ATOM     11  C   UNL d   1      -1.107   0.998   2.433  0.00  0.00     0.008 A 
ENDBRANCH   5   6
BRANCH   5  12
ATOM     12  C   UNL d   1       0.219   2.604  -0.408  0.00  0.00     0.003 C 
ATOM     13  C   UNL d   1      -0.049   2.619  -1.919  0.00  0.00     0.006 C 
ATOM     14  C   UNL d   1       0.501   3.954  -2.415  0.00  0.00     0.000 C 
ATOM     15  C   UNL d   1       1.436   4.472  -1.327  0.00  0.00     0.000 C 
ATOM     16  C   UNL d   1       1.547   3.354  -0.296  0.00  0.00     0.006 C 
ENDBRANCH   5  12
ENDBRANCH   1   5
BRANCH   2  17
ATOM     17  C   UNL d   1       1.434  -2.293  -0.772  0.00  0.00     0.085 C 
ATOM     18  C   UNL d   1       2.223  -2.216  -2.097  0.00  0.00     0.034 C 
ATOM     19  C   UNL d   1       1.409  -2.416  -3.404  0.00  0.00    -0.045 C 
ATOM     20  C   UNL d   1       0.681  -1.117  -3.794  0.00  0.00     0.015 C 
ATOM     21  C   UNL d   1       2.394  -2.753  -4.545  0.00  0.00     0.015 C 
ATOM     22  C   UNL d   1       0.394  -3.580  -3.273  0.00  0.00     0.013 C 
ATOM     23  C   UNL d   1      -0.419  -3.520  -1.972  0.00  0.00    -0.016 C 
ATOM     24  C   UNL d   1       0.544  -3.547  -0.778  0.00  0.00     0.029 C 
ATOM     25  C   UNL d   1      -1.437  -4.653  -1.888  0.00  0.00     0.010 C 
ENDBRANCH   2  17
TORSDOF 4
