REMARK  4 active torsions:
REMARK  status: ('A' for Active; 'I' for Inactive)
REMARK    1  A    between atoms: C_2  and  C_1 
REMARK       I    between atoms: N_7  and  C_2 
REMARK    2  A    between atoms: C_3  and  C_9 
REMARK    3  A    between atoms: C_6  and  C_10 
REMARK    4  A    between atoms: C_14  and  N_7 
ROOT
ATOM      1  C   UNL d   1      -3.223   0.340   0.281  0.00  0.00     0.259 C 
ATOM      2  N   UNL d   1      -3.744   1.502  -0.258  0.00  0.00    -0.309 N 
ATOM      3  O   UNL d   1      -3.875  -0.588   0.749  0.00  0.00    -0.267 OA
ATOM      4  H   UNL d   1      -3.196   2.013  -0.939  0.00  0.00     0.170 HD
ENDROOT
BRANCH   1   5
ATOM      5  C   UNL d   1      -1.756   0.163   0.172  0.00  0.00     0.054 A 
ATOM      6  C   UNL d   1      -0.825   1.105   0.584  0.00  0.00     0.021 A 
ATOM      7  N   UNL d   1       0.517   0.886   0.495  0.00  0.00    -0.355 N 
ATOM      8  C   UNL d   1      -1.215   2.421   1.196  0.00  0.00     0.069 C 
ATOM      9  C   UNL d   1       0.967  -0.318   0.035  0.00  0.00     0.117 A 
ATOM     10  HN  UNL d   1       1.178   1.613   0.769  1.00  0.00     0.166 HD
ATOM     11  C   UNL d   1       0.083  -1.324  -0.348  0.00  0.00     0.035 A 
ATOM     12  C   UNL d   1      -1.288  -1.081  -0.281  0.00  0.00     0.021 A 
BRANCH   9  13
ATOM     13  C   UNL d   1       2.467  -0.580  -0.052  0.00  0.00     0.432 C 
ATOM     14  F   UNL d   1       3.243   0.482   0.307  0.00  0.00    -0.165 F 
ATOM     15  F   UNL d   1       2.863  -1.616   0.746  0.00  0.00    -0.165 F 
ATOM     16  F   UNL d   1       2.863  -0.920  -1.313  0.00  0.00    -0.165 F 
ENDBRANCH   9  13
ENDBRANCH   1   5
BRANCH   2  17
ATOM     17  C   UNL d   1      -5.121   1.718  -0.395  0.00  0.00     0.107 C 
ATOM     18  N   UNL d   1      -5.485   2.347  -1.531  0.00  0.00    -0.351 N 
ATOM     19  C   UNL d   1      -6.805   2.336  -1.841  0.00  0.00     0.106 C 
ATOM     20  HN  UNL d   1      -4.799   2.809  -2.129  1.00  0.00     0.166 HD
ATOM     21  C   UNL d   1      -7.790   1.775  -1.041  0.00  0.00     0.063 C 
ATOM     22  C   UNL d   1      -7.396   1.281   0.204  0.00  0.00     0.021 C 
ATOM     23  C   UNL d   1      -6.044   1.245   0.528  0.00  0.00     0.049 C 
BRANCH  21  24
ATOM     24  C   UNL d   1      -9.201   1.643  -1.521  0.00  0.00     0.418 C 
ATOM     25  F   UNL d   1      -9.373   2.025  -2.817  0.00  0.00    -0.166 F 
ATOM     26  F   UNL d   1      -9.646   0.355  -1.457  0.00  0.00    -0.166 F 
ATOM     27  F   UNL d   1     -10.082   2.378  -0.792  0.00  0.00    -0.166 F 
ENDBRANCH  21  24
ENDBRANCH   2  17
TORSDOF 4
