REMARK  9 active torsions:
REMARK  status: ('A' for Active; 'I' for Inactive)
REMARK    1  A    between atoms: O_5  and  C_1 
REMARK       I    between atoms: N_6  and  C_1 
REMARK    2  A    between atoms: C_2  and  C_7 
REMARK    3  A    between atoms: O_8  and  C_2 
REMARK    4  A    between atoms: C_10  and  O_5 
REMARK    5  A    between atoms: C_11  and  N_6 
REMARK    6  A    between atoms: C_7  and  C_9 
REMARK    7  A    between atoms: O_12  and  C_7 
REMARK    8  A    between atoms: C_9  and  C_11 
REMARK    9  A    between atoms: C_13  and  C_10 
ROOT
ATOM      1  C   UNL d   1       1.136   0.070  -0.325  0.00  0.00     0.360 C 
ATOM      2  O   UNL d   1       0.720  -0.579  -1.279  0.00  0.00    -0.239 OA
ATOM      3  N   UNL d   1       2.411  -0.105   0.115  0.00  0.00    -0.337 N 
ATOM      4  H   UNL d   1       2.946  -0.742  -0.460  0.00  0.00     0.164 HD
ENDROOT
BRANCH   3   5
ATOM      5  C   UNL d   1       2.993   0.386   1.348  0.00  0.00     0.128 C 
BRANCH   5   6
ATOM      6  C   UNL d   1       2.841  -0.630   2.485  0.00  0.00     0.062 C 
BRANCH   6   7
ATOM      7  C   UNL d   1       3.299  -2.043   2.114  0.00  0.00     0.217 C 
BRANCH   7   8
ATOM      8  C   UNL d   1       4.796  -2.168   1.820  0.00  0.00     0.169 C 
ATOM      9  O   UNL d   1       5.578  -1.244   1.667  0.00  0.00    -0.648 OA
BRANCH   8  10
ATOM     10  O   UNL d   1       5.170  -3.471   1.741  0.00  0.00    -0.775 OA
ATOM     11  H   UNL d   1       4.407  -4.050   1.962  0.00  0.00     0.167 HD
ENDBRANCH   8  10
ENDBRANCH   7   8
BRANCH   7  12
ATOM     12  O   UNL d   1       2.986  -2.972   3.160  0.00  0.00    -0.385 OA
ATOM     13  H   UNL d   1       3.349  -2.609   3.991  0.00  0.00     0.210 HD
ENDBRANCH   7  12
ENDBRANCH   6   7
ENDBRANCH   5   6
ENDBRANCH   3   5
BRANCH   1  14
ATOM     14  O   UNL d   1       0.450   1.022   0.344  0.00  0.00    -0.299 OA
BRANCH  14  15
ATOM     15  C   UNL d   1      -0.782   1.406  -0.278  0.00  0.00     0.219 C 
BRANCH  15  16
ATOM     16  C   UNL d   1      -1.837   1.608   0.777  0.00  0.00    -0.034 A 
ATOM     17  C   UNL d   1      -2.100   2.884   1.294  0.00  0.00     0.009 A 
ATOM     18  C   UNL d   1      -3.106   3.065   2.244  0.00  0.00     0.001 A 
ATOM     19  C   UNL d   1      -3.850   1.973   2.689  0.00  0.00     0.000 A 
ATOM     20  C   UNL d   1      -3.584   0.698   2.193  0.00  0.00     0.001 A 
ATOM     21  C   UNL d   1      -2.578   0.515   1.245  0.00  0.00     0.009 A 
ENDBRANCH  15  16
ENDBRANCH  14  15
ENDBRANCH   1  14
TORSDOF 9
