REMARK  3 active torsions:
REMARK  status: ('A' for Active; 'I' for Inactive)
REMARK    1  A    between atoms: C_2  and  N_1 
REMARK    2  A    between atoms: N_6  and  C_3 
REMARK       I    between atoms: C_4  and  N_5 
REMARK       I    between atoms: N_7  and  C_4 
REMARK    3  A    between atoms: C_8  and  N_7 
ROOT
ATOM      1  C   UNL d   1      -2.494  -2.955   4.151  0.00  0.00     0.322 C 
ATOM      2  N   UNL d   1      -2.515  -1.575   3.993  0.00  0.00    -0.332 N 
ATOM      3  N   UNL d   1      -1.240   0.016   1.866  0.00  0.00    -0.364 N 
ATOM      4  N   UNL d   1      -1.883  -3.421   5.296  0.00  0.00    -0.309 N 
ATOM      5  O   UNL d   1      -3.040  -3.669   3.311  0.00  0.00    -0.247 OA
ATOM      6  C   UNL d   1      -3.253  -1.061   2.827  0.00  0.00     0.147 C 
ATOM      7  C   UNL d   1      -2.372  -0.895   1.577  0.00  0.00     0.144 C 
ATOM      8  C   UNL d   1      -0.257  -0.467   4.089  0.00  0.00     0.040 C 
ATOM      9  C   UNL d   1      -1.667  -0.592   4.669  0.00  0.00     0.129 C 
ATOM     10  C   UNL d   1      -0.133  -0.650   2.576  0.00  0.00     0.126 C 
ATOM     11  H   UNL d   1      -1.527  -2.736   5.938  0.00  0.00     0.170 HD
ENDROOT
BRANCH   4  12
ATOM     12  C   UNL d   1      -1.965  -4.744   5.801  0.00  0.00     0.037 A 
ATOM     13  C   UNL d   1      -2.500  -5.812   5.077  0.00  0.00     0.036 A 
ATOM     14  C   UNL d   1      -2.721  -7.060   5.672  0.00  0.00    -0.059 A 
ATOM     15  C   UNL d   1      -3.422  -8.146   4.910  0.00  0.00     0.048 C 
ATOM     16  C   UNL d   1      -2.345  -7.256   7.003  0.00  0.00     0.013 A 
ATOM     17  C   UNL d   1      -1.749  -6.221   7.734  0.00  0.00    -0.059 A 
ATOM     18  C   UNL d   1      -1.561  -4.969   7.126  0.00  0.00     0.036 A 
ATOM     19  C   UNL d   1      -1.394  -6.452   9.174  0.00  0.00     0.048 C 
ENDBRANCH   4  12
BRANCH   3  20
ATOM     20  C   UNL d   1      -0.935   1.043   0.979  0.00  0.00     0.137 A 
ATOM     21  C   UNL d   1      -1.852   1.952   0.440  0.00  0.00     0.146 A 
ATOM     22  C   UNL d   1      -1.470   2.950  -0.468  0.00  0.00     0.041 A 
ATOM     23  C   UNL d   1      -0.134   3.055  -0.817  0.00  0.00     0.020 A 
ATOM     24  C   UNL d   1       0.743   2.165  -0.234  0.00  0.00     0.090 A 
ATOM     25  N   UNL d   1       0.370   1.190   0.631  0.00  0.00    -0.350 N 
ATOM     26  HN  UNL d   1       1.073   0.563   1.022  1.00  0.00     0.166 HD
BRANCH  21  27
ATOM     27  N   UNL d   1      -3.229   1.983   0.871  0.00  0.00    -0.112 N 
ATOM     28  O   UNL d   1      -3.459   2.293   2.046  0.00  0.00    -0.532 OA
ATOM     29  O   UNL d   1      -4.087   1.747   0.009  0.00  0.00    -0.532 OA
ENDBRANCH  21  27
ENDBRANCH   3  20
TORSDOF 3
