REMARK  5 active torsions:
REMARK  status: ('A' for Active; 'I' for Inactive)
REMARK    1  A    between atoms: C_9  and  N_1 
REMARK    2  A    between atoms: C_8  and  C_2 
REMARK    3  A    between atoms: N_7  and  C_10 
REMARK    4  A    between atoms: O_19  and  C_8 
REMARK    5  A    between atoms: C_21  and  O_19 
ROOT
ATOM      1  N   UNL d   1      -0.277  -1.079   0.080  0.00  0.00    -0.260 N 
ATOM      2  C   UNL d   1      -0.339   1.145  -0.034  0.00  0.00     0.087 C 
ATOM      3  N   UNL d   1       1.002  -0.675   0.267  0.00  0.00    -0.297 N 
ATOM      4  HN  UNL d   1       1.808  -1.259   0.490  1.00  0.00     0.187 HD
ATOM      5  C   UNL d   1      -1.143   0.002  -0.030  0.00  0.00     0.049 C 
ATOM      6  C   UNL d   1       0.984   0.646   0.099  0.00  0.00     0.041 C 
ATOM      7  C   UNL d   1      -2.627  -0.116  -0.040  0.00  0.00     0.071 C 
ATOM      8  C   UNL d   1       2.272   1.390   0.084  0.00  0.00     0.071 C 
ENDROOT
BRANCH   1   9
ATOM      9  C   UNL d   1      -0.541  -2.479   0.030  0.00  0.00     0.056 A 
ATOM     10  C   UNL d   1       0.293  -3.344   0.762  0.00  0.00     0.034 A 
ATOM     11  C   UNL d   1       0.077  -4.722   0.749  0.00  0.00     0.038 A 
ATOM     12  C   UNL d   1      -0.957  -5.248  -0.039  0.00  0.00     0.103 A 
ATOM     13  C   UNL d   1      -1.770  -4.398  -0.801  0.00  0.00     0.038 A 
ATOM     14  C   UNL d   1      -1.563  -3.014  -0.764  0.00  0.00     0.034 A 
BRANCH  12  15
ATOM     15  N   UNL d   1      -1.179  -6.699  -0.074  0.00  0.00    -0.116 N 
ATOM     16  O   UNL d   1      -0.446  -7.412   0.625  0.00  0.00    -0.532 OA
ATOM     17  O   UNL d   1      -2.091  -7.124  -0.797  0.00  0.00    -0.532 OA
ENDBRANCH  12  15
ENDBRANCH   1   9
BRANCH   2  18
ATOM     18  C   UNL d   1      -0.769   2.532  -0.166  0.00  0.00     0.297 C 
ATOM     19  O   UNL d   1      -1.931   2.873  -0.352  0.00  0.00    -0.259 OA
BRANCH  18  20
ATOM     20  O   UNL d   1       0.280   3.401  -0.132  0.00  0.00    -0.318 OA
BRANCH  20  21
ATOM     21  C   UNL d   1       0.034   4.705  -0.666  0.00  0.00     0.174 C 
ATOM     22  C   UNL d   1       0.260   4.650  -2.167  0.00  0.00     0.034 C 
ENDBRANCH  20  21
ENDBRANCH  18  20
ENDBRANCH   2  18
TORSDOF 5
