REMARK  8 active torsions:
REMARK  status: ('A' for Active; 'I' for Inactive)
REMARK    1  A    between atoms: O_11  and  C_2 
REMARK       I    between atoms: N_3  and  C_6 
REMARK    2  A    between atoms: C_7  and  N_3 
REMARK    3  A    between atoms: C_13  and  N_3 
REMARK    4  A    between atoms: C_6  and  C_17 
REMARK    5  A    between atoms: C_17  and  O_11 
REMARK    6  A    between atoms: C_14  and  C_13 
REMARK    7  A    between atoms: O_21  and  C_14 
REMARK    8  A    between atoms: C_28  and  O_21 
ROOT
ATOM      1  C   UNL d   1      -1.237   1.653   2.690  0.00  0.00     0.101 A 
ATOM      2  C   UNL d   1      -1.021   2.081   1.376  0.00  0.00     0.164 A 
ATOM      3  N   UNL d   1      -1.465   1.412   0.285  0.00  0.00    -0.340 N 
ATOM      4  HN  UNL d   1      -1.281   1.755  -0.658  1.00  0.00     0.167 HD
ATOM      5  C   UNL d   1      -1.946   0.453   2.892  0.00  0.00    -0.035 A 
ATOM      6  C   UNL d   1      -0.736   2.428   3.782  0.00  0.00     0.104 C 
ATOM      7  N   UNL d   1      -0.338   3.029   4.689  0.00  0.00    -0.191 NA
ATOM      8  C   UNL d   1      -2.166   0.266   0.496  0.00  0.00     0.008 A 
ATOM      9  C   UNL d   1      -2.413  -0.236   1.769  0.00  0.00     0.033 A 
ATOM     10  C   UNL d   1      -2.213  -0.137   4.250  0.00  0.00     0.050 C 
ATOM     11  C   UNL d   1      -2.672  -0.455  -0.715  0.00  0.00     0.068 C 
ENDROOT
BRANCH   2  12
ATOM     12  O   UNL d   1      -0.275   3.235   1.186  0.00  0.00    -0.325 OA
BRANCH  12  13
ATOM     13  C   UNL d   1      -0.165   3.641  -0.177  0.00  0.00     0.280 C 
BRANCH  13  14
ATOM     14  C   UNL d   1       0.590   4.980  -0.271  0.00  0.00     0.249 C 
ATOM     15  N   UNL d   1       1.988   4.957  -0.204  0.00  0.00    -0.307 N 
ATOM     16  O   UNL d   1      -0.059   6.029  -0.372  0.00  0.00    -0.271 OA
BRANCH  15  17
ATOM     17  C   UNL d   1       2.735   6.166  -0.385  0.00  0.00     0.039 A 
ATOM     18  C   UNL d   1       3.719   6.537   0.541  0.00  0.00     0.053 A 
ATOM     19  C   UNL d   1       4.491   7.681   0.329  0.00  0.00     0.036 A 
ATOM     20 CL   UNL d   1       5.678   8.137   1.490  0.00  0.00    -0.084 Cl
ATOM     21  C   UNL d   1       4.313   8.455  -0.815  0.00  0.00     0.024 A 
ATOM     22  C   UNL d   1       3.325   8.103  -1.734  0.00  0.00     0.004 A 
ATOM     23  C   UNL d   1       2.527   6.976  -1.510  0.00  0.00     0.030 A 
ENDBRANCH  15  17
BRANCH  15  24
ATOM     24  C   UNL d   1       2.775   3.721  -0.031  0.00  0.00     0.243 C 
BRANCH  24  25
ATOM     25  C   UNL d   1       3.177   2.988  -1.318  0.00  0.00     0.277 C 
ATOM     26  O   UNL d   1       3.846   1.959  -1.302  0.00  0.00    -0.263 OA
BRANCH  25  27
ATOM     27  O   UNL d   1       2.756   3.613  -2.451  0.00  0.00    -0.321 OA
BRANCH  27  28
ATOM     28  C   UNL d   1       3.400   3.212  -3.675  0.00  0.00     0.174 C 
ATOM     29  C   UNL d   1       2.484   2.369  -4.543  0.00  0.00     0.034 C 
ENDBRANCH  27  28
ENDBRANCH  25  27
ENDBRANCH  24  25
ENDBRANCH  15  24
ENDBRANCH  13  14
ENDBRANCH  12  13
ENDBRANCH   2  12
TORSDOF 8
