REMARK  6 active torsions:
REMARK  status: ('A' for Active; 'I' for Inactive)
REMARK    1  A    between atoms: O_10  and  C_3 
REMARK    2  A    between atoms: S_9  and  C_4 
REMARK    3  A    between atoms: C_14  and  C_5 
REMARK    4  A    between atoms: C_11  and  S_9 
REMARK    5  A    between atoms: C_13  and  C_11 
REMARK    6  A    between atoms: C_21  and  C_14 
ROOT
ATOM      1  N   UNL d   1      -0.591   1.305   0.115  0.00  0.00    -0.317 N 
ATOM      2  HN  UNL d   1      -1.058   2.212   0.136  1.00  0.00     0.170 HD
ATOM      3  C   UNL d   1      -1.262   0.148   0.057  0.00  0.00     0.150 A 
ATOM      4  C   UNL d   1       0.741   1.176   0.144  0.00  0.00     0.146 A 
ATOM      5  C   UNL d   1      -0.716  -1.121   0.032  0.00  0.00     0.015 A 
ATOM      6  N   UNL d   1       1.397   0.006   0.127  0.00  0.00    -0.340 N 
ATOM      7  HN  UNL d   1       2.416  -0.025   0.154  1.00  0.00     0.167 HD
ATOM      8  C   UNL d   1       0.668  -1.132   0.071  0.00  0.00     0.018 A 
ATOM      9  C   UNL d   1       1.467  -2.402   0.027  0.00  0.00     0.069 C 
ENDROOT
BRANCH   4  10
ATOM     10  S   UNL d   1       1.756   2.629   0.102  0.00  0.00    -0.089 SA
BRANCH  10  11
ATOM     11  C   UNL d   1       0.777   3.745   1.149  0.00  0.00     0.121 C 
BRANCH  11  12
ATOM     12  C   UNL d   1       1.521   5.045   1.379  0.00  0.00    -0.048 A 
ATOM     13  C   UNL d   1       1.413   6.101   0.459  0.00  0.00     0.009 A 
ATOM     14  C   UNL d   1       2.139   7.281   0.641  0.00  0.00     0.024 A 
ATOM     15  C   UNL d   1       2.980   7.414   1.743  0.00  0.00     0.034 A 
ATOM     16  C   UNL d   1       3.099   6.378   2.666  0.00  0.00     0.024 A 
ATOM     17 CL   UNL d   1       3.884   8.863   1.959  0.00  0.00    -0.084 Cl
ATOM     18  C   UNL d   1       2.375   5.196   2.484  0.00  0.00     0.009 A 
ENDBRANCH  11  12
ENDBRANCH  10  11
ENDBRANCH   4  10
BRANCH   3  19
ATOM     19  O   UNL d   1      -2.611   0.318   0.007  0.00  0.00    -0.346 OA
ATOM     20  H   UNL d   1      -2.673   1.289   0.002  0.00  0.00     0.219 HD
ENDBRANCH   3  19
BRANCH   5  21
ATOM     21  C   UNL d   1      -1.565  -2.361  -0.034  0.00  0.00     0.044 C 
BRANCH  21  22
ATOM     22  C   UNL d   1      -1.864  -2.996   1.329  0.00  0.00     0.000 C 
ATOM     23  C   UNL d   1      -2.783  -2.157   2.205  0.00  0.00     0.005 C 
ENDBRANCH  21  22
ENDBRANCH   5  21
TORSDOF 6
