REMARK  2 active torsions:
REMARK  status: ('A' for Active; 'I' for Inactive)
REMARK    1  A    between atoms: C_10  and  N_6 
REMARK    2  A    between atoms: C_11  and  N_8 
ROOT
ATOM      1  C   UNL d   1       2.482  -0.075   0.282  0.00  0.00     0.083 C 
ATOM      2  C   UNL d   1       0.148  -0.824   0.211  0.00  0.00     0.079 C 
ATOM      3  S   UNL d   1       1.604  -1.422   0.960  0.00  0.00    -0.054 SA
ATOM      4  C   UNL d   1       1.543   1.054   0.155  0.00  0.00    -0.015 C 
ATOM      5  C   UNL d   1       0.274   0.635   0.069  0.00  0.00    -0.015 C 
ATOM      6  N   UNL d   1       3.713  -0.033  -0.117  0.00  0.00    -0.350 N 
ATOM      7  HN  UNL d   1       4.086   0.855  -0.451  1.00  0.00     0.166 HD
ATOM      8  N   UNL d   1      -0.863  -1.503  -0.192  0.00  0.00    -0.379 N 
ATOM      9  HN  UNL d   1      -1.651  -1.024  -0.626  1.00  0.00     0.160 HD
ATOM     10  C   UNL d   1       1.970   2.477   0.064  0.00  0.00     0.042 C 
ATOM     11  C   UNL d   1      -0.893   1.535  -0.132  0.00  0.00     0.042 C 
ATOM     12  C   UNL d   1      -0.547   2.987   0.225  0.00  0.00     0.005 C 
ATOM     13  C   UNL d   1       0.819   3.422  -0.321  0.00  0.00     0.005 C 
ENDROOT
BRANCH   6  14
ATOM     14  C   UNL d   1       4.558  -1.155  -0.111  0.00  0.00     0.032 A 
ATOM     15  C   UNL d   1       4.200  -2.401  -0.647  0.00  0.00     0.029 A 
ATOM     16  C   UNL d   1       5.080  -3.486  -0.618  0.00  0.00     0.002 A 
ATOM     17  C   UNL d   1       6.367  -3.319  -0.120  0.00  0.00     0.000 A 
ATOM     18  C   UNL d   1       6.769  -2.068   0.345  0.00  0.00     0.002 A 
ATOM     19  C   UNL d   1       5.867  -0.998   0.352  0.00  0.00     0.029 A 
ENDBRANCH   6  14
BRANCH   8  20
ATOM     20  C   UNL d   1      -0.899  -2.963  -0.035  0.00  0.00     0.082 C 
ATOM     21  C   UNL d   1      -0.103  -3.664  -1.150  0.00  0.00     0.025 C 
ATOM     22  C   UNL d   1      -0.771  -3.603  -2.522  0.00  0.00     0.002 C 
ATOM     23  C   UNL d   1      -2.219  -4.074  -2.469  0.00  0.00     0.000 C 
ATOM     24  C   UNL d   1      -3.011  -3.292  -1.428  0.00  0.00     0.002 C 
ATOM     25  C   UNL d   1      -2.370  -3.400  -0.046  0.00  0.00     0.025 C 
ENDBRANCH   8  20
TORSDOF 2
