REMARK  4 active torsions:
REMARK  status: ('A' for Active; 'I' for Inactive)
REMARK    1  A    between atoms: C_3  and  N_1 
REMARK    2  A    between atoms: N_6  and  C_3 
REMARK    3  A    between atoms: C_9  and  N_4 
REMARK    4  A    between atoms: C_11  and  N_6 
ROOT
ATOM      1  N   UNL d   1       0.070  -1.225  -0.135  0.00  0.00    -0.156 N 
ATOM      2  C   UNL d   1       0.699   0.036  -0.022  0.00  0.00     0.683 C 
ATOM      3  N   UNL d   1       1.977   0.167  -0.075  0.00  0.00    -0.192 N 
ATOM      4  HN  UNL d   1       2.553  -0.657  -0.249  1.00  0.00     0.184 HD
ATOM      5  N   UNL d   1      -0.263   1.000   0.173  0.00  0.00    -0.224 N 
ATOM      6  C   UNL d   1      -1.319  -1.046   0.275  0.00  0.00     0.170 C 
ATOM      7  C   UNL d   1      -1.590   0.440   0.049  0.00  0.00     0.159 C 
ATOM      8  H   UNL d   1      -0.069   1.916  -0.208  0.00  0.00     0.177 HD
ENDROOT
BRANCH   1   9
ATOM      9  C   UNL d   1       0.645  -2.471  -0.344  0.00  0.00     0.193 C 
ATOM     10  S   UNL d   1       0.063  -3.899   0.335  0.00  0.00    -0.040 SA
BRANCH   9  11
ATOM     11  N   UNL d   1       1.775  -2.579  -1.106  0.00  0.00    -0.333 N 
ATOM     12  H   UNL d   1       2.338  -3.392  -0.888  0.00  0.00     0.168 HD
BRANCH  11  13
ATOM     13  C   UNL d   1       2.102  -1.931  -2.317  0.00  0.00     0.034 A 
ATOM     14  C   UNL d   1       3.399  -2.118  -2.814  0.00  0.00     0.032 A 
ATOM     15  C   UNL d   1       3.779  -1.552  -4.033  0.00  0.00     0.044 A 
ATOM     16  C   UNL d   1       2.854  -0.820  -4.764  0.00  0.00     0.116 A 
ATOM     17  C   UNL d   1       1.557  -0.641  -4.298  0.00  0.00     0.044 A 
ATOM     18  F   UNL d   1       3.212  -0.289  -5.940  0.00  0.00    -0.206 F 
ATOM     19  C   UNL d   1       1.180  -1.197  -3.071  0.00  0.00     0.032 A 
ENDBRANCH  11  13
ENDBRANCH   9  11
ENDBRANCH   1   9
BRANCH   3  20
ATOM     20  C   UNL d   1       2.604   1.409   0.100  0.00  0.00     0.049 A 
ATOM     21  C   UNL d   1       2.302   2.277   1.160  0.00  0.00     0.033 A 
ATOM     22  C   UNL d   1       2.979   3.490   1.305  0.00  0.00     0.044 A 
ATOM     23  C   UNL d   1       3.990   3.818   0.412  0.00  0.00     0.116 A 
ATOM     24  C   UNL d   1       4.337   2.956  -0.621  0.00  0.00     0.044 A 
ATOM     25  F   UNL d   1       4.648   4.976   0.556  0.00  0.00    -0.206 F 
ATOM     26  C   UNL d   1       3.641   1.754  -0.774  0.00  0.00     0.033 A 
ENDBRANCH   3  20
TORSDOF 4
