REMARK  4 active torsions:
REMARK  status: ('A' for Active; 'I' for Inactive)
REMARK    1  A    between atoms: C_2  and  C_1 
REMARK       I    between atoms: N_4  and  C_1 
REMARK       I    between atoms: C_3  and  N_6 
REMARK       I    between atoms: N_12  and  C_3 
REMARK    2  A    between atoms: N_6  and  N_4 
REMARK    3  A    between atoms: C_13  and  N_12 
REMARK    4  A    between atoms: C_14  and  C_13 
ROOT
ATOM      1  C   UNL d   1       0.900   0.023   0.114  0.00  0.00     0.277 C 
ATOM      2  N   UNL d   1       0.244   1.092   0.692  0.00  0.00    -0.261 N 
ATOM      3  O   UNL d   1       0.271  -0.885  -0.434  0.00  0.00    -0.265 OA
ATOM      4  H   UNL d   1       0.734   1.834   1.190  0.00  0.00     0.190 HD
ENDROOT
BRANCH   2   5
ATOM      5  N   UNL d   1      -1.156   1.121   0.733  0.00  0.00    -0.249 N 
ATOM      6  C   UNL d   1      -1.735   2.263   1.241  0.00  0.00     0.334 C 
ATOM      7  O   UNL d   1      -1.081   3.179   1.730  0.00  0.00    -0.246 OA
ATOM      8  N   UNL d   1      -3.102   2.236   1.183  0.00  0.00    -0.342 N 
ATOM      9  H   UNL d   1      -3.559   1.419   0.805  0.00  0.00     0.164 HD
ATOM     10  H   UNL d   1      -1.625   0.578   0.016  0.00  0.00     0.192 HD
BRANCH   8  11
ATOM     11  C   UNL d   1      -3.915   3.314   1.706  0.00  0.00     0.124 C 
BRANCH  11  12
ATOM     12  C   UNL d   1      -4.232   4.370   0.650  0.00  0.00     0.015 C 
ATOM     13  C   UNL d   1      -5.083   3.821  -0.486  0.00  0.00     0.006 C 
ENDBRANCH  11  12
ENDBRANCH   8  11
ENDBRANCH   2   5
BRANCH   1  14
ATOM     14  C   UNL d   1       2.354   0.049   0.197  0.00  0.00     0.074 A 
ATOM     15  S   UNL d   1       3.214   1.406   0.801  0.00  0.00    -0.097 SA
ATOM     16  C   UNL d   1       4.728   0.658   0.537  0.00  0.00     0.050 A 
ATOM     17  C   UNL d   1       4.593  -0.607   0.011  0.00  0.00     0.009 A 
ATOM     18  C   UNL d   1       3.225  -0.956  -0.187  0.00  0.00     0.025 A 
ENDBRANCH   1  14
TORSDOF 4
