REMARK  5 active torsions:
REMARK  status: ('A' for Active; 'I' for Inactive)
REMARK    1  A    between atoms: N_2  and  S_1 
REMARK    2  A    between atoms: C_5  and  S_1 
REMARK    3  A    between atoms: C_20  and  C_4 
REMARK    4  A    between atoms: C_6  and  C_10 
REMARK    5  A    between atoms: C_7  and  C_9 
ROOT
ATOM      1  S   UNL d   1       0.909   0.108  -0.151  0.00  0.00     0.244 S 
ATOM      2  O   UNL d   1       2.345   0.214  -0.274  0.00  0.00    -0.206 OA
ATOM      3  O   UNL d   1       0.077   1.294  -0.229  0.00  0.00    -0.206 OA
ENDROOT
BRANCH   1   4
ATOM      4  N   UNL d   1       0.547  -0.684   1.311  0.00  0.00    -0.193 NA
ATOM      5  C   UNL d   1       0.999  -2.102   1.423  0.00  0.00     0.141 C 
ATOM      6  C   UNL d   1       0.676  -2.665   2.788  0.00  0.00    -0.021 A 
ATOM      7  C   UNL d   1       0.667  -4.053   3.154  0.00  0.00     0.017 A 
ATOM      8  C   UNL d   1       0.390  -1.868   3.876  0.00  0.00    -0.008 A 
ATOM      9  C   UNL d   1       0.457  -4.235   4.503  0.00  0.00     0.051 A 
ATOM     10  S   UNL d   1       0.199  -2.751   5.316  0.00  0.00    -0.106 SA
ATOM     11  C   UNL d   1       0.260  -0.384   3.820  0.00  0.00     0.062 C 
ATOM     12  C   UNL d   1       0.831   0.180   2.508  0.00  0.00     0.114 C 
BRANCH   5  13
ATOM     13  C   UNL d   1       2.477  -2.417   1.236  0.00  0.00    -0.035 A 
ATOM     14  C   UNL d   1       2.877  -3.229   0.160  0.00  0.00     0.011 A 
ATOM     15  C   UNL d   1       4.216  -3.591  -0.005  0.00  0.00     0.024 A 
ATOM     16  C   UNL d   1       5.168  -3.161   0.914  0.00  0.00     0.034 A 
ATOM     17  C   UNL d   1       4.800  -2.352   1.982  0.00  0.00     0.024 A 
ATOM     18 CL   UNL d   1       6.805  -3.662   0.750  0.00  0.00    -0.084 Cl
ATOM     19  C   UNL d   1       3.466  -1.977   2.137  0.00  0.00     0.011 A 
ENDBRANCH   5  13
ENDBRANCH   1   4
BRANCH   1  20
ATOM     20  C   UNL d   1       0.323  -0.999  -1.418  0.00  0.00     0.076 A 
ATOM     21  C   UNL d   1      -1.039  -1.306  -1.478  0.00  0.00     0.041 A 
ATOM     22  C   UNL d   1      -1.517  -2.172  -2.472  0.00  0.00     0.050 A 
ATOM     23  C   UNL d   1      -0.605  -2.723  -3.394  0.00  0.00     0.032 A 
ATOM     24  C   UNL d   1       0.764  -2.403  -3.350  0.00  0.00     0.050 A 
ATOM     25  C   UNL d   1       1.221  -1.530  -2.352  0.00  0.00     0.041 A 
BRANCH  22  26
ATOM     26  C   UNL d   1      -2.991  -2.499  -2.581  0.00  0.00     0.417 C 
ATOM     27  F   UNL d   1      -3.754  -1.877  -1.641  0.00  0.00    -0.166 F 
ATOM     28  F   UNL d   1      -3.510  -2.143  -3.786  0.00  0.00    -0.166 F 
ATOM     29  F   UNL d   1      -3.234  -3.830  -2.442  0.00  0.00    -0.166 F 
ENDBRANCH  22  26
BRANCH  24  30
ATOM     30  C   UNL d   1       1.713  -2.978  -4.380  0.00  0.00     0.417 C 
ATOM     31  F   UNL d   1       3.003  -2.579  -4.211  0.00  0.00    -0.166 F 
ATOM     32  F   UNL d   1       1.737  -4.338  -4.353  0.00  0.00    -0.166 F 
ATOM     33  F   UNL d   1       1.371  -2.630  -5.649  0.00  0.00    -0.166 F 
ENDBRANCH  24  30
ENDBRANCH   1  20
TORSDOF 5
