REMARK  4 active torsions:
REMARK  status: ('A' for Active; 'I' for Inactive)
REMARK    1  A    between atoms: C_8  and  N_1 
REMARK    2  A    between atoms: C_13  and  C_6 
REMARK    3  A    between atoms: C_7  and  C_10 
REMARK    4  A    between atoms: C_9  and  C_14 
ROOT
ATOM      1  N   UNL d   1      -0.173  -1.259   0.072  0.00  0.00    -0.180 N 
ATOM      2  N   UNL d   1       1.099  -0.779   0.240  0.00  0.00    -0.266 N 
ATOM      3  HN  UNL d   1       1.950  -1.293   0.464  1.00  0.00     0.190 HD
ATOM      4  C   UNL d   1      -1.057  -0.241  -0.217  0.00  0.00     0.394 A 
ATOM      5  O   UNL d   1      -0.308   0.910  -0.220  0.00  0.00    -0.240 OA
ATOM      6  C   UNL d   1       0.948   0.491   0.043  0.00  0.00     0.178 A 
ATOM      7  O   UNL d   1      -2.255  -0.245  -0.439  0.00  0.00    -0.236 OA
ENDROOT
BRANCH   1   8
ATOM      8  C   UNL d   1      -0.412  -2.643   0.059  0.00  0.00     0.132 A 
ATOM      9  N   UNL d   1      -1.615  -3.116  -0.334  0.00  0.00    -0.350 N 
ATOM     10  C   UNL d   1      -1.783  -4.458  -0.420  0.00  0.00     0.106 A 
ATOM     11  HN  UNL d   1      -2.378  -2.479  -0.560  1.00  0.00     0.166 HD
ATOM     12  C   UNL d   1      -0.800  -5.385  -0.115  0.00  0.00     0.063 A 
ATOM     13  C   UNL d   1       0.428  -4.891   0.321  0.00  0.00     0.021 A 
ATOM     14  C   UNL d   1       0.624  -3.514   0.406  0.00  0.00     0.051 A 
BRANCH  12  15
ATOM     15  C   UNL d   1      -1.043  -6.854  -0.260  0.00  0.00     0.418 C 
ATOM     16  F   UNL d   1      -2.287  -7.163  -0.717  0.00  0.00    -0.166 F 
ATOM     17  F   UNL d   1      -0.172  -7.439  -1.130  0.00  0.00    -0.166 F 
ATOM     18  F   UNL d   1      -0.898  -7.524   0.916  0.00  0.00    -0.166 F 
ENDBRANCH  12  15
ENDBRANCH   1   8
BRANCH   6  19
ATOM     19  C   UNL d   1       2.016   1.497   0.036  0.00  0.00     0.018 A 
ATOM     20  C   UNL d   1       3.341   1.061   0.186  0.00  0.00     0.032 A 
ATOM     21  C   UNL d   1       4.405   1.974   0.150  0.00  0.00     0.048 A 
ATOM     22  C   UNL d   1       4.118   3.335  -0.033  0.00  0.00     0.016 A 
ATOM     23  C   UNL d   1       2.799   3.772  -0.179  0.00  0.00     0.002 A 
ATOM     24  C   UNL d   1       1.746   2.855  -0.147  0.00  0.00     0.016 A 
BRANCH  21  25
ATOM     25  C   UNL d   1       5.835   1.509   0.293  0.00  0.00     0.417 C 
ATOM     26  F   UNL d   1       5.953   0.162   0.458  0.00  0.00    -0.166 F 
ATOM     27  F   UNL d   1       6.592   1.819  -0.795  0.00  0.00    -0.166 F 
ATOM     28  F   UNL d   1       6.460   2.073   1.361  0.00  0.00    -0.166 F 
ENDBRANCH  21  25
ENDBRANCH   6  19
TORSDOF 4
