REMARK  3 active torsions:
REMARK  status: ('A' for Active; 'I' for Inactive)
REMARK    1  A    between atoms: C_5  and  C_1 
REMARK    2  A    between atoms: N_3  and  C_2 
REMARK    3  A    between atoms: N_12  and  C_4 
ROOT
ATOM      1  C   UNL d   1      -1.782   4.507  -0.208  0.00  0.00     0.032 A 
ATOM      2  C   UNL d   1      -0.475   4.016  -0.478  0.00  0.00     0.028 A 
ATOM      3  C   UNL d   1      -1.074   1.830   0.394  0.00  0.00     0.049 A 
ATOM      4  C   UNL d   1      -0.131   2.693  -0.174  0.00  0.00     0.041 A 
ATOM      5  C   UNL d   1      -2.682   3.661   0.454  0.00  0.00     0.026 A 
ATOM      6  C   UNL d   1      -2.332   2.338   0.747  0.00  0.00     0.018 A 
ENDROOT
BRANCH   1   7
ATOM      7  N   UNL d   1      -2.144   5.781  -0.732  0.00  0.00    -0.282 NA
ATOM      8  C   UNL d   1      -3.230   6.497  -0.040  0.00  0.00     0.096 C 
ATOM      9  C   UNL d   1      -3.369   7.907  -0.625  0.00  0.00     0.015 C 
ATOM     10  C   UNL d   1      -3.552   7.875  -2.143  0.00  0.00     0.002 C 
ATOM     11  C   UNL d   1      -2.451   7.052  -2.803  0.00  0.00     0.015 C 
ATOM     12  C   UNL d   1      -2.381   5.657  -2.188  0.00  0.00     0.096 C 
ENDBRANCH   1   7
BRANCH   2  13
ATOM     13  N   UNL d   1       0.521   4.902  -0.941  0.00  0.00    -0.301 NA
ATOM     14  H   UNL d   1       1.079   4.522  -1.694  0.00  0.00     0.124 HD
ATOM     15  H   UNL d   1       0.081   5.797  -1.167  0.00  0.00     0.124 HD
ENDBRANCH   2  13
BRANCH   3  16
ATOM     16  C   UNL d   1      -0.755   0.375   0.621  0.00  0.00     0.417 C 
ATOM     17  F   UNL d   1       0.424  -0.020   0.064  0.00  0.00    -0.166 F 
ATOM     18  F   UNL d   1      -1.704  -0.447   0.088  0.00  0.00    -0.166 F 
ATOM     19  F   UNL d   1      -0.678   0.047   1.940  0.00  0.00    -0.166 F 
ENDBRANCH   3  16
TORSDOF 3
