REMARK  4 active torsions:
REMARK  status: ('A' for Active; 'I' for Inactive)
REMARK    1  A    between atoms: C_4  and  C_1 
REMARK    2  A    between atoms: N_5  and  C_2 
REMARK       I    between atoms: C_3  and  N_5 
REMARK    3  A    between atoms: C_6  and  C_3 
REMARK       I    between atoms: N_13  and  C_4 
REMARK    4  A    between atoms: N_14  and  N_13 
ROOT
ATOM      1  C   UNL d   1       0.071   1.326  -0.526  0.00  0.00     0.100 A 
ATOM      2  C   UNL d   1       1.383   0.928  -0.253  0.00  0.00     0.058 A 
ATOM      3  S   UNL d   1      -1.025  -0.019  -0.268  0.00  0.00    -0.094 SA
ATOM      4  C   UNL d   1       1.440  -0.495   0.019  0.00  0.00     0.038 A 
ATOM      5  C   UNL d   1       0.219  -1.113   0.051  0.00  0.00     0.053 A 
ENDROOT
BRANCH   2   6
ATOM      6  N   UNL d   1       2.618   1.584  -0.161  0.00  0.00    -0.321 N 
ATOM      7  C   UNL d   1       2.922   2.911  -0.002  0.00  0.00     0.257 C 
ATOM      8  O   UNL d   1       2.140   3.821  -0.245  0.00  0.00    -0.267 OA
ATOM      9  H   UNL d   1       3.383   0.946   0.029  0.00  0.00     0.169 HD
BRANCH   7  10
ATOM     10  C   UNL d   1       4.306   3.249   0.518  0.00  0.00     0.054 A 
ATOM     11  C   UNL d   1       5.264   2.342   1.014  0.00  0.00     0.049 A 
ATOM     12 CL   UNL d   1       5.096   0.619   0.994  0.00  0.00    -0.083 Cl
ATOM     13  C   UNL d   1       6.465   2.806   1.579  0.00  0.00     0.025 A 
ATOM     14  C   UNL d   1       6.741   4.168   1.648  0.00  0.00     0.002 A 
ATOM     15  C   UNL d   1       5.827   5.076   1.130  0.00  0.00     0.001 A 
ATOM     16  C   UNL d   1       4.625   4.623   0.573  0.00  0.00     0.019 A 
ENDBRANCH   7  10
ENDBRANCH   2   6
BRANCH   1  17
ATOM     17  C   UNL d   1      -0.633   2.519  -1.025  0.00  0.00     0.274 C 
ATOM     18  O   UNL d   1      -1.853   2.675  -0.924  0.00  0.00    -0.266 OA
ATOM     19  N   UNL d   1       0.125   3.429  -1.766  0.00  0.00    -0.289 N 
ATOM     20  H   UNL d   1       1.098   3.514  -1.473  0.00  0.00     0.183 HD
BRANCH  19  21
ATOM     21  N   UNL d   1      -0.509   4.586  -2.301  0.00  0.00    -0.247 NA
ATOM     22  H   UNL d   1      -1.374   4.274  -2.755  0.00  0.00     0.143 HD
ATOM     23  H   UNL d   1       0.086   4.973  -3.032  0.00  0.00     0.143 HD
ENDBRANCH  19  21
ENDBRANCH   1  17
TORSDOF 4
