REMARK  5 active torsions:
REMARK  status: ('A' for Active; 'I' for Inactive)
REMARK       I    between atoms: N_3  and  C_1 
REMARK    1  A    between atoms: C_4  and  C_1 
REMARK       I    between atoms: C_2  and  N_3 
REMARK    2  A    between atoms: C_6  and  C_2 
REMARK    3  A    between atoms: O_7  and  C_5 
REMARK    4  A    between atoms: C_13  and  O_7 
REMARK    5  A    between atoms: O_15  and  C_10 
ROOT
ATOM      1  C   UNL d   1       0.109   0.897   0.845  0.00  0.00     0.083 A 
ATOM      2  C   UNL d   1      -0.988   0.317   1.483  0.00  0.00     0.163 A 
ATOM      3  N   UNL d   1      -1.702   0.972   2.442  0.00  0.00    -0.346 N 
ATOM      4  HN  UNL d   1      -2.457   0.502   2.942  1.00  0.00     0.167 HD
ATOM      5  C   UNL d   1       0.401   2.239   1.147  0.00  0.00     0.023 A 
ATOM      6  C   UNL d   1      -1.387   2.251   2.715  0.00  0.00     0.090 A 
ATOM      7  C   UNL d   1      -0.357   2.926   2.092  0.00  0.00     0.018 A 
ENDROOT
BRANCH   1   8
ATOM      8  C   UNL d   1       0.931   0.166  -0.161  0.00  0.00     0.262 C 
ATOM      9  N   UNL d   1       2.282   0.506  -0.168  0.00  0.00    -0.289 N 
ATOM     10  C   UNL d   1       3.229   0.065  -1.079  0.00  0.00     0.261 C 
ATOM     11  H   UNL d   1       2.610   1.127   0.554  0.00  0.00     0.172 HD
ATOM     12  O   UNL d   1       3.118  -0.888  -1.842  0.00  0.00    -0.267 OA
ATOM     13  O   UNL d   1       0.402  -0.641  -0.911  0.00  0.00    -0.267 OA
BRANCH  10  14
ATOM     14  C   UNL d   1       4.547   0.760  -1.022  0.00  0.00     0.065 A 
ATOM     15  C   UNL d   1       5.721   0.047  -1.306  0.00  0.00     0.081 A 
ATOM     16  C   UNL d   1       6.967   0.665  -1.214  0.00  0.00     0.037 A 
ATOM     17  C   UNL d   1       7.054   2.015  -0.872  0.00  0.00     0.003 A 
ATOM     18  C   UNL d   1       5.890   2.748  -0.633  0.00  0.00     0.001 A 
ATOM     19  C   UNL d   1       4.639   2.127  -0.712  0.00  0.00     0.020 A 
BRANCH  15  20
ATOM     20  O   UNL d   1       5.721  -1.270  -1.680  0.00  0.00    -0.360 OA
ATOM     21  H   UNL d   1       4.798  -1.519  -1.918  0.00  0.00     0.217 HD
ENDBRANCH  15  20
ENDBRANCH  10  14
ENDBRANCH   1   8
BRANCH   2  22
ATOM     22  O   UNL d   1      -1.350  -0.992   1.185  0.00  0.00    -0.293 OA
BRANCH  22  23
ATOM     23  C   UNL d   1      -2.639  -1.384   1.483  0.00  0.00     0.077 A 
ATOM     24  C   UNL d   1      -3.764  -0.616   1.164  0.00  0.00     0.038 A 
ATOM     25  C   UNL d   1      -5.039  -1.049   1.535  0.00  0.00     0.009 A 
ATOM     26  C   UNL d   1      -5.211  -2.276   2.186  0.00  0.00    -0.062 A 
ATOM     27  C   UNL d   1      -4.087  -3.071   2.444  0.00  0.00     0.009 A 
ATOM     28  C   UNL d   1      -6.580  -2.696   2.633  0.00  0.00     0.048 C 
ATOM     29  C   UNL d   1      -2.808  -2.630   2.086  0.00  0.00     0.038 A 
ENDBRANCH  22  23
ENDBRANCH   2  22
TORSDOF 5
