REMARK  10 active torsions:
REMARK  status: ('A' for Active; 'I' for Inactive)
REMARK    1  A    between atoms: C_7  and  C_1 
REMARK    2  A    between atoms: C_2  and  C_9 
REMARK    3  A    between atoms: N_3  and  C_8 
REMARK    4  A    between atoms: O_27  and  C_6 
REMARK    5  A    between atoms: O_30  and  C_12 
REMARK    6  A    between atoms: N_24  and  C_15 
REMARK    7  A    between atoms: O_31  and  C_16 
REMARK    8  A    between atoms: C_32  and  N_24 
REMARK    9  A    between atoms: C_26  and  C_33 
REMARK   10  A    between atoms: C_33  and  C_32 
ROOT
ATOM      1  C   UNL d   1       0.510   1.318   0.256  0.00  0.00     0.050 C 
ATOM      2  C   UNL d   1      -0.672   2.877   1.754  0.00  0.00     0.054 C 
ATOM      3  C   UNL d   1      -0.353   1.566   1.338  0.00  0.00     0.047 C 
ATOM      4  C   UNL d   1      -0.073   3.975   1.076  0.00  0.00     0.035 C 
ATOM      5  C   UNL d   1       1.008   2.404  -0.460  0.00  0.00     0.018 C 
ATOM      6  C   UNL d   1       0.688   3.704  -0.078  0.00  0.00     0.026 C 
ENDROOT
BRANCH   4   7
ATOM      7  N   UNL d   1      -0.296   5.303   1.513  0.00  0.00    -0.291 NA
ATOM      8  H   UNL d   1      -0.301   5.327   2.533  0.00  0.00     0.127 HD
BRANCH   7   9
ATOM      9  C   UNL d   1       0.428   6.388   0.853  0.00  0.00     0.097 C 
BRANCH   9  10
ATOM     10  C   UNL d   1       0.617   7.616   1.742  0.00  0.00     0.053 C 
BRANCH  10  11
ATOM     11  C   UNL d   1       1.392   8.671   0.978  0.00  0.00    -0.054 A 
ATOM     12  C   UNL d   1       0.717   9.664   0.251  0.00  0.00     0.046 A 
ATOM     13  C   UNL d   1       1.417  10.605  -0.520  0.00  0.00     0.102 A 
ATOM     14  C   UNL d   1       2.821  10.571  -0.533  0.00  0.00     0.101 A 
ATOM     15  C   UNL d   1       3.492   9.555   0.157  0.00  0.00     0.040 A 
ATOM     16  C   UNL d   1       2.788   8.614   0.909  0.00  0.00     0.010 A 
BRANCH  13  17
ATOM     17  O   UNL d   1       0.780  11.573  -1.252  0.00  0.00    -0.353 OA
ATOM     18  C   UNL d   1      -0.498  11.229  -1.774  0.00  0.00     0.210 C 
ENDBRANCH  13  17
BRANCH  14  19
ATOM     19  O   UNL d   1       3.661  11.404  -1.227  0.00  0.00    -0.353 OA
ATOM     20  C   UNL d   1       3.245  12.759  -1.351  0.00  0.00     0.210 C 
ENDBRANCH  14  19
ENDBRANCH  10  11
ENDBRANCH   9  10
ENDBRANCH   7   9
ENDBRANCH   4   7
BRANCH   2  21
ATOM     21  N   UNL d   1      -1.546   2.986   2.869  0.00  0.00    -0.364 N 
ATOM     22  C   UNL d   1      -2.530   3.829   2.807  0.00  0.00     0.102 C 
ATOM     23  HN  UNL d   1      -1.403   2.413   3.701  1.00  0.00     0.165 HD
BRANCH  22  24
ATOM     24  C   UNL d   1      -3.551   3.951   3.876  0.00  0.00     0.016 A 
ATOM     25  C   UNL d   1      -4.401   5.061   3.910  0.00  0.00     0.099 A 
ATOM     26  C   UNL d   1      -5.426   5.138   4.860  0.00  0.00     0.069 A 
ATOM     27 CL   UNL d   1      -6.485   6.501   4.895  0.00  0.00    -0.081 Cl
ATOM     28  C   UNL d   1      -5.614   4.110   5.786  0.00  0.00     0.050 A 
ATOM     29  C   UNL d   1      -4.751   3.013   5.764  0.00  0.00     0.036 A 
ATOM     30  C   UNL d   1      -3.724   2.926   4.821  0.00  0.00     0.039 A 
ATOM     31 CL   UNL d   1      -4.983   1.747   6.904  0.00  0.00    -0.084 Cl
BRANCH  25  32
ATOM     32  O   UNL d   1      -4.214   6.087   3.015  0.00  0.00    -0.358 OA
ATOM     33  H   UNL d   1      -4.868   6.782   3.218  0.00  0.00     0.217 HD
ENDBRANCH  25  32
ENDBRANCH  22  24
ENDBRANCH   2  21
BRANCH   1  34
ATOM     34  C   UNL d   1       0.927  -0.071  -0.153  0.00  0.00     0.417 C 
ATOM     35  F   UNL d   1       0.339  -1.064   0.567  0.00  0.00    -0.166 F 
ATOM     36  F   UNL d   1       2.270  -0.262  -0.028  0.00  0.00    -0.166 F 
ATOM     37  F   UNL d   1       0.640  -0.335  -1.460  0.00  0.00    -0.166 F 
ENDBRANCH   1  34
TORSDOF 10
