REMARK  6 active torsions:
REMARK  status: ('A' for Active; 'I' for Inactive)
REMARK    1  A    between atoms: O_9  and  C_2 
REMARK    2  A    between atoms: C_4  and  C_3 
REMARK    3  A    between atoms: C_17  and  O_9 
REMARK    4  A    between atoms: C_12  and  C_17 
REMARK    5  A    between atoms: O_18  and  C_12 
REMARK    6  A    between atoms: C_20  and  O_18 
ROOT
ATOM      1  C   UNL d   1       0.989  -0.114  -0.000  0.00  0.00     0.110 A 
ATOM      2  C   UNL d   1       0.270   1.079   0.016  0.00  0.00     0.165 A 
ATOM      3  C   UNL d   1       0.262  -1.312  -0.015  0.00  0.00     0.074 A 
ATOM      4  N   UNL d   1      -1.083   1.148  -0.005  0.00  0.00    -0.340 N 
ATOM      5  HN  UNL d   1      -1.564   2.047  -0.018  1.00  0.00     0.167 HD
ATOM      6  C   UNL d   1       2.422  -0.074   0.019  0.00  0.00     0.104 C 
ATOM      7  N   UNL d   1       3.580  -0.059   0.026  0.00  0.00    -0.191 NA
ATOM      8  C   UNL d   1      -1.145  -1.245  -0.017  0.00  0.00     0.042 A 
ATOM      9  C   UNL d   1      -1.776  -0.010  -0.009  0.00  0.00     0.008 A 
ATOM     10  C   UNL d   1      -3.271   0.101   0.002  0.00  0.00     0.068 C 
ENDROOT
BRANCH   2  11
ATOM     11  O   UNL d   1       0.971   2.269   0.031  0.00  0.00    -0.325 OA
BRANCH  11  12
ATOM     12  C   UNL d   1       0.219   3.362   0.554  0.00  0.00     0.288 C 
BRANCH  12  13
ATOM     13  C   UNL d   1      -0.128   3.236   2.034  0.00  0.00     0.283 C 
ATOM     14  O   UNL d   1       0.170   2.295   2.759  0.00  0.00    -0.263 OA
BRANCH  13  15
ATOM     15  O   UNL d   1      -0.881   4.311   2.413  0.00  0.00    -0.320 OA
BRANCH  15  16
ATOM     16  C   UNL d   1      -1.669   4.109   3.594  0.00  0.00     0.174 C 
ATOM     17  C   UNL d   1      -2.994   3.512   3.156  0.00  0.00     0.034 C 
ENDBRANCH  15  16
ENDBRANCH  13  15
ENDBRANCH  12  13
ENDBRANCH  11  12
ENDBRANCH   2  11
BRANCH   3  18
ATOM     18  C   UNL d   1       0.891  -2.681  -0.017  0.00  0.00     0.419 C 
ATOM     19  F   UNL d   1       2.245  -2.706  -0.051  0.00  0.00    -0.166 F 
ATOM     20  F   UNL d   1       0.531  -3.402   1.081  0.00  0.00    -0.166 F 
ATOM     21  F   UNL d   1       0.482  -3.417  -1.089  0.00  0.00    -0.166 F 
ENDBRANCH   3  18
TORSDOF 6
