REMARK  9 active torsions:
REMARK  status: ('A' for Active; 'I' for Inactive)
REMARK    1  A    between atoms: C_11  and  C_2 
REMARK    2  A    between atoms: S_3  and  O_12 
REMARK    3  A    between atoms: N_13  and  S_3 
REMARK    4  A    between atoms: O_17  and  C_11 
REMARK    5  A    between atoms: O_12  and  C_27 
REMARK    6  A    between atoms: N_16  and  O_17 
REMARK    7  A    between atoms: C_18  and  N_16 
REMARK    8  A    between atoms: C_19  and  C_18 
REMARK    9  A    between atoms: N_28  and  C_18 
ROOT
ATOM      1  N   UNL d   1      -0.976   3.630  -0.343  0.00  0.00    -0.159 NA
ATOM      2  H   UNL d   1      -0.474   3.068   0.352  0.00  0.00     0.157 HD
ENDROOT
BRANCH   1   3
ATOM      3  O   UNL d   1      -0.390   3.108  -1.617  0.00  0.00    -0.220 OA
BRANCH   3   4
ATOM      4  C   UNL d   1       0.512   2.089  -1.337  0.00  0.00     0.313 C 
ATOM      5  O   UNL d   1       0.842   1.831  -0.179  0.00  0.00    -0.258 OA
BRANCH   4   6
ATOM      6  C   UNL d   1       0.983   1.293  -2.473  0.00  0.00     0.086 A 
ATOM      7  C   UNL d   1       0.736   1.366  -3.894  0.00  0.00     0.062 A 
ATOM      8  C   UNL d   1       1.433   0.299  -4.462  0.00  0.00     0.132 A 
ATOM      9  C   UNL d   1       0.011   2.178  -4.790  0.00  0.00     0.172 A 
ATOM     10  O   UNL d   1       2.086  -0.399  -3.507  0.00  0.00    -0.310 OA
ATOM     11  C   UNL d   1       1.452  -0.011  -5.822  0.00  0.00     0.192 A 
ATOM     12  C   UNL d   1       1.819   0.188  -2.314  0.00  0.00     0.067 A 
ATOM     13  C   UNL d   1       2.460  -0.496  -1.165  0.00  0.00     0.078 C 
ATOM     14  F   UNL d   1       2.139  -1.060  -6.293  0.00  0.00    -0.200 F 
ATOM     15  C   UNL d   1       0.724   0.809  -6.671  0.00  0.00     0.199 A 
ATOM     16  C   UNL d   1       0.016   1.889  -6.166  0.00  0.00     0.197 A 
ATOM     17  F   UNL d   1       0.709   0.548  -7.987  0.00  0.00    -0.199 F 
ATOM     18  F   UNL d   1      -0.678   2.668  -7.009  0.00  0.00    -0.199 F 
ATOM     19  F   UNL d   1      -0.688   3.230  -4.346  0.00  0.00    -0.202 F 
ENDBRANCH   4   6
ENDBRANCH   3   4
ENDBRANCH   1   3
BRANCH   1  20
ATOM     20  C   UNL d   1      -0.551   5.012  -0.160  0.00  0.00     0.348 C 
BRANCH  20  21
ATOM     21  C   UNL d   1      -1.022   5.614   1.168  0.00  0.00    -0.009 A 
ATOM     22  C   UNL d   1      -1.020   4.900   2.381  0.00  0.00     0.013 A 
ATOM     23  C   UNL d   1      -1.426   5.506   3.580  0.00  0.00     0.039 A 
ATOM     24  C   UNL d   1      -1.843   6.838   3.599  0.00  0.00     0.090 A 
ATOM     25  C   UNL d   1      -1.800   7.576   2.418  0.00  0.00     0.039 A 
ATOM     26  C   UNL d   1      -1.401   6.968   1.218  0.00  0.00     0.013 A 
BRANCH  24  27
ATOM     27  O   UNL d   1      -2.253   7.327   4.816  0.00  0.00    -0.221 OA
BRANCH  27  28
ATOM     28  S   UNL d   1      -3.285   8.591   4.927  0.00  0.00     0.344 S 
ATOM     29  O   UNL d   1      -2.509   9.813   4.914  0.00  0.00    -0.180 OA
ATOM     30  O   UNL d   1      -4.372   8.396   3.988  0.00  0.00    -0.180 OA
BRANCH  28  31
ATOM     31  N   UNL d   1      -3.966   8.433   6.486  0.00  0.00    -0.196 NA
ATOM     32  C   UNL d   1      -4.727   7.190   6.703  0.00  0.00     0.131 C 
ATOM     33  C   UNL d   1      -3.090   8.787   7.613  0.00  0.00     0.131 C 
ENDBRANCH  28  31
ENDBRANCH  27  28
ENDBRANCH  24  27
ENDBRANCH  20  21
BRANCH  20  34
ATOM     34  N   UNL d   1       0.897   5.062  -0.230  0.00  0.00     0.102 N 
ATOM     35  H   UNL d   1       1.273   4.584   0.586  0.00  0.00     0.315 HD
ATOM     36  H   UNL d   1       1.176   6.036  -0.121  0.00  0.00     0.315 HD
ENDBRANCH  20  34
ENDBRANCH   1  20
TORSDOF 9
