REMARK  2 active torsions:
REMARK  status: ('A' for Active; 'I' for Inactive)
REMARK    1  A    between atoms: S_9  and  C_5 
REMARK    2  A    between atoms: C_10  and  N_8 
ROOT
ATOM      1  S   UNL d   1       0.816  -0.940   0.168  0.00  0.00    -0.027 SA
ATOM      2  C   UNL d   1       2.288  -0.247   0.763  0.00  0.00     0.166 A 
ATOM      3  N   UNL d   1       2.188   0.148   2.017  0.00  0.00    -0.278 N 
ATOM      4  HN  UNL d   1       2.967   0.544   2.543  1.00  0.00     0.189 HD
ATOM      5  C   UNL d   1       0.106  -0.562   1.675  0.00  0.00     0.127 A 
ATOM      6  N   UNL d   1       0.926  -0.026   2.547  0.00  0.00    -0.286 N 
ATOM      7  HN  UNL d   1       0.663   0.231   3.499  1.00  0.00     0.188 HD
ATOM      8  N   UNL d   1       3.365  -0.175  -0.058  0.00  0.00    -0.336 N 
ATOM      9  H   UNL d   1       3.261  -0.582  -0.978  0.00  0.00     0.168 HD
ENDROOT
BRANCH   8  10
ATOM     10  C   UNL d   1       4.468   0.700   0.040  0.00  0.00     0.034 A 
ATOM     11  C   UNL d   1       4.636   1.639   1.065  0.00  0.00     0.029 A 
ATOM     12  C   UNL d   1       5.756   2.476   1.105  0.00  0.00     0.002 A 
ATOM     13  C   UNL d   1       6.742   2.374   0.129  0.00  0.00     0.000 A 
ATOM     14  C   UNL d   1       6.613   1.427  -0.881  0.00  0.00     0.002 A 
ATOM     15  C   UNL d   1       5.491   0.593  -0.918  0.00  0.00     0.029 A 
ENDBRANCH   8  10
BRANCH   5  16
ATOM     16  S   UNL d   1      -1.574  -0.847   2.045  0.00  0.00    -0.117 SA
ATOM     17  H   UNL d   1      -1.953  -1.222   0.816  0.00  0.00     0.109 HD
ENDBRANCH   5  16
TORSDOF 2
