REMARK  3 active torsions:
REMARK  status: ('A' for Active; 'I' for Inactive)
REMARK    1  A    between atoms: N_4  and  C_2 
REMARK    2  A    between atoms: C_12  and  N_4 
REMARK    3  A    between atoms: C_9  and  C_10 
ROOT
ATOM      1  C   UNL d   1      -3.055  -0.077   0.286  0.00  0.00     0.017 A 
ATOM      2  C   UNL d   1      -2.330  -1.228  -0.119  0.00  0.00     0.046 A 
ATOM      3  C   UNL d   1      -2.533   1.187  -0.068  0.00  0.00     0.046 A 
ATOM      4  C   UNL d   1      -3.220   2.333   0.300  0.00  0.00     0.054 A 
ATOM      5  C   UNL d   1      -4.254  -0.133   1.035  0.00  0.00     0.018 A 
ATOM      6  N   UNL d   1      -1.392   1.332  -0.760  0.00  0.00    -0.365 N 
ATOM      7  HN  UNL d   1      -1.036   2.258  -0.995  1.00  0.00     0.165 HD
ATOM      8  C   UNL d   1      -4.408   2.263   1.022  0.00  0.00     0.036 A 
ATOM      9  C   UNL d   1      -1.160  -1.061  -0.861  0.00  0.00     0.047 A 
ATOM     10  C   UNL d   1      -4.928   1.032   1.401  0.00  0.00     0.025 A 
ATOM     11  C   UNL d   1      -0.730   0.220  -1.137  0.00  0.00     0.090 A 
ATOM     12 CL   UNL d   1      -5.237   3.708   1.449  0.00  0.00    -0.084 Cl
ENDROOT
BRANCH   2  13
ATOM     13  N   UNL d   1      -2.865  -2.528   0.107  0.00  0.00    -0.355 N 
ATOM     14  H   UNL d   1      -3.664  -2.672  -0.508  0.00  0.00     0.166 HD
BRANCH  13  15
ATOM     15  C   UNL d   1      -2.154  -3.727   0.342  0.00  0.00     0.032 A 
ATOM     16  C   UNL d   1      -0.924  -3.737   1.011  0.00  0.00     0.030 A 
ATOM     17  C   UNL d   1      -0.292  -4.940   1.341  0.00  0.00     0.017 A 
ATOM     18  C   UNL d   1      -0.904  -6.159   1.041  0.00  0.00     0.009 A 
ATOM     19  C   UNL d   1      -2.124  -6.169   0.360  0.00  0.00     0.017 A 
ATOM     20  C   UNL d   1      -2.747  -4.959   0.027  0.00  0.00     0.030 A 
BRANCH  18  21
ATOM     21  C   UNL d   1      -0.237  -7.408   1.495  0.00  0.00     0.155 C 
ATOM     22  O   UNL d   1       0.989  -7.447   1.565  0.00  0.00    -0.293 OA
ATOM     23  C   UNL d   1      -1.082  -8.581   1.920  0.00  0.00     0.096 C 
ENDBRANCH  18  21
ENDBRANCH  13  15
ENDBRANCH   2  13
TORSDOF 3
