REMARK  8 active torsions:
REMARK  status: ('A' for Active; 'I' for Inactive)
REMARK    1  A    between atoms: C_7  and  C_1 
REMARK    2  A    between atoms: N_8  and  C_2 
REMARK    3  A    between atoms: C_10  and  C_3 
REMARK       I    between atoms: C_9  and  N_8 
REMARK    4  A    between atoms: C_20  and  C_9 
REMARK    5  A    between atoms: C_11  and  C_21 
REMARK    6  A    between atoms: O_19  and  C_11 
REMARK    7  A    between atoms: S_17  and  C_20 
REMARK    8  A    between atoms: C_21  and  S_17 
ROOT
ATOM      1  C   UNL d   1       1.351   0.685   0.023  0.00  0.00     0.147 A 
ATOM      2  C   UNL d   1       0.166  -1.222  -0.090  0.00  0.00     0.138 A 
ATOM      3  C   UNL d   1       1.466  -0.745   0.067  0.00  0.00     0.053 A 
ATOM      4  N   UNL d   1       0.063   1.055  -0.110  0.00  0.00    -0.292 N 
ATOM      5  HN  UNL d   1      -0.306   2.004  -0.169  1.00  0.00     0.187 HD
ATOM      6  N   UNL d   1      -0.631  -0.097  -0.147  0.00  0.00    -0.280 N 
ATOM      7  C   UNL d   1      -2.070   0.023  -0.074  0.00  0.00     0.179 C 
ENDROOT
BRANCH   2   8
ATOM      8  N   UNL d   1      -0.179  -2.577  -0.164  0.00  0.00    -0.310 N 
ATOM      9  C   UNL d   1      -1.285  -3.064  -0.948  0.00  0.00     0.232 C 
ATOM     10  O   UNL d   1      -1.911  -2.295  -1.655  0.00  0.00    -0.272 OA
ATOM     11  H   UNL d   1       0.468  -3.266   0.223  0.00  0.00     0.170 HD
BRANCH   9  12
ATOM     12  C   UNL d   1      -1.531  -4.556  -0.897  0.00  0.00     0.177 C 
BRANCH  12  13
ATOM     13  S   UNL d   1      -0.926  -5.406  -2.403  0.00  0.00    -0.149 SA
BRANCH  13  14
ATOM     14  C   UNL d   1       0.869  -5.141  -2.280  0.00  0.00     0.184 C 
BRANCH  14  15
ATOM     15  C   UNL d   1       1.396  -5.720  -0.992  0.00  0.00     0.149 C 
ATOM     16  O   UNL d   1       1.263  -5.127   0.078  0.00  0.00    -0.649 OA
BRANCH  15  17
ATOM     17  O   UNL d   1       1.933  -6.951  -1.089  0.00  0.00    -0.776 OA
ATOM     18  H   UNL d   1       1.906  -7.343  -1.982  0.00  0.00     0.167 HD
ENDBRANCH  15  17
ENDBRANCH  14  15
ENDBRANCH  13  14
ENDBRANCH  12  13
ENDBRANCH   9  12
ENDBRANCH   2   8
BRANCH   3  19
ATOM     19  C   UNL d   1       2.663  -1.575   0.113  0.00  0.00    -0.020 A 
ATOM     20  C   UNL d   1       3.725  -1.318  -0.764  0.00  0.00     0.012 A 
ATOM     21  C   UNL d   1       4.894  -2.081  -0.712  0.00  0.00     0.001 A 
ATOM     22  C   UNL d   1       4.994  -3.140   0.186  0.00  0.00     0.000 A 
ATOM     23  C   UNL d   1       3.938  -3.418   1.049  0.00  0.00     0.001 A 
ATOM     24  C   UNL d   1       2.789  -2.622   1.034  0.00  0.00     0.012 A 
ENDBRANCH   3  19
BRANCH   1  25
ATOM     25  C   UNL d   1       2.440   1.735   0.084  0.00  0.00     0.434 C 
ATOM     26  F   UNL d   1       3.659   1.230   0.403  0.00  0.00    -0.165 F 
ATOM     27  F   UNL d   1       2.591   2.367  -1.112  0.00  0.00    -0.165 F 
ATOM     28  F   UNL d   1       2.177   2.696   1.010  0.00  0.00    -0.165 F 
ENDBRANCH   1  25
TORSDOF 8
