REMARK  2 active torsions:
REMARK  status: ('A' for Active; 'I' for Inactive)
REMARK    1  A    between atoms: C_3  and  C_1 
REMARK       I    between atoms: N_13  and  C_3 
REMARK    2  A    between atoms: C_12  and  N_13 
ROOT
ATOM      1  C   UNL d   1       1.640  -2.818   0.091  0.00  0.00     0.259 C 
ATOM      2  N   UNL d   1       0.754  -3.498   0.908  0.00  0.00    -0.323 N 
ATOM      3  O   UNL d   1       2.602  -3.318  -0.482  0.00  0.00    -0.267 OA
ATOM      4  H   UNL d   1      -0.092  -2.998   1.166  0.00  0.00     0.169 HD
ENDROOT
BRANCH   1   5
ATOM      5  C   UNL d   1       1.432  -1.344  -0.059  0.00  0.00     0.068 A 
ATOM      6  C   UNL d   1       0.196  -0.686   0.068  0.00  0.00     0.117 A 
ATOM      7  C   UNL d   1       0.145   0.719  -0.046  0.00  0.00     0.103 A 
ATOM      8  O   UNL d   1      -0.928  -1.458   0.266  0.00  0.00    -0.347 OA
ATOM      9  O   UNL d   1      -0.971   1.511   0.060  0.00  0.00    -0.348 OA
ATOM     10  C   UNL d   1       1.306   1.440  -0.348  0.00  0.00     0.040 A 
ATOM     11  C   UNL d   1      -2.054   0.977   0.815  0.00  0.00     0.178 C 
ATOM     12  C   UNL d   1      -2.862  -0.012  -0.006  0.00  0.00     0.053 C 
ATOM     13  C   UNL d   1      -1.982  -1.081  -0.630  0.00  0.00     0.178 C 
ATOM     14  C   UNL d   1       2.521   0.787  -0.517  0.00  0.00     0.004 A 
ATOM     15  C   UNL d   1       2.583  -0.596  -0.369  0.00  0.00     0.020 A 
ENDBRANCH   1   5
BRANCH   2  16
ATOM     16  C   UNL d   1       0.933  -4.799   1.445  0.00  0.00     0.037 A 
ATOM     17  C   UNL d   1       2.146  -5.504   1.307  0.00  0.00     0.061 A 
ATOM     18  C   UNL d   1       2.250  -6.749   1.977  0.00  0.00     0.069 A 
ATOM     19  N   UNL d   1       3.330  -7.546   1.999  0.00  0.00    -0.310 N 
ATOM     20  C   UNL d   1       1.099  -7.293   2.773  0.00  0.00     0.067 A 
ATOM     21  S   UNL d   1       2.932  -8.852   2.944  0.00  0.00     0.068 SA
ATOM     22  HN  UNL d   1       4.220  -7.381   1.529  1.00  0.00     0.176 HD
ATOM     23  N   UNL d   1       1.366  -8.472   3.355  0.00  0.00    -0.310 N 
ATOM     24  HN  UNL d   1       0.734  -9.026   3.934  1.00  0.00     0.176 HD
ATOM     25  C   UNL d   1      -0.115  -6.575   2.864  0.00  0.00     0.035 A 
ATOM     26  C   UNL d   1      -0.153  -5.332   2.194  0.00  0.00     0.032 A 
ENDBRANCH   2  16
TORSDOF 2
