REMARK  7 active torsions:
REMARK  status: ('A' for Active; 'I' for Inactive)
REMARK    1  A    between atoms: C_4  and  C_1 
REMARK    2  A    between atoms: O_9  and  C_4 
REMARK    3  A    between atoms: N_7  and  O_9 
REMARK    4  A    between atoms: C_13  and  C_10 
REMARK    5  A    between atoms: C_14  and  C_10 
REMARK    6  A    between atoms: C_16  and  C_13 
REMARK    7  A    between atoms: C_17  and  C_14 
ROOT
ATOM      1  N   UNL d   1       4.109  -2.551  -0.732  0.00  0.00    -0.265 N 
ATOM      2  HN  UNL d   1       3.129  -2.712  -0.960  1.00  0.00     0.194 HD
ATOM      3  C   UNL d   1       4.857  -3.446  -0.139  0.00  0.00     0.019 C 
ENDROOT
BRANCH   1   4
ATOM      4  O   UNL d   1       4.780  -1.337  -1.029  0.00  0.00    -0.195 OA
BRANCH   4   5
ATOM      5  C   UNL d   1       5.441  -1.413  -2.243  0.00  0.00     0.323 C 
ATOM      6  O   UNL d   1       5.715  -2.457  -2.828  0.00  0.00    -0.257 OA
BRANCH   5   7
ATOM      7  C   UNL d   1       5.842  -0.098  -2.688  0.00  0.00     0.105 A 
ATOM      8  S   UNL d   1       4.703   1.169  -2.744  0.00  0.00    -0.082 SA
ATOM      9  C   UNL d   1       5.787   2.218  -3.571  0.00  0.00     0.018 A 
ATOM     10  C   UNL d   1       5.504   3.510  -4.057  0.00  0.00     0.020 A 
ATOM     11  C   UNL d   1       7.047   1.633  -3.729  0.00  0.00     0.004 A 
ATOM     12  C   UNL d   1       6.507   4.222  -4.717  0.00  0.00     0.001 A 
ATOM     13  C   UNL d   1       7.771   3.675  -4.874  0.00  0.00     0.001 A 
ATOM     14  C   UNL d   1       8.051   2.397  -4.381  0.00  0.00     0.014 A 
ATOM     15  C   UNL d   1       7.062   0.295  -3.194  0.00  0.00     0.069 A 
ATOM     16 CL   UNL d   1       8.472  -0.688  -3.229  0.00  0.00    -0.082 Cl
ENDBRANCH   5   7
ENDBRANCH   4   5
ENDBRANCH   1   4
BRANCH   3  17
ATOM     17  C   UNL d   1       6.302  -3.167   0.268  0.00  0.00     0.093 C 
BRANCH  17  18
ATOM     18  C   UNL d   1       6.896  -4.038   1.347  0.00  0.00    -0.053 A 
ATOM     19  C   UNL d   1       7.951  -4.910   1.040  0.00  0.00     0.007 A 
ATOM     20  C   UNL d   1       8.557  -5.674   2.037  0.00  0.00     0.001 A 
ATOM     21  C   UNL d   1       8.109  -5.580   3.353  0.00  0.00     0.000 A 
ATOM     22  C   UNL d   1       7.054  -4.725   3.669  0.00  0.00     0.001 A 
ATOM     23  C   UNL d   1       6.451  -3.953   2.675  0.00  0.00     0.007 A 
ENDBRANCH  17  18
ENDBRANCH   3  17
BRANCH   3  24
ATOM     24  C   UNL d   1       4.284  -4.835   0.142  0.00  0.00     0.093 C 
BRANCH  24  25
ATOM     25  C   UNL d   1       3.086  -5.318  -0.655  0.00  0.00    -0.053 A 
ATOM     26  C   UNL d   1       2.896  -5.012  -2.009  0.00  0.00     0.007 A 
ATOM     27  C   UNL d   1       1.812  -5.542  -2.718  0.00  0.00     0.001 A 
ATOM     28  C   UNL d   1       0.923  -6.414  -2.094  0.00  0.00     0.000 A 
ATOM     29  C   UNL d   1       1.115  -6.756  -0.759  0.00  0.00     0.001 A 
ATOM     30  C   UNL d   1       2.188  -6.214  -0.046  0.00  0.00     0.007 A 
ENDBRANCH  24  25
ENDBRANCH   3  24
TORSDOF 7
