REMARK  6 active torsions:
REMARK  status: ('A' for Active; 'I' for Inactive)
REMARK    1  A    between atoms: C_16  and  N_2 
REMARK    2  A    between atoms: C_15  and  N_4 
REMARK    3  A    between atoms: C_11  and  C_5 
REMARK    4  A    between atoms: N_12  and  C_17 
REMARK    5  A    between atoms: C_27  and  C_14 
REMARK    6  A    between atoms: O_37  and  C_31 
ROOT
ATOM      1  C   UNL d   1       0.045  -0.218  -0.355  0.00  0.00     0.247 C 
ATOM      2  N   UNL d   1       1.174  -1.033  -0.736  0.00  0.00    -0.265 N 
ATOM      3  S   UNL d   1      -0.573  -0.657   1.323  0.00  0.00    -0.042 SA
ATOM      4  N   UNL d   1      -1.172  -0.283  -1.177  0.00  0.00    -0.241 N 
ATOM      5  C   UNL d   1      -2.178  -0.153   0.803  0.00  0.00     0.101 C 
ATOM      6  N   UNL d   1      -2.353  -0.067  -0.479  0.00  0.00    -0.287 N 
ATOM      7  HN  UNL d   1      -3.250   0.136  -0.921  1.00  0.00     0.188 HD
ATOM      8  S   UNL d   1       0.681   1.512  -0.207  0.00  0.00    -0.056 SA
ATOM      9  C   UNL d   1       2.401  -0.520  -0.293  0.00  0.00     0.268 C 
ATOM     10  C   UNL d   1       2.291   0.937   0.041  0.00  0.00     0.074 C 
ATOM     11  C   UNL d   1       3.282   1.739   0.456  0.00  0.00     0.035 C 
ATOM     12  O   UNL d   1       3.443  -1.150  -0.183  0.00  0.00    -0.266 OA
ENDROOT
BRANCH   2  13
ATOM     13  C   UNL d   1       1.111  -2.336  -1.312  0.00  0.00     0.041 A 
ATOM     14  C   UNL d   1       0.050  -3.224  -1.103  0.00  0.00     0.030 A 
ATOM     15  C   UNL d   1       0.067  -4.501  -1.681  0.00  0.00     0.002 A 
ATOM     16  C   UNL d   1       1.116  -4.894  -2.509  0.00  0.00     0.000 A 
ATOM     17  C   UNL d   1       2.162  -4.013  -2.754  0.00  0.00     0.002 A 
ATOM     18  C   UNL d   1       2.162  -2.757  -2.151  0.00  0.00     0.030 A 
ENDBRANCH   2  13
BRANCH   4  19
ATOM     19  C   UNL d   1      -1.258  -0.318  -2.568  0.00  0.00     0.055 A 
ATOM     20  C   UNL d   1      -2.376  -0.933  -3.173  0.00  0.00     0.034 A 
ATOM     21  C   UNL d   1      -2.483  -1.092  -4.560  0.00  0.00     0.038 A 
ATOM     22  C   UNL d   1      -1.470  -0.599  -5.380  0.00  0.00     0.103 A 
ATOM     23  C   UNL d   1      -0.381   0.080  -4.820  0.00  0.00     0.038 A 
ATOM     24  C   UNL d   1      -0.280   0.203  -3.425  0.00  0.00     0.034 A 
BRANCH  22  25
ATOM     25  N   UNL d   1      -1.532  -0.813  -6.831  0.00  0.00    -0.116 N 
ATOM     26  O   UNL d   1      -0.641  -0.306  -7.527  0.00  0.00    -0.532 OA
ATOM     27  O   UNL d   1      -2.464  -1.500  -7.274  0.00  0.00    -0.532 OA
ENDBRANCH  22  25
ENDBRANCH   4  19
BRANCH   5  28
ATOM     28  C   UNL d   1      -3.210   0.175   1.824  0.00  0.00     0.021 A 
ATOM     29  C   UNL d   1      -4.590   0.133   1.558  0.00  0.00     0.048 A 
ATOM     30  C   UNL d   1      -5.516   0.497   2.550  0.00  0.00     0.048 A 
ATOM     31 CL   UNL d   1      -5.268  -0.395   0.057  0.00  0.00    -0.083 Cl
ATOM     32  C   UNL d   1      -5.076   0.902   3.807  0.00  0.00     0.035 A 
ATOM     33  C   UNL d   1      -3.717   0.959   4.087  0.00  0.00     0.025 A 
ATOM     34 CL   UNL d   1      -6.215   1.335   5.020  0.00  0.00    -0.084 Cl
ATOM     35  C   UNL d   1      -2.793   0.607   3.102  0.00  0.00     0.018 A 
ENDBRANCH   5  28
BRANCH  11  36
ATOM     36  C   UNL d   1       4.674   1.327   0.649  0.00  0.00    -0.035 A 
ATOM     37  C   UNL d   1       5.548   1.272  -0.442  0.00  0.00     0.014 A 
ATOM     38  C   UNL d   1       6.870   0.850  -0.271  0.00  0.00     0.037 A 
ATOM     39  C   UNL d   1       7.328   0.480   0.994  0.00  0.00     0.068 A 
ATOM     40  C   UNL d   1       6.463   0.559   2.087  0.00  0.00     0.037 A 
ATOM     41  C   UNL d   1       5.138   0.971   1.918  0.00  0.00     0.014 A 
BRANCH  39  42
ATOM     42  O   UNL d   1       8.599   0.065   1.281  0.00  0.00    -0.356 OA
ATOM     43  C   UNL d   1       9.289  -0.580   0.215  0.00  0.00     0.210 C 
ENDBRANCH  39  42
ENDBRANCH  11  36
TORSDOF 6
