REMARK  5 active torsions:
REMARK  status: ('A' for Active; 'I' for Inactive)
REMARK    1  A    between atoms: C_11  and  C_3 
REMARK    2  A    between atoms: C_6  and  N_9 
REMARK    3  A    between atoms: C_17  and  C_7 
REMARK       I    between atoms: N_9  and  C_10 
REMARK    4  A    between atoms: C_10  and  C_18 
REMARK    5  A    between atoms: C_18  and  C_17 
ROOT
ATOM      1  N   UNL d   1       0.732   0.141   1.303  0.00  0.00    -0.323 N 
ATOM      2  HN  UNL d   1       0.928  -0.029   2.290  1.00  0.00     0.169 HD
ATOM      3  C   UNL d   1       0.321   1.309   0.696  0.00  0.00     0.137 A 
ATOM      4  N   UNL d   1       0.204   1.208  -0.639  0.00  0.00    -0.242 N 
ATOM      5  HN  UNL d   1      -0.054   1.937  -1.304  1.00  0.00     0.196 HD
ATOM      6  C   UNL d   1       0.808  -0.696   0.298  0.00  0.00     0.148 A 
ATOM      7  O   UNL d   1       0.520  -0.124  -0.903  0.00  0.00    -0.223 OA
ENDROOT
BRANCH   6   8
ATOM      8  C   UNL d   1       1.262  -2.103   0.295  0.00  0.00     0.096 C 
BRANCH   8   9
ATOM      9  C   UNL d   1       2.750  -2.220  -0.004  0.00  0.00     0.111 C 
BRANCH   9  10
ATOM     10  C   UNL d   1       3.644  -1.846   1.168  0.00  0.00     0.222 C 
ATOM     11  N   UNL d   1       3.789  -0.487   1.378  0.00  0.00    -0.322 N 
ATOM     12  H   UNL d   1       3.034   0.118   1.072  0.00  0.00     0.169 HD
ATOM     13  O   UNL d   1       4.141  -2.733   1.857  0.00  0.00    -0.273 OA
BRANCH  11  14
ATOM     14  C   UNL d   1       4.651   0.087   2.349  0.00  0.00     0.112 A 
ATOM     15  C   UNL d   1       5.840  -0.491   2.803  0.00  0.00     0.146 A 
ATOM     16  F   UNL d   1       6.357  -1.575   2.210  0.00  0.00    -0.204 F 
ATOM     17  C   UNL d   1       6.586   0.098   3.829  0.00  0.00     0.045 A 
ATOM     18  C   UNL d   1       6.171   1.299   4.400  0.00  0.00     0.006 A 
ATOM     19  C   UNL d   1       5.030   1.931   3.906  0.00  0.00     0.045 A 
ATOM     20  C   UNL d   1       4.294   1.330   2.883  0.00  0.00     0.146 A 
ATOM     21  F   UNL d   1       3.204   1.962   2.422  0.00  0.00    -0.204 F 
ENDBRANCH  11  14
ENDBRANCH   9  10
ENDBRANCH   8   9
ENDBRANCH   6   8
BRANCH   3  22
ATOM     22  C   UNL d   1       0.090   2.531   1.456  0.00  0.00     0.010 A 
ATOM     23  C   UNL d   1       0.064   2.491   2.861  0.00  0.00     0.017 A 
ATOM     24  C   UNL d   1      -0.123   3.658   3.605  0.00  0.00     0.025 A 
ATOM     25  C   UNL d   1      -0.285   4.876   2.950  0.00  0.00     0.034 A 
ATOM     26  C   UNL d   1      -0.276   4.933   1.558  0.00  0.00     0.025 A 
ATOM     27 CL   UNL d   1      -0.495   6.317   3.864  0.00  0.00    -0.084 Cl
ATOM     28  C   UNL d   1      -0.091   3.764   0.813  0.00  0.00     0.017 A 
ENDBRANCH   3  22
TORSDOF 5
