REMARK  3 active torsions:
REMARK  status: ('A' for Active; 'I' for Inactive)
REMARK    1  A    between atoms: C_3  and  C_1 
REMARK       I    between atoms: N_6  and  C_3 
REMARK    2  A    between atoms: S_9  and  C_4 
REMARK    3  A    between atoms: C_10  and  N_6 
ROOT
ATOM      1  C   UNL d   1      -0.075   2.671  -0.287  0.00  0.00     0.263 C 
ATOM      2  N   UNL d   1      -1.413   2.978  -0.081  0.00  0.00    -0.323 N 
ATOM      3  O   UNL d   1       0.791   3.503  -0.539  0.00  0.00    -0.267 OA
ATOM      4  H   UNL d   1      -2.006   2.202   0.183  0.00  0.00     0.169 HD
ENDROOT
BRANCH   1   5
ATOM      5  C   UNL d   1       0.273   1.254  -0.182  0.00  0.00     0.074 A 
ATOM      6  S   UNL d   1      -0.859   0.023   0.172  0.00  0.00    -0.078 SA
ATOM      7  C   UNL d   1       0.328  -1.213   0.074  0.00  0.00     0.041 A 
ATOM      8  C   UNL d   1       1.567  -0.692  -0.231  0.00  0.00     0.027 A 
ATOM      9  C   UNL d   1       1.537   0.725  -0.367  0.00  0.00     0.026 A 
BRANCH   7  10
ATOM     10  S   UNL d   1      -0.109  -2.897   0.332  0.00  0.00    -0.127 SA
ATOM     11  C   UNL d   1       1.495  -3.706   0.518  0.00  0.00     0.096 C 
ENDBRANCH   7  10
ENDBRANCH   1   5
BRANCH   2  12
ATOM     12  C   UNL d   1      -2.028   4.244  -0.199  0.00  0.00     0.035 A 
ATOM     13  C   UNL d   1      -1.367   5.395  -0.637  0.00  0.00     0.031 A 
ATOM     14  C   UNL d   1      -2.045   6.614  -0.747  0.00  0.00     0.026 A 
ATOM     15  C   UNL d   1      -3.392   6.689  -0.416  0.00  0.00     0.034 A 
ATOM     16  C   UNL d   1      -4.068   5.554   0.024  0.00  0.00     0.026 A 
ATOM     17 CL   UNL d   1      -4.226   8.187  -0.554  0.00  0.00    -0.084 Cl
ATOM     18  C   UNL d   1      -3.388   4.335   0.129  0.00  0.00     0.031 A 
ENDBRANCH   2  12
TORSDOF 3
