REMARK  5 active torsions:
REMARK  status: ('A' for Active; 'I' for Inactive)
REMARK    1  A    between atoms: N_10  and  C_1 
REMARK    2  A    between atoms: C_16  and  N_2 
REMARK    3  A    between atoms: C_6  and  S_15 
REMARK       I    between atoms: C_14  and  N_10 
REMARK    4  A    between atoms: C_18  and  C_14 
REMARK    5  A    between atoms: S_15  and  C_18 
ROOT
ATOM      1  N   UNL d   1      -1.040  -2.468   0.116  0.00  0.00    -0.311 N 
ATOM      2  C   UNL d   1      -2.265  -2.839  -0.418  0.00  0.00     0.233 C 
ATOM      3  O   UNL d   1      -3.121  -2.075  -0.860  0.00  0.00    -0.272 OA
ATOM      4  H   UNL d   1      -0.484  -3.188   0.560  0.00  0.00     0.170 HD
ENDROOT
BRANCH   1   5
ATOM      5  C   UNL d   1      -0.569  -1.168   0.062  0.00  0.00     0.132 A 
ATOM      6  N   UNL d   1       0.431  -0.635   0.881  0.00  0.00    -0.240 N 
ATOM      7  N   UNL d   1       0.559   0.710   0.702  0.00  0.00    -0.297 N 
ATOM      8  C   UNL d   1      -0.241   0.998  -0.326  0.00  0.00     0.026 A 
ATOM      9  HN  UNL d   1       1.140   1.355   1.238  1.00  0.00     0.187 HD
ATOM     10  C   UNL d   1      -0.989  -0.118  -0.733  0.00  0.00     0.076 A 
ATOM     11  C   UNL d   1      -0.278   2.367  -0.889  0.00  0.00     0.070 C 
BRANCH   6  12
ATOM     12  C   UNL d   1       1.192  -1.276   1.899  0.00  0.00     0.058 A 
ATOM     13  C   UNL d   1       1.630  -2.596   1.767  0.00  0.00     0.031 A 
ATOM     14  C   UNL d   1       2.349  -3.203   2.801  0.00  0.00     0.002 A 
ATOM     15  C   UNL d   1       2.630  -2.494   3.968  0.00  0.00     0.000 A 
ATOM     16  C   UNL d   1       2.215  -1.170   4.095  0.00  0.00     0.002 A 
ATOM     17  C   UNL d   1       1.514  -0.554   3.057  0.00  0.00     0.031 A 
ENDBRANCH   6  12
ENDBRANCH   1   5
BRANCH   2  18
ATOM     18  C   UNL d   1      -2.495  -4.335  -0.391  0.00  0.00     0.185 C 
BRANCH  18  19
ATOM     19  S   UNL d   1      -2.128  -5.018  -2.025  0.00  0.00    -0.085 SA
BRANCH  19  20
ATOM     20  C   UNL d   1      -0.437  -5.305  -1.891  0.00  0.00     0.145 A 
ATOM     21  N   UNL d   1       0.433  -4.771  -1.065  0.00  0.00    -0.335 N 
ATOM     22  C   UNL d   1       1.594  -5.487  -1.287  0.00  0.00     0.061 A 
ATOM     23  HN  UNL d   1       0.286  -4.004  -0.409  1.00  0.00     0.168 HD
ATOM     24  C   UNL d   1       2.854  -5.389  -0.678  0.00  0.00     0.032 A 
ATOM     25  C   UNL d   1       1.393  -6.474  -2.249  0.00  0.00     0.061 A 
ATOM     26  C   UNL d   1       3.831  -6.343  -0.990  0.00  0.00     0.002 A 
ATOM     27  C   UNL d   1       3.575  -7.353  -1.919  0.00  0.00     0.002 A 
ATOM     28  C   UNL d   1       2.355  -7.423  -2.597  0.00  0.00     0.032 A 
ATOM     29  N   UNL d   1       0.113  -6.266  -2.682  0.00  0.00    -0.335 N 
ATOM     30  H   UNL d   1      -0.380  -6.788  -3.389  0.00  0.00     0.168 HD
ENDBRANCH  19  20
ENDBRANCH  18  19
ENDBRANCH   2  18
TORSDOF 5
