REMARK  8 active torsions:
REMARK  status: ('A' for Active; 'I' for Inactive)
REMARK    1  A    between atoms: C_3  and  S_1 
REMARK    2  A    between atoms: C_5  and  S_1 
REMARK    3  A    between atoms: C_2  and  C_3 
REMARK    4  A    between atoms: C_4  and  C_2 
REMARK    5  A    between atoms: C_7  and  C_3 
REMARK    6  A    between atoms: C_6  and  C_4 
REMARK    7  A    between atoms: N_14  and  C_8 
REMARK    8  A    between atoms: O_21  and  C_15 
ROOT
ATOM      1  C   UNL d   1       0.564   1.782  -0.149  0.00  0.00     0.092 C 
ENDROOT
BRANCH   1   2
ATOM      2  C   UNL d   1      -0.231   1.813  -1.469  0.00  0.00     0.104 C 
BRANCH   2   3
ATOM      3  C   UNL d   1      -1.594   1.135  -1.396  0.00  0.00     0.161 C 
ATOM      4  O   UNL d   1      -2.145   0.880  -0.331  0.00  0.00    -0.292 OA
BRANCH   3   5
ATOM      5  C   UNL d   1      -2.338   0.918  -2.678  0.00  0.00     0.010 A 
ATOM      6  C   UNL d   1      -1.775   1.183  -3.933  0.00  0.00     0.015 A 
ATOM      7  C   UNL d   1      -2.546   1.070  -5.092  0.00  0.00     0.007 A 
ATOM      8  C   UNL d   1      -3.889   0.685  -5.018  0.00  0.00    -0.062 A 
ATOM      9  C   UNL d   1      -4.445   0.393  -3.767  0.00  0.00     0.007 A 
ATOM     10  C   UNL d   1      -4.742   0.679  -6.252  0.00  0.00     0.048 C 
ATOM     11  C   UNL d   1      -3.674   0.502  -2.607  0.00  0.00     0.015 A 
ENDBRANCH   3   5
ENDBRANCH   2   3
ENDBRANCH   1   2
BRANCH   1  12
ATOM     12  S   UNL d   1       0.990   0.015   0.267  0.00  0.00    -0.118 SA
BRANCH  12  13
ATOM     13  C   UNL d   1       2.029  -0.624  -1.065  0.00  0.00     0.022 A 
ATOM     14  C   UNL d   1       2.018  -2.024  -1.284  0.00  0.00     0.022 A 
ATOM     15  C   UNL d   1       2.919  -2.594  -2.195  0.00  0.00     0.024 A 
ATOM     16  C   UNL d   1       3.866  -1.807  -2.847  0.00  0.00     0.002 A 
ATOM     17  C   UNL d   1       3.876  -0.433  -2.643  0.00  0.00     0.001 A 
ATOM     18  C   UNL d   1       2.959   0.154  -1.766  0.00  0.00     0.020 A 
BRANCH  14  19
ATOM     19  N   UNL d   1       0.984  -2.837  -0.771  0.00  0.00    -0.302 NA
ATOM     20  H   UNL d   1       0.531  -2.400   0.031  0.00  0.00     0.124 HD
ATOM     21  H   UNL d   1       1.262  -3.796  -0.594  0.00  0.00     0.124 HD
ENDBRANCH  14  19
ENDBRANCH  12  13
ENDBRANCH   1  12
BRANCH   1  22
ATOM     22  C   UNL d   1       1.739   2.773  -0.070  0.00  0.00    -0.043 A 
ATOM     23  C   UNL d   1       1.694   4.010  -0.739  0.00  0.00     0.011 A 
ATOM     24  C   UNL d   1       2.777   4.900  -0.725  0.00  0.00     0.037 A 
ATOM     25  C   UNL d   1       3.933   4.588  -0.021  0.00  0.00     0.068 A 
ATOM     26  C   UNL d   1       3.972   3.404   0.711  0.00  0.00     0.037 A 
ATOM     27  C   UNL d   1       2.883   2.523   0.710  0.00  0.00     0.011 A 
BRANCH  25  28
ATOM     28  O   UNL d   1       5.068   5.348   0.042  0.00  0.00    -0.356 OA
ATOM     29  C   UNL d   1       5.070   6.556  -0.709  0.00  0.00     0.210 C 
ENDBRANCH  25  28
ENDBRANCH   1  22
TORSDOF 8
