REMARK  4 active torsions:
REMARK  status: ('A' for Active; 'I' for Inactive)
REMARK    1  A    between atoms: N_9  and  C_1 
REMARK    2  A    between atoms: C_4  and  N_10 
REMARK    3  A    between atoms: C_5  and  C_8 
REMARK    4  A    between atoms: N_10  and  N_9 
ROOT
ATOM      1  N   UNL d   1       1.996  -3.648   1.027  0.00  0.00    -0.298 N 
ATOM      2  C   UNL d   1       2.078  -4.462   2.245  0.00  0.00     0.173 C 
ENDROOT
BRANCH   1   3
ATOM      3  C   UNL d   1       3.155  -3.380   0.247  0.00  0.00     0.139 A 
ATOM      4  N   UNL d   1       2.959  -2.526  -0.808  0.00  0.00    -0.349 N 
ATOM      5  C   UNL d   1       3.996  -2.115  -1.577  0.00  0.00     0.106 A 
ATOM      6  HN  UNL d   1       2.018  -2.195  -1.018  1.00  0.00     0.167 HD
ATOM      7  C   UNL d   1       5.303  -2.487  -1.359  0.00  0.00     0.065 A 
ATOM      8  C   UNL d   1       5.522  -3.405  -0.339  0.00  0.00     0.045 A 
ATOM      9  C   UNL d   1       4.460  -3.877   0.456  0.00  0.00     0.080 A 
ATOM     10 CL   UNL d   1       4.976  -5.028   1.642  0.00  0.00    -0.080 Cl
BRANCH   7  11
ATOM     11  C   UNL d   1       6.415  -1.913  -2.178  0.00  0.00     0.418 C 
ATOM     12  F   UNL d   1       7.650  -2.304  -1.756  0.00  0.00    -0.166 F 
ATOM     13  F   UNL d   1       6.340  -2.262  -3.490  0.00  0.00    -0.166 F 
ATOM     14  F   UNL d   1       6.431  -0.552  -2.151  0.00  0.00    -0.166 F 
ENDBRANCH   7  11
ENDBRANCH   1   3
BRANCH   1  15
ATOM     15  N   UNL d   1       1.023  -2.550   1.051  0.00  0.00    -0.203 NA
ATOM     16  H   UNL d   1       1.012  -2.122   1.974  0.00  0.00     0.150 HD
BRANCH  15  17
ATOM     17  C   UNL d   1      -0.343  -2.957   0.706  0.00  0.00     0.257 C 
ATOM     18  O   UNL d   1      -0.841  -3.995   1.567  0.00  0.00    -0.290 OA
ATOM     19  C   UNL d   1      -1.004  -5.161   0.879  0.00  0.00     0.295 C 
ATOM     20  O   UNL d   1      -1.290  -6.248   1.360  0.00  0.00    -0.259 OA
ATOM     21  C   UNL d   1      -0.824  -4.862  -0.531  0.00  0.00     0.049 A 
ATOM     22  C   UNL d   1      -0.509  -3.525  -0.650  0.00  0.00     0.003 A 
ATOM     23  C   UNL d   1      -0.973  -5.694  -1.623  0.00  0.00     0.018 A 
ATOM     24  C   UNL d   1      -0.402  -2.938  -1.899  0.00  0.00     0.012 A 
ATOM     25  C   UNL d   1      -0.583  -3.744  -3.026  0.00  0.00     0.001 A 
ATOM     26  C   UNL d   1      -0.847  -5.121  -2.888  0.00  0.00     0.001 A 
ENDBRANCH  15  17
ENDBRANCH   1  15
TORSDOF 4
