REMARK  2 active torsions:
REMARK  status: ('A' for Active; 'I' for Inactive)
REMARK    1  A    between atoms: O_12  and  N_2 
REMARK    2  A    between atoms: C_6  and  C_9 
ROOT
ATOM      1  N   UNL d   1       2.402  -0.039  -0.006  0.00  0.00     0.007 NA
ATOM      2  N   UNL d   1       1.579  -1.086  -0.004  0.00  0.00    -0.145 N 
ATOM      3  C   UNL d   1       0.265  -0.750  -0.003  0.00  0.00     0.107 A 
ATOM      4  N   UNL d   1       1.634   1.047  -0.007  0.00  0.00    -0.280 N 
ATOM      5  HN  UNL d   1       1.961   2.013  -0.010  1.00  0.00     0.184 HD
ATOM      6  C   UNL d   1       0.321   0.637  -0.005  0.00  0.00     0.076 A 
ATOM      7  C   UNL d   1      -0.927  -1.480   0.001  0.00  0.00     0.052 A 
ATOM      8  C   UNL d   1      -2.127  -0.743   0.003  0.00  0.00     0.050 A 
ATOM      9  C   UNL d   1      -0.873   1.370  -0.004  0.00  0.00     0.034 A 
ATOM     10  C   UNL d   1      -2.088   0.667  -0.001  0.00  0.00     0.018 A 
ENDROOT
BRANCH   8  11
ATOM     11  C   UNL d   1      -3.461  -1.457   0.012  0.00  0.00     0.417 C 
ATOM     12  F   UNL d   1      -3.350  -2.815   0.007  0.00  0.00    -0.166 F 
ATOM     13  F   UNL d   1      -4.208  -1.147   1.106  0.00  0.00    -0.166 F 
ATOM     14  F   UNL d   1      -4.227  -1.142  -1.069  0.00  0.00    -0.166 F 
ENDBRANCH   8  11
BRANCH   2  15
ATOM     15  O   UNL d   1       2.119  -2.351  -0.002  0.00  0.00    -0.269 OA
ATOM     16  H   UNL d   1       3.047  -2.063  -0.003  0.00  0.00     0.246 HD
ENDBRANCH   2  15
TORSDOF 2
