REMARK  5 active torsions:
REMARK  status: ('A' for Active; 'I' for Inactive)
REMARK    1  A    between atoms: C_2  and  S_1 
REMARK    2  A    between atoms: N_8  and  S_1 
REMARK    3  A    between atoms: C_4  and  C_9 
REMARK    4  A    between atoms: C_17  and  N_8 
REMARK    5  A    between atoms: O_18  and  C_14 
ROOT
ATOM      1  C   UNL d   1       0.508  -1.208  -0.936  0.00  0.00     0.114 A 
ATOM      2  C   UNL d   1       1.035  -2.506  -0.744  0.00  0.00     0.042 A 
ATOM      3  C   UNL d   1       0.591  -3.605  -1.479  0.00  0.00    -0.006 A 
ATOM      4  C   UNL d   1      -0.500  -1.005  -1.880  0.00  0.00     0.091 A 
ATOM      5  C   UNL d   1      -0.382  -3.392  -2.454  0.00  0.00     0.016 A 
ATOM      6  C   UNL d   1      -0.924  -2.108  -2.639  0.00  0.00     0.039 A 
ENDROOT
BRANCH   1   7
ATOM      7  S   UNL d   1       1.200   0.024   0.145  0.00  0.00     0.266 S 
ATOM      8  O   UNL d   1       1.822  -0.648   1.266  0.00  0.00    -0.200 OA
ATOM      9  O   UNL d   1       0.224   1.063   0.388  0.00  0.00    -0.200 OA
BRANCH   7  10
ATOM     10  N   UNL d   1       2.405   0.695  -0.808  0.00  0.00    -0.281 N 
ATOM     11  H   UNL d   1       2.430   1.711  -0.862  0.00  0.00     0.179 HD
BRANCH  10  12
ATOM     12  C   UNL d   1       3.554  -0.057  -1.168  0.00  0.00     0.042 A 
ATOM     13  C   UNL d   1       3.588  -0.682  -2.415  0.00  0.00     0.030 A 
ATOM     14  C   UNL d   1       4.726  -1.385  -2.814  0.00  0.00     0.002 A 
ATOM     15  C   UNL d   1       5.837  -1.449  -1.973  0.00  0.00     0.000 A 
ATOM     16  C   UNL d   1       5.802  -0.822  -0.727  0.00  0.00     0.002 A 
ATOM     17  C   UNL d   1       4.661  -0.126  -0.320  0.00  0.00     0.030 A 
ENDBRANCH  10  12
ENDBRANCH   7  10
ENDBRANCH   1   7
BRANCH   4  18
ATOM     18  O   UNL d   1      -1.261   0.104  -2.111  0.00  0.00    -0.354 OA
ATOM     19  C   UNL d   1      -0.616   1.343  -2.367  0.00  0.00     0.210 C 
ENDBRANCH   4  18
BRANCH   3  20
ATOM     20  C   UNL d   1       1.120  -4.938  -1.229  0.00  0.00     0.063 A 
ATOM     21  N   UNL d   1       1.208  -5.887  -2.242  0.00  0.00    -0.292 N 
ATOM     22  N   UNL d   1       1.730  -7.023  -1.808  0.00  0.00    -0.061 NA
ATOM     23  HN  UNL d   1       0.907  -5.726  -3.203  1.00  0.00     0.183 HD
ATOM     24  S   UNL d   1       2.105  -6.991  -0.179  0.00  0.00    -0.010 SA
ATOM     25  C   UNL d   1       1.559  -5.376   0.011  0.00  0.00     0.096 A 
ENDBRANCH   3  20
TORSDOF 5
