REMARK  2 active torsions:
REMARK  status: ('A' for Active; 'I' for Inactive)
REMARK    1  A    between atoms: C_7  and  C_4 
REMARK    2  A    between atoms: C_8  and  C_5 
ROOT
ATOM      1  C   UNL d   1      -1.274  -0.046   0.137  0.00  0.00    -0.007 C 
ATOM      2  C   UNL d   1       1.282   0.041   0.156  0.00  0.00    -0.007 C 
ATOM      3  C   UNL d   1       0.031  -0.767  -0.027  0.00  0.00     0.184 C 
ATOM      4  C   UNL d   1      -2.354  -0.823   0.354  0.00  0.00     0.022 C 
ATOM      5  C   UNL d   1       2.434  -0.652   0.244  0.00  0.00     0.022 C 
ATOM      6  O   UNL d   1       0.071  -1.966  -0.292  0.00  0.00    -0.287 OA
ATOM      7  C   UNL d   1       1.174   1.536   0.232  0.00  0.00     0.043 C 
ATOM      8  C   UNL d   1      -1.311   1.454   0.049  0.00  0.00     0.043 C 
ATOM      9  C   UNL d   1      -0.036   2.046  -0.537  0.00  0.00     0.009 C 
ENDROOT
BRANCH   4  10
ATOM     10  C   UNL d   1      -3.714  -0.318   0.551  0.00  0.00    -0.036 A 
ATOM     11  C   UNL d   1      -4.565  -0.154  -0.548  0.00  0.00     0.011 A 
ATOM     12  C   UNL d   1      -5.865   0.321  -0.364  0.00  0.00     0.001 A 
ATOM     13  C   UNL d   1      -6.321   0.630   0.917  0.00  0.00     0.000 A 
ATOM     14  C   UNL d   1      -5.478   0.465   2.016  0.00  0.00     0.001 A 
ATOM     15  C   UNL d   1      -4.176  -0.005   1.834  0.00  0.00     0.011 A 
ENDBRANCH   4  10
BRANCH   5  16
ATOM     16  C   UNL d   1       3.740  -0.051   0.521  0.00  0.00    -0.036 A 
ATOM     17  C   UNL d   1       4.167   0.088   1.847  0.00  0.00     0.011 A 
ATOM     18  C   UNL d   1       5.408   0.661   2.129  0.00  0.00     0.001 A 
ATOM     19  C   UNL d   1       6.225   1.098   1.089  0.00  0.00     0.000 A 
ATOM     20  C   UNL d   1       5.803   0.964  -0.234  0.00  0.00     0.001 A 
ATOM     21  C   UNL d   1       4.562   0.390  -0.519  0.00  0.00     0.011 A 
ENDBRANCH   5  16
TORSDOF 2
