REMARK  4 active torsions:
REMARK  status: ('A' for Active; 'I' for Inactive)
REMARK    1  A    between atoms: S_2  and  C_1 
REMARK    2  A    between atoms: N_7  and  S_2 
REMARK    3  A    between atoms: C_12  and  N_7 
REMARK    4  A    between atoms: C_13  and  C_12 
ROOT
ATOM      1  S   UNL d   1      -0.853  -2.816   0.050  0.00  0.00     0.248 S 
ATOM      2  O   UNL d   1      -1.273  -1.461  -0.236  0.00  0.00    -0.205 OA
ATOM      3  O   UNL d   1       0.095  -3.130   1.091  0.00  0.00    -0.205 OA
ENDROOT
BRANCH   1   4
ATOM      4  C   UNL d   1      -2.347  -3.653   0.534  0.00  0.00     0.117 A 
ATOM      5  S   UNL d   1      -2.205  -5.339   0.815  0.00  0.00    -0.068 SA
ATOM      6  C   UNL d   1      -3.832  -5.454   1.292  0.00  0.00     0.070 A 
ATOM      7 BR   UNL d   1      -4.585  -7.075   1.862  0.00  0.00    -0.042 Br
ATOM      8  C   UNL d   1      -4.487  -4.253   1.206  0.00  0.00     0.037 A 
ATOM      9  C   UNL d   1      -3.637  -3.206   0.761  0.00  0.00     0.053 A 
ATOM     10 BR   UNL d   1      -6.299  -3.907   1.617  0.00  0.00    -0.049 Br
ENDBRANCH   1   4
BRANCH   1  11
ATOM     11  N   UNL d   1      -0.306  -3.526  -1.373  0.00  0.00    -0.211 NA
ATOM     12  H   UNL d   1      -0.307  -4.545  -1.323  0.00  0.00     0.140 HD
BRANCH  11  13
ATOM     13  C   UNL d   1      -0.848  -2.986  -2.624  0.00  0.00     0.143 C 
BRANCH  13  14
ATOM     14  C   UNL d   1      -0.289  -3.717  -3.823  0.00  0.00    -0.044 A 
ATOM     15  C   UNL d   1      -1.140  -4.350  -4.737  0.00  0.00     0.008 A 
ATOM     16  C   UNL d   1      -0.617  -5.012  -5.850  0.00  0.00     0.001 A 
ATOM     17  C   UNL d   1       0.759  -5.044  -6.062  0.00  0.00     0.000 A 
ATOM     18  C   UNL d   1       1.617  -4.415  -5.163  0.00  0.00     0.001 A 
ATOM     19  C   UNL d   1       1.096  -3.753  -4.050  0.00  0.00     0.008 A 
ENDBRANCH  13  14
ENDBRANCH  11  13
ENDBRANCH   1  11
TORSDOF 4
