REMARK  2 active torsions:
REMARK  status: ('A' for Active; 'I' for Inactive)
REMARK    1  A    between atoms: C_8  and  C_3 
REMARK    2  A    between atoms: C_7  and  C_4 
ROOT
ATOM      1  N   UNL d   1       1.403  -0.601  -0.084  0.00  0.00    -0.349 N 
ATOM      2  HN  UNL d   1       2.283  -1.111  -0.163  1.00  0.00     0.166 HD
ATOM      3  C   UNL d   1       0.210  -1.165  -0.030  0.00  0.00     0.084 A 
ATOM      4  C   UNL d   1       1.293   0.781  -0.017  0.00  0.00     0.051 A 
ATOM      5  S   UNL d   1      -1.107  -0.050   0.007  0.00  0.00    -0.081 SA
ATOM      6  C   UNL d   1      -0.003   1.255   0.015  0.00  0.00     0.082 A 
ENDROOT
BRANCH   3   7
ATOM      7  C   UNL d   1      -0.032  -2.619  -0.052  0.00  0.00    -0.002 A 
ATOM      8  C   UNL d   1      -1.167  -3.206   0.535  0.00  0.00     0.016 A 
ATOM      9  C   UNL d   1      -1.375  -4.589   0.482  0.00  0.00     0.024 A 
ATOM     10  C   UNL d   1      -0.443  -5.405  -0.154  0.00  0.00     0.034 A 
ATOM     11  C   UNL d   1       0.697  -4.851  -0.727  0.00  0.00     0.024 A 
ATOM     12 CL   UNL d   1      -0.705  -7.102  -0.230  0.00  0.00    -0.084 Cl
ATOM     13  C   UNL d   1       0.904  -3.466  -0.670  0.00  0.00     0.016 A 
ENDBRANCH   3   7
BRANCH   4  14
ATOM     14  C   UNL d   1       2.466   1.641  -0.020  0.00  0.00     0.006 A 
ATOM     15  C   UNL d   1       2.475   2.891   0.597  0.00  0.00     0.101 A 
ATOM     16  N   UNL d   1       3.532   3.741   0.600  0.00  0.00    -0.374 N 
ATOM     17  C   UNL d   1       4.644   3.321  -0.038  0.00  0.00     0.087 A 
ATOM     18  HN  UNL d   1       3.487   4.651   1.059  1.00  0.00     0.164 HD
ATOM     19  C   UNL d   1       4.750   2.092  -0.668  0.00  0.00     0.018 A 
ATOM     20  C   UNL d   1       3.646   1.241  -0.652  0.00  0.00     0.016 A 
ENDBRANCH   4  14
TORSDOF 2
