REMARK  5 active torsions:
REMARK  status: ('A' for Active; 'I' for Inactive)
REMARK    1  A    between atoms: C_2  and  C_1 
REMARK    2  A    between atoms: O_8  and  C_2 
REMARK    3  A    between atoms: N_6  and  C_3 
REMARK    4  A    between atoms: C_9  and  N_6 
REMARK    5  A    between atoms: C_10  and  O_8 
ROOT
ATOM      1  C   UNL d   1       1.074  -0.073   0.007  0.00  0.00     0.135 C 
ATOM      2  C   UNL d   1       0.354   0.675   0.866  0.00  0.00     0.117 C 
ATOM      3  C   UNL d   1       0.458  -0.966  -0.904  0.00  0.00     0.107 C 
ATOM      4  N   UNL d   1      -0.095  -1.677  -1.639  0.00  0.00    -0.191 NA
ENDROOT
BRANCH   1   5
ATOM      5  C   UNL d   1       2.541   0.129  -0.015  0.00  0.00     0.305 C 
ATOM      6  O   UNL d   1       3.142   0.914   0.704  0.00  0.00    -0.258 OA
BRANCH   5   7
ATOM      7  O   UNL d   1       3.096  -0.609  -1.010  0.00  0.00    -0.317 OA
BRANCH   7   8
ATOM      8  C   UNL d   1       4.416  -0.219  -1.413  0.00  0.00     0.174 C 
ATOM      9  C   UNL d   1       4.283   0.847  -2.485  0.00  0.00     0.034 C 
ENDBRANCH   7   8
ENDBRANCH   5   7
ENDBRANCH   1   5
BRANCH   2  10
ATOM     10  N   UNL d   1      -1.012   0.720   1.024  0.00  0.00    -0.364 N 
ATOM     11  H   UNL d   1      -1.566   0.142   0.395  0.00  0.00     0.165 HD
BRANCH  10  12
ATOM     12  C   UNL d   1      -1.777   1.516   1.897  0.00  0.00     0.031 A 
ATOM     13  C   UNL d   1      -1.232   2.468   2.767  0.00  0.00     0.029 A 
ATOM     14  C   UNL d   1      -2.047   3.204   3.634  0.00  0.00     0.002 A 
ATOM     15  C   UNL d   1      -3.423   2.994   3.648  0.00  0.00     0.000 A 
ATOM     16  C   UNL d   1      -3.985   2.051   2.794  0.00  0.00     0.002 A 
ATOM     17  C   UNL d   1      -3.167   1.320   1.929  0.00  0.00     0.029 A 
ENDBRANCH  10  12
ENDBRANCH   2  10
TORSDOF 5
