REMARK  1 active torsions:
REMARK  status: ('A' for Active; 'I' for Inactive)
REMARK    1  A    between atoms: C_11  and  C_5 
ROOT
ATOM      1  N   UNL d   1      -0.204   0.636  -0.034  0.00  0.00    -0.138 N 
ATOM      2  C   UNL d   1      -0.214  -0.736  -0.018  0.00  0.00     0.709 A 
ATOM      3  C   UNL d   1       2.158   0.736   0.003  0.00  0.00     0.142 A 
ATOM      4  N   UNL d   1       0.965  -1.454   0.005  0.00  0.00    -0.149 N 
ATOM      5  C   UNL d   1       0.969   1.382  -0.023  0.00  0.00     0.101 A 
ATOM      6  C   UNL d   1       2.181  -0.772   0.013  0.00  0.00     0.284 A 
ATOM      7  N   UNL d   1      -1.452  -1.174  -0.023  0.00  0.00    -0.130 N 
ATOM      8  HN  UNL d   1      -1.744  -2.151  -0.012  1.00  0.00     0.205 HD
ATOM      9  N   UNL d   1      -2.283  -0.079  -0.046  0.00  0.00    -0.281 N 
ATOM     10  HN  UNL d   1      -3.303  -0.096  -0.055  1.00  0.00     0.188 HD
ATOM     11  C   UNL d   1      -1.525   0.995  -0.056  0.00  0.00     0.224 A 
ATOM     12  C   UNL d   1       3.414   1.412   0.023  0.00  0.00     0.107 C 
ATOM     13  N   UNL d   1       4.413   2.003   0.049  0.00  0.00    -0.191 NA
ATOM     14  O   UNL d   1       3.261  -1.362   0.032  0.00  0.00    -0.266 OA
ATOM     15  C   UNL d   1       0.973  -2.906   0.012  0.00  0.00     0.179 C 
ENDROOT
BRANCH   5  16
ATOM     16  C   UNL d   1       0.915   2.808  -0.031  0.00  0.00     0.034 A 
ATOM     17  S   UNL d   1       0.909   3.664  -1.525  0.00  0.00    -0.100 SA
ATOM     18  C   UNL d   1       0.854   5.178  -0.737  0.00  0.00     0.050 A 
ATOM     19  C   UNL d   1       0.813   5.047   0.632  0.00  0.00     0.008 A 
ATOM     20  C   UNL d   1       0.842   3.682   1.040  0.00  0.00     0.021 A 
ENDBRANCH   5  16
TORSDOF 1
