REMARK  4 active torsions:
REMARK  status: ('A' for Active; 'I' for Inactive)
REMARK    1  A    between atoms: C_6  and  C_1 
REMARK    2  A    between atoms: C_11  and  N_2 
REMARK    3  A    between atoms: C_10  and  C_5 
REMARK    4  A    between atoms: N_8  and  C_9 
ROOT
ATOM      1  C   UNL d   1      -0.276  -1.187  -0.022  0.00  0.00     0.085 C 
ATOM      2  N   UNL d   1       1.006  -0.599  -0.081  0.00  0.00    -0.255 N 
ATOM      3  N   UNL d   1       0.956   0.746   0.053  0.00  0.00    -0.297 N 
ATOM      4  HN  UNL d   1       1.745   1.383   0.158  1.00  0.00     0.187 HD
ATOM      5  C   UNL d   1      -1.157  -0.090   0.006  0.00  0.00     0.062 C 
ATOM      6  C   UNL d   1      -0.332   1.065   0.021  0.00  0.00     0.038 C 
ATOM      7  C   UNL d   1      -0.674   2.512   0.092  0.00  0.00     0.071 C 
ENDROOT
BRANCH   1   8
ATOM      8  C   UNL d   1      -0.520  -2.664   0.093  0.00  0.00     0.027 A 
ATOM      9  C   UNL d   1      -1.514  -3.414  -0.574  0.00  0.00     0.115 A 
ATOM     10  C   UNL d   1      -1.578  -4.825  -0.482  0.00  0.00     0.037 A 
ATOM     11  C   UNL d   1      -0.634  -5.524   0.261  0.00  0.00     0.002 A 
ATOM     12  C   UNL d   1       0.323  -4.816   0.970  0.00  0.00     0.001 A 
ATOM     13  C   UNL d   1       0.343  -3.414   0.927  0.00  0.00     0.016 A 
BRANCH   9  14
ATOM     14  N   UNL d   1      -2.505  -2.813  -1.454  0.00  0.00    -0.115 N 
ATOM     15  O   UNL d   1      -2.102  -2.006  -2.305  0.00  0.00    -0.532 OA
ATOM     16  O   UNL d   1      -3.677  -3.196  -1.341  0.00  0.00    -0.532 OA
ENDBRANCH   9  14
ENDBRANCH   1   8
BRANCH   2  17
ATOM     17  C   UNL d   1       2.299  -1.192  -0.198  0.00  0.00     0.057 A 
ATOM     18  C   UNL d   1       2.515  -2.359  -0.937  0.00  0.00     0.031 A 
ATOM     19  C   UNL d   1       3.778  -2.959  -0.935  0.00  0.00     0.002 A 
ATOM     20  C   UNL d   1       4.829  -2.387  -0.217  0.00  0.00     0.000 A 
ATOM     21  C   UNL d   1       4.632  -1.198   0.479  0.00  0.00     0.002 A 
ATOM     22  C   UNL d   1       3.375  -0.591   0.478  0.00  0.00     0.031 A 
ENDBRANCH   2  17
BRANCH   5  23
ATOM     23  C   UNL d   1      -2.614  -0.137   0.107  0.00  0.00     0.160 C 
ATOM     24  O   UNL d   1      -3.162  -0.992   0.791  0.00  0.00    -0.293 OA
ATOM     25  C   UNL d   1      -3.448   0.872  -0.653  0.00  0.00     0.097 C 
ENDBRANCH   5  23
TORSDOF 4
