REMARK  5 active torsions:
REMARK  status: ('A' for Active; 'I' for Inactive)
REMARK    1  A    between atoms: C_3  and  C_1 
REMARK    2  A    between atoms: N_4  and  C_1 
REMARK    3  A    between atoms: C_6  and  C_2 
REMARK       I    between atoms: N_12  and  C_3 
REMARK       I    between atoms: C_5  and  N_4 
REMARK    4  A    between atoms: C_11  and  C_5 
REMARK    5  A    between atoms: N_15  and  N_12 
ROOT
ATOM      1  C   UNL d   1       0.940   0.030   0.077  0.00  0.00     0.106 C 
ATOM      2  C   UNL d   1       0.424   1.235  -0.238  0.00  0.00     0.054 C 
ENDROOT
BRANCH   1   3
ATOM      3  C   UNL d   1       2.444  -0.187   0.126  0.00  0.00     0.282 C 
ATOM      4  O   UNL d   1       3.261   0.671   0.444  0.00  0.00    -0.265 OA
ATOM      5  N   UNL d   1       2.819  -1.494  -0.190  0.00  0.00    -0.288 N 
ATOM      6  H   UNL d   1       2.148  -2.155  -0.569  0.00  0.00     0.183 HD
BRANCH   5   7
ATOM      7  N   UNL d   1       4.175  -1.877  -0.074  0.00  0.00    -0.247 NA
ATOM      8  H   UNL d   1       4.701  -1.027   0.182  0.00  0.00     0.143 HD
ATOM      9  H   UNL d   1       4.529  -2.118  -1.003  0.00  0.00     0.143 HD
ENDBRANCH   5   7
ENDBRANCH   1   3
BRANCH   1  10
ATOM     10  N   UNL d   1       0.151  -1.080   0.399  0.00  0.00    -0.318 N 
ATOM     11  C   UNL d   1      -1.224  -1.208   0.248  0.00  0.00     0.256 C 
ATOM     12  O   UNL d   1      -1.959  -0.347  -0.230  0.00  0.00    -0.267 OA
ATOM     13  H   UNL d   1       0.662  -1.875   0.764  0.00  0.00     0.169 HD
BRANCH  11  14
ATOM     14  C   UNL d   1      -1.843  -2.508   0.634  0.00  0.00     0.032 A 
ATOM     15  C   UNL d   1      -1.244  -3.437   1.494  0.00  0.00     0.017 A 
ATOM     16  C   UNL d   1      -1.902  -4.635   1.798  0.00  0.00     0.001 A 
ATOM     17  C   UNL d   1      -3.161  -4.907   1.262  0.00  0.00     0.000 A 
ATOM     18  C   UNL d   1      -3.774  -3.982   0.421  0.00  0.00     0.001 A 
ATOM     19  C   UNL d   1      -3.120  -2.791   0.112  0.00  0.00     0.017 A 
ENDBRANCH  11  14
ENDBRANCH   1  10
BRANCH   2  20
ATOM     20  C   UNL d   1       1.156   2.394  -0.611  0.00  0.00     0.007 A 
ATOM     21  S   UNL d   1       1.471   2.719  -2.269  0.00  0.00    -0.102 SA
ATOM     22  C   UNL d   1       2.133   4.254  -1.914  0.00  0.00     0.050 A 
ATOM     23  C   UNL d   1       2.138   4.516  -0.564  0.00  0.00     0.008 A 
ATOM     24  C   UNL d   1       1.579   3.441   0.187  0.00  0.00     0.019 A 
ENDBRANCH   2  20
TORSDOF 5
