REMARK  4 active torsions:
REMARK  status: ('A' for Active; 'I' for Inactive)
REMARK    1  A    between atoms: C_8  and  C_3 
REMARK    2  A    between atoms: C_13  and  C_4 
REMARK       I    between atoms: N_6  and  C_8 
REMARK       I    between atoms: C_9  and  N_6 
REMARK       I    between atoms: N_12  and  C_9 
REMARK    3  A    between atoms: C_10  and  C_11 
REMARK    4  A    between atoms: C_17  and  N_12 
ROOT
ATOM      1  N   UNL d   1      -1.727  -3.358   0.494  0.00  0.00    -0.172 NA
ATOM      2  C   UNL d   1      -1.922  -2.527  -0.597  0.00  0.00     0.280 C 
ATOM      3  C   UNL d   1      -2.345  -4.581   0.543  0.00  0.00     0.305 C 
ATOM      4  N   UNL d   1      -3.721  -4.551   0.572  0.00  0.00    -0.313 N 
ATOM      5  O   UNL d   1      -1.633  -5.579   0.607  0.00  0.00    -0.253 OA
ATOM      6  O   UNL d   1      -3.049  -2.251  -1.012  0.00  0.00    -0.270 OA
ATOM      7  H   UNL d   1      -0.733  -3.506   0.646  0.00  0.00     0.141 HD
ATOM      8  H   UNL d   1      -4.137  -3.627   0.528  0.00  0.00     0.170 HD
ENDROOT
BRANCH   2   9
ATOM      9  C   UNL d   1      -0.680  -1.966  -1.127  0.00  0.00     0.212 A 
ATOM     10  N   UNL d   1       0.481  -1.904  -0.484  0.00  0.00    -0.330 N 
ATOM     11  C   UNL d   1       1.344  -1.378  -1.423  0.00  0.00     0.074 A 
ATOM     12  HN  UNL d   1       0.686  -2.179   0.477  1.00  0.00     0.168 HD
ATOM     13  C   UNL d   1       0.679  -1.179  -2.615  0.00  0.00     0.079 A 
ATOM     14  C   UNL d   1       1.061  -0.717  -3.962  0.00  0.00     0.079 C 
ATOM     15  O   UNL d   1      -0.633  -1.525  -2.424  0.00  0.00    -0.292 OA
BRANCH  11  16
ATOM     16  C   UNL d   1       2.744  -1.074  -1.209  0.00  0.00    -0.007 A 
ATOM     17  C   UNL d   1       3.733  -1.805  -1.877  0.00  0.00     0.014 A 
ATOM     18  C   UNL d   1       5.078  -1.435  -1.782  0.00  0.00     0.001 A 
ATOM     19  C   UNL d   1       5.442  -0.330  -1.019  0.00  0.00     0.000 A 
ATOM     20  C   UNL d   1       4.465   0.395  -0.332  0.00  0.00     0.001 A 
ATOM     21  C   UNL d   1       3.118   0.020  -0.423  0.00  0.00     0.014 A 
ENDBRANCH  11  16
ENDBRANCH   2   9
BRANCH   4  22
ATOM     22  C   UNL d   1      -4.599  -5.652   0.716  0.00  0.00     0.036 A 
ATOM     23  C   UNL d   1      -4.185  -6.988   0.646  0.00  0.00     0.045 A 
ATOM     24  C   UNL d   1      -5.095  -8.049   0.806  0.00  0.00     0.050 A 
ATOM     25  C   UNL d   1      -6.444  -7.758   1.053  0.00  0.00     0.016 A 
ATOM     26  C   UNL d   1      -6.871  -6.433   1.123  0.00  0.00     0.003 A 
ATOM     27  C   UNL d   1      -5.957  -5.389   0.946  0.00  0.00     0.029 A 
BRANCH  24  28
ATOM     28  C   UNL d   1      -4.644  -9.485   0.693  0.00  0.00     0.417 C 
ATOM     29  F   UNL d   1      -3.296  -9.634   0.570  0.00  0.00    -0.166 F 
ATOM     30  F   UNL d   1      -5.003 -10.234   1.772  0.00  0.00    -0.166 F 
ATOM     31  F   UNL d   1      -5.187 -10.112  -0.389  0.00  0.00    -0.166 F 
ENDBRANCH  24  28
ENDBRANCH   4  22
TORSDOF 4
