REMARK  3 active torsions:
REMARK  status: ('A' for Active; 'I' for Inactive)
REMARK    1  A    between atoms: C_9  and  C_1 
REMARK    2  A    between atoms: C_21  and  C_7 
REMARK    3  A    between atoms: C_15  and  C_20 
ROOT
ATOM      1  C   UNL d   1      -0.217  -1.058   0.040  0.00  0.00     0.174 A 
ATOM      2  O   UNL d   1      -1.075   0.009  -0.015  0.00  0.00    -0.273 OA
ATOM      3  N   UNL d   1       1.047  -0.686   0.071  0.00  0.00    -0.277 N 
ATOM      4  HN  UNL d   1       1.862  -1.298   0.116  1.00  0.00     0.189 HD
ATOM      5  N   UNL d   1       1.052   0.694   0.029  0.00  0.00    -0.277 N 
ATOM      6  HN  UNL d   1       1.872   1.301   0.036  1.00  0.00     0.189 HD
ATOM      7  C   UNL d   1      -0.210   1.072  -0.020  0.00  0.00     0.174 A 
ENDROOT
BRANCH   1   8
ATOM      8  C   UNL d   1      -0.809  -2.393   0.070  0.00  0.00     0.019 A 
ATOM      9  C   UNL d   1      -2.214  -2.550   0.010  0.00  0.00     0.048 A 
ATOM     10  C   UNL d   1      -2.713  -3.874   0.073  0.00  0.00     0.067 A 
ATOM     11  N   UNL d   1      -4.007  -4.226   0.043  0.00  0.00    -0.310 N 
ATOM     12  C   UNL d   1      -1.780  -5.048   0.188  0.00  0.00     0.067 A 
ATOM     13  S   UNL d   1      -4.043  -5.884   0.158  0.00  0.00     0.068 SA
ATOM     14  HN  UNL d   1      -4.809  -3.601  -0.035  1.00  0.00     0.176 HD
ATOM     15  N   UNL d   1      -2.419  -6.226   0.242  0.00  0.00    -0.310 N 
ATOM     16  HN  UNL d   1      -1.993  -7.150   0.320  1.00  0.00     0.176 HD
ATOM     17  C   UNL d   1      -0.381  -4.858   0.231  0.00  0.00     0.033 A 
ATOM     18  C   UNL d   1       0.060  -3.519   0.170  0.00  0.00     0.018 A 
ENDBRANCH   1   8
BRANCH   7  19
ATOM     19  C   UNL d   1      -0.792   2.405  -0.108  0.00  0.00     0.017 A 
ATOM     20  C   UNL d   1      -2.182   2.601  -0.128  0.00  0.00     0.017 A 
ATOM     21  C   UNL d   1      -2.724   3.884  -0.262  0.00  0.00     0.017 A 
ATOM     22  C   UNL d   1      -1.887   5.002  -0.378  0.00  0.00     0.048 A 
ATOM     23  C   UNL d   1      -0.498   4.812  -0.334  0.00  0.00     0.017 A 
ATOM     24  C   UNL d   1       0.041   3.528  -0.199  0.00  0.00     0.017 A 
BRANCH  22  25
ATOM     25  C   UNL d   1      -2.458   6.388  -0.563  0.00  0.00     0.417 C 
ATOM     26  F   UNL d   1      -3.820   6.414  -0.607  0.00  0.00    -0.166 F 
ATOM     27  F   UNL d   1      -2.100   7.239   0.437  0.00  0.00    -0.166 F 
ATOM     28  F   UNL d   1      -2.038   6.971  -1.720  0.00  0.00    -0.166 F 
ENDBRANCH  22  25
ENDBRANCH   7  19
TORSDOF 3
