REMARK  2 active torsions:
REMARK  status: ('A' for Active; 'I' for Inactive)
REMARK    1  A    between atoms: C_5  and  C_3 
REMARK    2  A    between atoms: C_14  and  N_12 
ROOT
ATOM      1  N   UNL d   1       1.433  -0.485  -0.257  0.00  0.00    -0.335 N 
ATOM      2  HN  UNL d   1       2.336  -0.915  -0.457  1.00  0.00     0.168 HD
ATOM      3  C   UNL d   1       1.242   0.868  -0.068  0.00  0.00     0.058 A 
ATOM      4  C   UNL d   1       0.306  -1.150  -0.146  0.00  0.00     0.149 A 
ATOM      5  S   UNL d   1      -1.081  -0.140   0.070  0.00  0.00    -0.063 SA
ATOM      6  C   UNL d   1      -0.067   1.244   0.136  0.00  0.00     0.084 A 
ATOM      7  N   UNL d   1       0.157  -2.495  -0.198  0.00  0.00    -0.337 N 
ATOM      8  H   UNL d   1      -0.789  -2.851  -0.163  0.00  0.00     0.168 HD
ENDROOT
BRANCH   7   9
ATOM      9  C   UNL d   1       1.138  -3.472   0.078  0.00  0.00     0.034 A 
ATOM     10  C   UNL d   1       2.441  -3.174   0.499  0.00  0.00     0.029 A 
ATOM     11  C   UNL d   1       3.382  -4.181   0.734  0.00  0.00     0.002 A 
ATOM     12  C   UNL d   1       3.040  -5.513   0.533  0.00  0.00     0.000 A 
ATOM     13  C   UNL d   1       1.760  -5.835   0.090  0.00  0.00     0.002 A 
ATOM     14  C   UNL d   1       0.822  -4.823  -0.143  0.00  0.00     0.029 A 
ENDBRANCH   7   9
BRANCH   3  15
ATOM     15  C   UNL d   1       2.421   1.790  -0.076  0.00  0.00     0.033 A 
ATOM     16  S   UNL d   1       2.378   3.468   0.242  0.00  0.00    -0.076 SA
ATOM     17  C   UNL d   1       4.056   3.592   0.059  0.00  0.00     0.075 A 
ATOM     18 CL   UNL d   1       4.828   5.112   0.273  0.00  0.00    -0.076 Cl
ATOM     19  C   UNL d   1       4.663   2.405  -0.257  0.00  0.00     0.033 A 
ATOM     20  C   UNL d   1       3.707   1.352  -0.336  0.00  0.00     0.023 A 
ENDBRANCH   3  15
TORSDOF 2
