REMARK  9 active torsions:
REMARK  status: ('A' for Active; 'I' for Inactive)
REMARK    1  A    between atoms: C_6  and  C_1 
REMARK    2  A    between atoms: C_7  and  C_1 
REMARK    3  A    between atoms: N_2  and  C_3 
REMARK    4  A    between atoms: N_8  and  C_4 
REMARK    5  A    between atoms: C_5  and  N_8 
REMARK    6  A    between atoms: O_18  and  C_6 
REMARK    7  A    between atoms: O_17  and  C_7 
REMARK    8  A    between atoms: C_20  and  O_17 
REMARK    9  A    between atoms: C_19  and  O_18 
ROOT
ATOM      1  C   UNL d   1       1.035  -0.073   0.125  0.00  0.00     0.129 C 
ATOM      2  C   UNL d   1       0.342   0.909  -0.500  0.00  0.00     0.112 C 
ENDROOT
BRANCH   2   3
ATOM      3  N   UNL d   1       0.742   2.073  -1.135  0.00  0.00    -0.363 N 
ATOM      4  H   UNL d   1       1.349   2.661  -0.543  0.00  0.00     0.165 HD
BRANCH   3   5
ATOM      5  C   UNL d   1       1.189   2.143  -2.493  0.00  0.00     0.066 A 
ATOM      6  C   UNL d   1       1.770   3.308  -3.054  0.00  0.00     0.129 A 
ATOM      7  C   UNL d   1       2.016   3.407  -4.441  0.00  0.00     0.039 A 
ATOM      8  C   UNL d   1       1.699   2.349  -5.290  0.00  0.00     0.009 A 
ATOM      9  C   UNL d   1       1.156   1.177  -4.765  0.00  0.00    -0.060 A 
ATOM     10  C   UNL d   1       0.904   1.087  -3.384  0.00  0.00     0.038 A 
ATOM     11  C   UNL d   1       0.818   0.019  -5.659  0.00  0.00     0.048 C 
BRANCH   6  12
ATOM     12  N   UNL d   1       2.167   4.456  -2.220  0.00  0.00    -0.113 N 
ATOM     13  O   UNL d   1       2.013   4.372  -0.991  0.00  0.00    -0.532 OA
ATOM     14  O   UNL d   1       2.653   5.443  -2.790  0.00  0.00    -0.532 OA
ENDBRANCH   6  12
ENDBRANCH   3   5
ENDBRANCH   2   3
BRANCH   1  15
ATOM     15  C   UNL d   1       0.332  -1.254   0.684  0.00  0.00     0.300 C 
ATOM     16  O   UNL d   1       0.799  -1.995   1.540  0.00  0.00    -0.259 OA
BRANCH  15  17
ATOM     17  O   UNL d   1      -0.851  -1.455   0.043  0.00  0.00    -0.318 OA
BRANCH  17  18
ATOM     18  C   UNL d   1      -1.421  -2.768   0.153  0.00  0.00     0.174 C 
ATOM     19  C   UNL d   1      -0.937  -3.576  -1.038  0.00  0.00     0.034 C 
ENDBRANCH  17  18
ENDBRANCH  15  17
ENDBRANCH   1  15
BRANCH   1  20
ATOM     20  C   UNL d   1       2.519  -0.027   0.117  0.00  0.00     0.300 C 
ATOM     21  O   UNL d   1       3.177   1.001   0.011  0.00  0.00    -0.259 OA
BRANCH  20  22
ATOM     22  O   UNL d   1       3.008  -1.290   0.062  0.00  0.00    -0.318 OA
BRANCH  22  23
ATOM     23  C   UNL d   1       4.339  -1.431  -0.454  0.00  0.00     0.174 C 
ATOM     24  C   UNL d   1       4.205  -1.743  -1.933  0.00  0.00     0.034 C 
ENDBRANCH  22  23
ENDBRANCH  20  22
ENDBRANCH   1  20
TORSDOF 9
