REMARK  3 active torsions:
REMARK  status: ('A' for Active; 'I' for Inactive)
REMARK    1  A    between atoms: N_7  and  C_1 
REMARK    2  A    between atoms: C_10  and  C_4 
REMARK    3  A    between atoms: C_11  and  C_9 
ROOT
ATOM      1  C   UNL d   1       0.075  -1.509   0.048  0.00  0.00     0.108 A 
ATOM      2  N   UNL d   1      -1.044  -0.749   0.065  0.00  0.00    -0.289 N 
ATOM      3  HN  UNL d   1      -1.955  -1.208   0.103  1.00  0.00     0.188 HD
ATOM      4  C   UNL d   1       1.339  -0.886   0.010  0.00  0.00     0.016 A 
ATOM      5  N   UNL d   1      -0.989   0.636   0.032  0.00  0.00    -0.299 N 
ATOM      6  HN  UNL d   1      -1.854   1.176   0.022  1.00  0.00     0.187 HD
ATOM      7  C   UNL d   1       1.365   0.526  -0.008  0.00  0.00     0.047 A 
ATOM      8  C   UNL d   1       0.195   1.272   0.013  0.00  0.00     0.059 A 
ENDROOT
BRANCH   4   9
ATOM      9  C   UNL d   1       2.635  -1.613   0.051  0.00  0.00    -0.023 A 
ATOM     10  C   UNL d   1       3.698  -1.254  -0.799  0.00  0.00     0.012 A 
ATOM     11  C   UNL d   1       4.921  -1.929  -0.762  0.00  0.00     0.001 A 
ATOM     12  C   UNL d   1       5.104  -2.993   0.116  0.00  0.00     0.000 A 
ATOM     13  C   UNL d   1       4.072  -3.369   0.969  0.00  0.00     0.001 A 
ATOM     14  C   UNL d   1       2.860  -2.674   0.948  0.00  0.00     0.012 A 
ENDBRANCH   4   9
BRANCH   1  15
ATOM     15  N   UNL d   1      -0.050  -2.898   0.123  0.00  0.00    -0.268 NA
ATOM     16  C   UNL d   1      -1.304  -3.430   0.642  0.00  0.00     0.097 C 
ATOM     17  C   UNL d   1      -1.068  -4.927   0.489  0.00  0.00     0.016 C 
ATOM     18  C   UNL d   1      -0.314  -5.042  -0.834  0.00  0.00     0.016 C 
ATOM     19  C   UNL d   1       0.280  -3.648  -1.092  0.00  0.00     0.097 C 
ENDBRANCH   1  15
BRANCH   8  20
ATOM     20  C   UNL d   1       0.170   2.748   0.014  0.00  0.00    -0.008 A 
ATOM     21  C   UNL d   1      -0.894   3.456  -0.574  0.00  0.00     0.014 A 
ATOM     22  C   UNL d   1      -0.918   4.854  -0.600  0.00  0.00     0.001 A 
ATOM     23  C   UNL d   1       0.126   5.581  -0.029  0.00  0.00     0.000 A 
ATOM     24  C   UNL d   1       1.183   4.908   0.573  0.00  0.00     0.001 A 
ATOM     25  C   UNL d   1       1.202   3.509   0.597  0.00  0.00     0.014 A 
ENDBRANCH   8  20
TORSDOF 3
