REMARK  5 active torsions:
REMARK  status: ('A' for Active; 'I' for Inactive)
REMARK    1  A    between atoms: C_11  and  C_3 
REMARK    2  A    between atoms: C_19  and  C_4 
REMARK    3  A    between atoms: C_7  and  C_12 
REMARK    4  A    between atoms: C_14  and  N_9 
REMARK    5  A    between atoms: N_10  and  C_13 
ROOT
ATOM      1  C   UNL d   1       0.555   2.596  -0.043  0.00  0.00     0.025 A 
ATOM      2  C   UNL d   1       1.166   5.307   0.033  0.00  0.00     0.082 A 
ATOM      3  N   UNL d   1       0.462   4.768   1.048  0.00  0.00    -0.356 N 
ATOM      4  HN  UNL d   1       0.162   5.337   1.839  1.00  0.00     0.166 HD
ATOM      5  C   UNL d   1       0.164   3.443   0.986  0.00  0.00     0.104 A 
ATOM      6  C   UNL d   1       1.265   3.173  -1.093  0.00  0.00     0.020 A 
ATOM      7  C   UNL d   1       1.561   4.536  -1.059  0.00  0.00     0.043 A 
ENDROOT
BRANCH   2   8
ATOM      8  N   UNL d   1       1.636   6.619   0.112  0.00  0.00    -0.266 NA
ATOM      9  C   UNL d   1       1.709   7.147   1.485  0.00  0.00     0.116 C 
ATOM     10  C   UNL d   1       2.584   8.419   1.482  0.00  0.00     0.139 C 
ATOM     11  N   UNL d   1       2.067   9.405   0.520  0.00  0.00    -0.365 N 
ATOM     12  C   UNL d   1       1.776   8.905  -0.835  0.00  0.00     0.139 C 
ATOM     13  C   UNL d   1       0.975   7.578  -0.801  0.00  0.00     0.116 C 
BRANCH  11  14
ATOM     14  C   UNL d   1       1.880  10.723   0.841  0.00  0.00     0.102 A 
ATOM     15  N   UNL d   1       0.929  11.419   0.180  0.00  0.00    -0.352 N 
ATOM     16  C   UNL d   1       0.675  12.699   0.552  0.00  0.00     0.106 A 
ATOM     17  HN  UNL d   1       0.411  10.990  -0.587  1.00  0.00     0.166 HD
ATOM     18  C   UNL d   1       1.350  13.362   1.560  0.00  0.00     0.063 A 
ATOM     19  C   UNL d   1       2.360  12.662   2.207  0.00  0.00     0.021 A 
ATOM     20  C   UNL d   1       2.622  11.341   1.845  0.00  0.00     0.049 A 
BRANCH  18  21
ATOM     21  C   UNL d   1       1.011  14.767   1.942  0.00  0.00     0.418 C 
ATOM     22  F   UNL d   1      -0.019  15.297   1.227  0.00  0.00    -0.166 F 
ATOM     23  F   UNL d   1       0.651  14.876   3.251  0.00  0.00    -0.166 F 
ATOM     24  F   UNL d   1       2.060  15.619   1.774  0.00  0.00    -0.166 F 
ENDBRANCH  18  21
ENDBRANCH  11  14
ENDBRANCH   2   8
BRANCH   1  25
ATOM     25  C   UNL d   1       0.268   1.172  -0.020  0.00  0.00     0.139 A 
ATOM     26  N   UNL d   1       0.719   0.320  -1.007  0.00  0.00    -0.318 N 
ATOM     27  C   UNL d   1       0.266  -0.849  -0.611  0.00  0.00     0.182 A 
ATOM     28  HN  UNL d   1       1.268   0.542  -1.838  1.00  0.00     0.169 HD
ATOM     29  O   UNL d   1      -0.434  -0.776   0.560  0.00  0.00    -0.217 OA
ATOM     30  N   UNL d   1      -0.430   0.561   0.950  0.00  0.00    -0.242 N 
ATOM     31  HN  UNL d   1      -0.856   0.977   1.778  1.00  0.00     0.196 HD
BRANCH  27  32
ATOM     32  C   UNL d   1       0.402  -2.165  -1.228  0.00  0.00     0.018 A 
ATOM     33  C   UNL d   1       1.173  -2.311  -2.393  0.00  0.00     0.022 A 
ATOM     34  C   UNL d   1       1.321  -3.559  -3.015  0.00  0.00    -0.061 A 
ATOM     35  C   UNL d   1       2.143  -3.709  -4.263  0.00  0.00     0.048 C 
ATOM     36  C   UNL d   1       0.684  -4.674  -2.464  0.00  0.00     0.007 A 
ATOM     37  C   UNL d   1      -0.083  -4.546  -1.307  0.00  0.00     0.002 A 
ATOM     38  C   UNL d   1      -0.222  -3.301  -0.692  0.00  0.00     0.016 A 
ENDBRANCH  27  32
ENDBRANCH   1  25
TORSDOF 5
