REMARK  3 active torsions:
REMARK  status: ('A' for Active; 'I' for Inactive)
REMARK    1  A    between atoms: C_10  and  C_2 
REMARK    2  A    between atoms: C_11  and  C_9 
REMARK    3  A    between atoms: O_17  and  C_11 
ROOT
ATOM      1  C   UNL d   1      -0.047   0.520  -0.000  0.00  0.00     0.034 A 
ATOM      2  C   UNL d   1      -1.430   0.712  -0.001  0.00  0.00     0.145 A 
ATOM      3  C   UNL d   1       0.191  -0.793   0.002  0.00  0.00     0.104 A 
ATOM      4  N   UNL d   1      -2.035  -0.513   0.002  0.00  0.00    -0.293 N 
ATOM      5  HN  UNL d   1      -3.035  -0.713   0.003  1.00  0.00     0.187 HD
ATOM      6  N   UNL d   1      -1.007  -1.411   0.003  0.00  0.00    -0.288 N 
ATOM      7  S   UNL d   1       1.796  -1.205   0.001  0.00  0.00    -0.064 SA
ATOM      8  C   UNL d   1       1.097   1.319  -0.002  0.00  0.00     0.041 A 
ATOM      9  C   UNL d   1       2.231   0.493  -0.002  0.00  0.00     0.083 A 
ATOM     10  C   UNL d   1      -1.289  -2.823   0.004  0.00  0.00     0.178 C 
ENDROOT
BRANCH   2  11
ATOM     11  C   UNL d   1      -2.212   1.990  -0.005  0.00  0.00     0.434 C 
ATOM     12  F   UNL d   1      -1.408   3.091  -0.004  0.00  0.00    -0.165 F 
ATOM     13  F   UNL d   1      -3.011   2.107  -1.100  0.00  0.00    -0.165 F 
ATOM     14  F   UNL d   1      -3.019   2.110   1.085  0.00  0.00    -0.165 F 
ENDBRANCH   2  11
BRANCH   9  15
ATOM     15  C   UNL d   1       3.642   0.836  -0.002  0.00  0.00     0.300 C 
ATOM     16  O   UNL d   1       4.581   0.047  -0.005  0.00  0.00    -0.259 OA
BRANCH  15  17
ATOM     17  O   UNL d   1       3.787   2.194   0.003  0.00  0.00    -0.322 OA
ATOM     18  C   UNL d   1       5.151   2.623   0.008  0.00  0.00     0.213 C 
ENDBRANCH  15  17
ENDBRANCH   9  15
TORSDOF 3
