REMARK  6 active torsions:
REMARK  status: ('A' for Active; 'I' for Inactive)
REMARK    1  A    between atoms: C_6  and  C_1 
REMARK    2  A    between atoms: C_3  and  C_11 
REMARK    3  A    between atoms: C_9  and  C_6 
REMARK    4  A    between atoms: C_14  and  C_6 
REMARK       I    between atoms: C_7  and  N_8 
REMARK    5  A    between atoms: C_12  and  C_7 
REMARK    6  A    between atoms: N_8  and  C_9 
ROOT
ATOM      1  C   UNL d   1      -2.016  -2.512  -0.080  0.00  0.00     0.071 C 
ENDROOT
BRANCH   1   2
ATOM      2  C   UNL d   1      -1.474  -1.095  -0.054  0.00  0.00    -0.020 A 
ATOM      3  C   UNL d   1      -1.237  -0.258  -1.134  0.00  0.00     0.097 A 
ATOM      4  N   UNL d   1      -0.760   0.939  -0.677  0.00  0.00    -0.365 N 
ATOM      5  C   UNL d   1      -0.730   0.942   0.692  0.00  0.00     0.042 A 
ATOM      6  H   UNL d   1      -0.504   1.724  -1.260  0.00  0.00     0.165 HD
ATOM      7  C   UNL d   1      -1.168  -0.313   1.118  0.00  0.00    -0.001 A 
ATOM      8  C   UNL d   1      -0.359   1.965   1.572  0.00  0.00     0.030 A 
ATOM      9  C   UNL d   1      -1.237  -0.553   2.507  0.00  0.00     0.014 A 
ATOM     10  C   UNL d   1      -0.881   0.464   3.403  0.00  0.00     0.001 A 
ATOM     11  C   UNL d   1      -0.449   1.704   2.940  0.00  0.00     0.002 A 
ENDBRANCH   1   2
BRANCH   1  12
ATOM     12  C   UNL d   1      -2.849  -2.878  -1.335  0.00  0.00     0.137 C 
BRANCH  12  13
ATOM     13  N   UNL d   1      -2.094  -2.869  -2.580  0.00  0.00    -0.356 N 
ATOM     14  C   UNL d   1      -2.695  -2.918  -3.814  0.00  0.00     0.251 C 
ATOM     15  O   UNL d   1      -3.902  -3.030  -3.990  0.00  0.00    -0.268 OA
ATOM     16  H   UNL d   1      -1.099  -3.044  -2.521  0.00  0.00     0.162 HD
BRANCH  14  17
ATOM     17  C   UNL d   1      -1.760  -2.841  -4.969  0.00  0.00     0.032 A 
ATOM     18  C   UNL d   1      -2.055  -3.557  -6.131  0.00  0.00     0.018 A 
ATOM     19  C   UNL d   1      -1.184  -3.504  -7.224  0.00  0.00     0.017 A 
ATOM     20  C   UNL d   1      -0.019  -2.722  -7.173  0.00  0.00     0.048 A 
ATOM     21  C   UNL d   1       0.254  -1.982  -6.012  0.00  0.00     0.017 A 
ATOM     22  C   UNL d   1      -0.610  -2.042  -4.917  0.00  0.00     0.018 A 
BRANCH  20  23
ATOM     23  C   UNL d   1       0.938  -2.657  -8.340  0.00  0.00     0.417 C 
ATOM     24  F   UNL d   1       0.578  -3.450  -9.387  0.00  0.00    -0.166 F 
ATOM     25  F   UNL d   1       1.057  -1.398  -8.846  0.00  0.00    -0.166 F 
ATOM     26  F   UNL d   1       2.199  -3.041  -7.997  0.00  0.00    -0.166 F 
ENDBRANCH  20  23
ENDBRANCH  14  17
ENDBRANCH  12  13
ENDBRANCH   1  12
BRANCH   1  27
ATOM     27  C   UNL d   1      -0.860  -3.493   0.137  0.00  0.00    -0.048 A 
ATOM     28  C   UNL d   1      -1.128  -4.699   0.812  0.00  0.00     0.008 A 
ATOM     29  C   UNL d   1      -0.143  -5.681   0.960  0.00  0.00     0.001 A 
ATOM     30  C   UNL d   1       1.127  -5.477   0.431  0.00  0.00     0.000 A 
ATOM     31  C   UNL d   1       1.416  -4.291  -0.238  0.00  0.00     0.001 A 
ATOM     32  C   UNL d   1       0.433  -3.308  -0.384  0.00  0.00     0.008 A 
ENDBRANCH   1  27
TORSDOF 6
