REMARK  1 active torsions:
REMARK  status: ('A' for Active; 'I' for Inactive)
REMARK       I    between atoms: C_8  and  N_1 
REMARK    1  A    between atoms: C_11  and  C_6 
ROOT
ATOM      1  N   UNL d   1      -0.725   1.430   0.553  0.00  0.00    -0.251 N 
ATOM      2  C   UNL d   1      -1.901   0.886   0.027  0.00  0.00     0.232 C 
ATOM      3  S   UNL d   1      -0.480  -1.790   0.565  0.00  0.00    -0.117 SA
ATOM      4  C   UNL d   1      -1.754   0.010  -1.202  0.00  0.00     0.124 C 
ATOM      5  C   UNL d   1       0.561   0.832   0.277  0.00  0.00     0.062 A 
ATOM      6  C   UNL d   1      -1.665  -1.458  -0.800  0.00  0.00     0.094 C 
ATOM      7  C   UNL d   1       0.773  -0.561   0.218  0.00  0.00     0.028 A 
ATOM      8  C   UNL d   1      -0.742   2.487   1.473  0.00  0.00     0.227 C 
ATOM      9  O   UNL d   1      -3.024   1.067   0.502  0.00  0.00    -0.273 OA
ATOM     10  O   UNL d   1       0.144   2.671   2.316  0.00  0.00    -0.273 OA
ATOM     11  C   UNL d   1       1.661   1.687   0.049  0.00  0.00     0.031 A 
ATOM     12  C   UNL d   1       2.063  -1.059  -0.040  0.00  0.00     0.021 A 
ATOM     13  C   UNL d   1      -1.897   3.460   1.435  0.00  0.00     0.118 C 
ATOM     14  C   UNL d   1       2.927   1.179  -0.233  0.00  0.00     0.002 A 
ATOM     15  C   UNL d   1       3.131  -0.192  -0.276  0.00  0.00     0.002 A 
ENDROOT
BRANCH   6  16
ATOM     16  C   UNL d   1      -1.406  -2.372  -1.990  0.00  0.00    -0.044 A 
ATOM     17  C   UNL d   1      -0.255  -2.252  -2.788  0.00  0.00     0.008 A 
ATOM     18  C   UNL d   1      -0.036  -3.112  -3.866  0.00  0.00     0.001 A 
ATOM     19  C   UNL d   1      -0.968  -4.099  -4.170  0.00  0.00     0.000 A 
ATOM     20  C   UNL d   1      -2.117  -4.231  -3.395  0.00  0.00     0.001 A 
ATOM     21  C   UNL d   1      -2.333  -3.377  -2.311  0.00  0.00     0.008 A 
ENDBRANCH   6  16
TORSDOF 1
