REMARK  8 active torsions:
REMARK  status: ('A' for Active; 'I' for Inactive)
REMARK    1  A    between atoms: C_10  and  C_1 
REMARK    2  A    between atoms: C_15  and  N_2 
REMARK    3  A    between atoms: N_3  and  C_10 
REMARK    4  A    between atoms: S_16  and  C_5 
REMARK    5  A    between atoms: C_21  and  S_16 
REMARK    6  A    between atoms: C_17  and  C_21 
REMARK    7  A    between atoms: O_25  and  C_17 
REMARK    8  A    between atoms: C_29  and  O_25 
ROOT
ATOM      1  C   UNL d   1       0.044  -1.080   0.087  0.00  0.00     0.124 A 
ATOM      2  N   UNL d   1       1.373  -0.658   0.104  0.00  0.00    -0.278 N 
ATOM      3  C   UNL d   1       1.265   0.728   0.044  0.00  0.00     0.168 A 
ATOM      4  N   UNL d   1      -0.753  -0.029   0.028  0.00  0.00    -0.285 N 
ATOM      5  HN  UNL d   1      -1.773  -0.057   0.005  1.00  0.00     0.188 HD
ATOM      6  N   UNL d   1       0.006   1.095   0.003  0.00  0.00    -0.278 N 
ATOM      7  HN  UNL d   1      -0.339   2.054  -0.039  1.00  0.00     0.189 HD
ENDROOT
BRANCH   1   8
ATOM      8  C   UNL d   1      -0.483  -2.462   0.094  0.00  0.00     0.225 C 
BRANCH   8   9
ATOM      9  N   UNL d   1      -0.407  -3.176   1.367  0.00  0.00    -0.267 N 
ATOM     10  N   UNL d   1      -1.093  -2.676   2.423  0.00  0.00    -0.019 NA
ATOM     11  N   UNL d   1      -1.811  -3.668   2.934  0.00  0.00    -0.282 N 
ATOM     12  C   UNL d   1      -1.467  -4.820   2.284  0.00  0.00     0.074 A 
ATOM     13  HN  UNL d   1      -2.499  -3.585   3.682  1.00  0.00     0.184 HD
ATOM     14  C   UNL d   1      -0.424  -4.562   1.406  0.00  0.00     0.077 A 
ATOM     15  C   UNL d   1      -2.015  -6.110   2.337  0.00  0.00     0.033 A 
ATOM     16  C   UNL d   1       0.212  -5.554   0.651  0.00  0.00     0.033 A 
ATOM     17  C   UNL d   1      -0.330  -6.841   0.736  0.00  0.00     0.002 A 
ATOM     18  C   UNL d   1      -1.448  -7.108   1.532  0.00  0.00     0.002 A 
ENDBRANCH   8   9
ENDBRANCH   1   8
BRANCH   2  19
ATOM     19  C   UNL d   1       2.560  -1.450   0.140  0.00  0.00     0.043 A 
ATOM     20  C   UNL d   1       2.649  -2.654  -0.577  0.00  0.00     0.033 A 
ATOM     21  C   UNL d   1       3.821  -3.417  -0.535  0.00  0.00     0.044 A 
ATOM     22  C   UNL d   1       4.911  -2.967   0.198  0.00  0.00     0.116 A 
ATOM     23  C   UNL d   1       4.850  -1.769   0.896  0.00  0.00     0.044 A 
ATOM     24  F   UNL d   1       6.036  -3.692   0.220  0.00  0.00    -0.206 F 
ATOM     25  C   UNL d   1       3.672  -1.017   0.880  0.00  0.00     0.033 A 
ENDBRANCH   2  19
BRANCH   3  26
ATOM     26  S   UNL d   1       2.573   1.850  -0.192  0.00  0.00    -0.082 SA
BRANCH  26  27
ATOM     27  C   UNL d   1       1.800   3.377   0.425  0.00  0.00     0.193 C 
BRANCH  27  28
ATOM     28  C   UNL d   1       1.398   3.282   1.883  0.00  0.00     0.268 C 
ATOM     29  O   UNL d   1       1.679   2.374   2.661  0.00  0.00    -0.264 OA
BRANCH  28  30
ATOM     30  O   UNL d   1       0.671   4.390   2.203  0.00  0.00    -0.321 OA
BRANCH  30  31
ATOM     31  C   UNL d   1      -0.028   4.362   3.455  0.00  0.00     0.174 C 
ATOM     32  C   UNL d   1      -1.479   4.028   3.167  0.00  0.00     0.034 C 
ENDBRANCH  30  31
ENDBRANCH  28  30
ENDBRANCH  27  28
ENDBRANCH  26  27
ENDBRANCH   3  26
TORSDOF 8
