REMARK  2 active torsions:
REMARK  status: ('A' for Active; 'I' for Inactive)
REMARK    1  A    between atoms: C_3  and  N_1 
REMARK    2  A    between atoms: C_18  and  C_9 
ROOT
ATOM      1  C   UNL d   1       3.034  -4.256  -0.461  0.00  0.00     0.045 C 
ATOM      2  C   UNL d   1       2.624  -2.907  -0.537  0.00  0.00     0.141 C 
ATOM      3  C   UNL d   1       2.589  -5.029  -1.526  0.00  0.00     0.089 C 
ATOM      4  C   UNL d   1       3.916  -5.062   0.377  0.00  0.00     0.038 C 
ATOM      5  S   UNL d   1       2.921  -6.673  -1.343  0.00  0.00    -0.071 SA
ATOM      6  C   UNL d   1       4.122  -6.337  -0.155  0.00  0.00     0.018 C 
ATOM      7  N   UNL d   1       2.120  -2.438  -1.721  0.00  0.00    -0.336 N 
ATOM      8  HN  UNL d   1       1.991  -1.438  -1.869  1.00  0.00     0.168 HD
ATOM      9  N   UNL d   1       1.932  -4.624  -2.625  0.00  0.00    -0.346 N 
ATOM     10  HN  UNL d   1       1.574  -5.259  -3.339  1.00  0.00     0.167 HD
ATOM     11  C   UNL d   1       1.803  -3.310  -2.677  0.00  0.00     0.183 C 
ENDROOT
BRANCH   2  12
ATOM     12  N   UNL d   1       2.494  -2.014   0.569  0.00  0.00    -0.243 N 
ATOM     13  N   UNL d   1       2.111  -2.477   1.794  0.00  0.00    -0.297 N 
ATOM     14  C   UNL d   1       1.374  -1.476   2.302  0.00  0.00     0.024 C 
ATOM     15  HN  UNL d   1       2.333  -3.375   2.224  1.00  0.00     0.187 HD
ATOM     16  C   UNL d   1       0.486  -1.671   3.473  0.00  0.00     0.070 C 
ATOM     17  C   UNL d   1       1.520  -0.287   1.562  0.00  0.00     0.052 C 
ATOM     18  C   UNL d   1       2.294  -0.634   0.478  0.00  0.00     0.034 C 
ATOM     19  C   UNL d   1       2.745   0.204  -0.663  0.00  0.00     0.070 C 
ENDBRANCH   2  12
BRANCH   6  20
ATOM     20  C   UNL d   1       5.204  -7.338  -0.038  0.00  0.00    -0.019 A 
ATOM     21  C   UNL d   1       6.542  -6.926  -0.130  0.00  0.00     0.013 A 
ATOM     22  C   UNL d   1       7.559  -7.853  -0.401  0.00  0.00     0.001 A 
ATOM     23  C   UNL d   1       7.257  -9.203  -0.573  0.00  0.00     0.000 A 
ATOM     24  C   UNL d   1       5.946  -9.640  -0.419  0.00  0.00     0.001 A 
ATOM     25  C   UNL d   1       4.933  -8.718  -0.134  0.00  0.00     0.013 A 
ENDBRANCH   6  20
TORSDOF 2
