REMARK  4 active torsions:
REMARK  status: ('A' for Active; 'I' for Inactive)
REMARK    1  A    between atoms: N_11  and  C_5 
REMARK    2  A    between atoms: N_10  and  C_6 
REMARK    3  A    between atoms: C_16  and  N_10 
REMARK    4  A    between atoms: C_17  and  N_11 
ROOT
ATOM      1  N   UNL d   1       1.671   1.615  -0.179  0.00  0.00    -0.343 N 
ATOM      2  HN  UNL d   1       1.375   2.587  -0.269  1.00  0.00     0.167 HD
ATOM      3  N   UNL d   1       2.487  -1.086   0.015  0.00  0.00    -0.343 N 
ATOM      4  HN  UNL d   1       2.777  -2.063   0.067  1.00  0.00     0.167 HD
ATOM      5  C   UNL d   1       2.978   1.274  -0.135  0.00  0.00     0.119 A 
ATOM      6  C   UNL d   1       3.390  -0.086  -0.017  0.00  0.00     0.119 A 
ATOM      7  C   UNL d   1       0.781   0.614  -0.098  0.00  0.00     0.062 A 
ATOM      8  C   UNL d   1       1.188  -0.743  -0.024  0.00  0.00     0.060 A 
ATOM      9  C   UNL d   1      -0.578   0.912  -0.072  0.00  0.00     0.055 A 
ATOM     10  C   UNL d   1       0.225  -1.737   0.022  0.00  0.00     0.033 A 
ATOM     11  C   UNL d   1      -1.532  -0.099  -0.005  0.00  0.00     0.036 A 
ATOM     12  C   UNL d   1      -1.138  -1.429   0.032  0.00  0.00     0.026 A 
ATOM     13 CL   UNL d   1      -3.204   0.300   0.039  0.00  0.00    -0.084 Cl
ENDROOT
BRANCH   5  14
ATOM     14  N   UNL d   1       3.979   2.277  -0.189  0.00  0.00    -0.277 NA
ATOM     15  H   UNL d   1       4.306   2.402   0.769  0.00  0.00     0.129 HD
BRANCH  14  16
ATOM     16  C   UNL d   1       3.534   3.519  -0.811  0.00  0.00     0.089 C 
ATOM     17  C   UNL d   1       4.696   4.499  -0.850  0.00  0.00     0.021 C 
ENDBRANCH  14  16
ENDBRANCH   5  14
BRANCH   6  18
ATOM     18  N   UNL d   1       4.776  -0.367   0.117  0.00  0.00    -0.277 NA
ATOM     19  H   UNL d   1       5.266   0.424  -0.304  0.00  0.00     0.129 HD
BRANCH  18  20
ATOM     20  C   UNL d   1       5.144  -1.639  -0.497  0.00  0.00     0.089 C 
ATOM     21  C   UNL d   1       6.649  -1.836  -0.395  0.00  0.00     0.021 C 
ENDBRANCH  18  20
ENDBRANCH   6  18
TORSDOF 4
