REMARK  4 active torsions:
REMARK  status: ('A' for Active; 'I' for Inactive)
REMARK    1  A    between atoms: C_9  and  C_14 
REMARK    2  A    between atoms: O_16  and  C_9 
REMARK    3  A    between atoms: O_13  and  C_12 
REMARK    4  A    between atoms: C_14  and  O_13 
ROOT
ATOM      1  C   UNL d   1      -0.503  -0.815   0.127  0.00  0.00     0.086 A 
ATOM      2  C   UNL d   1      -0.747   0.555   0.115  0.00  0.00     0.043 A 
ATOM      3  C   UNL d   1       0.389   1.481   0.250  0.00  0.00     0.165 C 
ATOM      4  O   UNL d   1       0.741  -1.373   0.221  0.00  0.00    -0.340 OA
ATOM      5  C   UNL d   1       1.851  -0.503  -0.069  0.00  0.00     0.067 C 
ATOM      6  C   UNL d   1       1.705   0.858   0.614  0.00  0.00     0.121 C 
ATOM      7  C   UNL d   1      -1.577  -1.705   0.055  0.00  0.00     0.074 A 
ATOM      8  C   UNL d   1      -2.053   1.040   0.004  0.00  0.00     0.021 A 
ATOM      9  O   UNL d   1       0.235   2.693   0.141  0.00  0.00    -0.292 OA
ATOM     10  C   UNL d   1      -2.890  -1.231  -0.033  0.00  0.00     0.072 A 
ATOM     11  C   UNL d   1      -3.126   0.145  -0.070  0.00  0.00     0.038 A 
ATOM     12  C   UNL d   1       2.029  -0.381  -1.591  0.00  0.00     0.046 C 
ATOM     13  C   UNL d   1       3.089  -1.210   0.505  0.00  0.00     0.046 C 
ENDROOT
BRANCH  10  14
ATOM     14  O   UNL d   1      -3.853  -2.199  -0.127  0.00  0.00    -0.341 OA
BRANCH  14  15
ATOM     15  C   UNL d   1      -5.142  -1.845   0.388  0.00  0.00     0.285 C 
BRANCH  15  16
ATOM     16  C   UNL d   1      -6.061  -3.052   0.275  0.00  0.00     0.164 C 
ATOM     17  O   UNL d   1      -7.221  -3.066   0.666  0.00  0.00    -0.648 OA
BRANCH  16  18
ATOM     18  O   UNL d   1      -5.477  -4.122  -0.317  0.00  0.00    -0.775 OA
ATOM     19  H   UNL d   1      -4.550  -3.901  -0.555  0.00  0.00     0.167 HD
ENDBRANCH  16  18
ENDBRANCH  15  16
ENDBRANCH  14  15
ENDBRANCH  10  14
TORSDOF 4
