REMARK  3 active torsions:
REMARK  status: ('A' for Active; 'I' for Inactive)
REMARK    1  A    between atoms: C_2  and  C_1 
REMARK    2  A    between atoms: O_9  and  C_2 
REMARK    3  A    between atoms: N_6  and  C_3 
ROOT
ATOM      1  C   UNL d   1       1.117   0.731  -0.086  0.00  0.00     0.092 C 
ATOM      2  C   UNL d   1       1.071  -0.614  -0.156  0.00  0.00     0.007 C 
ATOM      3  S   UNL d   1      -0.420   1.480   0.222  0.00  0.00    -0.122 SA
ATOM      4  C   UNL d   1      -0.313  -1.176   0.075  0.00  0.00     0.062 C 
ATOM      5  C   UNL d   1      -1.319  -0.053  -0.159  0.00  0.00     0.085 C 
ENDROOT
BRANCH   1   6
ATOM      6  C   UNL d   1       2.367   1.520  -0.229  0.00  0.00     0.301 C 
ATOM      7  O   UNL d   1       3.489   1.034  -0.132  0.00  0.00    -0.259 OA
BRANCH   6   8
ATOM      8  O   UNL d   1       2.105   2.827  -0.494  0.00  0.00    -0.322 OA
ATOM      9  C   UNL d   1       3.268   3.635  -0.662  0.00  0.00     0.213 C 
ENDBRANCH   6   8
ENDBRANCH   1   6
BRANCH   2  10
ATOM     10  N   UNL d   1       2.098  -1.498  -0.407  0.00  0.00    -0.305 NA
ATOM     11  H   UNL d   1       3.026  -1.078  -0.284  0.00  0.00     0.124 HD
ATOM     12  H   UNL d   1       2.012  -2.394   0.068  0.00  0.00     0.124 HD
ENDBRANCH   2  10
TORSDOF 3
