REMARK  6 active torsions:
REMARK  status: ('A' for Active; 'I' for Inactive)
REMARK    1  A    between atoms: N_7  and  C_1 
REMARK    2  A    between atoms: N_9  and  C_1 
REMARK    3  A    between atoms: C_2  and  N_8 
REMARK    4  A    between atoms: C_3  and  C_4 
REMARK    5  A    between atoms: C_11  and  N_9 
REMARK    6  A    between atoms: C_24  and  C_14 
ROOT
ATOM      1  N   UNL d   1       0.624   1.086  -1.267  0.00  0.00    -0.355 N 
ATOM      2  N   UNL d   1      -0.612   1.323  -3.825  0.00  0.00    -0.363 N 
ATOM      3  C   UNL d   1       1.068   0.259  -2.412  0.00  0.00     0.145 C 
ATOM      4  C   UNL d   1      -0.722   1.675  -1.425  0.00  0.00     0.145 C 
ATOM      5  C   UNL d   1       0.800   0.907  -3.782  0.00  0.00     0.144 C 
ATOM      6  C   UNL d   1      -0.909   2.339  -2.807  0.00  0.00     0.144 C 
ENDROOT
BRANCH   1   7
ATOM      7  C   UNL d   1       1.084   0.679  -0.017  0.00  0.00     0.174 C 
ATOM      8  S   UNL d   1       0.132   0.083   1.223  0.00  0.00    -0.041 SA
BRANCH   7   9
ATOM      9  N   UNL d   1       2.448   0.691   0.148  0.00  0.00    -0.333 N 
ATOM     10  H   UNL d   1       2.783   0.121   0.916  0.00  0.00     0.168 HD
BRANCH   9  11
ATOM     11  C   UNL d   1       3.340   1.702  -0.294  0.00  0.00     0.041 A 
ATOM     12  C   UNL d   1       4.731   1.466  -0.315  0.00  0.00    -0.028 A 
ATOM     13  C   UNL d   1       5.578   2.534  -0.685  0.00  0.00     0.010 A 
ATOM     14  C   UNL d   1       5.072   3.793  -1.010  0.00  0.00     0.001 A 
ATOM     15  C   UNL d   1       3.705   4.014  -0.988  0.00  0.00     0.002 A 
ATOM     16  C   UNL d   1       2.848   2.975  -0.632  0.00  0.00     0.030 A 
BRANCH  12  17
ATOM     17  C   UNL d   1       5.330   0.079  -0.100  0.00  0.00     0.013 C 
ATOM     18  C   UNL d   1       5.625  -0.565  -1.459  0.00  0.00     0.015 C 
ATOM     19  C   UNL d   1       6.582   0.075   0.785  0.00  0.00     0.015 C 
ENDBRANCH  12  17
ENDBRANCH   9  11
ENDBRANCH   7   9
ENDBRANCH   1   7
BRANCH   2  20
ATOM     20  C   UNL d   1      -1.150   1.520  -5.093  0.00  0.00     0.125 A 
ATOM     21  N   UNL d   1      -1.387   2.788  -5.510  0.00  0.00    -0.350 N 
ATOM     22  C   UNL d   1      -2.000   2.969  -6.707  0.00  0.00     0.106 A 
ATOM     23  HN  UNL d   1      -1.112   3.587  -4.939  1.00  0.00     0.166 HD
ATOM     24  C   UNL d   1      -2.416   1.937  -7.535  0.00  0.00     0.065 A 
ATOM     25  C   UNL d   1      -2.161   0.634  -7.110  0.00  0.00     0.045 A 
ATOM     26  C   UNL d   1      -1.526   0.419  -5.888  0.00  0.00     0.078 A 
ATOM     27 CL   UNL d   1      -1.330  -1.221  -5.368  0.00  0.00    -0.080 Cl
BRANCH  24  28
ATOM     28  C   UNL d   1      -3.130   2.238  -8.814  0.00  0.00     0.418 C 
ATOM     29  F   UNL d   1      -3.522   1.122  -9.489  0.00  0.00    -0.166 F 
ATOM     30  F   UNL d   1      -4.259   2.971  -8.621  0.00  0.00    -0.166 F 
ATOM     31  F   UNL d   1      -2.364   2.950  -9.684  0.00  0.00    -0.166 F 
ENDBRANCH  24  28
ENDBRANCH   2  20
TORSDOF 6
