REMARK  3 active torsions:
REMARK  status: ('A' for Active; 'I' for Inactive)
REMARK    1  A    between atoms: C_4  and  N_1 
REMARK    2  A    between atoms: C_5  and  C_3 
REMARK    3  A    between atoms: O_17  and  C_7 
ROOT
ATOM      1  N   UNL d   1       1.076  -0.266  -0.586  0.00  0.00    -0.365 N 
ATOM      2  HN  UNL d   1       0.647   0.472  -1.144  1.00  0.00     0.165 HD
ATOM      3  C   UNL d   1       0.334  -1.132   0.023  0.00  0.00     0.099 C 
ENDROOT
BRANCH   1   4
ATOM      4  C   UNL d   1       2.476  -0.344  -0.477  0.00  0.00     0.032 A 
ATOM      5  C   UNL d   1       3.235   0.057  -1.583  0.00  0.00     0.031 A 
ATOM      6  C   UNL d   1       4.632   0.015  -1.558  0.00  0.00     0.026 A 
ATOM      7  C   UNL d   1       5.285  -0.430  -0.413  0.00  0.00     0.034 A 
ATOM      8  C   UNL d   1       4.553  -0.814   0.707  0.00  0.00     0.026 A 
ATOM      9 CL   UNL d   1       7.003  -0.502  -0.377  0.00  0.00    -0.084 Cl
ATOM     10  C   UNL d   1       3.154  -0.759   0.677  0.00  0.00     0.031 A 
ENDBRANCH   1   4
BRANCH   3  11
ATOM     11  C   UNL d   1      -1.139  -1.131  -0.096  0.00  0.00    -0.021 A 
ATOM     12  C   UNL d   1      -1.795  -0.240  -0.949  0.00  0.00     0.015 A 
ATOM     13  C   UNL d   1      -3.189  -0.283  -1.067  0.00  0.00     0.037 A 
ATOM     14  C   UNL d   1      -3.928  -1.208  -0.327  0.00  0.00     0.068 A 
ATOM     15  C   UNL d   1      -3.263  -2.094   0.525  0.00  0.00     0.037 A 
ATOM     16  C   UNL d   1      -1.871  -2.061   0.642  0.00  0.00     0.015 A 
BRANCH  14  17
ATOM     17  O   UNL d   1      -5.289  -1.349  -0.341  0.00  0.00    -0.356 OA
ATOM     18  C   UNL d   1      -6.019  -0.481  -1.198  0.00  0.00     0.210 C 
ENDBRANCH  14  17
ENDBRANCH   3  11
TORSDOF 3
