REMARK  1 active torsions:
REMARK  status: ('A' for Active; 'I' for Inactive)
REMARK    1  A    between atoms: C_6  and  C_4 
ROOT
ATOM      1  S   UNL d   1      -0.422  -1.808   0.540  0.00  0.00    -0.118 SA
ATOM      2  N   UNL d   1      -0.670   1.375   0.470  0.00  0.00    -0.326 N 
ATOM      3  C   UNL d   1      -1.856   0.956  -0.074  0.00  0.00     0.223 C 
ATOM      4  C   UNL d   1      -1.648  -1.475  -0.785  0.00  0.00     0.094 C 
ATOM      5  C   UNL d   1      -1.794  -0.025  -1.218  0.00  0.00     0.123 C 
ATOM      6  C   UNL d   1       0.828  -0.578   0.185  0.00  0.00     0.028 A 
ATOM      7  C   UNL d   1       0.601   0.809   0.266  0.00  0.00     0.051 A 
ATOM      8  O   UNL d   1      -2.919   1.466   0.282  0.00  0.00    -0.273 OA
ATOM      9  C   UNL d   1       2.132  -1.048  -0.031  0.00  0.00     0.021 A 
ATOM     10  C   UNL d   1       1.683   1.693   0.178  0.00  0.00     0.031 A 
ATOM     11  C   UNL d   1       3.193  -0.156  -0.185  0.00  0.00     0.002 A 
ATOM     12  C   UNL d   1       2.970   1.213  -0.072  0.00  0.00     0.002 A 
ATOM     13  H   UNL d   1      -0.736   2.256   0.968  0.00  0.00     0.169 HD
ENDROOT
BRANCH   4  14
ATOM     14  C   UNL d   1      -1.399  -2.376  -1.993  0.00  0.00    -0.040 A 
ATOM     15  C   UNL d   1      -2.390  -3.274  -2.419  0.00  0.00     0.032 A 
ATOM     16  C   UNL d   1      -2.169  -4.102  -3.524  0.00  0.00     0.036 A 
ATOM     17 CL   UNL d   1      -3.405  -5.185  -4.036  0.00  0.00    -0.084 Cl
ATOM     18  C   UNL d   1      -0.963  -4.061  -4.219  0.00  0.00     0.047 A 
ATOM     19  C   UNL d   1       0.021  -3.169  -3.809  0.00  0.00     0.036 A 
ATOM     20  C   UNL d   1      -0.195  -2.325  -2.720  0.00  0.00     0.032 A 
ATOM     21 CL   UNL d   1       1.522  -3.103  -4.647  0.00  0.00    -0.084 Cl
ENDBRANCH   4  14
TORSDOF 1
