REMARK  6 active torsions:
REMARK  status: ('A' for Active; 'I' for Inactive)
REMARK    1  A    between atoms: C_2  and  C_1 
REMARK       I    between atoms: N_5  and  C_1 
REMARK    2  A    between atoms: C_3  and  C_4 
REMARK    3  A    between atoms: O_11  and  C_3 
REMARK    4  A    between atoms: C_9  and  N_5 
REMARK    5  A    between atoms: O_8  and  C_10 
REMARK    6  A    between atoms: C_12  and  O_8 
ROOT
ATOM      1  C   UNL d   1      -1.122   1.082   0.417  0.00  0.00     0.035 A 
ATOM      2  C   UNL d   1      -3.928   1.161   0.543  0.00  0.00     0.076 A 
ATOM      3  C   UNL d   1      -1.826   0.140   1.170  0.00  0.00     0.032 A 
ATOM      4  C   UNL d   1      -1.836   2.110  -0.214  0.00  0.00     0.032 A 
ATOM      5  C   UNL d   1      -3.219   0.193   1.254  0.00  0.00     0.039 A 
ATOM      6  C   UNL d   1      -3.234   2.149  -0.151  0.00  0.00     0.039 A 
ENDROOT
BRANCH   1   7
ATOM      7  N   UNL d   1       0.280   1.056   0.248  0.00  0.00    -0.324 N 
ATOM      8  C   UNL d   1       1.145   0.085   0.707  0.00  0.00     0.245 C 
ATOM      9  O   UNL d   1       0.863  -0.925   1.340  0.00  0.00    -0.268 OA
ATOM     10  H   UNL d   1       0.669   1.814  -0.299  0.00  0.00     0.169 HD
BRANCH   8  11
ATOM     11  C   UNL d   1       2.558   0.363   0.348  0.00  0.00     0.081 C 
ATOM     12  C   UNL d   1       3.503  -0.478   0.793  0.00  0.00     0.086 C 
BRANCH  12  13
ATOM     13  C   UNL d   1       4.910  -0.220   0.456  0.00  0.00     0.165 C 
ATOM     14  O   UNL d   1       5.288   0.710  -0.231  0.00  0.00    -0.647 OA
BRANCH  13  15
ATOM     15  O   UNL d   1       5.740  -1.129   1.002  0.00  0.00    -0.773 OA
ATOM     16  H   UNL d   1       5.312  -1.827   1.537  0.00  0.00     0.167 HD
ENDBRANCH  13  15
ENDBRANCH  12  13
ENDBRANCH   8  11
ENDBRANCH   1   7
BRANCH   2  17
ATOM     17  O   UNL d   1      -5.303   1.221   0.512  0.00  0.00    -0.311 OA
BRANCH  17  18
ATOM     18  C   UNL d   1      -6.011   0.040   0.424  0.00  0.00     0.076 A 
ATOM     19  C   UNL d   1      -7.251   0.011   1.064  0.00  0.00     0.037 A 
ATOM     20  C   UNL d   1      -8.021  -1.153   1.046  0.00  0.00     0.003 A 
ATOM     21  C   UNL d   1      -7.555  -2.289   0.384  0.00  0.00     0.000 A 
ATOM     22  C   UNL d   1      -6.335  -2.252  -0.288  0.00  0.00     0.003 A 
ATOM     23  C   UNL d   1      -5.574  -1.082  -0.290  0.00  0.00     0.037 A 
ENDBRANCH  17  18
ENDBRANCH   2  17
TORSDOF 6
