REMARK  6 active torsions:
REMARK  status: ('A' for Active; 'I' for Inactive)
REMARK    1  A    between atoms: C_4  and  C_1 
REMARK    2  A    between atoms: C_2  and  C_6 
REMARK    3  A    between atoms: C_3  and  C_7 
REMARK    4  A    between atoms: C_5  and  C_4 
REMARK    5  A    between atoms: C_9  and  C_8 
REMARK    6  A    between atoms: O_21  and  C_9 
ROOT
ATOM      1  C   UNL d   1       1.308  -0.202  -0.116  0.00  0.00     0.016 A 
ATOM      2  C   UNL d   1      -0.947  -1.125  -0.082  0.00  0.00     0.049 A 
ATOM      3  C   UNL d   1      -0.610   1.299  -0.088  0.00  0.00     0.049 A 
ATOM      4  C   UNL d   1       0.443  -1.303  -0.112  0.00  0.00     0.031 A 
ATOM      5  C   UNL d   1       0.778   1.092  -0.169  0.00  0.00     0.031 A 
ATOM      6  C   UNL d   1      -1.462   0.182  -0.053  0.00  0.00     0.032 A 
ENDROOT
BRANCH   1   7
ATOM      7  C   UNL d   1       2.771  -0.466   0.026  0.00  0.00     0.193 C 
ATOM      8  O   UNL d   1       3.216  -1.542  -0.358  0.00  0.00    -0.287 OA
BRANCH   7   9
ATOM      9  C   UNL d   1       3.687   0.468   0.740  0.00  0.00     0.032 A 
ATOM     10  C   UNL d   1       5.052   0.601   0.430  0.00  0.00     0.051 A 
ATOM     11  C   UNL d   1       5.823   1.528   1.167  0.00  0.00     0.019 A 
ATOM     12  C   UNL d   1       5.266   2.297   2.189  0.00  0.00     0.001 A 
ATOM     13  C   UNL d   1       3.928   2.138   2.514  0.00  0.00     0.001 A 
ATOM     14  C   UNL d   1       3.154   1.214   1.814  0.00  0.00     0.016 A 
BRANCH  10  15
ATOM     15  C   UNL d   1       5.814  -0.087  -0.653  0.00  0.00     0.177 C 
ATOM     16  O   UNL d   1       6.722   0.490  -1.237  0.00  0.00    -0.646 OA
BRANCH  15  17
ATOM     17  O   UNL d   1       5.577  -1.394  -0.846  0.00  0.00    -0.773 OA
ATOM     18  H   UNL d   1       4.711  -1.724  -0.508  0.00  0.00     0.167 HD
ENDBRANCH  15  17
ENDBRANCH  10  15
ENDBRANCH   7   9
ENDBRANCH   1   7
BRANCH   2  19
ATOM     19  C   UNL d   1      -1.886  -2.310  -0.030  0.00  0.00     0.417 C 
ATOM     20  F   UNL d   1      -1.251  -3.510  -0.074  0.00  0.00    -0.166 F 
ATOM     21  F   UNL d   1      -2.628  -2.319   1.110  0.00  0.00    -0.166 F 
ATOM     22  F   UNL d   1      -2.775  -2.311  -1.059  0.00  0.00    -0.166 F 
ENDBRANCH   2  19
BRANCH   3  23
ATOM     23  C   UNL d   1      -1.185   2.693   0.036  0.00  0.00     0.417 C 
ATOM     24  F   UNL d   1      -0.235   3.667   0.050  0.00  0.00    -0.166 F 
ATOM     25  F   UNL d   1      -2.038   3.003  -0.975  0.00  0.00    -0.166 F 
ATOM     26  F   UNL d   1      -1.891   2.847   1.191  0.00  0.00    -0.166 F 
ENDBRANCH   3  23
TORSDOF 6
