REMARK  10 active torsions:
REMARK  status: ('A' for Active; 'I' for Inactive)
REMARK    1  A    between atoms: C_3  and  N_1 
REMARK    2  A    between atoms: C_2  and  C_4 
REMARK    3  A    between atoms: S_5  and  C_2 
REMARK    4  A    between atoms: S_6  and  C_2 
REMARK    5  A    between atoms: C_14  and  S_5 
REMARK    6  A    between atoms: C_15  and  S_6 
REMARK    7  A    between atoms: C_10  and  C_15 
REMARK    8  A    between atoms: O_16  and  C_10 
REMARK    9  A    between atoms: C_11  and  C_14 
REMARK   10  A    between atoms: O_17  and  C_11 
ROOT
ATOM      1  C   UNL d   1       0.334  -4.277   2.153  0.00  0.00     0.080 C 
ATOM      2  C   UNL d   1       1.558  -3.870   2.995  0.00  0.00     0.044 C 
ENDROOT
BRANCH   1   3
ATOM      3  C   UNL d   1      -0.063  -3.215   1.093  0.00  0.00    -0.027 A 
ATOM      4  C   UNL d   1      -0.732  -3.564  -0.103  0.00  0.00     0.045 A 
ATOM      5  C   UNL d   1      -1.064  -2.591  -1.064  0.00  0.00     0.103 A 
ATOM      6  C   UNL d   1      -0.803  -1.241  -0.830  0.00  0.00     0.036 A 
ATOM      7  C   UNL d   1      -0.188  -0.869   0.360  0.00  0.00     0.003 A 
ATOM      8  C   UNL d   1       0.186  -1.841   1.298  0.00  0.00     0.010 A 
BRANCH   5   9
ATOM      9  N   UNL d   1      -1.670  -3.001  -2.340  0.00  0.00    -0.116 N 
ATOM     10  O   UNL d   1      -1.810  -4.214  -2.548  0.00  0.00    -0.532 OA
ATOM     11  O   UNL d   1      -1.994  -2.108  -3.137  0.00  0.00    -0.532 OA
ENDBRANCH   5   9
ENDBRANCH   1   3
BRANCH   1  12
ATOM     12  S   UNL d   1      -1.139  -4.651   3.237  0.00  0.00    -0.133 SA
BRANCH  12  13
ATOM     13  C   UNL d   1      -1.388  -3.041   4.076  0.00  0.00     0.185 C 
BRANCH  13  14
ATOM     14  C   UNL d   1      -2.458  -3.090   5.151  0.00  0.00     0.149 C 
ATOM     15  O   UNL d   1      -2.768  -2.111   5.816  0.00  0.00    -0.649 OA
BRANCH  14  16
ATOM     16  O   UNL d   1      -3.040  -4.295   5.339  0.00  0.00    -0.776 OA
ATOM     17  H   UNL d   1      -2.680  -4.963   4.716  0.00  0.00     0.167 HD
ENDBRANCH  14  16
ENDBRANCH  13  14
ENDBRANCH  12  13
ENDBRANCH   1  12
BRANCH   1  18
ATOM     18  S   UNL d   1       0.819  -5.889   1.273  0.00  0.00    -0.133 SA
BRANCH  18  19
ATOM     19  C   UNL d   1       1.206  -7.022   2.663  0.00  0.00     0.185 C 
BRANCH  19  20
ATOM     20  C   UNL d   1       1.638  -8.394   2.180  0.00  0.00     0.149 C 
ATOM     21  O   UNL d   1       1.957  -9.292   2.949  0.00  0.00    -0.649 OA
BRANCH  20  22
ATOM     22  O   UNL d   1       1.659  -8.565   0.839  0.00  0.00    -0.776 OA
ATOM     23  H   UNL d   1       1.372  -7.746   0.378  0.00  0.00     0.167 HD
ENDBRANCH  20  22
ENDBRANCH  19  20
ENDBRANCH  18  19
ENDBRANCH   1  18
TORSDOF 10
