REMARK  4 active torsions:
REMARK  status: ('A' for Active; 'I' for Inactive)
REMARK    1  A    between atoms: N_2  and  S_1 
REMARK    2  A    between atoms: C_5  and  S_1 
REMARK    3  A    between atoms: C_9  and  N_2 
REMARK       I    between atoms: C_6  and  N_7 
REMARK    4  A    between atoms: N_7  and  C_10 
ROOT
ATOM      1  C   UNL d   1       0.861  -0.347  -2.654  0.00  0.00     0.042 A 
ATOM      2  C   UNL d   1       1.577   0.771  -5.132  0.00  0.00     0.034 A 
ATOM      3  C   UNL d   1       2.187  -0.004  -2.904  0.00  0.00     0.032 A 
ATOM      4  C   UNL d   1      -0.107  -0.132  -3.629  0.00  0.00     0.032 A 
ATOM      5  C   UNL d   1       2.546   0.539  -4.146  0.00  0.00     0.032 A 
ATOM      6  C   UNL d   1       0.251   0.430  -4.859  0.00  0.00     0.032 A 
ENDROOT
BRANCH   1   7
ATOM      7  N   UNL d   1       0.487  -0.892  -1.400  0.00  0.00    -0.281 N 
ATOM      8  H   UNL d   1      -0.103  -1.722  -1.394  0.00  0.00     0.179 HD
BRANCH   7   9
ATOM      9  S   UNL d   1       0.186   0.134  -0.095  0.00  0.00     0.263 S 
ATOM     10  O   UNL d   1       1.369   0.934   0.152  0.00  0.00    -0.200 OA
ATOM     11  O   UNL d   1      -0.385  -0.699   0.943  0.00  0.00    -0.200 OA
BRANCH   9  12
ATOM     12  C   UNL d   1      -1.103   1.220  -0.676  0.00  0.00     0.079 A 
ATOM     13  C   UNL d   1      -2.443   0.863  -0.502  0.00  0.00     0.025 A 
ATOM     14  C   UNL d   1      -3.450   1.734  -0.929  0.00  0.00     0.002 A 
ATOM     15  C   UNL d   1      -3.114   2.957  -1.513  0.00  0.00     0.000 A 
ATOM     16  C   UNL d   1      -1.775   3.319  -1.662  0.00  0.00     0.002 A 
ATOM     17  C   UNL d   1      -0.764   2.455  -1.236  0.00  0.00     0.025 A 
ENDBRANCH   9  12
ENDBRANCH   7   9
ENDBRANCH   1   7
BRANCH   2  18
ATOM     18  N   UNL d   1       2.001   1.350  -6.350  0.00  0.00    -0.328 N 
ATOM     19  C   UNL d   1       1.203   1.700  -7.426  0.00  0.00     0.218 C 
ATOM     20  O   UNL d   1      -0.010   1.553  -7.518  0.00  0.00    -0.274 OA
ATOM     21  C   UNL d   1       1.966   2.329  -8.566  0.00  0.00     0.117 C 
ATOM     22  H   UNL d   1       2.991   1.545  -6.426  0.00  0.00     0.169 HD
ENDBRANCH   2  18
TORSDOF 4
