REMARK  7 active torsions:
REMARK  status: ('A' for Active; 'I' for Inactive)
REMARK    1  A    between atoms: C_8  and  C_1 
REMARK    2  A    between atoms: N_9  and  C_4 
REMARK    3  A    between atoms: N_5  and  C_12 
REMARK    4  A    between atoms: C_15  and  N_9 
REMARK    5  A    between atoms: C_10  and  O_28 
REMARK    6  A    between atoms: C_17  and  C_10 
REMARK    7  A    between atoms: O_28  and  N_18 
ROOT
ATOM      1  N   UNL d   1      -2.815   0.871   0.027  0.00  0.00    -0.331 N 
ATOM      2  H   UNL d   1      -2.785   1.887   0.050  0.00  0.00     0.168 HD
ENDROOT
BRANCH   1   3
ATOM      3  C   UNL d   1      -1.643   0.206   0.023  0.00  0.00     0.150 A 
ATOM      4  N   UNL d   1      -1.500  -1.098   0.015  0.00  0.00    -0.335 N 
ATOM      5  C   UNL d   1      -0.154  -1.457   0.031  0.00  0.00     0.057 A 
ATOM      6  HN  UNL d   1      -2.273  -1.762  -0.000  1.00  0.00     0.168 HD
ATOM      7  C   UNL d   1       0.731  -0.390  -0.004  0.00  0.00     0.010 A 
ATOM      8  S   UNL d   1      -0.162   1.083   0.025  0.00  0.00    -0.057 SA
ATOM      9  C   UNL d   1       2.220  -0.313  -0.068  0.00  0.00     0.059 C 
BRANCH   5  10
ATOM     10  C   UNL d   1       0.209  -2.874   0.037  0.00  0.00    -0.007 A 
ATOM     11  C   UNL d   1      -0.600  -3.793  -0.645  0.00  0.00     0.038 A 
ATOM     12  C   UNL d   1      -0.277  -5.155  -0.664  0.00  0.00     0.040 A 
ATOM     13 CL   UNL d   1      -1.334  -6.226  -1.515  0.00  0.00    -0.084 Cl
ATOM     14  C   UNL d   1       0.868  -5.630  -0.007  0.00  0.00    -0.040 A 
ATOM     15  C   UNL d   1       1.662  -4.713   0.693  0.00  0.00     0.009 A 
ATOM     16  C   UNL d   1       1.252  -7.082  -0.013  0.00  0.00     0.050 C 
ATOM     17  C   UNL d   1       1.322  -3.357   0.733  0.00  0.00     0.014 A 
ENDBRANCH   5  10
ENDBRANCH   1   3
BRANCH   1  18
ATOM     18  C   UNL d   1      -4.075   0.356   0.004  0.00  0.00     0.207 C 
ATOM     19  N   UNL d   1      -5.138   1.094   0.014  0.00  0.00    -0.253 N 
ATOM     20  HN  UNL d   1      -5.139   2.114   0.045  1.00  0.00     0.195 HD
BRANCH  19  21
ATOM     21  O   UNL d   1      -6.299   0.289  -0.024  0.00  0.00    -0.194 OA
BRANCH  21  22
ATOM     22  C   UNL d   1      -7.401   1.095   0.002  0.00  0.00     0.315 C 
ATOM     23  O   UNL d   1      -7.418   2.319   0.057  0.00  0.00    -0.257 OA
BRANCH  22  24
ATOM     24  C   UNL d   1      -8.672   0.313  -0.062  0.00  0.00     0.041 A 
ATOM     25  C   UNL d   1      -9.878   1.038  -0.076  0.00  0.00     0.020 A 
ATOM     26  C   UNL d   1     -11.112   0.382  -0.140  0.00  0.00     0.037 A 
ATOM     27  C   UNL d   1     -11.144  -1.015  -0.192  0.00  0.00     0.102 A 
ATOM     28  C   UNL d   1      -9.951  -1.752  -0.174  0.00  0.00     0.037 A 
ATOM     29  C   UNL d   1      -8.716  -1.087  -0.110  0.00  0.00     0.020 A 
BRANCH  27  30
ATOM     30  N   UNL d   1     -12.438  -1.708  -0.269  0.00  0.00    -0.116 N 
ATOM     31  O   UNL d   1     -13.465  -1.014  -0.275  0.00  0.00    -0.532 OA
ATOM     32  O   UNL d   1     -12.425  -2.946  -0.323  0.00  0.00    -0.532 OA
ENDBRANCH  27  30
ENDBRANCH  22  24
ENDBRANCH  21  22
ENDBRANCH  19  21
ENDBRANCH   1  18
TORSDOF 7
