REMARK  6 active torsions:
REMARK  status: ('A' for Active; 'I' for Inactive)
REMARK    1  A    between atoms: C_2  and  S_1 
REMARK    2  A    between atoms: N_3  and  S_1 
REMARK    3  A    between atoms: C_15  and  N_3 
REMARK    4  A    between atoms: O_20  and  C_7 
REMARK    5  A    between atoms: O_21  and  C_14 
REMARK    6  A    between atoms: C_16  and  C_15 
ROOT
ATOM      1  S   UNL d   1       1.435  -0.098   0.031  0.00  0.00     0.261 S 
ATOM      2  O   UNL d   1       1.006   1.245  -0.311  0.00  0.00    -0.200 OA
ATOM      3  O   UNL d   1       2.824  -0.358   0.295  0.00  0.00    -0.200 OA
ENDROOT
BRANCH   1   4
ATOM      4  C   UNL d   1       0.784  -1.174  -1.245  0.00  0.00     0.115 A 
ATOM      5  C   UNL d   1      -0.402  -0.646  -1.839  0.00  0.00     0.065 A 
ATOM      6  C   UNL d   1      -1.012  -1.231  -2.946  0.00  0.00     0.069 A 
ATOM      7  C   UNL d   1      -0.452  -2.380  -3.474  0.00  0.00     0.039 A 
ATOM      8  C   UNL d   1       0.687  -2.929  -2.884  0.00  0.00     0.041 A 
ATOM      9  C   UNL d   1       1.331  -2.353  -1.762  0.00  0.00     0.091 A 
BRANCH   6  10
ATOM     10  O   UNL d   1      -2.125  -0.777  -3.592  0.00  0.00    -0.356 OA
ATOM     11  C   UNL d   1      -2.673   0.460  -3.150  0.00  0.00     0.210 C 
ENDBRANCH   6  10
BRANCH   9  12
ATOM     12  O   UNL d   1       2.355  -3.175  -1.416  0.00  0.00    -0.354 OA
ATOM     13  C   UNL d   1       3.394  -2.855  -0.522  0.00  0.00     0.210 C 
ENDBRANCH   9  12
ENDBRANCH   1   4
BRANCH   1  14
ATOM     14  N   UNL d   1       0.540  -0.513   1.391  0.00  0.00    -0.311 N 
ATOM     15  H   UNL d   1      -0.467  -0.468   1.241  0.00  0.00     0.172 HD
BRANCH  14  16
ATOM     16  C   UNL d   1       0.990  -1.643   2.200  0.00  0.00     0.170 C 
BRANCH  16  17
ATOM     17  C   UNL d   1      -0.113  -2.095   3.123  0.00  0.00    -0.039 A 
ATOM     18  C   UNL d   1      -0.974  -3.120   2.701  0.00  0.00     0.019 A 
ATOM     19  C   UNL d   1      -2.034  -3.468   3.514  0.00  0.00    -0.022 A 
ATOM     20  C   UNL d   1      -3.049  -4.524   3.321  0.00  0.00     0.068 C 
ATOM     21  C   UNL d   1      -2.241  -2.835   4.727  0.00  0.00     0.075 A 
ATOM     22  C   UNL d   1      -4.007  -4.155   4.454  0.00  0.00     0.180 C 
ATOM     23  O   UNL d   1      -3.328  -3.308   5.412  0.00  0.00    -0.350 OA
ATOM     24  C   UNL d   1      -1.406  -1.834   5.178  0.00  0.00     0.038 A 
ATOM     25  C   UNL d   1      -0.336  -1.454   4.363  0.00  0.00     0.011 A 
ENDBRANCH  16  17
ENDBRANCH  14  16
ENDBRANCH   1  14
TORSDOF 6
