REMARK  5 active torsions:
REMARK  status: ('A' for Active; 'I' for Inactive)
REMARK    1  A    between atoms: S_11  and  C_6 
REMARK    2  A    between atoms: C_15  and  S_11 
REMARK    3  A    between atoms: C_13  and  C_15 
REMARK    4  A    between atoms: O_17  and  C_13 
REMARK    5  A    between atoms: C_19  and  O_17 
ROOT
ATOM      1  C   UNL d   1       1.176   0.575  -0.006  0.00  0.00     0.089 A 
ATOM      2  C   UNL d   1       0.600  -0.690   0.060  0.00  0.00     0.039 A 
ATOM      3  S   UNL d   1       0.042   1.842  -0.041  0.00  0.00    -0.075 SA
ATOM      4  C   UNL d   1      -0.852  -0.572   0.035  0.00  0.00    -0.029 A 
ATOM      5  C   UNL d   1      -1.256   0.755   0.025  0.00  0.00    -0.008 A 
ATOM      6  C   UNL d   1       1.538  -1.740   0.132  0.00  0.00     0.084 A 
ATOM      7  N   UNL d   1       2.486   0.873  -0.037  0.00  0.00    -0.346 N 
ATOM      8  HN  UNL d   1       2.847   1.826  -0.090  1.00  0.00     0.167 HD
ATOM      9  N   UNL d   1       2.865  -1.480   0.089  0.00  0.00    -0.346 N 
ATOM     10  HN  UNL d   1       3.547  -2.238   0.116  1.00  0.00     0.167 HD
ATOM     11  C   UNL d   1       3.260  -0.206   0.010  0.00  0.00     0.182 A 
ATOM     12  C   UNL d   1      -1.872  -1.682   0.062  0.00  0.00     0.040 C 
ATOM     13  C   UNL d   1      -2.671   1.245   0.033  0.00  0.00     0.047 C 
ATOM     14  C   UNL d   1      -3.298  -1.185  -0.248  0.00  0.00     0.005 C 
ATOM     15  C   UNL d   1      -3.621   0.127   0.475  0.00  0.00     0.005 C 
ENDROOT
BRANCH   6  16
ATOM     16  S   UNL d   1       1.040  -3.436   0.262  0.00  0.00    -0.101 SA
BRANCH  16  17
ATOM     17  C   UNL d   1       2.604  -4.192   0.838  0.00  0.00     0.191 C 
BRANCH  17  18
ATOM     18  C   UNL d   1       2.980  -3.769   2.245  0.00  0.00     0.268 C 
ATOM     19  O   UNL d   1       2.288  -3.125   3.025  0.00  0.00    -0.264 OA
BRANCH  18  20
ATOM     20  O   UNL d   1       4.214  -4.280   2.550  0.00  0.00    -0.321 OA
BRANCH  20  21
ATOM     21  C   UNL d   1       4.680  -4.040   3.888  0.00  0.00     0.174 C 
ATOM     22  C   UNL d   1       5.423  -2.720   3.961  0.00  0.00     0.034 C 
ENDBRANCH  20  21
ENDBRANCH  18  20
ENDBRANCH  17  18
ENDBRANCH  16  17
ENDBRANCH   6  16
TORSDOF 5
