REMARK  1 active torsions:
REMARK  status: ('A' for Active; 'I' for Inactive)
REMARK    1  A    between atoms: C_6  and  N_1 
ROOT
ATOM      1  N   UNL d   1       0.970  -0.695   0.009  0.00  0.00    -0.320 N 
ATOM      2  C   UNL d   1      -0.358  -1.128   0.014  0.00  0.00     0.013 A 
ATOM      3  C   UNL d   1       0.955   0.703   0.004  0.00  0.00     0.013 A 
ATOM      4  C   UNL d   1      -1.179  -0.013   0.006  0.00  0.00     0.027 A 
ATOM      5  C   UNL d   1      -0.361   1.125   0.015  0.00  0.00     0.027 A 
ATOM      6  C   UNL d   1      -0.824  -2.541   0.117  0.00  0.00     0.068 C 
ATOM      7  C   UNL d   1       2.148   1.594  -0.096  0.00  0.00     0.068 C 
ENDROOT
BRANCH   1   8
ATOM      8  C   UNL d   1       2.129  -1.530   0.009  0.00  0.00     0.039 A 
ATOM      9  C   UNL d   1       2.167  -2.688  -0.781  0.00  0.00     0.031 A 
ATOM     10  C   UNL d   1       3.297  -3.512  -0.769  0.00  0.00     0.021 A 
ATOM     11  C   UNL d   1       4.394  -3.172   0.019  0.00  0.00     0.011 A 
ATOM     12  C   UNL d   1       4.372  -2.020   0.801  0.00  0.00     0.021 A 
ATOM     13 BR   UNL d   1       5.924  -4.283   0.028  0.00  0.00    -0.051 Br
ATOM     14  C   UNL d   1       3.238  -1.203   0.801  0.00  0.00     0.031 A 
ENDBRANCH   1   8
TORSDOF 1
