REMARK  3 active torsions:
REMARK  status: ('A' for Active; 'I' for Inactive)
REMARK    1  A    between atoms: N_6  and  C_1 
REMARK       I    between atoms: C_8  and  N_6 
REMARK    2  A    between atoms: C_14  and  C_7 
REMARK       I    between atoms: N_9  and  C_8 
REMARK    3  A    between atoms: C_10  and  N_9 
ROOT
ATOM      1  C   UNL d   1       0.261  -1.112   0.185  0.00  0.00     0.127 A 
ATOM      2  N   UNL d   1       0.566   0.981   1.026  0.00  0.00    -0.296 N 
ATOM      3  HN  UNL d   1       0.383   1.871   1.488  1.00  0.00     0.187 HD
ATOM      4  C   UNL d   1       1.546  -0.719  -0.114  0.00  0.00     0.082 A 
ATOM      5  N   UNL d   1      -0.251  -0.075   0.937  0.00  0.00    -0.281 N 
ATOM      6  C   UNL d   1       1.676   0.613   0.375  0.00  0.00     0.062 A 
ATOM      7  C   UNL d   1      -1.553   0.018   1.556  0.00  0.00     0.179 C 
ENDROOT
BRANCH   1   8
ATOM      8  N   UNL d   1      -0.432  -2.269  -0.131  0.00  0.00    -0.293 N 
ATOM      9  C   UNL d   1      -0.257  -3.277  -1.126  0.00  0.00     0.326 C 
ATOM     10  N   UNL d   1       0.808  -3.158  -1.968  0.00  0.00    -0.303 N 
ATOM     11  O   UNL d   1      -1.136  -4.116  -1.095  0.00  0.00    -0.247 OA
ATOM     12  H   UNL d   1       1.537  -2.512  -1.760  0.00  0.00     0.171 HD
ATOM     13  H   UNL d   1      -1.315  -2.426   0.346  0.00  0.00     0.172 HD
BRANCH  10  14
ATOM     14  C   UNL d   1       0.954  -3.833  -3.170  0.00  0.00     0.077 A 
ATOM     15  S   UNL d   1      -0.324  -4.708  -3.872  0.00  0.00    -0.084 SA
ATOM     16  C   UNL d   1       0.537  -4.930  -5.331  0.00  0.00     0.052 A 
ATOM     17  C   UNL d   1       1.817  -4.432  -5.247  0.00  0.00     0.010 A 
ATOM     18  C   UNL d   1       2.067  -3.815  -3.984  0.00  0.00     0.038 A 
ENDBRANCH  10  14
ENDBRANCH   1   8
BRANCH   6  19
ATOM     19  C   UNL d   1       2.793   1.538   0.195  0.00  0.00    -0.008 A 
ATOM     20  C   UNL d   1       2.548   2.919   0.157  0.00  0.00     0.014 A 
ATOM     21  C   UNL d   1       3.587   3.821  -0.073  0.00  0.00     0.001 A 
ATOM     22  C   UNL d   1       4.884   3.352  -0.259  0.00  0.00     0.000 A 
ATOM     23  C   UNL d   1       5.145   1.983  -0.210  0.00  0.00     0.001 A 
ATOM     24  C   UNL d   1       4.104   1.077   0.015  0.00  0.00     0.014 A 
ENDBRANCH   6  19
TORSDOF 3
