REMARK  1 active torsions:
REMARK  status: ('A' for Active; 'I' for Inactive)
REMARK    1  A    between atoms: C_2  and  C_1 
REMARK       I    between atoms: N_3  and  C_2 
ROOT
ATOM      1  C   UNL d   1      -1.442   0.291   0.294  0.00  0.00     0.042 C 
ATOM      2  C   UNL d   1      -0.528   0.890   1.386  0.00  0.00     0.024 C 
ATOM      3  C   UNL d   1      -0.989   0.799  -1.097  0.00  0.00     0.024 C 
ATOM      4  C   UNL d   1      -1.209  -1.256   0.302  0.00  0.00     0.024 C 
ATOM      5  C   UNL d   1       0.269  -1.608   0.062  0.00  0.00    -0.013 C 
ATOM      6  C   UNL d   1       0.948   0.550   1.138  0.00  0.00    -0.013 C 
ATOM      7  C   UNL d   1       0.499   0.469  -1.341  0.00  0.00    -0.013 C 
ATOM      8  C   UNL d   1       1.127  -0.971   1.163  0.00  0.00     0.009 C 
ATOM      9  C   UNL d   1       0.704  -1.055  -1.304  0.00  0.00     0.009 C 
ATOM     10  C   UNL d   1       1.355   1.109  -0.236  0.00  0.00     0.009 C 
ENDROOT
BRANCH   1  11
ATOM     11  C   UNL d   1      -2.962   0.560   0.507  0.00  0.00     0.228 C 
ATOM     12  N   UNL d   1      -3.440   1.841   0.703  0.00  0.00    -0.351 N 
ATOM     13  C   UNL d   1      -4.876   2.075   0.773  0.00  0.00     0.126 C 
ATOM     14  C   UNL d   1      -2.727   3.057   1.050  0.00  0.00     0.126 C 
ATOM     15  C   UNL d   1      -5.018   3.570   0.546  0.00  0.00     0.021 C 
ATOM     16  C   UNL d   1      -3.788   4.138   1.231  0.00  0.00     0.021 C 
ATOM     17  O   UNL d   1      -3.765  -0.377   0.423  0.00  0.00    -0.273 OA
ENDBRANCH   1  11
TORSDOF 1
