REMARK  7 active torsions:
REMARK  status: ('A' for Active; 'I' for Inactive)
REMARK    1  A    between atoms: N_17  and  N_9 
REMARK    2  A    between atoms: C_20  and  C_10 
REMARK    3  A    between atoms: C_22  and  C_15 
REMARK    4  A    between atoms: C_24  and  C_21 
REMARK    5  A    between atoms: O_23  and  C_25 
REMARK    6  A    between atoms: C_26  and  O_23 
REMARK    7  A    between atoms: C_31  and  C_26 
ROOT
ATOM      1  C   UNL d   1      -1.137   0.986   0.197  0.00  0.00     0.104 A 
ATOM      2  C   UNL d   1      -0.737  -0.324   0.219  0.00  0.00     0.070 A 
ATOM      3  C   UNL d   1       0.684  -0.515   0.085  0.00  0.00     0.041 A 
ATOM      4  C   UNL d   1      -2.513   1.408   0.250  0.00  0.00     0.286 C 
ATOM      5  S   UNL d   1       0.174   2.047   0.086  0.00  0.00    -0.062 SA
ATOM      6  C   UNL d   1       1.273   0.745   0.018  0.00  0.00     0.103 A 
ATOM      7  N   UNL d   1      -1.672  -1.362   0.334  0.00  0.00    -0.349 N 
ATOM      8  HN  UNL d   1      -1.398  -2.339   0.433  1.00  0.00     0.167 HD
ATOM      9  N   UNL d   1      -3.394   0.312   0.199  0.00  0.00    -0.215 N 
ATOM     10  C   UNL d   1       1.568  -1.637   0.020  0.00  0.00     0.018 A 
ATOM     11  N   UNL d   1       3.400  -0.039  -0.164  0.00  0.00    -0.298 N 
ATOM     12  HN  UNL d   1       4.402   0.128  -0.256  1.00  0.00     0.187 HD
ATOM     13  N   UNL d   1       2.585   0.990  -0.096  0.00  0.00    -0.292 N 
ATOM     14  HN  UNL d   1       2.941   1.946  -0.128  1.00  0.00     0.187 HD
ATOM     15  C   UNL d   1       2.945  -1.321  -0.117  0.00  0.00     0.070 A 
ATOM     16  C   UNL d   1      -2.912  -0.985   0.305  0.00  0.00     0.211 C 
ATOM     17  O   UNL d   1      -2.853   2.585   0.346  0.00  0.00    -0.265 OA
ENDROOT
BRANCH   9  18
ATOM     18  N   UNL d   1      -4.777   0.410   0.210  0.00  0.00    -0.301 N 
ATOM     19  C   UNL d   1      -5.334   1.471  -0.277  0.00  0.00     0.119 C 
ATOM     20  HN  UNL d   1      -5.347  -0.342   0.598  1.00  0.00     0.186 HD
BRANCH  19  21
ATOM     21  C   UNL d   1      -6.799   1.647  -0.275  0.00  0.00    -0.019 A 
ATOM     22  C   UNL d   1      -7.658   0.648   0.187  0.00  0.00     0.015 A 
ATOM     23  C   UNL d   1      -9.040   0.833   0.098  0.00  0.00     0.037 A 
ATOM     24  C   UNL d   1      -9.561   2.004  -0.460  0.00  0.00     0.069 A 
ATOM     25  C   UNL d   1      -8.695   3.023  -0.862  0.00  0.00     0.037 A 
ATOM     26  C   UNL d   1      -7.315   2.842  -0.781  0.00  0.00     0.015 A 
BRANCH  24  27
ATOM     27  O   UNL d   1     -10.925   2.049  -0.568  0.00  0.00    -0.347 OA
BRANCH  27  28
ATOM     28  C   UNL d   1     -11.421   2.942  -1.565  0.00  0.00     0.214 C 
BRANCH  28  29
ATOM     29  C   UNL d   1     -12.822   2.535  -1.936  0.00  0.00    -0.034 A 
ATOM     30  C   UNL d   1     -13.929   3.194  -1.388  0.00  0.00     0.009 A 
ATOM     31  C   UNL d   1     -15.222   2.828  -1.761  0.00  0.00     0.001 A 
ATOM     32  C   UNL d   1     -15.419   1.796  -2.678  0.00  0.00     0.000 A 
ATOM     33  C   UNL d   1     -14.326   1.121  -3.215  0.00  0.00     0.001 A 
ATOM     34  C   UNL d   1     -13.031   1.485  -2.843  0.00  0.00     0.009 A 
ENDBRANCH  28  29
ENDBRANCH  27  28
ENDBRANCH  24  27
ENDBRANCH  19  21
ENDBRANCH   9  18
BRANCH  10  35
ATOM     35  C   UNL d   1       1.032  -3.014   0.118  0.00  0.00    -0.023 A 
ATOM     36  C   UNL d   1       0.012  -3.468  -0.738  0.00  0.00     0.012 A 
ATOM     37  C   UNL d   1      -0.514  -4.759  -0.634  0.00  0.00     0.001 A 
ATOM     38  C   UNL d   1       0.021  -5.656   0.283  0.00  0.00     0.000 A 
ATOM     39  C   UNL d   1       1.065  -5.253   1.110  0.00  0.00     0.001 A 
ATOM     40  C   UNL d   1       1.544  -3.939   1.047  0.00  0.00     0.012 A 
ENDBRANCH  10  35
BRANCH  15  41
ATOM     41  C   UNL d   1       4.050  -2.307  -0.209  0.00  0.00    -0.007 A 
ATOM     42  C   UNL d   1       3.971  -3.478  -0.986  0.00  0.00     0.014 A 
ATOM     43  C   UNL d   1       5.005  -4.421  -0.992  0.00  0.00     0.001 A 
ATOM     44  C   UNL d   1       6.167  -4.189  -0.264  0.00  0.00     0.000 A 
ATOM     45  C   UNL d   1       6.303  -3.013   0.463  0.00  0.00     0.001 A 
ATOM     46  C   UNL d   1       5.259  -2.085   0.489  0.00  0.00     0.014 A 
ENDBRANCH  15  41
TORSDOF 7
