REMARK  3 active torsions:
REMARK  status: ('A' for Active; 'I' for Inactive)
REMARK    1  A    between atoms: C_9  and  C_3 
REMARK    2  A    between atoms: N_8  and  C_11 
REMARK    3  A    between atoms: C_13  and  C_12 
ROOT
ATOM      1  N   UNL d   1       0.221   1.697  -0.018  0.00  0.00    -0.304 N 
ATOM      2  C   UNL d   1      -0.679   0.630   0.056  0.00  0.00     0.261 A 
ATOM      3  C   UNL d   1       1.594   1.477  -0.058  0.00  0.00     0.110 A 
ATOM      4  N   UNL d   1       2.117   0.289  -0.081  0.00  0.00    -0.341 N 
ATOM      5  HN  UNL d   1       3.130   0.174  -0.112  1.00  0.00     0.167 HD
ATOM      6  C   UNL d   1      -0.103  -0.722   0.017  0.00  0.00     0.059 A 
ATOM      7  C   UNL d   1       1.280  -0.829  -0.063  0.00  0.00     0.049 A 
ATOM      8  O   UNL d   1      -1.898   0.754   0.152  0.00  0.00    -0.267 OA
ATOM      9  C   UNL d   1      -0.368   3.030  -0.031  0.00  0.00     0.161 C 
ATOM     10  C   UNL d   1      -0.918  -1.861   0.048  0.00  0.00     0.019 A 
ATOM     11  C   UNL d   1       1.851  -2.104  -0.117  0.00  0.00     0.030 A 
ATOM     12  C   UNL d   1      -0.337  -3.127  -0.006  0.00  0.00     0.001 A 
ATOM     13  C   UNL d   1       1.050  -3.248  -0.091  0.00  0.00     0.002 A 
ENDROOT
BRANCH   3  14
ATOM     14  C   UNL d   1       2.493   2.680  -0.047  0.00  0.00     0.049 C 
ATOM     15  C   UNL d   1       3.827   2.541  -0.110  0.00  0.00     0.005 C 
BRANCH  15  16
ATOM     16  C   UNL d   1       4.753   3.653  -0.023  0.00  0.00     0.017 C 
ATOM     17  C   UNL d   1       6.081   3.493  -0.107  0.00  0.00     0.085 C 
BRANCH  17  18
ATOM     18  N   UNL d   1       7.083   4.434   0.046  0.00  0.00    -0.390 N 
ATOM     19  C   UNL d   1       8.508   4.088   0.016  0.00  0.00     0.122 C 
ATOM     20  C   UNL d   1       9.087   4.860   1.191  0.00  0.00     0.021 C 
ATOM     21  C   UNL d   1       8.305   6.160   1.150  0.00  0.00     0.021 C 
ATOM     22  C   UNL d   1       6.903   5.734   0.707  0.00  0.00     0.122 C 
ENDBRANCH  17  18
ENDBRANCH  15  16
ENDBRANCH   3  14
TORSDOF 3
