REMARK  2 active torsions:
REMARK  status: ('A' for Active; 'I' for Inactive)
REMARK    1  A    between atoms: C_5  and  C_1 
REMARK    2  A    between atoms: O_13  and  C_10 
ROOT
ATOM      1  C   UNL d   1       0.936  -0.043  -0.028  0.00  0.00     0.078 C 
ATOM      2  C   UNL d   1       0.206   0.144  -1.151  0.00  0.00     0.058 C 
ATOM      3  C   UNL d   1       0.316  -0.228   1.251  0.00  0.00     0.102 C 
ATOM      4  N   UNL d   1      -0.162  -0.380   2.297  0.00  0.00    -0.191 NA
ATOM      5  S   UNL d   1      -1.545   0.260  -1.136  0.00  0.00    -0.121 SA
ATOM      6  S   UNL d   1       0.920   0.337  -2.742  0.00  0.00    -0.121 SA
ATOM      7  C   UNL d   1      -1.768   0.548  -2.916  0.00  0.00     0.090 C 
ATOM      8  C   UNL d   1      -0.508   1.182  -3.473  0.00  0.00     0.090 C 
ENDROOT
BRANCH   1   9
ATOM      9  C   UNL d   1       2.415  -0.012  -0.022  0.00  0.00    -0.013 A 
ATOM     10  C   UNL d   1       3.085   1.220   0.043  0.00  0.00     0.016 A 
ATOM     11  C   UNL d   1       4.483   1.270   0.083  0.00  0.00     0.037 A 
ATOM     12  C   UNL d   1       5.225   0.091   0.060  0.00  0.00     0.068 A 
ATOM     13  C   UNL d   1       4.560  -1.137   0.011  0.00  0.00     0.037 A 
ATOM     14  C   UNL d   1       3.163  -1.193  -0.037  0.00  0.00     0.016 A 
BRANCH  12  15
ATOM     15  O   UNL d   1       6.589   0.009   0.119  0.00  0.00    -0.356 OA
ATOM     16  C   UNL d   1       7.305   1.170  -0.285  0.00  0.00     0.210 C 
ENDBRANCH  12  15
ENDBRANCH   1   9
TORSDOF 2
