REMARK  7 active torsions:
REMARK  status: ('A' for Active; 'I' for Inactive)
REMARK    1  A    between atoms: C_16  and  N_1 
REMARK    2  A    between atoms: S_2  and  N_10 
REMARK    3  A    between atoms: C_8  and  S_2 
REMARK    4  A    between atoms: C_11  and  C_7 
REMARK    5  A    between atoms: N_10  and  C_11 
REMARK    6  A    between atoms: O_20  and  C_15 
REMARK    7  A    between atoms: O_22  and  C_18 
ROOT
ATOM      1  N   UNL d   1       3.172   0.897   0.050  0.00  0.00    -0.310 N 
ATOM      2  H   UNL d   1       3.211  -0.025   0.490  0.00  0.00     0.172 HD
ENDROOT
BRANCH   1   3
ATOM      3  S   UNL d   1       4.600   1.748   0.163  0.00  0.00     0.262 S 
ATOM      4  O   UNL d   1       5.689   0.805   0.122  0.00  0.00    -0.200 OA
ATOM      5  O   UNL d   1       4.502   2.819  -0.810  0.00  0.00    -0.200 OA
BRANCH   3   6
ATOM      6  C   UNL d   1       4.557   2.473   1.778  0.00  0.00     0.115 A 
ATOM      7  C   UNL d   1       4.734   3.867   1.848  0.00  0.00     0.065 A 
ATOM      8  C   UNL d   1       4.582   4.540   3.057  0.00  0.00     0.069 A 
ATOM      9  C   UNL d   1       4.297   3.806   4.207  0.00  0.00     0.039 A 
ATOM     10  C   UNL d   1       4.127   2.417   4.144  0.00  0.00     0.041 A 
ATOM     11  C   UNL d   1       4.253   1.736   2.927  0.00  0.00     0.091 A 
BRANCH   8  12
ATOM     12  O   UNL d   1       4.665   5.893   3.230  0.00  0.00    -0.356 OA
ATOM     13  C   UNL d   1       4.791   6.686   2.052  0.00  0.00     0.210 C 
ENDBRANCH   8  12
BRANCH  11  14
ATOM     14  O   UNL d   1       3.857   0.428   2.943  0.00  0.00    -0.354 OA
ATOM     15  C   UNL d   1       4.885  -0.521   2.663  0.00  0.00     0.210 C 
ENDBRANCH  11  14
ENDBRANCH   3   6
ENDBRANCH   1   3
BRANCH   1  16
ATOM     16  C   UNL d   1       1.917   1.627   0.253  0.00  0.00     0.193 C 
BRANCH  16  17
ATOM     17  C   UNL d   1       0.816   0.658   0.002  0.00  0.00     0.069 A 
ATOM     18  N   UNL d   1       0.068   0.170   0.997  0.00  0.00    -0.280 N 
ATOM     19  N   UNL d   1      -0.701  -0.754   0.359  0.00  0.00    -0.197 N 
ATOM     20  HN  UNL d   1       0.072   0.426   1.984  1.00  0.00     0.189 HD
ATOM     21  N   UNL d   1      -0.497  -0.870  -0.982  0.00  0.00    -0.282 N 
ATOM     22  C   UNL d   1       0.462   0.035  -1.210  0.00  0.00     0.049 A 
ATOM     23  HN  UNL d   1      -0.959  -1.491  -1.647  1.00  0.00     0.189 HD
ATOM     24  C   UNL d   1       1.051   0.240  -2.552  0.00  0.00     0.072 C 
BRANCH  19  25
ATOM     25  C   UNL d   1      -1.639  -1.553   1.061  0.00  0.00     0.074 A 
ATOM     26  C   UNL d   1      -1.887  -1.310   2.421  0.00  0.00     0.033 A 
ATOM     27  C   UNL d   1      -2.821  -2.087   3.108  0.00  0.00     0.002 A 
ATOM     28  C   UNL d   1      -3.495  -3.115   2.448  0.00  0.00     0.000 A 
ATOM     29  C   UNL d   1      -3.240  -3.368   1.100  0.00  0.00     0.002 A 
ATOM     30  C   UNL d   1      -2.317  -2.586   0.401  0.00  0.00     0.033 A 
ENDBRANCH  19  25
ENDBRANCH  16  17
ENDBRANCH   1  16
TORSDOF 7
