REMARK  2 active torsions:
REMARK  status: ('A' for Active; 'I' for Inactive)
REMARK       I    between atoms: N_2  and  C_1 
REMARK    1  A    between atoms: C_3  and  C_1 
REMARK    2  A    between atoms: C_13  and  N_2 
ROOT
ATOM      1  C   UNL d   1       2.526   0.284   0.228  0.00  0.00     0.034 C 
ATOM      2  C   UNL d   1       3.382  -0.816   0.213  0.00  0.00     0.049 C 
ATOM      3  C   UNL d   1       4.662  -0.719   0.735  0.00  0.00     0.060 A 
ATOM      4  N   UNL d   1       5.355  -1.851   0.960  0.00  0.00    -0.363 N 
ATOM      5  HN  UNL d   1       5.006  -2.763   0.665  1.00  0.00     0.165 HD
ATOM      6  N   UNL d   1       6.381   0.671   1.695  0.00  0.00    -0.363 N 
ATOM      7  HN  UNL d   1       6.776   1.582   1.929  1.00  0.00     0.165 HD
ATOM      8  C   UNL d   1       5.174   0.549   1.110  0.00  0.00     0.059 A 
ATOM      9  C   UNL d   1       3.053   1.548   0.508  0.00  0.00     0.019 C 
ATOM     10  C   UNL d   1       4.382   1.672   0.920  0.00  0.00     0.033 C 
ATOM     11  C   UNL d   1       6.536  -1.713   1.600  0.00  0.00     0.105 A 
ATOM     12  C   UNL d   1       7.041  -0.479   1.954  0.00  0.00     0.105 A 
ENDROOT
BRANCH   1  13
ATOM     13  C   UNL d   1       1.045   0.158   0.032  0.00  0.00     0.253 C 
ATOM     14  N   UNL d   1       0.346  -0.949   0.567  0.00  0.00    -0.348 N 
ATOM     15  C   UNL d   1       0.943  -1.829   1.576  0.00  0.00     0.153 C 
ATOM     16  O   UNL d   1       0.520   1.089  -0.568  0.00  0.00    -0.267 OA
BRANCH  14  17
ATOM     17  C   UNL d   1      -1.146  -1.073   0.471  0.00  0.00     0.087 C 
ATOM     18  C   UNL d   1      -1.603  -2.549   0.341  0.00  0.00     0.025 C 
ATOM     19  C   UNL d   1      -1.288  -3.122  -1.041  0.00  0.00     0.002 C 
ATOM     20  C   UNL d   1      -1.912  -2.287  -2.156  0.00  0.00     0.000 C 
ATOM     21  C   UNL d   1      -1.582  -0.802  -2.024  0.00  0.00     0.002 C 
ATOM     22  C   UNL d   1      -1.890  -0.284  -0.623  0.00  0.00     0.025 C 
ENDBRANCH  14  17
ENDBRANCH   1  13
TORSDOF 2
