REMARK  1 active torsions:
REMARK  status: ('A' for Active; 'I' for Inactive)
REMARK    1  A    between atoms: C_10  and  C_4 
ROOT
ATOM      1  C   UNL d   1      -0.850  -0.449   0.015  0.00  0.00     0.024 A 
ATOM      2  S   UNL d   1      -1.713  -1.927   0.039  0.00  0.00    -0.085 SA
ATOM      3  C   UNL d   1      -1.714   0.630  -0.002  0.00  0.00    -0.029 A 
ATOM      4  C   UNL d   1      -3.243  -1.163   0.020  0.00  0.00     0.051 A 
ATOM      5  C   UNL d   1       0.622  -0.386   0.009  0.00  0.00    -0.000 A 
ATOM      6  C   UNL d   1      -3.090   0.209   0.006  0.00  0.00     0.032 A 
ATOM      7  S   UNL d   1       0.442   2.455   0.097  0.00  0.00    -0.124 SA
ATOM      8  C   UNL d   1       1.266   0.867   0.024  0.00  0.00     0.012 A 
ATOM      9  C   UNL d   1      -1.319   2.067  -0.042  0.00  0.00     0.119 C 
ATOM     10  C   UNL d   1       1.423  -1.547  -0.009  0.00  0.00     0.038 A 
ATOM     11  C   UNL d   1       2.672   0.932   0.013  0.00  0.00     0.021 A 
ATOM     12  C   UNL d   1       2.816  -1.462  -0.013  0.00  0.00     0.035 A 
ATOM     13  C   UNL d   1       3.446  -0.226  -0.006  0.00  0.00     0.025 A 
ATOM     14 CL   UNL d   1       3.762  -2.900  -0.022  0.00  0.00    -0.084 Cl
ENDROOT
BRANCH   4  15
ATOM     15  C   UNL d   1      -4.449  -1.988   0.020  0.00  0.00     0.162 C 
ATOM     16  O   UNL d   1      -4.431  -3.222   0.035  0.00  0.00    -0.292 OA
ATOM     17  C   UNL d   1      -5.795  -1.299  -0.002  0.00  0.00     0.097 C 
ENDBRANCH   4  15
TORSDOF 1
