REMARK  8 active torsions:
REMARK  status: ('A' for Active; 'I' for Inactive)
REMARK    1  A    between atoms: N_2  and  C_1 
REMARK    2  A    between atoms: O_20  and  C_4 
REMARK       I    between atoms: C_5  and  N_10 
REMARK    3  A    between atoms: C_11  and  C_5 
REMARK    4  A    between atoms: S_13  and  C_7 
REMARK    5  A    between atoms: C_8  and  C_19 
REMARK       I    between atoms: N_14  and  C_8 
REMARK    6  A    between atoms: O_21  and  C_9 
REMARK    7  A    between atoms: N_10  and  N_14 
REMARK    8  A    between atoms: C_19  and  S_13 
ROOT
ATOM      1  C   UNL d   1      -5.420  -0.673  -0.502  0.00  0.00     0.245 C 
ATOM      2  N   UNL d   1      -5.860   0.502  -1.070  0.00  0.00    -0.267 N 
ATOM      3  O   UNL d   1      -6.212  -1.580  -0.222  0.00  0.00    -0.271 OA
ATOM      4  H   UNL d   1      -5.270   1.323  -1.206  0.00  0.00     0.190 HD
ENDROOT
BRANCH   1   5
ATOM      5  C   UNL d   1      -3.920  -0.876  -0.371  0.00  0.00     0.184 C 
BRANCH   5   6
ATOM      6  S   UNL d   1      -3.000   0.637   0.049  0.00  0.00    -0.118 SA
BRANCH   6   7
ATOM      7  C   UNL d   1      -1.385  -0.079   0.417  0.00  0.00     0.037 A 
ATOM      8  C   UNL d   1      -0.886   0.115   1.719  0.00  0.00     0.060 A 
ATOM      9  C   UNL d   1       0.362  -0.387   2.119  0.00  0.00     0.102 A 
ATOM     10  C   UNL d   1       1.094  -1.112   1.180  0.00  0.00     0.138 A 
ATOM     11  C   UNL d   1       0.632  -1.301  -0.135  0.00  0.00     0.077 A 
ATOM     12  C   UNL d   1      -0.608  -0.784  -0.525  0.00  0.00     0.087 A 
BRANCH   9  13
ATOM     13  O   UNL d   1       0.657  -0.132   3.427  0.00  0.00    -0.353 OA
ATOM     14  C   UNL d   1       2.011   0.147   3.772  0.00  0.00     0.210 C 
ENDBRANCH   9  13
BRANCH  10  15
ATOM     15  N   UNL d   1       2.337  -1.771   1.516  0.00  0.00    -0.113 N 
ATOM     16  O   UNL d   1       3.346  -1.408   0.898  0.00  0.00    -0.532 OA
ATOM     17  O   UNL d   1       2.296  -2.672   2.363  0.00  0.00    -0.532 OA
ENDBRANCH  10  15
BRANCH  12  18
ATOM     18  O   UNL d   1      -1.129  -0.923  -1.785  0.00  0.00    -0.355 OA
ATOM     19  C   UNL d   1      -0.366  -1.643  -2.748  0.00  0.00     0.210 C 
ENDBRANCH  12  18
ENDBRANCH   6   7
ENDBRANCH   5   6
ENDBRANCH   1   5
BRANCH   2  20
ATOM     20  N   UNL d   1      -7.236   0.637  -1.307  0.00  0.00    -0.263 N 
ATOM     21  C   UNL d   1      -7.743   1.847  -1.737  0.00  0.00     0.270 C 
ATOM     22  O   UNL d   1      -7.048   2.847  -1.894  0.00  0.00    -0.266 OA
ATOM     23  H   UNL d   1      -7.816  -0.148  -1.017  0.00  0.00     0.190 HD
BRANCH  21  24
ATOM     24  C   UNL d   1      -9.216   1.888  -1.982  0.00  0.00     0.034 A 
ATOM     25  C   UNL d   1      -9.931   0.756  -2.401  0.00  0.00     0.024 A 
ATOM     26  C   UNL d   1     -11.312   0.833  -2.642  0.00  0.00    -0.061 A 
ATOM     27  C   UNL d   1     -12.087  -0.367  -3.103  0.00  0.00     0.048 C 
ATOM     28  C   UNL d   1     -11.970   2.055  -2.456  0.00  0.00     0.007 A 
ATOM     29  C   UNL d   1     -11.262   3.187  -2.052  0.00  0.00     0.002 A 
ATOM     30  C   UNL d   1      -9.887   3.108  -1.822  0.00  0.00     0.017 A 
ENDBRANCH  21  24
ENDBRANCH   2  20
TORSDOF 8
