REMARK  7 active torsions:
REMARK  status: ('A' for Active; 'I' for Inactive)
REMARK    1  A    between atoms: C_8  and  N_1 
REMARK    2  A    between atoms: C_6  and  C_4 
REMARK    3  A    between atoms: O_24  and  C_10 
REMARK    4  A    between atoms: C_13  and  C_21 
REMARK    5  A    between atoms: O_25  and  C_14 
REMARK    6  A    between atoms: O_19  and  C_20 
REMARK    7  A    between atoms: C_21  and  O_19 
ROOT
ATOM      1  N   UNL d   1      -3.757  -8.190   3.040  0.00  0.00    -0.270 N 
ATOM      2  HN  UNL d   1      -4.440  -8.429   3.759  1.00  0.00     0.194 HD
ATOM      3  C   UNL d   1      -3.039  -9.025   2.362  0.00  0.00     0.045 C 
ATOM      4  O   UNL d   1      -3.426  -6.889   2.607  0.00  0.00    -0.272 OA
ATOM      5  C   UNL d   1      -2.120  -8.399   1.368  0.00  0.00     0.096 C 
ATOM      6  C   UNL d   1      -2.653  -6.983   1.399  0.00  0.00     0.182 C 
ENDROOT
BRANCH   6   7
ATOM      7  C   UNL d   1      -1.560  -5.910   1.434  0.00  0.00     0.210 C 
BRANCH   7   8
ATOM      8  O   UNL d   1      -2.208  -4.635   1.389  0.00  0.00    -0.349 OA
BRANCH   8   9
ATOM      9  C   UNL d   1      -1.451  -3.509   1.526  0.00  0.00     0.069 A 
ATOM     10  C   UNL d   1      -2.196  -2.326   1.600  0.00  0.00     0.039 A 
ATOM     11  C   UNL d   1      -1.567  -1.085   1.709  0.00  0.00     0.039 A 
ATOM     12  C   UNL d   1      -0.171  -1.029   1.745  0.00  0.00     0.103 A 
ATOM     13  C   UNL d   1       0.587  -2.207   1.681  0.00  0.00     0.039 A 
ATOM     14  C   UNL d   1      -0.058  -3.448   1.574  0.00  0.00     0.039 A 
BRANCH  12  15
ATOM     15  N   UNL d   1       0.502   0.275   1.844  0.00  0.00    -0.116 N 
ATOM     16  O   UNL d   1       1.739   0.281   1.864  0.00  0.00    -0.532 OA
ATOM     17  O   UNL d   1      -0.208   1.287   1.897  0.00  0.00    -0.532 OA
ENDBRANCH  12  15
ENDBRANCH   8   9
ENDBRANCH   7   8
ENDBRANCH   6   7
BRANCH   3  18
ATOM     18  C   UNL d   1      -3.104 -10.492   2.572  0.00  0.00    -0.009 A 
ATOM     19  C   UNL d   1      -3.986 -11.013   3.534  0.00  0.00     0.053 A 
ATOM     20  C   UNL d   1      -4.109 -12.399   3.739  0.00  0.00     0.102 A 
ATOM     21  C   UNL d   1      -3.308 -13.268   2.977  0.00  0.00     0.101 A 
ATOM     22  C   UNL d   1      -2.418 -12.735   2.031  0.00  0.00     0.040 A 
ATOM     23  C   UNL d   1      -2.313 -11.360   1.824  0.00  0.00     0.016 A 
BRANCH  20  24
ATOM     24  O   UNL d   1      -4.979 -12.949   4.640  0.00  0.00    -0.353 OA
ATOM     25  C   UNL d   1      -5.810 -12.089   5.408  0.00  0.00     0.210 C 
ENDBRANCH  20  24
BRANCH  21  26
ATOM     26  O   UNL d   1      -3.249 -14.637   3.009  0.00  0.00    -0.353 OA
ATOM     27  C   UNL d   1      -4.101 -15.348   3.893  0.00  0.00     0.210 C 
ENDBRANCH  21  26
ENDBRANCH   3  18
TORSDOF 7
