REMARK  2 active torsions:
REMARK  status: ('A' for Active; 'I' for Inactive)
REMARK    1  A    between atoms: C_12  and  N_3 
REMARK    2  A    between atoms: C_14  and  C_12 
ROOT
ATOM      1  C   UNL d   1       1.120   0.354  -1.157  0.00  0.00     0.153 A 
ATOM      2  C   UNL d   1       0.573  -0.788  -0.611  0.00  0.00     0.129 A 
ATOM      3  N   UNL d   1       1.433   1.111  -0.063  0.00  0.00    -0.254 N 
ATOM      4  N   UNL d   1       0.599  -0.723   0.749  0.00  0.00    -0.278 N 
ATOM      5  HN  UNL d   1       0.263  -1.439   1.393  1.00  0.00     0.184 HD
ATOM      6  N   UNL d   1       1.144   0.445   1.083  0.00  0.00    -0.018 NA
ATOM      7  N   UNL d   1       1.280   0.666  -2.472  0.00  0.00    -0.336 N 
ATOM      8  HN  UNL d   1       1.704   1.533  -2.801  1.00  0.00     0.168 HD
ATOM      9  C   UNL d   1       0.089  -1.787  -1.517  0.00  0.00     0.133 A 
ATOM     10  N   UNL d   1       0.256  -1.460  -2.853  0.00  0.00    -0.341 N 
ATOM     11  C   UNL d   1       0.834  -0.267  -3.262  0.00  0.00     0.183 A 
ATOM     12  S   UNL d   1      -0.606  -3.192  -0.992  0.00  0.00    -0.058 SA
ATOM     13  H   UNL d   1      -0.070  -2.127  -3.538  0.00  0.00     0.167 HD
ENDROOT
BRANCH   3  14
ATOM     14  C   UNL d   1       1.964   2.459  -0.020  0.00  0.00     0.187 C 
BRANCH  14  15
ATOM     15  C   UNL d   1       0.838   3.467   0.016  0.00  0.00    -0.039 A 
ATOM     16  C   UNL d   1       0.291   3.880   1.241  0.00  0.00     0.010 A 
ATOM     17  C   UNL d   1      -0.836   4.704   1.270  0.00  0.00     0.024 A 
ATOM     18  C   UNL d   1      -1.420   5.120   0.077  0.00  0.00     0.034 A 
ATOM     19  C   UNL d   1      -0.868   4.748  -1.146  0.00  0.00     0.024 A 
ATOM     20 CL   UNL d   1      -2.852   6.074   0.112  0.00  0.00    -0.084 Cl
ATOM     21  C   UNL d   1       0.261   3.926  -1.178  0.00  0.00     0.010 A 
ENDBRANCH  14  15
ENDBRANCH   3  14
TORSDOF 2
