REMARK  6 active torsions:
REMARK  status: ('A' for Active; 'I' for Inactive)
REMARK    1  A    between atoms: C_12  and  C_5 
REMARK    2  A    between atoms: S_13  and  C_9 
REMARK    3  A    between atoms: O_16  and  C_12 
REMARK    4  A    between atoms: C_15  and  S_13 
REMARK    5  A    between atoms: C_18  and  C_15 
REMARK    6  A    between atoms: C_26  and  O_16 
ROOT
ATOM      1  C   UNL d   1       1.580  -0.880  -0.040  0.00  0.00     0.161 A 
ATOM      2  N   UNL d   1       0.906   0.321  -0.047  0.00  0.00    -0.221 N 
ATOM      3  N   UNL d   1       0.941  -2.081  -0.003  0.00  0.00    -0.333 N 
ATOM      4  HN  UNL d   1       1.466  -2.956   0.005  1.00  0.00     0.168 HD
ATOM      5  C   UNL d   1       2.909  -0.493  -0.046  0.00  0.00     0.167 A 
ATOM      6  N   UNL d   1       1.747   1.368  -0.068  0.00  0.00    -0.013 NA
ATOM      7  N   UNL d   1       2.982   0.885  -0.069  0.00  0.00    -0.275 N 
ATOM      8  HN  UNL d   1       3.840   1.437  -0.083  1.00  0.00     0.184 HD
ATOM      9  C   UNL d   1      -0.360  -2.078   0.020  0.00  0.00     0.084 A 
ATOM     10  C   UNL d   1      -1.184  -0.821   0.002  0.00  0.00     0.026 A 
ATOM     11  C   UNL d   1      -0.489   0.402  -0.019  0.00  0.00     0.069 A 
ATOM     12  C   UNL d   1      -2.583  -0.780   0.012  0.00  0.00     0.016 A 
ATOM     13  C   UNL d   1      -1.143   1.636  -0.016  0.00  0.00     0.032 A 
ATOM     14  C   UNL d   1      -3.250   0.451   0.009  0.00  0.00     0.001 A 
ATOM     15  C   UNL d   1      -2.536   1.656  -0.001  0.00  0.00     0.002 A 
ENDROOT
BRANCH   9  16
ATOM     16  S   UNL d   1      -1.166  -3.645   0.068  0.00  0.00    -0.107 SA
BRANCH  16  17
ATOM     17  C   UNL d   1       0.168  -4.668   0.781  0.00  0.00     0.119 C 
BRANCH  17  18
ATOM     18  C   UNL d   1      -0.204  -6.132   0.873  0.00  0.00    -0.048 A 
ATOM     19  C   UNL d   1       0.198  -7.033  -0.128  0.00  0.00     0.011 A 
ATOM     20  C   UNL d   1      -0.122  -8.390  -0.032  0.00  0.00     0.043 A 
ATOM     21  C   UNL d   1      -0.848  -8.847   1.061  0.00  0.00     0.116 A 
ATOM     22  C   UNL d   1      -1.256  -7.975   2.062  0.00  0.00     0.043 A 
ATOM     23  F   UNL d   1      -1.155 -10.148   1.153  0.00  0.00    -0.206 F 
ATOM     24  C   UNL d   1      -0.935  -6.617   1.970  0.00  0.00     0.011 A 
ENDBRANCH  17  18
ENDBRANCH  16  17
ENDBRANCH   9  16
BRANCH   5  25
ATOM     25  C   UNL d   1       4.069  -1.357   0.043  0.00  0.00     0.315 C 
ATOM     26  O   UNL d   1       4.014  -2.578   0.147  0.00  0.00    -0.257 OA
BRANCH  25  27
ATOM     27  O   UNL d   1       5.229  -0.639   0.101  0.00  0.00    -0.317 OA
BRANCH  27  28
ATOM     28  C   UNL d   1       6.350  -1.333   0.661  0.00  0.00     0.175 C 
ATOM     29  C   UNL d   1       6.298  -1.166   2.169  0.00  0.00     0.034 C 
ENDBRANCH  27  28
ENDBRANCH  25  27
ENDBRANCH   5  25
TORSDOF 6
