REMARK  3 active torsions:
REMARK  status: ('A' for Active; 'I' for Inactive)
REMARK    1  A    between atoms: N_17  and  C_6 
REMARK    2  A    between atoms: C_11  and  C_16 
REMARK    3  A    between atoms: N_12  and  N_17 
ROOT
ATOM      1  C   UNL d   1       1.161   0.609   0.158  0.00  0.00     0.089 A 
ATOM      2  C   UNL d   1       0.583  -0.649   0.042  0.00  0.00     0.045 A 
ATOM      3  S   UNL d   1       0.018   1.870   0.233  0.00  0.00    -0.075 SA
ATOM      4  C   UNL d   1      -0.863  -0.541   0.030  0.00  0.00    -0.029 A 
ATOM      5  C   UNL d   1      -1.274   0.777   0.124  0.00  0.00    -0.008 A 
ATOM      6  C   UNL d   1       1.490  -1.726  -0.075  0.00  0.00     0.113 A 
ATOM      7  N   UNL d   1       2.471   0.900   0.201  0.00  0.00    -0.346 N 
ATOM      8  HN  UNL d   1       2.840   1.845   0.304  1.00  0.00     0.167 HD
ATOM      9  N   UNL d   1       2.822  -1.446  -0.059  0.00  0.00    -0.341 N 
ATOM     10  HN  UNL d   1       3.504  -2.198  -0.162  1.00  0.00     0.167 HD
ATOM     11  C   UNL d   1       3.233  -0.185   0.092  0.00  0.00     0.182 A 
ATOM     12  C   UNL d   1      -1.856  -1.669  -0.044  0.00  0.00     0.041 C 
ATOM     13  C   UNL d   1      -2.696   1.244   0.112  0.00  0.00     0.047 C 
ATOM     14  C   UNL d   1      -3.296  -1.181  -0.283  0.00  0.00     0.005 C 
ATOM     15  C   UNL d   1      -3.624   0.091   0.509  0.00  0.00     0.005 C 
ENDROOT
BRANCH   6  16
ATOM     16  N   UNL d   1       1.055  -3.066  -0.288  0.00  0.00    -0.190 NA
ATOM     17  H   UNL d   1       0.416  -3.316   0.466  0.00  0.00     0.154 HD
BRANCH  16  18
ATOM     18  N   UNL d   1       2.015  -4.024  -0.549  0.00  0.00    -0.325 N 
ATOM     19  C   UNL d   1       2.664  -3.815  -1.657  0.00  0.00     0.120 C 
ATOM     20  HN  UNL d   1       2.197  -4.816   0.067  1.00  0.00     0.180 HD
BRANCH  19  21
ATOM     21  C   UNL d   1       3.787  -4.621  -2.056  0.00  0.00     0.021 A 
ATOM     22  S   UNL d   1       4.697  -4.136  -3.423  0.00  0.00    -0.101 SA
ATOM     23  C   UNL d   1       5.806  -5.420  -3.219  0.00  0.00     0.050 A 
ATOM     24  C   UNL d   1       5.475  -6.221  -2.148  0.00  0.00     0.008 A 
ATOM     25  C   UNL d   1       4.306  -5.758  -1.474  0.00  0.00     0.021 A 
ENDBRANCH  19  21
ENDBRANCH  16  18
ENDBRANCH   6  16
TORSDOF 3
