REMARK  5 active torsions:
REMARK  status: ('A' for Active; 'I' for Inactive)
REMARK    1  A    between atoms: C_5  and  C_1 
REMARK    2  A    between atoms: C_2  and  N_6 
REMARK    3  A    between atoms: N_3  and  C_2 
REMARK    4  A    between atoms: C_4  and  N_3 
REMARK    5  A    between atoms: N_6  and  C_11 
ROOT
ATOM      1  C   UNL d   1      -1.659  -0.916  -4.207  0.00  0.00     0.176 C 
ATOM      2  S   UNL d   1      -2.355  -1.769  -5.476  0.00  0.00    -0.041 SA
ENDROOT
BRANCH   1   3
ATOM      3  N   UNL d   1      -1.313   0.411  -4.211  0.00  0.00    -0.333 N 
ATOM      4  H   UNL d   1      -0.394   0.587  -3.821  0.00  0.00     0.168 HD
BRANCH   3   5
ATOM      5  C   UNL d   1      -1.879   1.437  -4.998  0.00  0.00     0.035 A 
ATOM      6  C   UNL d   1      -3.247   1.470  -5.277  0.00  0.00     0.045 A 
ATOM      7  C   UNL d   1      -3.804   2.497  -6.054  0.00  0.00     0.050 A 
ATOM      8  C   UNL d   1      -2.961   3.502  -6.548  0.00  0.00     0.016 A 
ATOM      9  C   UNL d   1      -1.599   3.495  -6.239  0.00  0.00     0.003 A 
ATOM     10  C   UNL d   1      -1.062   2.477  -5.446  0.00  0.00     0.029 A 
BRANCH   7  11
ATOM     11  C   UNL d   1      -5.280   2.519  -6.358  0.00  0.00     0.417 C 
ATOM     12  F   UNL d   1      -5.993   1.567  -5.695  0.00  0.00    -0.166 F 
ATOM     13  F   UNL d   1      -5.543   2.330  -7.681  0.00  0.00    -0.166 F 
ATOM     14  F   UNL d   1      -5.861   3.708  -6.030  0.00  0.00    -0.166 F 
ENDBRANCH   7  11
ENDBRANCH   3   5
ENDBRANCH   1   3
BRANCH   1  15
ATOM     15  N   UNL d   1      -1.287  -1.660  -3.122  0.00  0.00    -0.333 N 
ATOM     16  H   UNL d   1      -1.366  -2.652  -3.307  0.00  0.00     0.168 HD
BRANCH  15  17
ATOM     17  C   UNL d   1      -1.033  -1.314  -1.775  0.00  0.00     0.040 A 
ATOM     18  C   UNL d   1      -0.547  -2.313  -0.904  0.00  0.00    -0.035 A 
ATOM     19  C   UNL d   1      -0.400  -2.024   0.464  0.00  0.00     0.009 A 
ATOM     20  C   UNL d   1      -0.240  -3.718  -1.355  0.00  0.00     0.050 C 
ATOM     21  C   UNL d   1      -0.713  -0.764   0.967  0.00  0.00     0.007 A 
ATOM     22  C   UNL d   1      -1.181   0.235   0.114  0.00  0.00    -0.060 A 
ATOM     23  C   UNL d   1      -1.346  -0.051  -1.251  0.00  0.00     0.037 A 
ATOM     24  C   UNL d   1      -1.609   1.562   0.668  0.00  0.00     0.048 C 
ENDBRANCH  15  17
ENDBRANCH   1  15
TORSDOF 5
