REMARK  0 active torsions:
REMARK  status: ('A' for Active; 'I' for Inactive)
ROOT
ATOM      1  N   UNL d   1      -0.742  -0.324   0.001  0.00  0.00    -0.047 N 
ATOM      2  C   UNL d   1      -0.401   1.011  -0.007  0.00  0.00     0.707 A 
ATOM      3  C   UNL d   1       0.176  -1.376   0.003  0.00  0.00     0.284 A 
ATOM      4  N   UNL d   1      -1.478   1.754   0.005  0.00  0.00    -0.184 N 
ATOM      5  HN  UNL d   1      -1.553   2.771  -0.000  1.00  0.00     0.185 HD
ATOM      6  C   UNL d   1       1.601  -0.936   0.013  0.00  0.00     0.102 A 
ATOM      7  N   UNL d   1       0.906   1.342  -0.018  0.00  0.00    -0.194 N 
ATOM      8  N   UNL d   1      -2.093  -0.459   0.021  0.00  0.00    -0.272 N 
ATOM      9  HN  UNL d   1      -2.659  -1.307   0.028  1.00  0.00     0.189 HD
ATOM     10  C   UNL d   1       1.901   0.379   0.008  0.00  0.00     0.028 A 
ATOM     11  C   UNL d   1      -2.480   0.820   0.028  0.00  0.00     0.216 A 
ATOM     12  O   UNL d   1      -0.170  -2.551   0.004  0.00  0.00    -0.266 OA
ATOM     13  C   UNL d   1       3.324   0.860   0.043  0.00  0.00     0.069 C 
ATOM     14  H   UNL d   1       1.179   2.321  -0.019  0.00  0.00     0.184 HD
ENDROOT
TORSDOF 0
