REMARK  2 active torsions:
REMARK  status: ('A' for Active; 'I' for Inactive)
REMARK    1  A    between atoms: C_8  and  C_5 
REMARK    2  A    between atoms: C_9  and  C_8 
ROOT
ATOM      1  N   UNL d   1      -2.054  -0.930  -1.899  0.00  0.00    -0.278 N 
ATOM      2  C   UNL d   1      -1.998   0.209  -1.172  0.00  0.00     0.323 A 
ATOM      3  C   UNL d   1      -1.240  -1.880  -1.367  0.00  0.00     0.248 A 
ATOM      4  N   UNL d   1      -1.212  -0.016  -0.069  0.00  0.00    -0.330 N 
ATOM      5  C   UNL d   1      -0.650  -1.350  -0.055  0.00  0.00     0.179 A 
ATOM      6  O   UNL d   1      -2.528   1.268  -1.453  0.00  0.00    -0.247 OA
ATOM      7  O   UNL d   1      -1.017  -2.969  -1.875  0.00  0.00    -0.271 OA
ATOM      8  H   UNL d   1      -2.530  -1.014  -2.780  0.00  0.00     0.173 HD
ATOM      9  H   UNL d   1      -0.977   0.739   0.562  0.00  0.00     0.165 HD
ENDROOT
BRANCH   5  10
ATOM     10  C   UNL d   1      -1.105  -2.125   1.180  0.00  0.00     0.038 C 
BRANCH  10  11
ATOM     11  C   UNL d   1      -0.667  -3.602   1.227  0.00  0.00    -0.020 C 
ATOM     12  C   UNL d   1       0.851  -3.766   1.151  0.00  0.00     0.009 C 
ATOM     13  C   UNL d   1      -1.204  -4.266   2.497  0.00  0.00     0.009 C 
ENDBRANCH  10  11
ENDBRANCH   5  10
TORSDOF 2
