REMARK  4 active torsions:
REMARK  status: ('A' for Active; 'I' for Inactive)
REMARK    1  A    between atoms: C_10  and  C_2 
REMARK    2  A    between atoms: C_13  and  C_12 
REMARK    3  A    between atoms: C_15  and  C_13 
REMARK       I    between atoms: N_21  and  C_15 
REMARK    4  A    between atoms: N_22  and  N_21 
ROOT
ATOM      1  N   UNL d   1      -0.526  -0.830   0.023  0.00  0.00    -0.213 N 
ATOM      2  C   UNL d   1      -1.881  -1.111  -0.041  0.00  0.00     0.161 A 
ATOM      3  C   UNL d   1      -0.466   0.543  -0.016  0.00  0.00     0.182 A 
ATOM      4  N   UNL d   1      -2.560   0.024  -0.090  0.00  0.00    -0.281 N 
ATOM      5  HN  UNL d   1      -3.576   0.111  -0.130  1.00  0.00     0.188 HD
ATOM      6  N   UNL d   1       0.497  -1.727   0.209  0.00  0.00    -0.297 N 
ATOM      7  HN  UNL d   1       0.315  -2.689   0.496  1.00  0.00     0.187 HD
ATOM      8  N   UNL d   1      -1.663   1.069  -0.078  0.00  0.00    -0.277 N 
ATOM      9  HN  UNL d   1      -1.888   2.063  -0.111  1.00  0.00     0.189 HD
ATOM     10  S   UNL d   1       1.041   1.369   0.108  0.00  0.00    -0.085 SA
ATOM     11  C   UNL d   1       1.709  -1.297   0.004  0.00  0.00     0.022 C 
ATOM     12  C   UNL d   1       2.087   0.061  -0.565  0.00  0.00     0.137 C 
ENDROOT
BRANCH  11  13
ATOM     13  C   UNL d   1       2.827  -2.277   0.298  0.00  0.00     0.159 C 
BRANCH  13  14
ATOM     14  C   UNL d   1       3.631  -2.664  -0.916  0.00  0.00     0.237 C 
ATOM     15  O   UNL d   1       3.833  -1.900  -1.857  0.00  0.00    -0.272 OA
ATOM     16  N   UNL d   1       4.155  -3.948  -0.854  0.00  0.00    -0.294 N 
ATOM     17  H   UNL d   1       4.065  -4.514  -0.010  0.00  0.00     0.183 HD
BRANCH  16  18
ATOM     18  N   UNL d   1       5.018  -4.397  -1.874  0.00  0.00    -0.247 NA
ATOM     19  H   UNL d   1       5.378  -3.564  -2.361  0.00  0.00     0.143 HD
ATOM     20  H   UNL d   1       4.449  -4.865  -2.586  0.00  0.00     0.143 HD
ENDBRANCH  16  18
ENDBRANCH  13  14
ENDBRANCH  11  13
BRANCH   2  21
ATOM     21  C   UNL d   1      -2.494  -2.410  -0.032  0.00  0.00     0.052 A 
ATOM     22  S   UNL d   1      -1.705  -3.829  -0.590  0.00  0.00    -0.098 SA
ATOM     23  C   UNL d   1      -3.054  -4.813  -0.237  0.00  0.00     0.050 A 
ATOM     24  C   UNL d   1      -4.104  -4.083   0.269  0.00  0.00     0.009 A 
ATOM     25  C   UNL d   1      -3.786  -2.697   0.374  0.00  0.00     0.023 A 
ENDBRANCH   2  21
TORSDOF 4
