REMARK  7 active torsions:
REMARK  status: ('A' for Active; 'I' for Inactive)
REMARK    1  A    between atoms: C_3  and  C_1 
REMARK    2  A    between atoms: C_2  and  C_4 
REMARK    3  A    between atoms: C_6  and  C_5 
REMARK    4  A    between atoms: O_22  and  C_6 
REMARK    5  A    between atoms: C_11  and  C_10 
REMARK    6  A    between atoms: C_13  and  C_11 
REMARK    7  A    between atoms: C_12  and  O_22 
ROOT
ATOM      1  C   UNL d   1       0.504   1.514   0.049  0.00  0.00     0.049 A 
ATOM      2  C   UNL d   1      -0.710   2.983   1.582  0.00  0.00     0.049 A 
ATOM      3  C   UNL d   1       0.950   3.918   0.054  0.00  0.00     0.041 A 
ATOM      4  C   UNL d   1      -0.447   1.704   1.064  0.00  0.00     0.032 A 
ATOM      5  C   UNL d   1       1.191   2.632  -0.452  0.00  0.00     0.034 A 
ATOM      6  C   UNL d   1      -0.007   4.088   1.065  0.00  0.00     0.034 A 
ENDROOT
BRANCH   3   7
ATOM      7  C   UNL d   1       1.752   5.046  -0.503  0.00  0.00     0.297 C 
ATOM      8  O   UNL d   1       2.519   4.902  -1.443  0.00  0.00    -0.259 OA
BRANCH   7   9
ATOM      9  O   UNL d   1       1.510   6.194   0.200  0.00  0.00    -0.287 OA
BRANCH   9  10
ATOM     10  C   UNL d   1       2.263   7.311  -0.177  0.00  0.00     0.150 C 
ATOM     11  C   UNL d   1       2.073   8.505   0.392  0.00  0.00     0.080 C 
BRANCH  11  12
ATOM     12  C   UNL d   1       2.905   9.656  -0.046  0.00  0.00     0.183 C 
ATOM     13  O   UNL d   1       3.955   9.474  -0.656  0.00  0.00    -0.288 OA
BRANCH  12  14
ATOM     14  C   UNL d   1       2.456  11.049   0.262  0.00  0.00     0.014 A 
ATOM     15  C   UNL d   1       1.207  11.354   0.823  0.00  0.00     0.018 A 
ATOM     16  C   UNL d   1       0.839  12.687   1.042  0.00  0.00     0.043 A 
ATOM     17  C   UNL d   1       1.711  13.712   0.696  0.00  0.00     0.116 A 
ATOM     18  C   UNL d   1       2.951  13.433   0.138  0.00  0.00     0.043 A 
ATOM     19  F   UNL d   1       1.345  14.985   0.894  0.00  0.00    -0.206 F 
ATOM     20  C   UNL d   1       3.323  12.103  -0.078  0.00  0.00     0.018 A 
ENDBRANCH  12  14
ENDBRANCH  11  12
ENDBRANCH   9  10
ENDBRANCH   7   9
ENDBRANCH   3   7
BRANCH   1  21
ATOM     21  C   UNL d   1       0.810   0.137  -0.496  0.00  0.00     0.417 C 
ATOM     22  F   UNL d   1       0.102  -0.853   0.112  0.00  0.00    -0.166 F 
ATOM     23  F   UNL d   1       2.122  -0.196  -0.347  0.00  0.00    -0.166 F 
ATOM     24  F   UNL d   1       0.540   0.032  -1.825  0.00  0.00    -0.166 F 
ENDBRANCH   1  21
BRANCH   2  25
ATOM     25  C   UNL d   1      -1.719   3.185   2.690  0.00  0.00     0.417 C 
ATOM     26  F   UNL d   1      -2.288   2.028   3.125  0.00  0.00    -0.166 F 
ATOM     27  F   UNL d   1      -1.167   3.769   3.788  0.00  0.00    -0.166 F 
ATOM     28  F   UNL d   1      -2.747   3.992   2.311  0.00  0.00    -0.166 F 
ENDBRANCH   2  25
TORSDOF 7
