REMARK  5 active torsions:
REMARK  status: ('A' for Active; 'I' for Inactive)
REMARK    1  A    between atoms: C_9  and  C_1 
REMARK    2  A    between atoms: N_15  and  C_3 
REMARK    3  A    between atoms: C_12  and  C_6 
REMARK    4  A    between atoms: C_14  and  C_9 
REMARK    5  A    between atoms: C_19  and  C_10 
ROOT
ATOM      1  C   UNL d   1       2.383   0.073   0.112  0.00  0.00     0.155 A 
ATOM      2  C   UNL d   1       0.264   0.878   0.051  0.00  0.00     0.056 A 
ATOM      3  C   UNL d   1       1.640   1.233   0.158  0.00  0.00     0.080 A 
ATOM      4  C   UNL d   1       0.264  -0.517   0.035  0.00  0.00     0.162 A 
ATOM      5  O   UNL d   1       1.542  -1.001   0.066  0.00  0.00    -0.286 OA
ATOM      6  C   UNL d   1      -0.996   1.508  -0.024  0.00  0.00    -0.000 A 
ATOM      7  N   UNL d   1      -0.800  -1.340  -0.009  0.00  0.00    -0.335 N 
ATOM      8  HN  UNL d   1      -0.711  -2.356  -0.002  1.00  0.00     0.168 HD
ATOM      9  C   UNL d   1      -1.996  -0.713  -0.064  0.00  0.00     0.045 A 
ATOM     10  C   UNL d   1      -2.127   0.678  -0.059  0.00  0.00     0.044 A 
ENDROOT
BRANCH   1  11
ATOM     11  C   UNL d   1       3.818  -0.101   0.062  0.00  0.00     0.218 C 
ATOM     12  O   UNL d   1       4.571   0.756  -0.404  0.00  0.00    -0.284 OA
BRANCH  11  13
ATOM     13  C   UNL d   1       4.454  -1.320   0.628  0.00  0.00     0.017 A 
ATOM     14  C   UNL d   1       3.894  -2.009   1.713  0.00  0.00     0.017 A 
ATOM     15  C   UNL d   1       4.569  -3.094   2.276  0.00  0.00     0.020 A 
ATOM     16  C   UNL d   1       5.806  -3.485   1.765  0.00  0.00     0.011 A 
ATOM     17  C   UNL d   1       6.377  -2.804   0.693  0.00  0.00     0.020 A 
ATOM     18 BR   UNL d   1       6.725  -4.940   2.547  0.00  0.00    -0.051 Br
ATOM     19  C   UNL d   1       5.704  -1.718   0.129  0.00  0.00     0.017 A 
ENDBRANCH  11  13
ENDBRANCH   1  11
BRANCH   3  20
ATOM     20  N   UNL d   1       2.176   2.467   0.293  0.00  0.00    -0.396 N 
ATOM     21  H   UNL d   1       1.620   3.296   0.103  0.00  0.00     0.156 HD
ATOM     22  H   UNL d   1       3.167   2.609   0.087  0.00  0.00     0.156 HD
ENDBRANCH   3  20
BRANCH   6  23
ATOM     23  C   UNL d   1      -1.144   2.967  -0.040  0.00  0.00     0.016 C 
ATOM     24  S   UNL d   1      -0.213   3.949  -1.102  0.00  0.00    -0.101 SA
ATOM     25  C   UNL d   1      -0.826   5.392  -0.429  0.00  0.00     0.050 C 
ATOM     26  C   UNL d   1      -1.859   5.145   0.444  0.00  0.00     0.008 C 
ATOM     27  C   UNL d   1      -2.059   3.748   0.648  0.00  0.00     0.020 C 
ENDBRANCH   6  23
BRANCH   9  28
ATOM     28  C   UNL d   1      -3.183  -1.600  -0.152  0.00  0.00    -0.009 A 
ATOM     29  C   UNL d   1      -3.215  -2.844   0.504  0.00  0.00     0.013 A 
ATOM     30  C   UNL d   1      -4.330  -3.687   0.418  0.00  0.00     0.001 A 
ATOM     31  C   UNL d   1      -5.439  -3.304  -0.331  0.00  0.00     0.000 A 
ATOM     32  C   UNL d   1      -5.434  -2.082  -0.994  0.00  0.00     0.001 A 
ATOM     33  C   UNL d   1      -4.318  -1.242  -0.906  0.00  0.00     0.013 A 
ENDBRANCH   9  28
TORSDOF 5
