REMARK  3 active torsions:
REMARK  status: ('A' for Active; 'I' for Inactive)
REMARK    1  A    between atoms: N_6  and  C_1 
REMARK       I    between atoms: C_8  and  N_6 
REMARK    2  A    between atoms: C_14  and  C_8 
REMARK    3  A    between atoms: N_10  and  C_14 
ROOT
ATOM      1  C   UNL d   1       2.457  -0.757   0.222  0.00  0.00     0.098 C 
ATOM      2  C   UNL d   1       1.962   0.527   0.060  0.00  0.00     0.085 C 
ATOM      3  C   UNL d   1       0.509   0.570   0.109  0.00  0.00    -0.021 C 
ATOM      4  C   UNL d   1      -0.001  -0.701   0.267  0.00  0.00    -0.007 C 
ATOM      5  S   UNL d   1       1.190  -1.836   0.609  0.00  0.00    -0.075 SA
ATOM      6  C   UNL d   1       2.799   1.679  -0.200  0.00  0.00     0.103 C 
ATOM      7  N   UNL d   1       3.470   2.597  -0.416  0.00  0.00    -0.191 NA
ATOM      8  C   UNL d   1      -0.413   1.747  -0.083  0.00  0.00     0.042 C 
ATOM      9  C   UNL d   1      -1.437  -1.113   0.193  0.00  0.00     0.051 C 
ATOM     10  C   UNL d   1      -1.892   1.371   0.174  0.00  0.00     0.009 C 
ATOM     11  C   UNL d   1      -2.296   0.005  -0.424  0.00  0.00    -0.014 C 
ATOM     12  C   UNL d   1      -2.216   0.005  -1.956  0.00  0.00     0.010 C 
ENDROOT
BRANCH   1  13
ATOM     13  N   UNL d   1       3.764  -1.254   0.118  0.00  0.00    -0.319 N 
ATOM     14  C   UNL d   1       4.102  -2.603   0.163  0.00  0.00     0.251 C 
ATOM     15  O   UNL d   1       3.329  -3.552   0.313  0.00  0.00    -0.271 OA
ATOM     16  H   UNL d   1       4.522  -0.605  -0.078  0.00  0.00     0.169 HD
BRANCH  14  17
ATOM     17  C   UNL d   1       5.559  -2.952  -0.113  0.00  0.00     0.375 C 
BRANCH  17  18
ATOM     18  N   UNL d   1       6.582  -2.019   0.406  0.00  0.00     0.100 N 
ATOM     19  C   UNL d   1       6.490  -1.828   1.871  0.00  0.00     0.303 C 
ATOM     20  C   UNL d   1       7.669  -0.974   2.403  0.00  0.00     0.302 C 
ATOM     21  N   UNL d   1       9.012  -1.512   2.113  0.00  0.00     0.087 N 
ATOM     22  C   UNL d   1       9.107  -1.853   0.681  0.00  0.00     0.302 C 
ATOM     23  C   UNL d   1       9.339  -2.648   2.971  0.00  0.00     0.310 C 
ATOM     24  C   UNL d   1       7.907  -2.644   0.118  0.00  0.00     0.303 C 
ENDBRANCH  17  18
ENDBRANCH  14  17
ENDBRANCH   1  13
TORSDOF 3
