REMARK  5 active torsions:
REMARK  status: ('A' for Active; 'I' for Inactive)
REMARK    1  A    between atoms: C_7  and  C_2 
REMARK    2  A    between atoms: C_14  and  N_4 
REMARK    3  A    between atoms: N_9  and  C_18 
REMARK    4  A    between atoms: O_31  and  C_15 
REMARK    5  A    between atoms: O_32  and  C_19 
ROOT
ATOM      1  N   UNL d   1      -2.455   1.559   0.387  0.00  0.00    -0.239 NA
ATOM      2  C   UNL d   1      -3.091   2.495   1.293  0.00  0.00     0.111 C 
ATOM      3  C   UNL d   1      -1.059   2.016   0.382  0.00  0.00     0.222 C 
ATOM      4  N   UNL d   1      -0.987   2.578   1.744  0.00  0.00    -0.268 N 
ATOM      5  N   UNL d   1      -2.243   3.039   2.109  0.00  0.00    -0.285 N 
ATOM      6  HN  UNL d   1      -2.458   3.682   2.871  1.00  0.00     0.188 HD
ATOM      7  C   UNL d   1      -0.024   1.019  -0.020  0.00  0.00    -0.010 A 
ATOM      8  C   UNL d   1      -0.338  -0.321  -0.268  0.00  0.00    -0.044 A 
ATOM      9  C   UNL d   1       1.308   1.465  -0.126  0.00  0.00     0.050 A 
ATOM     10  C   UNL d   1      -2.744   0.120   0.509  0.00  0.00     0.104 C 
ATOM     11  C   UNL d   1       2.342   0.581  -0.412  0.00  0.00     0.102 A 
ATOM     12  C   UNL d   1       0.709  -1.222  -0.524  0.00  0.00     0.047 A 
ATOM     13  C   UNL d   1       2.044  -0.781  -0.556  0.00  0.00     0.102 A 
ATOM     14  C   UNL d   1      -1.784  -0.750  -0.320  0.00  0.00     0.054 C 
ENDROOT
BRANCH   4  15
ATOM     15  C   UNL d   1      -0.248   2.047   2.809  0.00  0.00     0.053 A 
ATOM     16  C   UNL d   1       0.318   2.938   3.737  0.00  0.00     0.034 A 
ATOM     17  C   UNL d   1       1.129   2.488   4.788  0.00  0.00     0.038 A 
ATOM     18  C   UNL d   1       1.371   1.120   4.934  0.00  0.00     0.103 A 
ATOM     19  C   UNL d   1       0.779   0.207   4.062  0.00  0.00     0.038 A 
ATOM     20  C   UNL d   1      -0.034   0.676   3.024  0.00  0.00     0.034 A 
BRANCH  18  21
ATOM     21  N   UNL d   1       2.249   0.630   6.006  0.00  0.00    -0.116 N 
ATOM     22  O   UNL d   1       2.452  -0.589   6.068  0.00  0.00    -0.532 OA
ATOM     23  O   UNL d   1       2.728   1.472   6.782  0.00  0.00    -0.532 OA
ENDBRANCH  18  21
ENDBRANCH   4  15
BRANCH   2  24
ATOM     24  C   UNL d   1      -4.509   2.884   1.149  0.00  0.00     0.026 A 
ATOM     25  C   UNL d   1      -5.173   3.681   2.099  0.00  0.00     0.049 A 
ATOM     26  C   UNL d   1      -6.417   4.250   1.798  0.00  0.00     0.048 A 
ATOM     27 CL   UNL d   1      -4.550   4.016   3.676  0.00  0.00    -0.083 Cl
ATOM     28  C   UNL d   1      -7.013   4.011   0.564  0.00  0.00     0.035 A 
ATOM     29  C   UNL d   1      -6.390   3.186  -0.368  0.00  0.00     0.025 A 
ATOM     30 CL   UNL d   1      -8.512   4.757   0.180  0.00  0.00    -0.084 Cl
ATOM     31  C   UNL d   1      -5.139   2.628  -0.082  0.00  0.00     0.018 A 
ENDBRANCH   2  24
BRANCH  11  32
ATOM     32  O   UNL d   1       3.656   0.959  -0.499  0.00  0.00    -0.353 OA
ATOM     33  C   UNL d   1       3.903   2.317  -0.852  0.00  0.00     0.210 C 
ENDBRANCH  11  32
BRANCH  13  34
ATOM     34  O   UNL d   1       3.102  -1.618  -0.804  0.00  0.00    -0.353 OA
ATOM     35  C   UNL d   1       3.029  -2.892  -0.173  0.00  0.00     0.210 C 
ENDBRANCH  13  34
TORSDOF 5
