REMARK  7 active torsions:
REMARK  status: ('A' for Active; 'I' for Inactive)
REMARK    1  A    between atoms: N_8  and  C_1 
REMARK    2  A    between atoms: C_2  and  N_5 
REMARK    3  A    between atoms: N_7  and  C_2 
REMARK    4  A    between atoms: C_3  and  N_4 
REMARK    5  A    between atoms: N_5  and  C_6 
REMARK    6  A    between atoms: C_12  and  N_7 
REMARK    7  A    between atoms: C_13  and  N_8 
ROOT
ATOM      1  C   UNL d   1       1.228   2.582   0.934  0.00  0.00     0.061 C 
ATOM      2  C   UNL d   1       0.720   3.004   2.174  0.00  0.00     0.061 C 
ATOM      3  C   UNL d   1       2.213   3.375   0.295  0.00  0.00     0.038 C 
ATOM      4  C   UNL d   1       1.386   4.082   2.812  0.00  0.00     0.032 C 
ATOM      5  C   UNL d   1       2.820   4.470   0.912  0.00  0.00    -0.060 C 
ATOM      6  C   UNL d   1       2.416   4.803   2.196  0.00  0.00     0.009 C 
ATOM      7  C   UNL d   1       3.869   5.269   0.196  0.00  0.00     0.048 C 
ENDROOT
BRANCH   1   8
ATOM      8  N   UNL d   1       0.879   1.478   0.148  0.00  0.00    -0.331 N 
ATOM      9  C   UNL d   1       0.861   0.151   0.215  0.00  0.00     0.176 C 
ATOM     10  S   UNL d   1       0.364  -0.603  -1.225  0.00  0.00    -0.041 SA
ATOM     11  H   UNL d   1       0.761   1.734  -0.828  0.00  0.00     0.168 HD
BRANCH   9  12
ATOM     12  N   UNL d   1       1.234  -0.712   1.150  0.00  0.00    -0.333 N 
ATOM     13  H   UNL d   1       0.992  -1.637   0.805  0.00  0.00     0.168 HD
BRANCH  12  14
ATOM     14  C   UNL d   1       1.928  -0.785   2.365  0.00  0.00     0.034 A 
ATOM     15  C   UNL d   1       2.486   0.270   3.060  0.00  0.00     0.036 A 
ATOM     16  C   UNL d   1       3.125   0.069   4.300  0.00  0.00    -0.060 A 
ATOM     17  C   UNL d   1       3.640   1.233   5.088  0.00  0.00     0.048 C 
ATOM     18  C   UNL d   1       3.287  -1.229   4.793  0.00  0.00     0.007 A 
ATOM     19  C   UNL d   1       2.790  -2.309   4.076  0.00  0.00     0.003 A 
ATOM     20  C   UNL d   1       2.103  -2.082   2.883  0.00  0.00     0.029 A 
ENDBRANCH  12  14
ENDBRANCH   9  12
ENDBRANCH   1   8
BRANCH   2  21
ATOM     21  N   UNL d   1      -0.438   2.592   2.885  0.00  0.00    -0.331 N 
ATOM     22  H   UNL d   1      -0.494   2.942   3.834  0.00  0.00     0.168 HD
BRANCH  21  23
ATOM     23  C   UNL d   1      -1.642   2.045   2.515  0.00  0.00     0.176 C 
ATOM     24  S   UNL d   1      -2.171   1.384   1.085  0.00  0.00    -0.041 SA
BRANCH  23  25
ATOM     25  N   UNL d   1      -2.561   2.027   3.554  0.00  0.00    -0.333 N 
ATOM     26  H   UNL d   1      -3.201   1.245   3.445  0.00  0.00     0.168 HD
BRANCH  25  27
ATOM     27  C   UNL d   1      -3.259   3.180   4.027  0.00  0.00     0.034 A 
ATOM     28  C   UNL d   1      -4.488   2.951   4.666  0.00  0.00     0.036 A 
ATOM     29  C   UNL d   1      -5.318   4.011   5.061  0.00  0.00    -0.060 A 
ATOM     30  C   UNL d   1      -6.678   3.749   5.636  0.00  0.00     0.048 C 
ATOM     31  C   UNL d   1      -4.888   5.322   4.836  0.00  0.00     0.007 A 
ATOM     32  C   UNL d   1      -3.658   5.562   4.224  0.00  0.00     0.003 A 
ATOM     33  C   UNL d   1      -2.847   4.496   3.810  0.00  0.00     0.029 A 
ENDBRANCH  25  27
ENDBRANCH  23  25
ENDBRANCH  21  23
ENDBRANCH   2  21
TORSDOF 7
