REMARK  4 active torsions:
REMARK  status: ('A' for Active; 'I' for Inactive)
REMARK    1  A    between atoms: N_2  and  C_3 
REMARK    2  A    between atoms: S_10  and  C_8 
REMARK    3  A    between atoms: C_15  and  C_9 
REMARK    4  A    between atoms: C_18  and  S_10 
ROOT
ATOM      1  C   UNL d   1      -5.092  -1.476   1.103  0.00  0.00     0.120 A 
ATOM      2  C   UNL d   1      -6.131  -1.385   0.168  0.00  0.00     0.038 A 
ATOM      3  C   UNL d   1      -3.985  -0.617   1.078  0.00  0.00     0.049 A 
ATOM      4  C   UNL d   1      -3.876   0.323   0.053  0.00  0.00    -0.032 A 
ATOM      5  C   UNL d   1      -6.012  -0.415  -0.839  0.00  0.00     0.022 A 
ATOM      6  C   UNL d   1      -4.888   0.420  -0.907  0.00  0.00     0.013 A 
ENDROOT
BRANCH   4   7
ATOM      7  C   UNL d   1      -2.644   1.100  -0.067  0.00  0.00     0.036 C 
ATOM      8  C   UNL d   1      -1.564   0.646  -0.720  0.00  0.00     0.076 A 
ATOM      9  C   UNL d   1      -1.437  -0.644  -1.463  0.00  0.00     0.264 A 
ATOM     10  S   UNL d   1      -0.052   1.491  -0.765  0.00  0.00    -0.055 SA
ATOM     11  N   UNL d   1      -0.156  -0.788  -1.911  0.00  0.00    -0.307 N 
ATOM     12  O   UNL d   1      -2.318  -1.468  -1.653  0.00  0.00    -0.267 OA
ATOM     13  C   UNL d   1       0.740   0.200  -1.640  0.00  0.00     0.146 A 
ATOM     14  H   UNL d   1       0.109  -1.617  -2.421  0.00  0.00     0.170 HD
ATOM     15  S   UNL d   1       2.331   0.143  -2.089  0.00  0.00    -0.052 SA
ENDBRANCH   4   7
BRANCH   1  16
ATOM     16  N   UNL d   1      -5.066  -2.536   2.087  0.00  0.00    -0.114 N 
ATOM     17  O   UNL d   1      -4.913  -3.691   1.670  0.00  0.00    -0.532 OA
ATOM     18  O   UNL d   1      -5.115  -2.195   3.279  0.00  0.00    -0.532 OA
ENDBRANCH   1  16
BRANCH   2  19
ATOM     19  S   UNL d   1      -7.635  -2.335   0.251  0.00  0.00    -0.088 SA
BRANCH  19  20
ATOM     20  C   UNL d   1      -7.394  -3.706  -0.868  0.00  0.00     0.005 A 
ATOM     21  C   UNL d   1      -6.179  -4.030  -1.482  0.00  0.00     0.020 A 
ATOM     22  C   UNL d   1      -6.082  -5.142  -2.327  0.00  0.00     0.025 A 
ATOM     23  C   UNL d   1      -7.199  -5.939  -2.561  0.00  0.00     0.034 A 
ATOM     24  C   UNL d   1      -8.414  -5.635  -1.957  0.00  0.00     0.025 A 
ATOM     25 CL   UNL d   1      -7.075  -7.307  -3.596  0.00  0.00    -0.084 Cl
ATOM     26  C   UNL d   1      -8.508  -4.523  -1.114  0.00  0.00     0.020 A 
ENDBRANCH  19  20
ENDBRANCH   2  19
TORSDOF 4
