REMARK  2 active torsions:
REMARK  status: ('A' for Active; 'I' for Inactive)
REMARK    1  A    between atoms: C_7  and  C_4 
REMARK       I    between atoms: N_10  and  C_7 
REMARK    2  A    between atoms: N_13  and  N_10 
REMARK       I    between atoms: C_14  and  N_13 
ROOT
ATOM      1  C   UNL d   1      -0.827  -0.484   0.024  0.00  0.00     0.024 A 
ATOM      2  S   UNL d   1      -1.638  -1.995   0.059  0.00  0.00    -0.083 SA
ATOM      3  C   UNL d   1      -1.726   0.567   0.003  0.00  0.00    -0.029 A 
ATOM      4  C   UNL d   1      -3.184  -1.283   0.027  0.00  0.00     0.075 A 
ATOM      5  C   UNL d   1       0.642  -0.377   0.016  0.00  0.00    -0.000 A 
ATOM      6  C   UNL d   1      -3.083   0.094   0.007  0.00  0.00     0.034 A 
ATOM      7  S   UNL d   1       0.377   2.455   0.110  0.00  0.00    -0.124 SA
ATOM      8  C   UNL d   1       1.249   0.894   0.032  0.00  0.00     0.012 A 
ATOM      9  C   UNL d   1      -1.376   2.016  -0.042  0.00  0.00     0.119 C 
ATOM     10  C   UNL d   1       1.474  -1.515  -0.007  0.00  0.00     0.038 A 
ATOM     11  C   UNL d   1       2.654   0.997   0.019  0.00  0.00     0.021 A 
ATOM     12  C   UNL d   1       2.864  -1.393  -0.013  0.00  0.00     0.035 A 
ATOM     13  C   UNL d   1       3.459  -0.141  -0.003  0.00  0.00     0.025 A 
ATOM     14 CL   UNL d   1       3.845  -2.806  -0.029  0.00  0.00    -0.084 Cl
ENDROOT
BRANCH   4  15
ATOM     15  C   UNL d   1      -4.411  -2.066   0.019  0.00  0.00     0.277 C 
ATOM     16  N   UNL d   1      -4.267  -3.442   0.041  0.00  0.00    -0.263 N 
ATOM     17  H   UNL d   1      -3.361  -3.908   0.065  0.00  0.00     0.190 HD
ATOM     18  O   UNL d   1      -5.534  -1.555  -0.009  0.00  0.00    -0.265 OA
BRANCH  16  19
ATOM     19  N   UNL d   1      -5.407  -4.249   0.027  0.00  0.00    -0.268 N 
ATOM     20  C   UNL d   1      -5.254  -5.615   0.062  0.00  0.00     0.232 C 
ATOM     21  O   UNL d   1      -4.155  -6.166   0.099  0.00  0.00    -0.272 OA
ATOM     22  C   UNL d   1      -6.547  -6.384   0.053  0.00  0.00     0.119 C 
ATOM     23  H   UNL d   1      -6.307  -3.771  -0.008  0.00  0.00     0.190 HD
ENDBRANCH  16  19
ENDBRANCH   4  15
TORSDOF 2
