REMARK  4 active torsions:
REMARK  status: ('A' for Active; 'I' for Inactive)
REMARK    1  A    between atoms: N_14  and  C_2 
REMARK    2  A    between atoms: C_7  and  C_3 
REMARK    3  A    between atoms: O_17  and  C_11 
REMARK    4  A    between atoms: O_18  and  C_13 
ROOT
ATOM      1  C   UNL d   1      -0.647   1.183  -0.490  0.00  0.00     0.083 A 
ATOM      2  C   UNL d   1      -1.419   0.070  -0.470  0.00  0.00     0.070 A 
ATOM      3  C   UNL d   1       0.751   1.230  -0.055  0.00  0.00    -0.001 A 
ATOM      4  S   UNL d   1      -0.776  -1.475   0.050  0.00  0.00    -0.065 SA
ATOM      5  C   UNL d   1       0.886  -1.205   0.517  0.00  0.00     0.074 A 
ATOM      6  C   UNL d   1       1.433   0.163   0.391  0.00  0.00     0.044 A 
ATOM      7  C   UNL d   1      -1.228   2.414  -0.950  0.00  0.00     0.102 C 
ATOM      8  N   UNL d   1      -1.715   3.392  -1.348  0.00  0.00    -0.191 NA
ATOM      9  S   UNL d   1       1.808  -2.486   1.102  0.00  0.00    -0.072 SA
ENDROOT
BRANCH   2  10
ATOM     10  N   UNL d   1      -2.754   0.060  -0.852  0.00  0.00    -0.296 NA
ATOM     11  H   UNL d   1      -3.039   0.775  -1.518  0.00  0.00     0.124 HD
ATOM     12  H   UNL d   1      -3.070  -0.872  -1.106  0.00  0.00     0.124 HD
ENDBRANCH   2  10
BRANCH   3  13
ATOM     13  C   UNL d   1       1.513   2.499  -0.009  0.00  0.00    -0.021 A 
ATOM     14  C   UNL d   1       1.437   3.301   1.141  0.00  0.00     0.052 A 
ATOM     15  C   UNL d   1       2.090   4.540   1.210  0.00  0.00     0.102 A 
ATOM     16  C   UNL d   1       2.831   4.976   0.096  0.00  0.00     0.101 A 
ATOM     17  C   UNL d   1       2.910   4.159  -1.045  0.00  0.00     0.040 A 
ATOM     18  C   UNL d   1       2.260   2.928  -1.103  0.00  0.00     0.015 A 
BRANCH  15  19
ATOM     19  O   UNL d   1       2.038   5.341   2.319  0.00  0.00    -0.353 OA
ATOM     20  C   UNL d   1       1.261   4.912   3.431  0.00  0.00     0.210 C 
ENDBRANCH  15  19
BRANCH  16  21
ATOM     21  O   UNL d   1       3.535   6.141  -0.064  0.00  0.00    -0.353 OA
ATOM     22  C   UNL d   1       3.470   7.127   0.955  0.00  0.00     0.210 C 
ENDBRANCH  16  21
ENDBRANCH   3  13
TORSDOF 4
