REMARK  6 active torsions:
REMARK  status: ('A' for Active; 'I' for Inactive)
REMARK    1  A    between atoms: C_2  and  C_1 
REMARK    2  A    between atoms: C_3  and  C_2 
REMARK    3  A    between atoms: C_9  and  C_4 
REMARK    4  A    between atoms: O_18  and  C_5 
REMARK    5  A    between atoms: O_20  and  C_7 
REMARK    6  A    between atoms: O_19  and  C_8 
ROOT
ATOM      1  C   UNL d   1       1.023  -1.474  -0.875  0.00  0.00     0.096 C 
ATOM      2  C   UNL d   1       0.182  -0.924   0.022  0.00  0.00     0.038 C 
ATOM      3  C   UNL d   1       0.569  -2.096  -2.069  0.00  0.00     0.103 C 
ATOM      4  N   UNL d   1       0.204  -2.622  -3.040  0.00  0.00    -0.191 NA
ENDROOT
BRANCH   1   5
ATOM      5  C   UNL d   1       2.486  -1.367  -0.584  0.00  0.00     0.203 C 
ATOM      6  O   UNL d   1       2.932  -0.452   0.103  0.00  0.00    -0.286 OA
BRANCH   5   7
ATOM      7  C   UNL d   1       3.364  -2.384  -1.169  0.00  0.00     0.022 A 
ATOM      8  C   UNL d   1       3.059  -3.723  -1.360  0.00  0.00     0.065 A 
ATOM      9  S   UNL d   1       4.336  -4.606  -2.084  0.00  0.00    -0.113 SA
ATOM     10  C   UNL d   1       5.347  -3.232  -2.102  0.00  0.00     0.050 A 
ATOM     11  C   UNL d   1       4.722  -2.127  -1.567  0.00  0.00     0.023 A 
ENDBRANCH   5   7
ENDBRANCH   1   5
BRANCH   2  12
ATOM     12  C   UNL d   1      -1.277  -1.001  -0.085  0.00  0.00    -0.029 A 
ATOM     13  C   UNL d   1      -1.953  -2.022   0.579  0.00  0.00     0.051 A 
ATOM     14  C   UNL d   1      -3.345  -2.165   0.460  0.00  0.00     0.105 A 
ATOM     15  C   UNL d   1      -4.083  -1.266  -0.346  0.00  0.00     0.135 A 
ATOM     16  C   UNL d   1      -3.386  -0.253  -1.044  0.00  0.00     0.105 A 
ATOM     17  C   UNL d   1      -1.995  -0.126  -0.893  0.00  0.00     0.051 A 
BRANCH  14  18
ATOM     18  O   UNL d   1      -3.985  -3.233   1.040  0.00  0.00    -0.353 OA
ATOM     19  C   UNL d   1      -3.453  -3.692   2.280  0.00  0.00     0.210 C 
ENDBRANCH  14  18
BRANCH  15  20
ATOM     20  O   UNL d   1      -5.442  -1.293  -0.521  0.00  0.00    -0.351 OA
ATOM     21  C   UNL d   1      -6.262  -2.068   0.338  0.00  0.00     0.210 C 
ENDBRANCH  15  20
BRANCH  16  22
ATOM     22  O   UNL d   1      -3.869   0.689  -1.918  0.00  0.00    -0.353 OA
ATOM     23  C   UNL d   1      -5.253   0.735  -2.224  0.00  0.00     0.210 C 
ENDBRANCH  16  22
ENDBRANCH   2  12
TORSDOF 6
