REMARK  5 active torsions:
REMARK  status: ('A' for Active; 'I' for Inactive)
REMARK    1  A    between atoms: N_4  and  C_3 
REMARK       I    between atoms: C_6  and  N_4 
REMARK    2  A    between atoms: S_11  and  C_5 
REMARK    3  A    between atoms: C_10  and  C_6 
REMARK    4  A    between atoms: C_14  and  S_11 
REMARK    5  A    between atoms: C_16  and  C_14 
ROOT
ATOM      1  N   UNL d   1       1.286   0.269   0.503  0.00  0.00    -0.168 N 
ATOM      2  HN  UNL d   1       2.263   0.519   0.654  1.00  0.00     0.186 HD
ATOM      3  C   UNL d   1       0.201   1.102   0.388  0.00  0.00     0.701 A 
ATOM      4  C   UNL d   1       0.761  -0.923   0.372  0.00  0.00     0.174 A 
ATOM      5  N   UNL d   1      -0.969   0.474   0.211  0.00  0.00    -0.130 N 
ATOM      6  HN  UNL d   1      -1.901   0.868   0.084  1.00  0.00     0.205 HD
ATOM      7  N   UNL d   1      -0.586  -0.815   0.245  0.00  0.00    -0.265 N 
ATOM      8  H   UNL d   1      -1.270  -1.556   0.158  0.00  0.00     0.189 HD
ENDROOT
BRANCH   3   9
ATOM      9  N   UNL d   1       0.242   2.472   0.397  0.00  0.00    -0.154 N 
ATOM     10  C   UNL d   1       1.335   3.223   0.743  0.00  0.00     0.270 C 
ATOM     11  O   UNL d   1       2.423   2.773   1.092  0.00  0.00    -0.267 OA
ATOM     12  H   UNL d   1      -0.633   2.892   0.136  0.00  0.00     0.187 HD
BRANCH  10  13
ATOM     13  C   UNL d   1       1.195   4.719   0.661  0.00  0.00     0.038 A 
ATOM     14  C   UNL d   1       0.035   5.483   0.931  0.00  0.00    -0.046 A 
ATOM     15  C   UNL d   1      -1.288   4.931   1.384  0.00  0.00     0.049 C 
ATOM     16  C   UNL d   1       0.099   6.889   0.796  0.00  0.00     0.007 A 
ATOM     17  C   UNL d   1       1.287   7.539   0.462  0.00  0.00     0.001 A 
ATOM     18  C   UNL d   1       2.435   6.795   0.238  0.00  0.00     0.001 A 
ATOM     19  C   UNL d   1       2.384   5.403   0.326  0.00  0.00     0.017 A 
ENDBRANCH  10  13
ENDBRANCH   3   9
BRANCH   4  20
ATOM     20  S   UNL d   1       1.512  -2.468   0.280  0.00  0.00    -0.087 SA
BRANCH  20  21
ATOM     21  C   UNL d   1       3.176  -2.128   0.924  0.00  0.00     0.121 C 
BRANCH  21  22
ATOM     22  C   UNL d   1       4.041  -3.374   0.876  0.00  0.00    -0.048 A 
ATOM     23  C   UNL d   1       4.887  -3.616  -0.219  0.00  0.00     0.009 A 
ATOM     24  C   UNL d   1       5.681  -4.767  -0.268  0.00  0.00     0.024 A 
ATOM     25  C   UNL d   1       5.629  -5.688   0.777  0.00  0.00     0.034 A 
ATOM     26  C   UNL d   1       4.786  -5.471   1.864  0.00  0.00     0.024 A 
ATOM     27 CL   UNL d   1       6.605  -7.104   0.719  0.00  0.00    -0.084 Cl
ATOM     28  C   UNL d   1       3.994  -4.319   1.914  0.00  0.00     0.009 A 
ENDBRANCH  21  22
ENDBRANCH  20  21
ENDBRANCH   4  20
TORSDOF 5
