REMARK  3 active torsions:
REMARK  status: ('A' for Active; 'I' for Inactive)
REMARK    1  A    between atoms: C_5  and  C_1 
REMARK    2  A    between atoms: C_17  and  N_4 
REMARK    3  A    between atoms: C_15  and  C_8 
ROOT
ATOM      1  C   UNL d   1      -0.410  -2.826   0.125  0.00  0.00     0.195 A 
ATOM      2  C   UNL d   1      -0.336  -4.876   0.740  0.00  0.00     0.175 A 
ATOM      3  O   UNL d   1       0.277  -3.672   0.961  0.00  0.00    -0.271 OA
ATOM      4  N   UNL d   1      -1.332  -3.465  -0.571  0.00  0.00    -0.276 N 
ATOM      5  HN  UNL d   1      -1.961  -3.060  -1.264  1.00  0.00     0.189 HD
ATOM      6  N   UNL d   1      -1.278  -4.789  -0.177  0.00  0.00    -0.277 N 
ATOM      7  HN  UNL d   1      -1.857  -5.552  -0.529  1.00  0.00     0.189 HD
ENDROOT
BRANCH   1   8
ATOM      8  C   UNL d   1      -0.142  -1.362   0.065  0.00  0.00     0.126 A 
ATOM      9  N   UNL d   1       0.835  -0.792   0.781  0.00  0.00    -0.273 N 
ATOM     10  N   UNL d   1       0.703   0.519   0.470  0.00  0.00    -0.196 N 
ATOM     11  HN  UNL d   1       1.510  -1.235   1.405  1.00  0.00     0.189 HD
ATOM     12  N   UNL d   1      -0.294   0.828  -0.401  0.00  0.00    -0.281 N 
ATOM     13  C   UNL d   1      -0.820  -0.375  -0.678  0.00  0.00     0.056 A 
ATOM     14  HN  UNL d   1      -0.573   1.743  -0.754  1.00  0.00     0.189 HD
ATOM     15  C   UNL d   1      -1.949  -0.510  -1.627  0.00  0.00     0.072 C 
BRANCH  10  16
ATOM     16  C   UNL d   1       1.571   1.499   1.018  0.00  0.00     0.074 A 
ATOM     17  C   UNL d   1       2.656   1.101   1.816  0.00  0.00     0.033 A 
ATOM     18  C   UNL d   1       3.525   2.059   2.338  0.00  0.00     0.002 A 
ATOM     19  C   UNL d   1       3.308   3.412   2.081  0.00  0.00     0.000 A 
ATOM     20  C   UNL d   1       2.223   3.812   1.299  0.00  0.00     0.002 A 
ATOM     21  C   UNL d   1       1.355   2.859   0.762  0.00  0.00     0.033 A 
ENDBRANCH  10  16
ENDBRANCH   1   8
BRANCH   2  22
ATOM     22  C   UNL d   1       0.133  -5.994   1.561  0.00  0.00     0.028 A 
ATOM     23  C   UNL d   1      -0.710  -7.087   1.927  0.00  0.00    -0.011 A 
ATOM     24  C   UNL d   1      -0.164  -8.126   2.728  0.00  0.00    -0.025 A 
ATOM     25  C   UNL d   1      -2.077  -7.207   1.567  0.00  0.00     0.013 A 
ATOM     26  C   UNL d   1      -0.958  -9.220   3.111  0.00  0.00     0.012 A 
ATOM     27  C   UNL d   1       1.170  -8.064   3.155  0.00  0.00     0.012 A 
ATOM     28  C   UNL d   1      -2.294  -9.308   2.729  0.00  0.00     0.001 A 
ATOM     29  C   UNL d   1      -2.855  -8.300   1.960  0.00  0.00     0.001 A 
ATOM     30  C   UNL d   1       1.981  -6.991   2.808  0.00  0.00     0.002 A 
ATOM     31  C   UNL d   1       1.468  -5.968   2.018  0.00  0.00     0.017 A 
ENDBRANCH   2  22
TORSDOF 3
