REMARK  18 active torsions:
REMARK  status: ('A' for Active; 'I' for Inactive)
REMARK    1  A    between atoms: C_13  and  N_1 
REMARK    2  A    between atoms: C_14  and  N_2 
REMARK    3  A    between atoms: C_11  and  C_17 
REMARK    4  A    between atoms: C_16  and  C_12 
REMARK    5  A    between atoms: C_18  and  C_13 
REMARK    6  A    between atoms: C_19  and  C_14 
REMARK    7  A    between atoms: C_15  and  C_16 
REMARK    8  A    between atoms: C_17  and  C_15 
REMARK    9  A    between atoms: C_28  and  C_18 
REMARK   10  A    between atoms: C_25  and  C_19 
REMARK   11  A    between atoms: C_20  and  C_23 
REMARK   12  A    between atoms: C_21  and  C_22 
REMARK   13  A    between atoms: C_22  and  C_27 
REMARK   14  A    between atoms: C_23  and  C_29 
REMARK   15  A    between atoms: C_24  and  C_28 
REMARK   16  A    between atoms: C_29  and  C_24 
REMARK   17  A    between atoms: C_26  and  C_25 
REMARK   18  A    between atoms: C_27  and  C_26 
ROOT
ATOM      1  C   UNL d   1      -2.259   1.391  -2.358  0.00  0.00     0.001 C 
ENDROOT
BRANCH   1   2
ATOM      2  C   UNL d   1      -1.641   0.098  -1.817  0.00  0.00     0.005 C 
BRANCH   2   3
ATOM      3  C   UNL d   1      -1.383   0.138  -0.293  0.00  0.00    -0.011 C 
ATOM      4  C   UNL d   1      -0.677  -1.139   0.180  0.00  0.00     0.035 C 
ATOM      5  C   UNL d   1      -1.601  -2.358   0.152  0.00  0.00     0.272 C 
ATOM      6  N   UNL d   1      -2.848  -2.153   0.907  0.00  0.00     0.088 N 
ATOM      7  C   UNL d   1      -3.552  -0.930   0.486  0.00  0.00     0.272 C 
ATOM      8  C   UNL d   1      -2.650   0.303   0.557  0.00  0.00     0.035 C 
BRANCH   6   9
ATOM      9  C   UNL d   1      -3.760  -3.309   0.792  0.00  0.00     0.272 C 
BRANCH   9  10
ATOM     10  C   UNL d   1      -3.147  -4.600   1.342  0.00  0.00     0.030 C 
BRANCH  10  11
ATOM     11  C   UNL d   1      -4.101  -5.789   1.245  0.00  0.00     0.002 C 
BRANCH  11  12
ATOM     12  C   UNL d   1      -3.388  -7.050   1.727  0.00  0.00     0.000 C 
BRANCH  12  13
ATOM     13  C   UNL d   1      -4.268  -8.290   1.617  0.00  0.00     0.000 C 
BRANCH  13  14
ATOM     14  C   UNL d   1      -3.511  -9.522   2.114  0.00  0.00    -0.000 C 
BRANCH  14  15
ATOM     15  C   UNL d   1      -4.370 -10.779   2.026  0.00  0.00    -0.005 C 
ATOM     16  C   UNL d   1      -3.614 -11.997   2.530  0.00  0.00     0.005 C 
ENDBRANCH  14  15
ENDBRANCH  13  14
ENDBRANCH  12  13
ENDBRANCH  11  12
ENDBRANCH  10  11
ENDBRANCH   9  10
ENDBRANCH   6   9
ENDBRANCH   2   3
ENDBRANCH   1   2
BRANCH   1  17
ATOM     17  C   UNL d   1      -2.540   1.368  -3.867  0.00  0.00     0.005 C 
BRANCH  17  18
ATOM     18  C   UNL d   1      -1.324   1.116  -4.785  0.00  0.00    -0.011 C 
ATOM     19  C   UNL d   1      -0.182   2.118  -4.588  0.00  0.00     0.035 C 
ATOM     20  C   UNL d   1      -0.506   3.501  -5.155  0.00  0.00     0.272 C 
ATOM     21  N   UNL d   1      -0.844   3.432  -6.585  0.00  0.00     0.088 N 
ATOM     22  C   UNL d   1      -1.997   2.542  -6.804  0.00  0.00     0.272 C 
ATOM     23  C   UNL d   1      -1.736   1.130  -6.267  0.00  0.00     0.035 C 
BRANCH  21  24
ATOM     24  C   UNL d   1      -1.118   4.762  -7.166  0.00  0.00     0.272 C 
BRANCH  24  25
ATOM     25  C   UNL d   1       0.093   5.702  -7.104  0.00  0.00     0.030 C 
BRANCH  25  26
ATOM     26  C   UNL d   1      -0.185   7.061  -7.751  0.00  0.00     0.002 C 
BRANCH  26  27
ATOM     27  C   UNL d   1       1.023   7.982  -7.566  0.00  0.00     0.000 C 
BRANCH  27  28
ATOM     28  C   UNL d   1       0.789   9.371  -8.156  0.00  0.00     0.000 C 
BRANCH  28  29
ATOM     29  C   UNL d   1       2.019  10.259  -7.951  0.00  0.00    -0.000 C 
BRANCH  29  30
ATOM     30  C   UNL d   1       1.810  11.653  -8.539  0.00  0.00    -0.005 C 
ATOM     31  C   UNL d   1       3.037  12.528  -8.340  0.00  0.00     0.005 C 
ENDBRANCH  29  30
ENDBRANCH  28  29
ENDBRANCH  27  28
ENDBRANCH  26  27
ENDBRANCH  25  26
ENDBRANCH  24  25
ENDBRANCH  21  24
ENDBRANCH  17  18
ENDBRANCH   1  17
TORSDOF 18
