REMARK  5 active torsions:
REMARK  status: ('A' for Active; 'I' for Inactive)
REMARK    1  A    between atoms: C_8  and  C_1 
REMARK    2  A    between atoms: C_7  and  C_2 
REMARK    3  A    between atoms: C_9  and  C_3 
REMARK    4  A    between atoms: O_14  and  C_8 
REMARK    5  A    between atoms: O_15  and  C_9 
ROOT
ATOM      1  C   UNL d   1      -1.410  -0.291   0.059  0.00  0.00     0.111 A 
ATOM      2  C   UNL d   1      -0.334  -1.203  -0.172  0.00  0.00     0.087 A 
ATOM      3  C   UNL d   1      -0.851   0.962  -0.108  0.00  0.00     0.192 A 
ATOM      4  N   UNL d   1       0.769  -0.530  -0.535  0.00  0.00    -0.259 N 
ATOM      5  HN  UNL d   1       1.667  -0.932  -0.805  1.00  0.00     0.195 HD
ATOM      6  O   UNL d   1       0.452   0.807  -0.473  0.00  0.00    -0.230 OA
ENDROOT
BRANCH   2   7
ATOM      7  C   UNL d   1      -0.323  -2.667  -0.102  0.00  0.00     0.037 A 
ATOM      8  C   UNL d   1      -1.228  -3.450  -0.848  0.00  0.00     0.048 A 
ATOM      9 CL   UNL d   1      -2.339  -2.775  -1.995  0.00  0.00    -0.083 Cl
ATOM     10  C   UNL d   1      -1.235  -4.848  -0.737  0.00  0.00     0.025 A 
ATOM     11  C   UNL d   1      -0.312  -5.496   0.077  0.00  0.00     0.003 A 
ATOM     12  C   UNL d   1       0.618  -4.745   0.790  0.00  0.00     0.025 A 
ATOM     13  C   UNL d   1       0.607  -3.345   0.715  0.00  0.00     0.048 A 
ATOM     14 CL   UNL d   1       1.774  -2.525   1.703  0.00  0.00    -0.083 Cl
ENDBRANCH   2   7
BRANCH   1  15
ATOM     15  C   UNL d   1      -2.777  -0.593   0.388  0.00  0.00     0.298 C 
ATOM     16  O   UNL d   1      -3.098  -1.512   1.130  0.00  0.00    -0.259 OA
BRANCH  15  17
ATOM     17  O   UNL d   1      -3.652   0.161  -0.332  0.00  0.00    -0.322 OA
ATOM     18  C   UNL d   1      -5.022  -0.228  -0.237  0.00  0.00     0.213 C 
ENDBRANCH  15  17
ENDBRANCH   1  15
BRANCH   3  19
ATOM     19  C   UNL d   1      -1.368   2.297   0.064  0.00  0.00     0.320 C 
ATOM     20  O   UNL d   1      -2.491   2.584   0.457  0.00  0.00    -0.257 OA
BRANCH  19  21
ATOM     21  O   UNL d   1      -0.406   3.214  -0.247  0.00  0.00    -0.321 OA
ATOM     22  C   UNL d   1      -0.800   4.578  -0.088  0.00  0.00     0.213 C 
ENDBRANCH  19  21
ENDBRANCH   3  19
TORSDOF 5
