REMARK  3 active torsions:
REMARK  status: ('A' for Active; 'I' for Inactive)
REMARK    1  A    between atoms: C_2  and  C_1 
REMARK    2  A    between atoms: C_13  and  N_3 
REMARK    3  A    between atoms: C_11  and  C_4 
ROOT
ATOM      1  C   UNL d   1      -0.111  -1.248   0.018  0.00  0.00     0.153 C 
ATOM      2  N   UNL d   1       1.023  -0.661   0.547  0.00  0.00    -0.224 N 
ATOM      3  N   UNL d   1       0.789   0.663   0.680  0.00  0.00     0.001 NA
ATOM      4  N   UNL d   1      -0.352   0.887   0.044  0.00  0.00    -0.007 NA
ATOM      5  N   UNL d   1      -0.914  -0.285  -0.389  0.00  0.00    -0.269 N 
ATOM      6  HN  UNL d   1      -1.778  -0.392  -0.919  1.00  0.00     0.185 HD
ENDROOT
BRANCH   1   7
ATOM      7  C   UNL d   1      -0.440  -2.692  -0.031  0.00  0.00     0.065 A 
ATOM      8  C   UNL d   1      -1.189  -3.342  -0.987  0.00  0.00     0.124 A 
ATOM      9  O   UNL d   1      -1.256  -4.666  -0.646  0.00  0.00    -0.236 OA
ATOM     10  N   UNL d   1      -0.535  -4.897   0.513  0.00  0.00    -0.271 N 
ATOM     11  C   UNL d   1      -0.054  -3.705   0.869  0.00  0.00     0.132 A 
ATOM     12  HN  UNL d   1      -0.401  -5.787   0.992  1.00  0.00     0.194 HD
BRANCH   8  13
ATOM     13  C   UNL d   1      -1.788  -2.999  -2.268  0.00  0.00     0.002 A 
ATOM     14  C   UNL d   1      -1.237  -1.984  -3.066  0.00  0.00     0.038 A 
ATOM     15  C   UNL d   1      -1.780  -1.686  -4.313  0.00  0.00     0.035 A 
ATOM     16 CL   UNL d   1      -1.077  -0.440  -5.269  0.00  0.00    -0.084 Cl
ATOM     17  C   UNL d   1      -2.871  -2.400  -4.795  0.00  0.00     0.024 A 
ATOM     18  C   UNL d   1      -3.428  -3.414  -4.018  0.00  0.00     0.003 A 
ATOM     19  C   UNL d   1      -2.891  -3.710  -2.764  0.00  0.00     0.014 A 
ENDBRANCH   8  13
ENDBRANCH   1   7
BRANCH   2  20
ATOM     20  C   UNL d   1       2.302  -1.214   0.777  0.00  0.00     0.056 A 
ATOM     21  C   UNL d   1       2.749  -2.310   0.020  0.00  0.00     0.033 A 
ATOM     22  C   UNL d   1       4.015  -2.848   0.253  0.00  0.00     0.026 A 
ATOM     23  C   UNL d   1       4.833  -2.295   1.234  0.00  0.00     0.034 A 
ATOM     24  C   UNL d   1       4.404  -1.192   1.973  0.00  0.00     0.026 A 
ATOM     25 CL   UNL d   1       6.389  -2.967   1.522  0.00  0.00    -0.084 Cl
ATOM     26  C   UNL d   1       3.143  -0.637   1.735  0.00  0.00     0.033 A 
ENDBRANCH   2  20
TORSDOF 3
