REMARK  13 active torsions:
REMARK  status: ('A' for Active; 'I' for Inactive)
REMARK    1  A    between atoms: C_3  and  O_15 
REMARK    2  A    between atoms: O_16  and  C_4 
REMARK    3  A    between atoms: O_15  and  C_18 
REMARK    4  A    between atoms: C_17  and  O_16 
REMARK    5  A    between atoms: C_20  and  C_17 
REMARK    6  A    between atoms: C_18  and  C_19 
REMARK    7  A    between atoms: C_19  and  C_22 
REMARK    8  A    between atoms: C_23  and  C_20 
REMARK    9  A    between atoms: C_21  and  C_26 
REMARK   10  A    between atoms: C_22  and  C_21 
REMARK   11  A    between atoms: C_24  and  C_23 
REMARK   12  A    between atoms: C_25  and  C_24 
REMARK   13  A    between atoms: C_26  and  C_25 
ROOT
ATOM      1  C   UNL d   1       9.042   3.277   0.155  0.00  0.00     0.000 C 
ENDROOT
BRANCH   1   2
ATOM      2  C   UNL d   1       8.259   1.967   0.146  0.00  0.00     0.000 C 
BRANCH   2   3
ATOM      3  C   UNL d   1       6.758   2.237   0.115  0.00  0.00     0.002 C 
BRANCH   3   4
ATOM      4  C   UNL d   1       5.958   0.938   0.097  0.00  0.00     0.027 C 
BRANCH   4   5
ATOM      5  C   UNL d   1       4.462   1.231   0.058  0.00  0.00     0.175 C 
BRANCH   5   6
ATOM      6  O   UNL d   1       3.758  -0.009   0.038  0.00  0.00    -0.351 OA
BRANCH   6   7
ATOM      7  C   UNL d   1       2.392   0.070   0.007  0.00  0.00     0.068 A 
ATOM      8  C   UNL d   1       1.734  -1.163  -0.006  0.00  0.00     0.038 A 
ATOM      9  C   UNL d   1       0.340  -1.224  -0.036  0.00  0.00     0.026 A 
ATOM     10  C   UNL d   1      -0.401  -0.046  -0.052  0.00  0.00     0.034 A 
ATOM     11 CL   UNL d   1      -2.119  -0.112  -0.088  0.00  0.00    -0.084 Cl
ATOM     12  C   UNL d   1       0.243   1.189  -0.040  0.00  0.00     0.026 A 
ATOM     13  C   UNL d   1       1.640   1.247  -0.010  0.00  0.00     0.038 A 
ENDBRANCH   6   7
ENDBRANCH   5   6
ENDBRANCH   4   5
ENDBRANCH   3   4
ENDBRANCH   2   3
ENDBRANCH   1   2
BRANCH   1  14
ATOM     14  C   UNL d   1      10.548   3.024   0.172  0.00  0.00     0.000 C 
BRANCH  14  15
ATOM     15  C   UNL d   1      11.308   4.347   0.203  0.00  0.00     0.000 C 
BRANCH  15  16
ATOM     16  C   UNL d   1      12.823   4.137   0.256  0.00  0.00     0.002 C 
BRANCH  16  17
ATOM     17  C   UNL d   1      13.606   5.453   0.298  0.00  0.00     0.027 C 
BRANCH  17  18
ATOM     18  C   UNL d   1      13.230   6.312   1.503  0.00  0.00     0.175 C 
BRANCH  18  19
ATOM     19  O   UNL d   1      14.052   7.477   1.543  0.00  0.00    -0.351 OA
BRANCH  19  20
ATOM     20  C   UNL d   1      13.811   8.315   2.600  0.00  0.00     0.068 A 
ATOM     21  C   UNL d   1      14.863   9.170   2.933  0.00  0.00     0.038 A 
ATOM     22  C   UNL d   1      14.741  10.064   3.999  0.00  0.00     0.026 A 
ATOM     23  C   UNL d   1      13.552  10.115   4.725  0.00  0.00     0.034 A 
ATOM     24  C   UNL d   1      12.487   9.285   4.387  0.00  0.00     0.026 A 
ATOM     25 CL   UNL d   1      13.397  11.206   6.046  0.00  0.00    -0.084 Cl
ATOM     26  C   UNL d   1      12.615   8.387   3.324  0.00  0.00     0.038 A 
ENDBRANCH  19  20
ENDBRANCH  18  19
ENDBRANCH  17  18
ENDBRANCH  16  17
ENDBRANCH  15  16
ENDBRANCH  14  15
ENDBRANCH   1  14
TORSDOF 13
