REMARK  5 active torsions:
REMARK  status: ('A' for Active; 'I' for Inactive)
REMARK    1  A    between atoms: S_2  and  C_1 
REMARK    2  A    between atoms: N_9  and  S_2 
REMARK    3  A    between atoms: C_17  and  N_9 
REMARK    4  A    between atoms: C_15  and  C_19 
REMARK    5  A    between atoms: C_19  and  C_17 
ROOT
ATOM      1  S   UNL d   1       4.262   0.012   0.028  0.00  0.00     0.248 S 
ATOM      2  O   UNL d   1       4.702  -0.592   1.267  0.00  0.00    -0.205 OA
ATOM      3  O   UNL d   1       4.712  -0.459  -1.263  0.00  0.00    -0.205 OA
ENDROOT
BRANCH   1   4
ATOM      4  C   UNL d   1       2.474  -0.115  -0.040  0.00  0.00     0.122 A 
ATOM      5  S   UNL d   1       1.734  -0.933   1.259  0.00  0.00    -0.076 SA
ATOM      6  C   UNL d   1       0.155  -0.650   0.659  0.00  0.00     0.017 A 
ATOM      7  C   UNL d   1      -1.056  -1.056   1.253  0.00  0.00     0.021 A 
ATOM      8  C   UNL d   1       0.186   0.061  -0.542  0.00  0.00    -0.009 A 
ATOM      9  C   UNL d   1      -2.260  -0.743   0.618  0.00  0.00     0.025 A 
ATOM     10  C   UNL d   1      -2.255  -0.039  -0.576  0.00  0.00     0.035 A 
ATOM     11  C   UNL d   1      -1.054   0.368  -1.161  0.00  0.00     0.037 A 
ATOM     12 CL   UNL d   1      -3.745   0.339  -1.351  0.00  0.00    -0.084 Cl
ATOM     13  C   UNL d   1       1.542   0.369  -0.949  0.00  0.00    -0.021 A 
ATOM     14  C   UNL d   1       1.868   1.129  -2.195  0.00  0.00     0.051 C 
ENDBRANCH   1   4
BRANCH   1  15
ATOM     15  N   UNL d   1       4.624   1.659   0.098  0.00  0.00    -0.215 NA
ATOM     16  H   UNL d   1       4.471   2.093  -0.817  0.00  0.00     0.140 HD
BRANCH  15  17
ATOM     17  C   UNL d   1       3.988   2.424   1.196  0.00  0.00     0.110 C 
BRANCH  17  18
ATOM     18  C   UNL d   1       4.461   3.879   1.176  0.00  0.00     0.072 C 
BRANCH  18  19
ATOM     19  C   UNL d   1       4.175   4.599  -0.123  0.00  0.00     0.010 A 
ATOM     20  N   UNL d   1       3.139   4.161  -0.884  0.00  0.00    -0.369 N 
ATOM     21  C   UNL d   1       2.893   4.819  -2.041  0.00  0.00     0.088 A 
ATOM     22  HN  UNL d   1       2.567   3.367  -0.594  1.00  0.00     0.165 HD
ATOM     23  C   UNL d   1       3.644   5.888  -2.493  0.00  0.00     0.017 A 
ATOM     24  C   UNL d   1       4.698   6.327  -1.703  0.00  0.00     0.003 A 
ATOM     25  C   UNL d   1       4.963   5.685  -0.497  0.00  0.00     0.025 A 
ENDBRANCH  18  19
ENDBRANCH  17  18
ENDBRANCH  15  17
ENDBRANCH   1  15
TORSDOF 5
