REMARK  5 active torsions:
REMARK  status: ('A' for Active; 'I' for Inactive)
REMARK    1  A    between atoms: C_8  and  C_1 
REMARK    2  A    between atoms: C_5  and  C_2 
REMARK    3  A    between atoms: C_3  and  O_12 
REMARK    4  A    between atoms: C_19  and  N_4 
REMARK    5  A    between atoms: O_12  and  C_5 
ROOT
ATOM      1  C   UNL d   1       0.530  -2.366  -0.044  0.00  0.00     0.304 C 
ATOM      2  O   UNL d   1       1.701  -2.467  -0.389  0.00  0.00    -0.259 OA
ENDROOT
BRANCH   1   3
ATOM      3  C   UNL d   1      -0.160  -1.094   0.070  0.00  0.00     0.100 A 
ATOM      4  C   UNL d   1       0.309   0.197   0.517  0.00  0.00     0.087 A 
ATOM      5  N   UNL d   1      -0.696   1.087   0.452  0.00  0.00    -0.259 N 
ATOM      6  O   UNL d   1      -1.769   0.452  -0.088  0.00  0.00    -0.241 OA
ATOM      7  HN  UNL d   1      -0.659   2.061   0.753  1.00  0.00     0.195 HD
ATOM      8  C   UNL d   1      -1.475  -0.847  -0.309  0.00  0.00     0.091 A 
ATOM      9  C   UNL d   1      -2.590  -1.597  -0.919  0.00  0.00     0.080 C 
BRANCH   4  10
ATOM     10  C   UNL d   1       1.574   0.681   1.097  0.00  0.00     0.037 A 
ATOM     11  C   UNL d   1       2.136   1.908   0.660  0.00  0.00     0.048 A 
ATOM     12 CL   UNL d   1       1.626   2.724  -0.787  0.00  0.00    -0.083 Cl
ATOM     13  C   UNL d   1       3.155   2.548   1.385  0.00  0.00     0.025 A 
ATOM     14  C   UNL d   1       3.671   1.960   2.532  0.00  0.00     0.003 A 
ATOM     15  C   UNL d   1       3.183   0.723   2.943  0.00  0.00     0.025 A 
ATOM     16  C   UNL d   1       2.137   0.093   2.244  0.00  0.00     0.048 A 
ATOM     17 CL   UNL d   1       1.541  -1.376   2.942  0.00  0.00    -0.083 Cl
ENDBRANCH   4  10
ENDBRANCH   1   3
BRANCH   1  18
ATOM     18  O   UNL d   1      -0.250  -3.437   0.325  0.00  0.00    -0.255 OA
BRANCH  18  19
ATOM     19  C   UNL d   1      -0.566  -4.316  -0.631  0.00  0.00     0.175 C 
ATOM     20  N   UNL d   1      -1.430  -5.400  -0.408  0.00  0.00    -0.234 N 
ATOM     21  N   UNL d   1      -1.730  -6.027  -1.581  0.00  0.00    -0.296 N 
ATOM     22  C   UNL d   1      -1.210  -5.258  -2.534  0.00  0.00     0.026 C 
ATOM     23  HN  UNL d   1      -2.243  -6.899  -1.703  1.00  0.00     0.187 HD
ATOM     24  C   UNL d   1      -0.334  -4.303  -1.998  0.00  0.00     0.084 C 
ATOM     25  C   UNL d   1      -1.681  -5.410  -3.931  0.00  0.00     0.070 C 
BRANCH  20  26
ATOM     26  C   UNL d   1      -2.160  -5.817   0.751  0.00  0.00     0.059 A 
ATOM     27  C   UNL d   1      -2.295  -5.011   1.886  0.00  0.00     0.031 A 
ATOM     28  C   UNL d   1      -3.157  -5.399   2.919  0.00  0.00     0.002 A 
ATOM     29  C   UNL d   1      -3.866  -6.598   2.846  0.00  0.00     0.000 A 
ATOM     30  C   UNL d   1      -3.706  -7.430   1.744  0.00  0.00     0.002 A 
ATOM     31  C   UNL d   1      -2.858  -7.039   0.702  0.00  0.00     0.031 A 
ENDBRANCH  20  26
ENDBRANCH  18  19
ENDBRANCH   1  18
TORSDOF 5
