REMARK  4 active torsions:
REMARK  status: ('A' for Active; 'I' for Inactive)
REMARK    1  A    between atoms: C_4  and  C_3 
REMARK    2  A    between atoms: C_15  and  C_5 
REMARK    3  A    between atoms: O_17  and  C_15 
REMARK    4  A    between atoms: C_18  and  O_17 
ROOT
ATOM      1  N   UNL d   1       4.495   9.088   0.220  0.00  0.00    -0.191 NA
ATOM      2  C   UNL d   1       4.071   8.009   0.181  0.00  0.00     0.099 C 
ATOM      3  C   UNL d   1       3.539   6.680   0.130  0.00  0.00     0.044 A 
ATOM      4  C   UNL d   1       2.481   4.085   0.026  0.00  0.00     0.069 A 
ATOM      5  C   UNL d   1       4.286   5.600   0.605  0.00  0.00     0.025 A 
ATOM      6  C   UNL d   1       2.266   6.457  -0.407  0.00  0.00     0.025 A 
ATOM      7  C   UNL d   1       3.760   4.307   0.544  0.00  0.00     0.038 A 
ATOM      8  C   UNL d   1       1.740   5.163  -0.461  0.00  0.00     0.038 A 
ENDROOT
BRANCH   4   9
ATOM      9  O   UNL d   1       2.080   2.780   0.007  0.00  0.00    -0.344 OA
BRANCH   9  10
ATOM     10  C   UNL d   1       0.663   2.554   0.023  0.00  0.00     0.254 C 
BRANCH  10  11
ATOM     11  C   UNL d   1       0.360   1.097   0.037  0.00  0.00     0.128 A 
ATOM     12  N   UNL d   1       0.274   0.361   1.193  0.00  0.00    -0.321 N 
ATOM     13  C   UNL d   1       0.074  -0.860   0.740  0.00  0.00     0.182 A 
ATOM     14  HN  UNL d   1       0.347   0.680   2.159  1.00  0.00     0.169 HD
ATOM     15  O   UNL d   1      -0.018  -0.903  -0.628  0.00  0.00    -0.217 OA
ATOM     16  N   UNL d   1       0.163   0.399  -1.090  0.00  0.00    -0.245 N 
ATOM     17  HN  UNL d   1       0.149   0.738  -2.052  1.00  0.00     0.196 HD
BRANCH  13  18
ATOM     18  C   UNL d   1      -0.023  -2.064   1.612  0.00  0.00     0.024 A 
ATOM     19  C   UNL d   1      -0.162  -3.338   1.107  0.00  0.00     0.065 A 
ATOM     20  S   UNL d   1      -0.218  -4.516   2.349  0.00  0.00    -0.113 SA
ATOM     21  C   UNL d   1      -0.066  -3.320   3.566  0.00  0.00     0.050 A 
ATOM     22  C   UNL d   1       0.033  -2.052   3.036  0.00  0.00     0.023 A 
ENDBRANCH  13  18
ENDBRANCH  10  11
ENDBRANCH   9  10
ENDBRANCH   4   9
TORSDOF 4
