REMARK  5 active torsions:
REMARK  status: ('A' for Active; 'I' for Inactive)
REMARK    1  A    between atoms: O_8  and  S_1 
REMARK    2  A    between atoms: C_10  and  S_1 
REMARK    3  A    between atoms: C_18  and  C_2 
REMARK    4  A    between atoms: C_4  and  O_8 
REMARK    5  A    between atoms: N_9  and  C_13 
ROOT
ATOM      1  C   UNL d   1       2.227  -2.738   1.343  0.00  0.00     0.078 C 
ATOM      2  C   UNL d   1       2.585  -4.176   1.576  0.00  0.00     0.262 C 
ATOM      3  C   UNL d   1       0.945  -2.319   1.421  0.00  0.00     0.118 C 
ATOM      4  N   UNL d   1       1.550  -5.070   1.808  0.00  0.00    -0.312 N 
ATOM      5  C   UNL d   1      -0.090  -3.264   1.924  0.00  0.00     0.028 C 
ATOM      6  C   UNL d   1       0.221  -4.635   2.034  0.00  0.00     0.057 C 
ATOM      7  C   UNL d   1      -0.767  -5.563   2.420  0.00  0.00    -0.030 C 
ATOM      8  C   UNL d   1      -1.365  -2.853   2.348  0.00  0.00     0.023 C 
ATOM      9  O   UNL d   1       3.764  -4.530   1.530  0.00  0.00    -0.267 OA
ATOM     10  C   UNL d   1      -2.073  -5.122   2.679  0.00  0.00     0.016 C 
ATOM     11  C   UNL d   1      -2.378  -3.767   2.651  0.00  0.00    -0.060 C 
ATOM     12  C   UNL d   1       1.935  -6.447   2.083  0.00  0.00     0.133 C 
ATOM     13  C   UNL d   1      -0.463  -7.012   2.664  0.00  0.00     0.042 C 
ATOM     14  C   UNL d   1       0.827  -7.480   2.026  0.00  0.00     0.025 C 
ATOM     15  C   UNL d   1      -3.774  -3.273   2.893  0.00  0.00     0.048 C 
ENDROOT
BRANCH   3  16
ATOM     16  O   UNL d   1       0.635  -0.999   1.050  0.00  0.00    -0.227 OA
BRANCH  16  17
ATOM     17  S   UNL d   1      -0.754  -0.496   0.344  0.00  0.00     0.303 S 
ATOM     18  O   UNL d   1      -1.470   0.310   1.321  0.00  0.00    -0.193 OA
ATOM     19  O   UNL d   1      -1.424  -1.594  -0.320  0.00  0.00    -0.193 OA
BRANCH  17  20
ATOM     20  C   UNL d   1      -0.282   0.621  -0.978  0.00  0.00     0.095 A 
ATOM     21  C   UNL d   1      -0.716   1.957  -0.882  0.00  0.00     0.062 A 
ATOM     22  C   UNL d   1      -0.622   2.798  -2.000  0.00  0.00     0.104 A 
ATOM     23  C   UNL d   1      -0.088   2.322  -3.200  0.00  0.00     0.037 A 
ATOM     24  C   UNL d   1       0.363   1.003  -3.279  0.00  0.00     0.011 A 
ATOM     25  C   UNL d   1       0.275   0.134  -2.174  0.00  0.00    -0.038 A 
ATOM     26  C   UNL d   1       0.698  -1.293  -2.396  0.00  0.00     0.050 C 
BRANCH  22  27
ATOM     27  N   UNL d   1      -1.144   4.170  -1.931  0.00  0.00    -0.116 N 
ATOM     28  O   UNL d   1      -1.542   4.580  -0.833  0.00  0.00    -0.532 OA
ATOM     29  O   UNL d   1      -1.159   4.832  -2.978  0.00  0.00    -0.532 OA
ENDBRANCH  22  27
ENDBRANCH  17  20
ENDBRANCH  16  17
ENDBRANCH   3  16
BRANCH   1  30
ATOM     30  C   UNL d   1       3.334  -1.808   1.036  0.00  0.00    -0.018 A 
ATOM     31  C   UNL d   1       4.010  -1.177   2.090  0.00  0.00     0.012 A 
ATOM     32  C   UNL d   1       5.131  -0.384   1.837  0.00  0.00     0.001 A 
ATOM     33  C   UNL d   1       5.577  -0.206   0.529  0.00  0.00     0.000 A 
ATOM     34  C   UNL d   1       4.904  -0.822  -0.526  0.00  0.00     0.001 A 
ATOM     35  C   UNL d   1       3.791  -1.627  -0.274  0.00  0.00     0.012 A 
ENDBRANCH   1  30
TORSDOF 5
