REMARK  5 active torsions:
REMARK  status: ('A' for Active; 'I' for Inactive)
REMARK       I    between atoms: C_2  and  N_1 
REMARK    1  A    between atoms: C_7  and  C_2 
REMARK    2  A    between atoms: C_4  and  N_3 
REMARK    3  A    between atoms: N_5  and  C_7 
REMARK    4  A    between atoms: C_15  and  N_6 
REMARK    5  A    between atoms: C_20  and  C_15 
ROOT
ATOM      1  N   UNL d   1      -2.051  -0.057  -0.785  0.00  0.00    -0.348 N 
ATOM      2  C   UNL d   1      -2.807   0.071   0.366  0.00  0.00     0.248 C 
ATOM      3  N   UNL d   1       0.504  -0.221  -2.064  0.00  0.00    -0.364 N 
ATOM      4  C   UNL d   1      -1.491  -1.361  -1.144  0.00  0.00     0.145 C 
ATOM      5  C   UNL d   1      -1.616   1.032  -1.677  0.00  0.00     0.145 C 
ATOM      6  C   UNL d   1       0.051  -1.315  -1.196  0.00  0.00     0.144 C 
ATOM      7  C   UNL d   1      -0.080   1.105  -1.796  0.00  0.00     0.144 C 
ATOM      8  O   UNL d   1      -3.174  -0.919   1.012  0.00  0.00    -0.271 OA
ENDROOT
BRANCH   2   9
ATOM      9  C   UNL d   1      -3.159   1.478   0.888  0.00  0.00     0.374 C 
BRANCH   9  10
ATOM     10  N   UNL d   1      -1.940   2.254   1.202  0.00  0.00     0.100 N 
ATOM     11  C   UNL d   1      -1.073   1.574   2.185  0.00  0.00     0.303 C 
ATOM     12  C   UNL d   1      -1.438   1.829   3.658  0.00  0.00     0.303 C 
ATOM     13  N   UNL d   1      -1.437   3.258   4.022  0.00  0.00     0.096 N 
ATOM     14  C   UNL d   1      -2.404   3.937   3.133  0.00  0.00     0.303 C 
ATOM     15  C   UNL d   1      -2.254   3.639   1.613  0.00  0.00     0.303 C 
BRANCH  13  16
ATOM     16  C   UNL d   1      -0.099   3.882   3.916  0.00  0.00     0.311 C 
BRANCH  16  17
ATOM     17  C   UNL d   1       0.988   3.217   4.745  0.00  0.00    -0.030 A 
ATOM     18  C   UNL d   1       2.251   2.967   4.184  0.00  0.00     0.009 A 
ATOM     19  C   UNL d   1       3.260   2.367   4.941  0.00  0.00     0.001 A 
ATOM     20  C   UNL d   1       3.022   2.012   6.266  0.00  0.00     0.000 A 
ATOM     21  C   UNL d   1       1.777   2.264   6.839  0.00  0.00     0.001 A 
ATOM     22  C   UNL d   1       0.770   2.873   6.087  0.00  0.00     0.009 A 
ENDBRANCH  16  17
ENDBRANCH  13  16
ENDBRANCH   9  10
ENDBRANCH   2   9
BRANCH   3  23
ATOM     23  C   UNL d   1       1.354  -0.403  -3.133  0.00  0.00     0.102 A 
ATOM     24  N   UNL d   1       1.298   0.477  -4.159  0.00  0.00    -0.352 N 
ATOM     25  C   UNL d   1       2.112   0.293  -5.226  0.00  0.00     0.089 A 
ATOM     26  HN  UNL d   1       0.654   1.267  -4.129  1.00  0.00     0.166 HD
ATOM     27  C   UNL d   1       3.022  -0.739  -5.337  0.00  0.00     0.017 A 
ATOM     28  C   UNL d   1       3.105  -1.631  -4.284  0.00  0.00     0.005 A 
ATOM     29  C   UNL d   1       2.267  -1.459  -3.180  0.00  0.00     0.048 A 
ENDBRANCH   3  23
TORSDOF 5
