REMARK  1 active torsions:
REMARK  status: ('A' for Active; 'I' for Inactive)
REMARK    1  A    between atoms: C_11  and  C_4 
ROOT
ATOM      1  C   UNL d   1      -2.045   0.333   0.092  0.00  0.00     0.018 C 
ATOM      2  C   UNL d   1      -1.112  -0.826   0.042  0.00  0.00     0.193 C 
ATOM      3  C   UNL d   1       0.325  -0.480   0.044  0.00  0.00     0.048 A 
ATOM      4  C   UNL d   1      -3.333   0.126  -0.235  0.00  0.00     0.025 C 
ATOM      5  O   UNL d   1      -0.193   1.885  -0.167  0.00  0.00    -0.346 OA
ATOM      6  C   UNL d   1       0.707   0.857  -0.075  0.00  0.00     0.083 A 
ATOM      7  C   UNL d   1      -1.411   1.613   0.537  0.00  0.00     0.218 C 
ATOM      8  O   UNL d   1      -1.494  -1.989   0.016  0.00  0.00    -0.287 OA
ATOM      9  C   UNL d   1       1.296  -1.483   0.119  0.00  0.00     0.018 A 
ATOM     10  C   UNL d   1       2.057   1.195  -0.148  0.00  0.00     0.038 A 
ATOM     11  C   UNL d   1       2.649  -1.141   0.073  0.00  0.00     0.001 A 
ATOM     12  C   UNL d   1       3.028   0.196  -0.064  0.00  0.00     0.003 A 
ENDROOT
BRANCH   4  13
ATOM     13  C   UNL d   1      -4.347   1.180  -0.213  0.00  0.00    -0.033 A 
ATOM     14  C   UNL d   1      -4.584   1.950  -1.351  0.00  0.00     0.028 A 
ATOM     15  C   UNL d   1      -5.518   2.968  -1.268  0.00  0.00     0.088 A 
ATOM     16  N   UNL d   1      -6.213   3.259  -0.148  0.00  0.00    -0.375 N 
ATOM     17  C   UNL d   1      -5.970   2.493   0.937  0.00  0.00     0.088 A 
ATOM     18  HN  UNL d   1      -6.890   4.022  -0.122  1.00  0.00     0.164 HD
ATOM     19  C   UNL d   1      -5.055   1.453   0.956  0.00  0.00     0.028 A 
ENDBRANCH   4  13
TORSDOF 1
