REMARK  5 active torsions:
REMARK  status: ('A' for Active; 'I' for Inactive)
REMARK    1  A    between atoms: C_6  and  C_1 
REMARK    2  A    between atoms: C_11  and  N_2 
REMARK    3  A    between atoms: C_9  and  C_4 
REMARK       I    between atoms: N_8  and  C_6 
REMARK    4  A    between atoms: C_7  and  C_10 
REMARK    5  A    between atoms: C_20  and  N_8 
ROOT
ATOM      1  C   UNL d   1      -0.178   1.133   0.179  0.00  0.00     0.057 A 
ATOM      2  N   UNL d   1       0.897  -0.873   0.340  0.00  0.00    -0.314 N 
ATOM      3  C   UNL d   1       1.068   0.520   0.366  0.00  0.00     0.029 A 
ATOM      4  C   UNL d   1      -0.471  -1.145   0.242  0.00  0.00     0.051 A 
ATOM      5  C   UNL d   1      -1.123   0.072   0.127  0.00  0.00     0.050 A 
ATOM      6  C   UNL d   1       2.424   1.162   0.423  0.00  0.00     0.070 C 
ENDROOT
BRANCH   1   7
ATOM      7  C   UNL d   1      -0.417   2.587   0.017  0.00  0.00     0.258 C 
ATOM      8  N   UNL d   1      -1.722   2.930  -0.303  0.00  0.00    -0.323 N 
ATOM      9  H   UNL d   1      -2.424   2.214  -0.206  0.00  0.00     0.169 HD
ATOM     10  O   UNL d   1       0.488   3.405   0.146  0.00  0.00    -0.267 OA
BRANCH   8  11
ATOM     11  C   UNL d   1      -2.175   4.177  -0.794  0.00  0.00     0.035 A 
ATOM     12  C   UNL d   1      -1.324   5.225  -1.156  0.00  0.00     0.030 A 
ATOM     13  C   UNL d   1      -1.836   6.399  -1.723  0.00  0.00     0.018 A 
ATOM     14  C   UNL d   1      -3.209   6.550  -1.940  0.00  0.00     0.048 A 
ATOM     15  C   UNL d   1      -4.067   5.513  -1.549  0.00  0.00     0.018 A 
ATOM     16  C   UNL d   1      -3.552   4.336  -0.986  0.00  0.00     0.030 A 
BRANCH  14  17
ATOM     17  C   UNL d   1      -3.764   7.795  -2.588  0.00  0.00     0.417 C 
ATOM     18  F   UNL d   1      -2.804   8.652  -3.037  0.00  0.00    -0.166 F 
ATOM     19  F   UNL d   1      -4.543   7.513  -3.671  0.00  0.00    -0.166 F 
ATOM     20  F   UNL d   1      -4.549   8.520  -1.745  0.00  0.00    -0.166 F 
ENDBRANCH  14  17
ENDBRANCH   8  11
ENDBRANCH   1   7
BRANCH   2  21
ATOM     21  C   UNL d   1       1.942  -1.852   0.330  0.00  0.00     0.039 A 
ATOM     22  C   UNL d   1       3.004  -1.782   1.239  0.00  0.00     0.030 A 
ATOM     23  C   UNL d   1       4.002  -2.761   1.232  0.00  0.00     0.002 A 
ATOM     24  C   UNL d   1       3.936  -3.823   0.333  0.00  0.00     0.000 A 
ATOM     25  C   UNL d   1       2.877  -3.906  -0.567  0.00  0.00     0.002 A 
ATOM     26  C   UNL d   1       1.886  -2.922  -0.576  0.00  0.00     0.030 A 
ENDBRANCH   2  21
BRANCH   4  27
ATOM     27  C   UNL d   1      -1.101  -2.477   0.296  0.00  0.00    -0.009 A 
ATOM     28  C   UNL d   1      -2.091  -2.822  -0.637  0.00  0.00     0.015 A 
ATOM     29  C   UNL d   1      -2.680  -4.091  -0.620  0.00  0.00     0.024 A 
ATOM     30  C   UNL d   1      -2.280  -5.026   0.332  0.00  0.00     0.034 A 
ATOM     31  C   UNL d   1      -1.314  -4.696   1.278  0.00  0.00     0.024 A 
ATOM     32 CL   UNL d   1      -2.981  -6.597   0.334  0.00  0.00    -0.084 Cl
ATOM     33  C   UNL d   1      -0.740  -3.421   1.270  0.00  0.00     0.015 A 
ENDBRANCH   4  27
TORSDOF 5
