REMARK  11 active torsions:
REMARK  status: ('A' for Active; 'I' for Inactive)
REMARK    1  A    between atoms: N_2  and  C_1 
REMARK       I    between atoms: C_3  and  N_2 
REMARK    2  A    between atoms: C_8  and  C_3 
REMARK    3  A    between atoms: C_13  and  C_8 
REMARK    4  A    between atoms: C_18  and  C_13 
REMARK    5  A    between atoms: C_14  and  C_15 
REMARK    6  A    between atoms: C_15  and  C_17 
REMARK    7  A    between atoms: C_16  and  C_21 
REMARK    8  A    between atoms: C_17  and  C_16 
REMARK    9  A    between atoms: C_19  and  C_18 
REMARK   10  A    between atoms: C_20  and  C_19 
REMARK   11  A    between atoms: C_21  and  C_20 
ROOT
ATOM      1  N   UNL d   1       3.801   2.395   2.019  0.00  0.00    -0.326 N 
ATOM      2  C   UNL d   1       3.209   3.025   0.930  0.00  0.00     0.222 C 
ATOM      3  O   UNL d   1       2.667   2.465  -0.016  0.00  0.00    -0.273 OA
ATOM      4  H   UNL d   1       3.848   2.958   2.856  0.00  0.00     0.169 HD
ENDROOT
BRANCH   2   5
ATOM      5  C   UNL d   1       3.278   4.539   1.057  0.00  0.00     0.103 C 
BRANCH   5   6
ATOM      6  C   UNL d   1       2.598   5.248  -0.116  0.00  0.00     0.009 C 
BRANCH   6   7
ATOM      7  C   UNL d   1       2.690   6.775  -0.053  0.00  0.00     0.000 C 
BRANCH   7   8
ATOM      8  C   UNL d   1       4.129   7.288  -0.117  0.00  0.00     0.000 C 
BRANCH   8   9
ATOM      9  C   UNL d   1       4.184   8.815  -0.129  0.00  0.00     0.000 C 
BRANCH   9  10
ATOM     10  C   UNL d   1       5.633   9.303  -0.154  0.00  0.00     0.000 C 
BRANCH  10  11
ATOM     11  C   UNL d   1       5.697  10.828  -0.144  0.00  0.00     0.000 C 
BRANCH  11  12
ATOM     12  C   UNL d   1       7.142  11.325  -0.169  0.00  0.00     0.000 C 
BRANCH  12  13
ATOM     13  C   UNL d   1       7.185  12.853  -0.160  0.00  0.00    -0.000 C 
BRANCH  13  14
ATOM     14  C   UNL d   1       8.619  13.375  -0.186  0.00  0.00    -0.005 C 
ATOM     15  C   UNL d   1       8.648  14.894  -0.178  0.00  0.00     0.005 C 
ENDBRANCH  13  14
ENDBRANCH  12  13
ENDBRANCH  11  12
ENDBRANCH  10  11
ENDBRANCH   9  10
ENDBRANCH   8   9
ENDBRANCH   7   8
ENDBRANCH   6   7
ENDBRANCH   5   6
ENDBRANCH   2   5
BRANCH   1  16
ATOM     16  C   UNL d   1       3.769   0.993   2.204  0.00  0.00     0.046 A 
ATOM     17  C   UNL d   1       4.271   0.108   1.223  0.00  0.00    -0.035 A 
ATOM     18  C   UNL d   1       4.173  -1.280   1.433  0.00  0.00     0.009 A 
ATOM     19  C   UNL d   1       4.948   0.559  -0.044  0.00  0.00     0.050 C 
ATOM     20  C   UNL d   1       3.642  -1.787   2.615  0.00  0.00     0.001 A 
ATOM     21  C   UNL d   1       3.208  -0.914   3.604  0.00  0.00     0.009 A 
ATOM     22  C   UNL d   1       3.265   0.478   3.421  0.00  0.00    -0.035 A 
ATOM     23  C   UNL d   1       2.711   1.322   4.538  0.00  0.00     0.050 C 
ENDBRANCH   1  16
TORSDOF 11
