REMARK  4 active torsions:
REMARK  status: ('A' for Active; 'I' for Inactive)
REMARK    1  A    between atoms: C_2  and  C_1 
REMARK    2  A    between atoms: C_7  and  C_2 
REMARK    3  A    between atoms: O_9  and  C_7 
REMARK    4  A    between atoms: C_8  and  O_9 
ROOT
ATOM      1  C   UNL d   1      -1.522  -2.341   0.226  0.00  0.00     0.120 C 
ENDROOT
BRANCH   1   2
ATOM      2  C   UNL d   1      -0.940  -1.190   0.592  0.00  0.00     0.096 A 
ATOM      3  O   UNL d   1      -1.633  -0.082   1.093  0.00  0.00    -0.274 OA
ATOM      4  C   UNL d   1      -0.762   0.981   1.115  0.00  0.00     0.299 A 
ATOM      5  O   UNL d   1      -1.020   2.115   1.467  0.00  0.00    -0.259 OA
ATOM      6  C   UNL d   1       0.534   0.505   0.650  0.00  0.00     0.052 A 
ATOM      7  C   UNL d   1       0.448  -0.845   0.387  0.00  0.00     0.014 A 
ATOM      8  C   UNL d   1       1.694   1.237   0.457  0.00  0.00     0.018 A 
ATOM      9  C   UNL d   1       1.568  -1.544  -0.035  0.00  0.00     0.015 A 
ATOM     10  C   UNL d   1       2.761  -0.834  -0.226  0.00  0.00     0.001 A 
ATOM     11  C   UNL d   1       2.820   0.552   0.002  0.00  0.00     0.001 A 
ENDBRANCH   1   2
BRANCH   1  12
ATOM     12  C   UNL d   1      -2.966  -2.659   0.239  0.00  0.00     0.290 C 
ATOM     13  O   UNL d   1      -3.375  -3.680  -0.300  0.00  0.00    -0.260 OA
BRANCH  12  14
ATOM     14  O   UNL d   1      -3.728  -1.680   0.852  0.00  0.00    -0.275 OA
BRANCH  14  15
ATOM     15  C   UNL d   1      -5.137  -1.704   0.763  0.00  0.00     0.082 A 
ATOM     16  C   UNL d   1      -5.894  -2.874   0.824  0.00  0.00     0.061 A 
ATOM     17  C   UNL d   1      -7.280  -2.794   0.696  0.00  0.00     0.038 A 
ATOM     18 CL   UNL d   1      -8.223  -4.235   0.724  0.00  0.00    -0.084 Cl
ATOM     19  C   UNL d   1      -7.916  -1.563   0.539  0.00  0.00     0.048 A 
ATOM     20  C   UNL d   1      -7.149  -0.399   0.523  0.00  0.00     0.038 A 
ATOM     21  C   UNL d   1      -5.761  -0.461   0.640  0.00  0.00     0.061 A 
ATOM     22 CL   UNL d   1      -7.926   1.126   0.347  0.00  0.00    -0.084 Cl
ENDBRANCH  14  15
ENDBRANCH  12  14
ENDBRANCH   1  12
TORSDOF 4
