REMARK  1 active torsions:
REMARK  status: ('A' for Active; 'I' for Inactive)
REMARK    1  A    between atoms: C_7  and  O_19 
ROOT
ATOM      1  C   UNL d   1       0.229   1.705  -0.104  0.00  0.00    -0.072 C 
ATOM      2  C   UNL d   1      -1.799  -2.208   0.237  0.00  0.00    -0.009 C 
ATOM      3  C   UNL d   1      -0.292  -1.899   0.559  0.00  0.00     0.001 C 
ATOM      4  C   UNL d   1      -0.444   0.430  -0.614  0.00  0.00     0.019 C 
ATOM      5  C   UNL d   1       1.457   1.702   0.462  0.00  0.00    -0.070 C 
ATOM      6  C   UNL d   1       0.349  -0.908  -0.458  0.00  0.00    -0.001 C 
ATOM      7  C   UNL d   1      -1.716  -3.541  -0.573  0.00  0.00     0.062 C 
ATOM      8  C   UNL d   1      -2.477  -1.055  -0.530  0.00  0.00     0.013 C 
ATOM      9  C   UNL d   1      -1.896   0.292  -0.114  0.00  0.00     0.010 C 
ATOM     10  C   UNL d   1      -0.520   2.998  -0.381  0.00  0.00     0.042 C 
ATOM     11  C   UNL d   1       1.857  -0.676  -0.266  0.00  0.00     0.010 C 
ATOM     12  C   UNL d   1       0.394  -3.292   0.560  0.00  0.00     0.009 C 
ATOM     13  C   UNL d   1       2.206   2.966   0.810  0.00  0.00     0.112 C 
ATOM     14  C   UNL d   1       2.212   0.428   0.713  0.00  0.00     0.035 C 
ATOM     15  C   UNL d   1      -0.673  -4.335   0.212  0.00  0.00     0.038 C 
ATOM     16  C   UNL d   1       1.634   4.149   0.056  0.00  0.00     0.131 C 
ATOM     17  O   UNL d   1       2.339   5.009  -0.467  0.00  0.00    -0.298 OA
ATOM     18  C   UNL d   1       0.135   4.280   0.116  0.00  0.00     0.083 C 
ATOM     19  C   UNL d   1      -2.577  -2.401   1.568  0.00  0.00     0.018 C 
ATOM     20  C   UNL d   1      -3.019  -4.308  -0.767  0.00  0.00     0.046 C 
ENDROOT
BRANCH   7  21
ATOM     21  O   UNL d   1      -1.154  -3.326  -1.876  0.00  0.00    -0.389 OA
ATOM     22  H   UNL d   1      -1.842  -2.959  -2.456  0.00  0.00     0.210 HD
ENDBRANCH   7  21
TORSDOF 1
