REMARK  5 active torsions:
REMARK  status: ('A' for Active; 'I' for Inactive)
REMARK    1  A    between atoms: C_2  and  C_1 
REMARK       I    between atoms: N_7  and  C_2 
REMARK    2  A    between atoms: C_17  and  C_5 
REMARK    3  A    between atoms: C_6  and  N_7 
REMARK    4  A    between atoms: C_8  and  C_13 
REMARK    5  A    between atoms: N_12  and  C_11 
ROOT
ATOM      1  C   UNL d   1       0.398  -4.630   0.314  0.00  0.00     0.261 C 
ATOM      2  N   UNL d   1      -0.489  -3.593   0.135  0.00  0.00    -0.321 N 
ATOM      3  O   UNL d   1       1.404  -4.394   0.983  0.00  0.00    -0.267 OA
ATOM      4  H   UNL d   1      -0.118  -2.700   0.429  0.00  0.00     0.169 HD
ENDROOT
BRANCH   2   5
ATOM      5  C   UNL d   1      -1.814  -3.570  -0.328  0.00  0.00     0.062 A 
ATOM      6  C   UNL d   1      -2.233  -2.596  -1.280  0.00  0.00     0.057 A 
ATOM      7  C   UNL d   1      -3.597  -2.667  -1.638  0.00  0.00     0.032 A 
ATOM      8  C   UNL d   1      -4.499  -3.574  -1.064  0.00  0.00     0.018 A 
ATOM      9  C   UNL d   1      -4.078  -4.466  -0.080  0.00  0.00     0.050 A 
ATOM     10  C   UNL d   1      -2.722  -4.477   0.260  0.00  0.00     0.048 A 
BRANCH   6  11
ATOM     11  N   UNL d   1      -1.396  -1.699  -1.929  0.00  0.00    -0.379 N 
ATOM     12  C   UNL d   1      -1.879  -0.559  -2.713  0.00  0.00     0.123 C 
ATOM     13  C   UNL d   1      -0.719  -0.245  -3.645  0.00  0.00     0.021 C 
ATOM     14  C   UNL d   1       0.516  -0.577  -2.834  0.00  0.00     0.021 C 
ATOM     15  C   UNL d   1       0.061  -1.606  -1.801  0.00  0.00     0.123 C 
ENDBRANCH   6  11
BRANCH   9  16
ATOM     16  C   UNL d   1      -5.081  -5.363   0.600  0.00  0.00     0.417 C 
ATOM     17  F   UNL d   1      -4.572  -6.035   1.671  0.00  0.00    -0.166 F 
ATOM     18  F   UNL d   1      -6.155  -4.673   1.072  0.00  0.00    -0.166 F 
ATOM     19  F   UNL d   1      -5.584  -6.312  -0.237  0.00  0.00    -0.166 F 
ENDBRANCH   9  16
ENDBRANCH   2   5
BRANCH   1  20
ATOM     20  C   UNL d   1       0.210  -5.915  -0.345  0.00  0.00     0.093 C 
ATOM     21  C   UNL d   1       0.733  -7.201   0.052  0.00  0.00     0.083 C 
ATOM     22  N   UNL d   1       0.372  -8.139  -0.841  0.00  0.00    -0.259 N 
ATOM     23  O   UNL d   1      -0.282  -7.497  -1.851  0.00  0.00    -0.241 OA
ATOM     24  HN  UNL d   1       0.553  -9.141  -0.776  1.00  0.00     0.195 HD
ATOM     25  C   UNL d   1      -0.336  -6.170  -1.593  0.00  0.00     0.090 C 
ATOM     26  C   UNL d   1      -0.886  -5.382  -2.718  0.00  0.00     0.080 C 
BRANCH  21  27
ATOM     27  C   UNL d   1       1.562  -7.618   1.188  0.00  0.00    -0.006 A 
ATOM     28  C   UNL d   1       2.520  -8.634   0.997  0.00  0.00     0.014 A 
ATOM     29  C   UNL d   1       3.297  -9.109   2.054  0.00  0.00     0.001 A 
ATOM     30  C   UNL d   1       3.130  -8.569   3.327  0.00  0.00     0.000 A 
ATOM     31  C   UNL d   1       2.197  -7.556   3.532  0.00  0.00     0.001 A 
ATOM     32  C   UNL d   1       1.413  -7.083   2.473  0.00  0.00     0.014 A 
ENDBRANCH  21  27
ENDBRANCH   1  20
TORSDOF 5
