REMARK  2 active torsions:
REMARK  status: ('A' for Active; 'I' for Inactive)
REMARK    1  A    between atoms: C_5  and  C_1 
REMARK    2  A    between atoms: O_17  and  C_15 
ROOT
ATOM      1  C   UNL d   1       2.272  -1.473  -0.003  0.00  0.00    -0.007 A 
ATOM      2  C   UNL d   1       2.481  -2.403  -1.032  0.00  0.00     0.026 A 
ATOM      3  C   UNL d   1       3.600  -3.256  -1.032  0.00  0.00    -0.025 A 
ATOM      4  C   UNL d   1       4.534  -3.175   0.021  0.00  0.00    -0.023 A 
ATOM      5  C   UNL d   1       5.649  -4.029   0.017  0.00  0.00     0.049 A 
ATOM      6  C   UNL d   1       3.211  -1.399   1.031  0.00  0.00     0.014 A 
ATOM      7  C   UNL d   1       4.327  -2.241   1.046  0.00  0.00     0.013 A 
ATOM      8  C   UNL d   1       3.811  -4.186  -2.061  0.00  0.00     0.015 A 
ATOM      9  C   UNL d   1       5.850  -4.955  -1.012  0.00  0.00     0.069 A 
ATOM     10  C   UNL d   1       4.927  -5.029  -2.052  0.00  0.00     0.037 A 
ENDROOT
BRANCH   1  11
ATOM     11  C   UNL d   1       1.108  -0.587  -0.008  0.00  0.00     0.059 A 
ATOM     12  N   UNL d   1      -0.106  -0.919  -0.559  0.00  0.00    -0.300 N 
ATOM     13  N   UNL d   1      -1.040   0.042  -0.460  0.00  0.00    -0.311 N 
ATOM     14  H   UNL d   1      -0.365  -1.790  -1.008  0.00  0.00     0.187 HD
ATOM     15  C   UNL d   1      -0.412   1.019   0.195  0.00  0.00     0.109 A 
ATOM     16  HN  UNL d   1      -2.000   0.028  -0.803  1.00  0.00     0.186 HD
ATOM     17  C   UNL d   1       0.917   0.682   0.507  0.00  0.00     0.050 A 
ENDBRANCH   1  11
BRANCH   9  18
ATOM     18  O   UNL d   1       6.978  -5.718  -0.883  0.00  0.00    -0.356 OA
ATOM     19  C   UNL d   1       7.225  -6.676  -1.905  0.00  0.00     0.210 C 
ENDBRANCH   9  18
TORSDOF 2
