REMARK  2 active torsions:
REMARK  status: ('A' for Active; 'I' for Inactive)
REMARK    1  A    between atoms: C_7  and  C_1 
REMARK    2  A    between atoms: O_9  and  C_2 
ROOT
ATOM      1  C   UNL d   1      -1.813  -0.899   0.033  0.00  0.00     0.076 A 
ATOM      2  C   UNL d   1      -0.559  -1.399   0.008  0.00  0.00     0.094 A 
ATOM      3  C   UNL d   1      -2.016   0.589   0.048  0.00  0.00     0.259 A 
ATOM      4  N   UNL d   1      -0.901   1.379   0.041  0.00  0.00    -0.322 N 
ATOM      5  C   UNL d   1       0.612  -0.502   0.014  0.00  0.00     0.025 A 
ATOM      6  C   UNL d   1       0.403   0.881   0.026  0.00  0.00     0.048 A 
ATOM      7  O   UNL d   1      -3.134   1.097   0.063  0.00  0.00    -0.267 OA
ATOM      8  C   UNL d   1       1.930  -0.978   0.004  0.00  0.00     0.016 A 
ATOM      9  C   UNL d   1       1.476   1.775   0.022  0.00  0.00     0.030 A 
ATOM     10  C   UNL d   1       3.008  -0.089  -0.002  0.00  0.00     0.001 A 
ATOM     11  C   UNL d   1       2.782   1.287   0.006  0.00  0.00     0.002 A 
ATOM     12  H   UNL d   1      -1.071   2.376   0.049  0.00  0.00     0.169 HD
ENDROOT
BRANCH   1  13
ATOM     13  C   UNL d   1      -3.001  -1.771   0.035  0.00  0.00    -0.018 A 
ATOM     14  C   UNL d   1      -3.533  -2.247   1.240  0.00  0.00     0.012 A 
ATOM     15  C   UNL d   1      -4.689  -3.029   1.238  0.00  0.00     0.001 A 
ATOM     16  C   UNL d   1      -5.315  -3.347   0.033  0.00  0.00     0.000 A 
ATOM     17  C   UNL d   1      -4.776  -2.898  -1.172  0.00  0.00     0.001 A 
ATOM     18  C   UNL d   1      -3.620  -2.117  -1.174  0.00  0.00     0.012 A 
ENDBRANCH   1  13
BRANCH   2  19
ATOM     19  O   UNL d   1      -0.261  -2.750  -0.033  0.00  0.00    -0.359 OA
ATOM     20  H   UNL d   1      -1.092  -3.254  -0.090  0.00  0.00     0.217 HD
ENDBRANCH   2  19
TORSDOF 2
