REMARK  2 active torsions:
REMARK  status: ('A' for Active; 'I' for Inactive)
REMARK    1  A    between atoms: C_12  and  C_7 
REMARK    2  A    between atoms: C_22  and  C_13 
ROOT
ATOM      1  N   UNL d   1       0.629  -1.440  -0.517  0.00  0.00    -0.279 N 
ATOM      2  C   UNL d   1       1.033  -0.147  -0.406  0.00  0.00     0.156 C 
ATOM      3  C   UNL d   1       3.201  -0.778  -0.152  0.00  0.00     0.049 C 
ATOM      4  C   UNL d   1       2.868  -2.084  -0.072  0.00  0.00    -0.024 C 
ATOM      5  N   UNL d   1       2.255   0.231  -0.214  0.00  0.00    -0.335 N 
ATOM      6  HN  UNL d   1       2.507   1.214  -0.115  1.00  0.00     0.168 HD
ATOM      7  C   UNL d   1       1.440  -2.504   0.002  0.00  0.00     0.166 C 
ATOM      8  C   UNL d   1      -0.679  -1.674  -0.824  0.00  0.00     0.267 C 
ATOM      9  C   UNL d   1      -1.451  -0.422  -0.586  0.00  0.00     0.077 C 
ATOM     10  S   UNL d   1      -0.351   0.920  -0.530  0.00  0.00    -0.048 SA
ATOM     11  C   UNL d   1       4.654  -0.452  -0.122  0.00  0.00    -0.003 A 
ATOM     12  C   UNL d   1      -2.750  -0.396  -0.250  0.00  0.00     0.036 C 
ATOM     13  C   UNL d   1       3.886  -3.187   0.044  0.00  0.00     0.043 C 
ATOM     14  O   UNL d   1      -1.122  -2.741  -1.208  0.00  0.00    -0.266 OA
ATOM     15  C   UNL d   1       5.573  -1.406   0.380  0.00  0.00    -0.045 A 
ATOM     16  C   UNL d   1       5.062  -2.727   0.894  0.00  0.00     0.044 C 
ATOM     17  C   UNL d   1       5.149   0.770  -0.586  0.00  0.00     0.014 A 
ATOM     18  C   UNL d   1       6.943  -1.123   0.430  0.00  0.00     0.008 A 
ATOM     19  C   UNL d   1       6.523   1.036  -0.561  0.00  0.00     0.001 A 
ATOM     20  C   UNL d   1       7.416   0.093  -0.051  0.00  0.00     0.001 A 
ENDROOT
BRANCH  12  21
ATOM     21  C   UNL d   1      -3.513  -1.643  -0.087  0.00  0.00    -0.035 A 
ATOM     22  C   UNL d   1      -3.482  -2.321   1.144  0.00  0.00     0.014 A 
ATOM     23  C   UNL d   1      -3.987  -3.619   1.243  0.00  0.00     0.043 A 
ATOM     24  C   UNL d   1      -4.523  -4.234   0.118  0.00  0.00     0.116 A 
ATOM     25  C   UNL d   1      -4.593  -3.564  -1.099  0.00  0.00     0.043 A 
ATOM     26  F   UNL d   1      -4.959  -5.498   0.201  0.00  0.00    -0.206 F 
ATOM     27  C   UNL d   1      -4.096  -2.263  -1.201  0.00  0.00     0.014 A 
ENDBRANCH  12  21
BRANCH   7  28
ATOM     28  C   UNL d   1       0.980  -2.753   1.437  0.00  0.00     0.010 A 
ATOM     29  S   UNL d   1       0.239  -4.237   1.869  0.00  0.00    -0.104 SA
ATOM     30  C   UNL d   1       0.010  -3.728   3.485  0.00  0.00     0.050 A 
ATOM     31  C   UNL d   1       0.491  -2.458   3.704  0.00  0.00     0.008 A 
ATOM     32  C   UNL d   1       1.054  -1.896   2.526  0.00  0.00     0.017 A 
ENDBRANCH   7  28
TORSDOF 2
