REMARK  7 active torsions:
REMARK  status: ('A' for Active; 'I' for Inactive)
REMARK       I    between atoms: N_4  and  C_1 
REMARK    1  A    between atoms: C_7  and  C_1 
REMARK    2  A    between atoms: C_2  and  C_7 
REMARK    3  A    between atoms: C_9  and  C_2 
REMARK    4  A    between atoms: C_3  and  C_9 
REMARK    5  A    between atoms: O_13  and  C_3 
REMARK    6  A    between atoms: C_12  and  N_4 
REMARK    7  A    between atoms: C_11  and  C_12 
ROOT
ATOM      1  C   UNL d   1       1.153  -2.078   0.013  0.00  0.00     0.218 C 
ATOM      2  N   UNL d   1       2.505  -1.835   0.030  0.00  0.00    -0.355 N 
ATOM      3  O   UNL d   1       0.659  -3.111  -0.423  0.00  0.00    -0.274 OA
ATOM      4  H   UNL d   1       2.883  -1.045   0.546  0.00  0.00     0.162 HD
ENDROOT
BRANCH   1   5
ATOM      5  C   UNL d   1       0.350  -0.963   0.680  0.00  0.00     0.112 C 
BRANCH   5   6
ATOM      6  C   UNL d   1      -1.212  -1.016   0.644  0.00  0.00    -0.023 C 
ATOM      7  C   UNL d   1      -1.770  -0.834  -0.797  0.00  0.00     0.010 C 
ATOM      8  C   UNL d   1      -1.643   0.577  -1.372  0.00  0.00     0.001 C 
ATOM      9  C   UNL d   1      -2.196   1.640  -0.431  0.00  0.00     0.000 C 
ATOM     10  C   UNL d   1      -1.575   1.537   0.952  0.00  0.00     0.001 C 
ATOM     11  C   UNL d   1      -1.755   0.140   1.541  0.00  0.00     0.010 C 
BRANCH   6  12
ATOM     12  C   UNL d   1      -1.787  -2.357   1.190  0.00  0.00     0.119 C 
BRANCH  12  13
ATOM     13  C   UNL d   1      -1.382  -2.690   2.603  0.00  0.00     0.140 C 
ATOM     14  O   UNL d   1      -1.930  -2.242   3.600  0.00  0.00    -0.650 OA
BRANCH  13  15
ATOM     15  O   UNL d   1      -0.320  -3.520   2.668  0.00  0.00    -0.776 OA
ATOM     16  H   UNL d   1       0.001  -3.815   1.789  0.00  0.00     0.167 HD
ENDBRANCH  13  15
ENDBRANCH  12  13
ENDBRANCH   6  12
ENDBRANCH   5   6
ENDBRANCH   1   5
BRANCH   2  17
ATOM     17  C   UNL d   1       3.516  -2.728  -0.515  0.00  0.00     0.179 C 
BRANCH  17  18
ATOM     18  C   UNL d   1       4.918  -2.216  -0.227  0.00  0.00     0.026 A 
ATOM     19  N   UNL d   1       5.033  -1.113   0.568  0.00  0.00    -0.368 N 
ATOM     20  C   UNL d   1       6.280  -0.660   0.829  0.00  0.00     0.088 A 
ATOM     21  HN  UNL d   1       4.210  -0.647   0.950  1.00  0.00     0.165 HD
ATOM     22  C   UNL d   1       7.435  -1.245   0.338  0.00  0.00     0.017 A 
ATOM     23  C   UNL d   1       7.305  -2.368  -0.469  0.00  0.00     0.003 A 
ATOM     24  C   UNL d   1       6.034  -2.865  -0.756  0.00  0.00     0.027 A 
ENDBRANCH  17  18
ENDBRANCH   2  17
TORSDOF 7
