REMARK  8 active torsions:
REMARK  status: ('A' for Active; 'I' for Inactive)
REMARK    1  A    between atoms: S_12  and  C_3 
REMARK    2  A    between atoms: S_16  and  C_11 
REMARK    3  A    between atoms: C_19  and  S_12 
REMARK    4  A    between atoms: C_20  and  S_16 
REMARK    5  A    between atoms: C_17  and  C_19 
REMARK    6  A    between atoms: C_25  and  C_17 
REMARK    7  A    between atoms: C_18  and  C_20 
REMARK    8  A    between atoms: C_24  and  C_18 
ROOT
ATOM      1  C   UNL d   1       1.328  -0.761  -0.112  0.00  0.00     0.090 A 
ATOM      2  C   UNL d   1       0.793   0.515  -0.012  0.00  0.00     0.039 A 
ATOM      3  C   UNL d   1       1.748   1.536   0.132  0.00  0.00     0.085 A 
ATOM      4  C   UNL d   1      -1.112  -0.855  -0.067  0.00  0.00     0.020 A 
ATOM      5  N   UNL d   1       2.627  -1.086  -0.131  0.00  0.00    -0.330 N 
ATOM      6  HN  UNL d   1       2.965  -2.046  -0.204  1.00  0.00     0.168 HD
ATOM      7  N   UNL d   1       3.065   1.254   0.108  0.00  0.00    -0.331 N 
ATOM      8  HN  UNL d   1       3.760   1.994   0.205  1.00  0.00     0.168 HD
ATOM      9  C   UNL d   1      -0.651   0.451  -0.062  0.00  0.00    -0.026 A 
ATOM     10  S   UNL d   1       0.146  -1.988  -0.166  0.00  0.00    -0.074 SA
ATOM     11  C   UNL d   1       3.438  -0.027  -0.046  0.00  0.00     0.146 A 
ATOM     12  N   UNL d   1      -3.441  -0.155   0.408  0.00  0.00     0.089 N 
ATOM     13  C   UNL d   1      -2.558  -1.264  -0.024  0.00  0.00     0.318 C 
ATOM     14  C   UNL d   1      -1.636   1.589  -0.051  0.00  0.00     0.071 C 
ATOM     15  C   UNL d   1      -3.081   1.094  -0.298  0.00  0.00     0.277 C 
ATOM     16  C   UNL d   1      -3.417   0.019   1.862  0.00  0.00     0.310 C 
ENDROOT
BRANCH   3  17
ATOM     17  S   UNL d   1       1.230   3.159   0.594  0.00  0.00    -0.103 SA
BRANCH  17  18
ATOM     18  C   UNL d   1       2.285   4.209  -0.463  0.00  0.00     0.164 C 
BRANCH  18  19
ATOM     19  C   UNL d   1       1.737   5.636  -0.472  0.00  0.00     0.169 C 
ATOM     20  O   UNL d   1       0.592   5.924  -0.116  0.00  0.00    -0.291 OA
BRANCH  19  21
ATOM     21  C   UNL d   1       2.599   6.748  -0.982  0.00  0.00     0.010 A 
ATOM     22  C   UNL d   1       3.843   6.528  -1.583  0.00  0.00     0.015 A 
ATOM     23  C   UNL d   1       4.590   7.613  -2.058  0.00  0.00     0.001 A 
ATOM     24  C   UNL d   1       4.104   8.914  -1.938  0.00  0.00     0.000 A 
ATOM     25  C   UNL d   1       2.867   9.140  -1.340  0.00  0.00     0.001 A 
ATOM     26  C   UNL d   1       2.119   8.063  -0.865  0.00  0.00     0.015 A 
ENDBRANCH  19  21
ENDBRANCH  18  19
ENDBRANCH  17  18
ENDBRANCH   3  17
BRANCH  11  27
ATOM     27  S   UNL d   1       5.189  -0.352  -0.013  0.00  0.00    -0.086 SA
BRANCH  27  28
ATOM     28  C   UNL d   1       5.233  -1.883  -1.006  0.00  0.00     0.166 C 
BRANCH  28  29
ATOM     29  C   UNL d   1       4.764  -1.663  -2.438  0.00  0.00     0.169 C 
ATOM     30  O   UNL d   1       4.460  -0.560  -2.890  0.00  0.00    -0.291 OA
BRANCH  29  31
ATOM     31  C   UNL d   1       4.694  -2.845  -3.354  0.00  0.00     0.010 A 
ATOM     32  C   UNL d   1       5.149  -4.119  -2.987  0.00  0.00     0.015 A 
ATOM     33  C   UNL d   1       5.086  -5.174  -3.902  0.00  0.00     0.001 A 
ATOM     34  C   UNL d   1       4.568  -4.969  -5.181  0.00  0.00     0.000 A 
ATOM     35  C   UNL d   1       4.106  -3.708  -5.549  0.00  0.00     0.001 A 
ATOM     36  C   UNL d   1       4.169  -2.651  -4.639  0.00  0.00     0.015 A 
ENDBRANCH  29  31
ENDBRANCH  28  29
ENDBRANCH  27  28
ENDBRANCH  11  27
TORSDOF 8
