REMARK  2 active torsions:
REMARK  status: ('A' for Active; 'I' for Inactive)
REMARK    1  A    between atoms: C_16  and  C_3 
REMARK    2  A    between atoms: N_6  and  C_12 
ROOT
ATOM      1  C   UNL d   1      -1.152  -0.925   0.082  0.00  0.00     0.122 A 
ATOM      2  N   UNL d   1      -0.679   0.365   0.007  0.00  0.00    -0.300 N 
ATOM      3  C   UNL d   1      -0.059  -1.786   0.039  0.00  0.00     0.020 A 
ATOM      4  C   UNL d   1       1.119  -0.955  -0.027  0.00  0.00     0.007 A 
ATOM      5  C   UNL d   1       0.704   0.379  -0.013  0.00  0.00     0.052 A 
ATOM      6  C   UNL d   1      -2.581  -1.111   0.192  0.00  0.00     0.288 A 
ATOM      7  N   UNL d   1      -2.819   1.336   0.012  0.00  0.00    -0.293 N 
ATOM      8  HN  UNL d   1      -3.437   2.146  -0.028  1.00  0.00     0.187 HD
ATOM      9  C   UNL d   1       2.509  -1.223  -0.087  0.00  0.00     0.050 A 
ATOM     10  C   UNL d   1      -1.526   1.468  -0.027  0.00  0.00     0.206 A 
ATOM     11  C   UNL d   1       3.420  -0.154  -0.073  0.00  0.00     0.103 A 
ATOM     12  N   UNL d   1      -3.317   0.060   0.109  0.00  0.00    -0.264 N 
ATOM     13  C   UNL d   1       1.611   1.455  -0.022  0.00  0.00     0.033 A 
ATOM     14  O   UNL d   1      -3.163  -2.181   0.345  0.00  0.00    -0.264 OA
ATOM     15  C   UNL d   1       2.978   1.170  -0.039  0.00  0.00     0.038 A 
ATOM     16  H   UNL d   1      -4.327  -0.032   0.162  0.00  0.00     0.190 HD
ENDROOT
BRANCH   3  17
ATOM     17  C   UNL d   1      -0.122  -3.251   0.105  0.00  0.00    -0.023 A 
ATOM     18  C   UNL d   1      -1.071  -3.986  -0.617  0.00  0.00     0.012 A 
ATOM     19  C   UNL d   1      -1.127  -5.380  -0.519  0.00  0.00     0.001 A 
ATOM     20  C   UNL d   1      -0.201  -6.066   0.261  0.00  0.00     0.000 A 
ATOM     21  C   UNL d   1       0.775  -5.356   0.954  0.00  0.00     0.001 A 
ATOM     22  C   UNL d   1       0.802  -3.959   0.889  0.00  0.00     0.012 A 
ENDBRANCH   3  17
BRANCH  11  23
ATOM     23  N   UNL d   1       4.863  -0.434  -0.073  0.00  0.00    -0.116 N 
ATOM     24  O   UNL d   1       5.219  -1.621  -0.052  0.00  0.00    -0.532 OA
ATOM     25  O   UNL d   1       5.637   0.532  -0.081  0.00  0.00    -0.532 OA
ENDBRANCH  11  23
TORSDOF 2
