REMARK  9 active torsions:
REMARK  status: ('A' for Active; 'I' for Inactive)
REMARK    1  A    between atoms: C_3  and  C_1 
REMARK       I    between atoms: C_2  and  N_8 
REMARK    2  A    between atoms: C_12  and  C_2 
REMARK    3  A    between atoms: C_6  and  C_12 
REMARK    4  A    between atoms: C_15  and  C_6 
REMARK    5  A    between atoms: C_7  and  O_11 
REMARK    6  A    between atoms: N_8  and  C_20 
REMARK    7  A    between atoms: C_9  and  C_15 
REMARK    8  A    between atoms: O_23  and  C_9 
REMARK    9  A    between atoms: O_11  and  C_14 
ROOT
ATOM      1  N   UNL d   1      -0.161  -7.224  -0.713  0.00  0.00    -0.344 N 
ATOM      2  HN  UNL d   1      -0.932  -7.855  -0.496  1.00  0.00     0.167 HD
ATOM      3  C   UNL d   1       0.068  -6.107   0.011  0.00  0.00     0.148 A 
ATOM      4  C   UNL d   1       1.758  -6.643  -2.101  0.00  0.00     0.050 A 
ATOM      5  C   UNL d   1       0.690  -7.464  -1.743  0.00  0.00     0.119 A 
ATOM      6  C   UNL d   1       1.151  -5.272  -0.204  0.00  0.00     0.059 A 
ATOM      7  C   UNL d   1       1.999  -5.542  -1.280  0.00  0.00     0.035 A 
ENDROOT
BRANCH   4   8
ATOM      8  N   UNL d   1       2.499  -6.950  -3.267  0.00  0.00    -0.326 N 
ATOM      9  C   UNL d   1       3.388  -6.116  -3.913  0.00  0.00     0.222 C 
ATOM     10  O   UNL d   1       3.727  -4.995  -3.538  0.00  0.00    -0.273 OA
ATOM     11  H   UNL d   1       2.292  -7.844  -3.716  0.00  0.00     0.169 HD
BRANCH   9  12
ATOM     12  C   UNL d   1       3.970  -6.680  -5.209  0.00  0.00     0.113 C 
BRANCH  12  13
ATOM     13  C   UNL d   1       5.380  -7.295  -5.031  0.00  0.00    -0.023 C 
ATOM     14  C   UNL d   1       6.356  -6.238  -4.458  0.00  0.00     0.010 C 
ATOM     15  C   UNL d   1       7.745  -6.556  -5.008  0.00  0.00     0.001 C 
ATOM     16  C   UNL d   1       7.547  -7.615  -6.082  0.00  0.00     0.001 C 
ATOM     17  C   UNL d   1       6.052  -7.590  -6.391  0.00  0.00     0.010 C 
BRANCH  13  18
ATOM     18  C   UNL d   1       5.350  -8.563  -4.138  0.00  0.00     0.119 C 
BRANCH  18  19
ATOM     19  C   UNL d   1       4.306  -9.572  -4.568  0.00  0.00     0.140 C 
ATOM     20  O   UNL d   1       3.124  -9.483  -4.261  0.00  0.00    -0.650 OA
BRANCH  19  21
ATOM     21  O   UNL d   1       4.771 -10.546  -5.374  0.00  0.00    -0.776 OA
ATOM     22  H   UNL d   1       5.727 -10.501  -5.567  0.00  0.00     0.167 HD
ENDBRANCH  19  21
ENDBRANCH  18  19
ENDBRANCH  13  18
ENDBRANCH  12  13
ENDBRANCH   9  12
ENDBRANCH   4   8
BRANCH   3  23
ATOM     23  O   UNL d   1      -0.784  -5.761   1.054  0.00  0.00    -0.294 OA
BRANCH  23  24
ATOM     24  C   UNL d   1      -2.123  -6.064   0.946  0.00  0.00     0.078 A 
ATOM     25  C   UNL d   1      -2.841  -6.051  -0.254  0.00  0.00     0.053 A 
ATOM     26  C   UNL d   1      -4.213  -6.354  -0.270  0.00  0.00     0.050 A 
ATOM     27  C   UNL d   1      -4.862  -6.632   0.944  0.00  0.00     0.016 A 
ATOM     28  C   UNL d   1      -4.157  -6.600   2.147  0.00  0.00     0.004 A 
ATOM     29  C   UNL d   1      -2.792  -6.311   2.147  0.00  0.00     0.037 A 
BRANCH  26  30
ATOM     30  C   UNL d   1      -4.983  -6.401  -1.564  0.00  0.00     0.417 C 
ATOM     31  F   UNL d   1      -4.258  -6.017  -2.652  0.00  0.00    -0.166 F 
ATOM     32  F   UNL d   1      -6.079  -5.591  -1.547  0.00  0.00    -0.166 F 
ATOM     33  F   UNL d   1      -5.451  -7.649  -1.849  0.00  0.00    -0.166 F 
ENDBRANCH  26  30
ENDBRANCH  23  24
ENDBRANCH   3  23
TORSDOF 9
