REMARK  6 active torsions:
REMARK  status: ('A' for Active; 'I' for Inactive)
REMARK    1  A    between atoms: C_17  and  N_6 
REMARK    2  A    between atoms: S_11  and  C_7 
REMARK    3  A    between atoms: C_16  and  S_11 
REMARK    4  A    between atoms: C_15  and  C_16 
REMARK    5  A    between atoms: C_19  and  C_15 
REMARK    6  A    between atoms: C_20  and  C_17 
ROOT
ATOM      1  C   UNL d   1       0.814   0.406  -0.037  0.00  0.00     0.073 A 
ATOM      2  C   UNL d   1       1.399  -0.837  -0.035  0.00  0.00     0.092 A 
ATOM      3  N   UNL d   1       2.726  -1.101  -0.028  0.00  0.00    -0.330 N 
ATOM      4  HN  UNL d   1       3.094  -2.053  -0.026  1.00  0.00     0.168 HD
ATOM      5  C   UNL d   1       1.680   1.565  -0.016  0.00  0.00     0.263 A 
ATOM      6  N   UNL d   1       3.051   1.270  -0.007  0.00  0.00    -0.290 N 
ATOM      7  C   UNL d   1       3.499  -0.057  -0.024  0.00  0.00     0.150 A 
ATOM      8  C   UNL d   1      -0.616   0.347  -0.053  0.00  0.00    -0.026 A 
ATOM      9  C   UNL d   1      -1.056  -0.962  -0.013  0.00  0.00    -0.008 A 
ATOM     10  S   UNL d   1       0.229  -2.083  -0.023  0.00  0.00    -0.075 SA
ATOM     11  C   UNL d   1      -1.561   1.513  -0.054  0.00  0.00     0.041 C 
ATOM     12  O   UNL d   1       1.218   2.704  -0.004  0.00  0.00    -0.267 OA
ATOM     13  C   UNL d   1      -2.494  -1.386   0.015  0.00  0.00     0.051 C 
ATOM     14  C   UNL d   1      -3.011   1.081  -0.319  0.00  0.00     0.009 C 
ATOM     15  C   UNL d   1      -3.408  -0.208   0.433  0.00  0.00    -0.014 C 
ATOM     16  C   UNL d   1      -3.401   0.002   1.952  0.00  0.00     0.010 C 
ENDROOT
BRANCH   7  17
ATOM     17  S   UNL d   1       5.239  -0.319   0.033  0.00  0.00    -0.086 SA
BRANCH  17  18
ATOM     18  C   UNL d   1       5.395  -2.094  -0.295  0.00  0.00     0.166 C 
BRANCH  18  19
ATOM     19  C   UNL d   1       5.463  -2.426  -1.779  0.00  0.00     0.169 C 
ATOM     20  O   UNL d   1       5.076  -1.673  -2.671  0.00  0.00    -0.291 OA
BRANCH  19  21
ATOM     21  C   UNL d   1       6.076  -3.741  -2.154  0.00  0.00     0.010 A 
ATOM     22  C   UNL d   1       6.106  -4.824  -1.264  0.00  0.00     0.015 A 
ATOM     23  C   UNL d   1       6.728  -6.021  -1.631  0.00  0.00     0.001 A 
ATOM     24  C   UNL d   1       7.323  -6.144  -2.886  0.00  0.00     0.000 A 
ATOM     25  C   UNL d   1       7.287  -5.077  -3.782  0.00  0.00     0.001 A 
ATOM     26  C   UNL d   1       6.659  -3.880  -3.420  0.00  0.00     0.015 A 
ENDBRANCH  19  21
ENDBRANCH  18  19
ENDBRANCH  17  18
ENDBRANCH   7  17
BRANCH   6  27
ATOM     27  C   UNL d   1       3.925   2.442   0.018  0.00  0.00     0.161 C 
BRANCH  27  28
ATOM     28  C   UNL d   1       4.119   2.898   1.442  0.00  0.00    -0.017 C 
ATOM     29  C   UNL d   1       3.607   4.030   1.944  0.00  0.00     0.008 C 
ENDBRANCH  27  28
ENDBRANCH   6  27
TORSDOF 6
