REMARK  5 active torsions:
REMARK  status: ('A' for Active; 'I' for Inactive)
REMARK    1  A    between atoms: C_3  and  C_1 
REMARK    2  A    between atoms: C_9  and  C_4 
REMARK    3  A    between atoms: C_6  and  C_10 
REMARK       I    between atoms: N_11  and  C_6 
REMARK    4  A    between atoms: C_20  and  N_11 
REMARK    5  A    between atoms: C_12  and  C_13 
ROOT
ATOM      1  C   UNL d   1       0.545  -4.932   0.059  0.00  0.00     0.245 C 
ATOM      2  N   UNL d   1      -0.749  -5.410   0.130  0.00  0.00    -0.324 N 
ATOM      3  O   UNL d   1       0.888  -3.782  -0.191  0.00  0.00    -0.268 OA
ATOM      4  H   UNL d   1      -0.891  -6.346   0.485  0.00  0.00     0.169 HD
ENDROOT
BRANCH   1   5
ATOM      5  C   UNL d   1       1.568  -5.987   0.321  0.00  0.00     0.075 C 
ATOM      6  C   UNL d   1       2.865  -5.641   0.333  0.00  0.00     0.024 C 
BRANCH   6   7
ATOM      7  C   UNL d   1       3.922  -6.588   0.472  0.00  0.00     0.005 A 
ATOM      8  S   UNL d   1       5.546  -6.007   0.575  0.00  0.00    -0.089 SA
ATOM      9  C   UNL d   1       6.221  -7.582   0.634  0.00  0.00     0.022 A 
ATOM     10  C   UNL d   1       5.222  -8.536   0.613  0.00  0.00     0.021 A 
ATOM     11  C   UNL d   1       3.914  -7.970   0.524  0.00  0.00     0.020 A 
BRANCH   9  12
ATOM     12  C   UNL d   1       7.651  -7.798   0.681  0.00  0.00     0.021 A 
ATOM     13  S   UNL d   1       8.360  -9.231   0.041  0.00  0.00    -0.101 SA
ATOM     14  C   UNL d   1       9.941  -8.717   0.428  0.00  0.00     0.050 A 
ATOM     15  C   UNL d   1       9.946  -7.488   1.046  0.00  0.00     0.008 A 
ATOM     16  C   UNL d   1       8.628  -6.960   1.191  0.00  0.00     0.021 A 
ENDBRANCH   9  12
ENDBRANCH   6   7
ENDBRANCH   1   5
BRANCH   2  17
ATOM     17  C   UNL d   1      -1.917  -4.725  -0.282  0.00  0.00     0.035 A 
ATOM     18  C   UNL d   1      -1.901  -3.518  -0.972  0.00  0.00     0.030 A 
ATOM     19  C   UNL d   1      -3.091  -2.946  -1.445  0.00  0.00     0.010 A 
ATOM     20  C   UNL d   1      -4.339  -3.557  -1.240  0.00  0.00    -0.051 A 
ATOM     21  C   UNL d   1      -4.345  -4.747  -0.495  0.00  0.00     0.010 A 
ATOM     22  C   UNL d   1      -3.153  -5.327  -0.031  0.00  0.00     0.030 A 
BRANCH  20  23
ATOM     23  C   UNL d   1      -5.609  -2.943  -1.857  0.00  0.00    -0.024 C 
ATOM     24  C   UNL d   1      -6.895  -3.742  -1.547  0.00  0.00     0.019 C 
ATOM     25  C   UNL d   1      -5.821  -1.505  -1.339  0.00  0.00     0.019 C 
ATOM     26  C   UNL d   1      -5.462  -2.900  -3.396  0.00  0.00     0.019 C 
ENDBRANCH  20  23
ENDBRANCH   2  17
TORSDOF 5
