REMARK  4 active torsions:
REMARK  status: ('A' for Active; 'I' for Inactive)
REMARK    1  A    between atoms: C_6  and  C_1 
REMARK    2  A    between atoms: C_15  and  C_5 
REMARK       I    between atoms: C_9  and  N_10 
REMARK    3  A    between atoms: C_16  and  C_9 
REMARK    4  A    between atoms: N_10  and  C_15 
ROOT
ATOM      1  C   UNL d   1      -0.255  -0.515   0.885  0.00  0.00     0.091 A 
ATOM      2  N   UNL d   1       0.778   0.266   1.151  0.00  0.00    -0.351 N 
ATOM      3  HN  UNL d   1       1.108   0.495   2.089  1.00  0.00     0.166 HD
ATOM      4  S   UNL d   1      -0.567  -0.746  -0.793  0.00  0.00    -0.081 SA
ATOM      5  C   UNL d   1       1.353   0.732  -0.028  0.00  0.00     0.034 A 
ATOM      6  C   UNL d   1       0.748   0.270  -1.182  0.00  0.00     0.078 A 
ENDROOT
BRANCH   5   7
ATOM      7  C   UNL d   1       2.523   1.659   0.035  0.00  0.00     0.180 C 
BRANCH   7   8
ATOM      8  N   UNL d   1       3.750   0.897  -0.030  0.00  0.00    -0.355 N 
ATOM      9  C   UNL d   1       4.328   0.568  -1.236  0.00  0.00     0.217 C 
ATOM     10  O   UNL d   1       3.876   0.930  -2.317  0.00  0.00    -0.274 OA
ATOM     11  H   UNL d   1       4.045   0.419   0.811  0.00  0.00     0.162 HD
BRANCH   9  12
ATOM     12  C   UNL d   1       5.587  -0.265  -1.085  0.00  0.00     0.098 C 
ATOM     13  C   UNL d   1       6.191  -0.640  -2.428  0.00  0.00     0.014 C 
ENDBRANCH   9  12
ENDBRANCH   7   8
ENDBRANCH   5   7
BRANCH   1  14
ATOM     14  C   UNL d   1      -1.049  -1.107   1.940  0.00  0.00     0.038 A 
ATOM     15  S   UNL d   1      -2.368  -2.175   1.660  0.00  0.00    -0.099 SA
ATOM     16  C   UNL d   1      -2.687  -2.355   3.327  0.00  0.00     0.050 A 
ATOM     17  C   UNL d   1      -1.815  -1.623   4.098  0.00  0.00     0.008 A 
ATOM     18  C   UNL d   1      -0.873  -0.908   3.302  0.00  0.00     0.022 A 
ENDBRANCH   1  14
TORSDOF 4
