REMARK  4 active torsions:
REMARK  status: ('A' for Active; 'I' for Inactive)
REMARK    1  A    between atoms: C_14  and  N_4 
REMARK    2  A    between atoms: O_13  and  C_5 
REMARK    3  A    between atoms: C_17  and  C_14 
REMARK    4  A    between atoms: C_18  and  C_17 
ROOT
ATOM      1  C   UNL d   1       1.460   0.808   0.003  0.00  0.00     0.100 A 
ATOM      2  C   UNL d   1       0.733   2.116   0.005  0.00  0.00     0.264 A 
ATOM      3  C   UNL d   1       0.764  -0.336   0.003  0.00  0.00     0.110 A 
ATOM      4  N   UNL d   1      -0.660   2.103  -0.017  0.00  0.00    -0.313 N 
ATOM      5  C   UNL d   1       2.909   0.719  -0.002  0.00  0.00     0.090 A 
ATOM      6  C   UNL d   1      -0.701  -0.348   0.004  0.00  0.00     0.026 A 
ATOM      7  C   UNL d   1       3.529  -0.463  -0.005  0.00  0.00     0.120 A 
ATOM      8  C   UNL d   1      -1.398   0.875   0.004  0.00  0.00     0.050 A 
ATOM      9  O   UNL d   1       1.399  -1.605   0.002  0.00  0.00    -0.273 OA
ATOM     10  C   UNL d   1       2.762  -1.715  -0.001  0.00  0.00     0.290 A 
ATOM     11  O   UNL d   1       1.402   3.155   0.021  0.00  0.00    -0.267 OA
ATOM     12  O   UNL d   1       3.333  -2.802  -0.002  0.00  0.00    -0.260 OA
ATOM     13  C   UNL d   1      -1.413  -1.560   0.003  0.00  0.00     0.016 A 
ATOM     14  C   UNL d   1      -2.802   0.845   0.017  0.00  0.00     0.031 A 
ATOM     15  C   UNL d   1      -2.806  -1.568   0.002  0.00  0.00     0.001 A 
ATOM     16  C   UNL d   1      -3.499  -0.366   0.011  0.00  0.00     0.002 A 
ENDROOT
BRANCH   4  17
ATOM     17  C   UNL d   1      -1.355   3.400  -0.022  0.00  0.00     0.132 C 
BRANCH  17  18
ATOM     18  C   UNL d   1      -1.661   3.894   1.396  0.00  0.00     0.020 C 
BRANCH  18  19
ATOM     19  C   UNL d   1      -2.435   5.215   1.413  0.00  0.00    -0.003 C 
ATOM     20  C   UNL d   1      -2.698   5.661   2.846  0.00  0.00     0.005 C 
ENDBRANCH  18  19
ENDBRANCH  17  18
ENDBRANCH   4  17
BRANCH   5  21
ATOM     21  O   UNL d   1       3.658   1.879  -0.008  0.00  0.00    -0.359 OA
ATOM     22  H   UNL d   1       3.049   2.656  -0.001  0.00  0.00     0.217 HD
ENDBRANCH   5  21
TORSDOF 4
