REMARK  4 active torsions:
REMARK  status: ('A' for Active; 'I' for Inactive)
REMARK    1  A    between atoms: C_4  and  C_1 
REMARK    2  A    between atoms: O_6  and  C_1 
REMARK    3  A    between atoms: O_3  and  C_4 
REMARK    4  A    between atoms: C_5  and  O_3 
ROOT
ATOM      1  C   UNL d   1      -2.054   0.358   2.114  0.00  0.00     0.069 A 
ATOM      2  C   UNL d   1      -3.782   0.681   4.303  0.00  0.00    -0.062 A 
ATOM      3  C   UNL d   1      -3.134  -0.507   2.287  0.00  0.00     0.037 A 
ATOM      4  C   UNL d   1      -1.803   1.345   3.068  0.00  0.00     0.037 A 
ATOM      5  C   UNL d   1      -2.667   1.511   4.154  0.00  0.00     0.009 A 
ATOM      6  C   UNL d   1      -3.998  -0.339   3.371  0.00  0.00     0.009 A 
ATOM      7  C   UNL d   1      -4.747   0.869   5.436  0.00  0.00     0.048 C 
ENDROOT
BRANCH   1   8
ATOM      8  O   UNL d   1      -1.187   0.322   1.052  0.00  0.00    -0.341 OA
BRANCH   8   9
ATOM      9  C   UNL d   1      -1.743  -0.230  -0.148  0.00  0.00     0.285 C 
BRANCH   9  10
ATOM     10  C   UNL d   1      -0.928   0.233  -1.341  0.00  0.00     0.164 C 
ATOM     11  O   UNL d   1      -1.204  -0.038  -2.501  0.00  0.00    -0.648 OA
BRANCH  10  12
ATOM     12  O   UNL d   1       0.149   0.981  -0.999  0.00  0.00    -0.775 OA
ATOM     13  H   UNL d   1       0.178   1.084  -0.024  0.00  0.00     0.167 HD
ENDBRANCH  10  12
ENDBRANCH   9  10
ENDBRANCH   8   9
ENDBRANCH   1   8
TORSDOF 4
