REMARK  6 active torsions:
REMARK  status: ('A' for Active; 'I' for Inactive)
REMARK    1  A    between atoms: N_6  and  C_1 
REMARK    2  A    between atoms: N_7  and  C_2 
REMARK    3  A    between atoms: C_9  and  C_3 
REMARK    4  A    between atoms: O_15  and  C_4 
REMARK    5  A    between atoms: O_16  and  C_5 
REMARK    6  A    between atoms: O_17  and  C_9 
ROOT
ATOM      1  C   UNL d   1       1.439  -0.169   0.115  0.00  0.00     0.139 A 
ATOM      2  C   UNL d   1      -0.488   1.279   0.157  0.00  0.00     0.139 A 
ATOM      3  C   UNL d   1      -0.793  -1.125   0.107  0.00  0.00     0.109 A 
ATOM      4  C   UNL d   1       0.631  -1.310   0.052  0.00  0.00     0.121 A 
ATOM      5  C   UNL d   1      -1.367   0.187   0.133  0.00  0.00     0.121 A 
ATOM      6  C   UNL d   1       0.899   1.118   0.166  0.00  0.00     0.078 A 
ENDROOT
BRANCH   3   7
ATOM      7  C   UNL d   1      -1.661  -2.371   0.199  0.00  0.00     0.182 C 
ATOM      8  O   UNL d   1      -1.246  -3.476   0.520  0.00  0.00    -0.646 OA
BRANCH   7   9
ATOM      9  O   UNL d   1      -2.974  -2.213  -0.077  0.00  0.00    -0.772 OA
ATOM     10  H   UNL d   1      -3.246  -1.285  -0.236  0.00  0.00     0.167 HD
ENDBRANCH   7   9
ENDBRANCH   3   7
BRANCH   4  11
ATOM     11  O   UNL d   1       1.027  -2.602  -0.128  0.00  0.00    -0.352 OA
ATOM     12  C   UNL d   1       2.368  -3.055  -0.130  0.00  0.00     0.210 C 
ENDBRANCH   4  11
BRANCH   5  13
ATOM     13  O   UNL d   1      -2.736   0.229   0.069  0.00  0.00    -0.352 OA
ATOM     14  C   UNL d   1      -3.484   1.361   0.499  0.00  0.00     0.210 C 
ENDBRANCH   5  13
BRANCH   1  15
ATOM     15  N   UNL d   1       2.884  -0.209   0.136  0.00  0.00    -0.113 N 
ATOM     16  O   UNL d   1       3.419  -0.535   1.201  0.00  0.00    -0.532 OA
ATOM     17  O   UNL d   1       3.465   0.168  -0.888  0.00  0.00    -0.532 OA
ENDBRANCH   1  15
BRANCH   2  18
ATOM     18  N   UNL d   1      -0.929   2.653   0.145  0.00  0.00    -0.113 N 
ATOM     19  O   UNL d   1      -1.262   3.124  -0.948  0.00  0.00    -0.532 OA
ATOM     20  O   UNL d   1      -0.900   3.254   1.224  0.00  0.00    -0.532 OA
ENDBRANCH   2  18
TORSDOF 6
