REMARK  3 active torsions:
REMARK  status: ('A' for Active; 'I' for Inactive)
REMARK    1  A    between atoms: C_5  and  C_1 
REMARK    2  A    between atoms: C_6  and  C_2 
REMARK       I    between atoms: N_9  and  C_5 
REMARK    3  A    between atoms: C_11  and  N_9 
ROOT
ATOM      1  C   UNL d   1      -2.595   1.325  -0.155  0.00  0.00     0.275 C 
ATOM      2  N   UNL d   1      -3.726   0.721   0.354  0.00  0.00    -0.320 N 
ATOM      3  O   UNL d   1      -2.552   2.428  -0.691  0.00  0.00    -0.266 OA
ATOM      4  H   UNL d   1      -3.570  -0.068   0.978  0.00  0.00     0.169 HD
ENDROOT
BRANCH   1   5
ATOM      5  C   UNL d   1      -1.400   0.510   0.008  0.00  0.00     0.142 A 
ATOM      6  C   UNL d   1      -0.087   0.931   0.005  0.00  0.00     0.193 A 
ATOM      7  O   UNL d   1       0.703  -0.195   0.046  0.00  0.00    -0.291 OA
ATOM      8  C   UNL d   1      -0.180  -1.234   0.090  0.00  0.00     0.121 A 
ATOM      9  N   UNL d   1      -1.445  -0.872   0.129  0.00  0.00    -0.334 N 
ATOM     10  C   UNL d   1       0.400  -2.591   0.032  0.00  0.00     0.098 C 
ATOM     11  HN  UNL d   1      -2.267  -1.468   0.225  1.00  0.00     0.168 HD
BRANCH   6  12
ATOM     12  C   UNL d   1       0.598   2.237  -0.032  0.00  0.00     0.442 C 
ATOM     13  F   UNL d   1      -0.223   3.294   0.168  0.00  0.00    -0.164 F 
ATOM     14  F   UNL d   1       1.550   2.317   0.938  0.00  0.00    -0.164 F 
ATOM     15  F   UNL d   1       1.235   2.441  -1.214  0.00  0.00    -0.164 F 
ENDBRANCH   6  12
ENDBRANCH   1   5
BRANCH   2  16
ATOM     16  C   UNL d   1      -5.058   1.166   0.196  0.00  0.00     0.058 A 
ATOM     17  C   UNL d   1      -6.040   0.779   1.131  0.00  0.00     0.082 A 
ATOM     18  C   UNL d   1      -7.369   1.198   0.961  0.00  0.00     0.058 A 
ATOM     19 CL   UNL d   1      -5.571  -0.171   2.509  0.00  0.00    -0.080 Cl
ATOM     20 CL   UNL d   1      -8.618   0.816   2.096  0.00  0.00    -0.082 Cl
ATOM     21  C   UNL d   1      -7.729   1.959  -0.154  0.00  0.00     0.026 A 
ATOM     22  C   UNL d   1      -6.765   2.322  -1.091  0.00  0.00     0.004 A 
ATOM     23  C   UNL d   1      -5.435   1.939  -0.909  0.00  0.00     0.031 A 
ENDBRANCH   2  16
TORSDOF 3
