REMARK  4 active torsions:
REMARK  status: ('A' for Active; 'I' for Inactive)
REMARK    1  A    between atoms: C_7  and  C_1 
REMARK    2  A    between atoms: N_4  and  C_2 
REMARK       I    between atoms: C_6  and  N_4 
REMARK    3  A    between atoms: C_10  and  C_6 
REMARK    4  A    between atoms: O_16  and  C_7 
ROOT
ATOM      1  N   UNL d   1       2.763   7.461  -2.858  0.00  0.00    -0.191 NA
ATOM      2  C   UNL d   1       3.216   3.770   0.268  0.00  0.00     0.033 A 
ATOM      3  C   UNL d   1       3.145   6.687  -2.084  0.00  0.00     0.099 C 
ATOM      4  C   UNL d   1       2.755   4.727  -0.651  0.00  0.00     0.039 A 
ATOM      5  C   UNL d   1       3.615   5.730  -1.122  0.00  0.00     0.045 A 
ATOM      6  C   UNL d   1       4.537   3.862   0.734  0.00  0.00     0.017 A 
ATOM      7  C   UNL d   1       5.392   4.862   0.268  0.00  0.00     0.003 A 
ATOM      8  C   UNL d   1       4.935   5.791  -0.665  0.00  0.00     0.023 A 
ENDROOT
BRANCH   2   9
ATOM      9  C   UNL d   1       2.393   2.616   0.764  0.00  0.00     0.256 C 
ATOM     10  N   UNL d   1       1.298   2.282  -0.002  0.00  0.00    -0.321 N 
ATOM     11  H   UNL d   1       0.877   3.023  -0.553  0.00  0.00     0.169 HD
ATOM     12  O   UNL d   1       2.720   2.071   1.812  0.00  0.00    -0.267 OA
BRANCH  10  13
ATOM     13  C   UNL d   1       0.471   1.165   0.154  0.00  0.00     0.064 A 
ATOM     14  C   UNL d   1      -0.897   1.309  -0.058  0.00  0.00     0.107 A 
ATOM     15  S   UNL d   1      -1.718  -0.186  -0.029  0.00  0.00    -0.093 SA
ATOM     16  C   UNL d   1      -0.298  -1.018   0.385  0.00  0.00     0.059 A 
ATOM     17  C   UNL d   1       0.814  -0.197   0.499  0.00  0.00    -0.027 A 
ATOM     18  C   UNL d   1       2.145  -0.778   0.851  0.00  0.00     0.051 C 
BRANCH  14  19
ATOM     19  C   UNL d   1      -1.614   2.559  -0.243  0.00  0.00     0.302 C 
ATOM     20  O   UNL d   1      -1.090   3.601  -0.632  0.00  0.00    -0.259 OA
BRANCH  19  21
ATOM     21  O   UNL d   1      -2.895   2.459   0.212  0.00  0.00    -0.322 OA
ATOM     22  C   UNL d   1      -3.577   3.700   0.367  0.00  0.00     0.213 C 
ENDBRANCH  19  21
ENDBRANCH  14  19
ENDBRANCH  10  13
ENDBRANCH   2   9
TORSDOF 4
