REMARK  4 active torsions:
REMARK  status: ('A' for Active; 'I' for Inactive)
REMARK    1  A    between atoms: N_7  and  C_1 
REMARK       I    between atoms: C_6  and  N_8 
REMARK       I    between atoms: N_17  and  C_6 
REMARK    2  A    between atoms: C_10  and  C_20 
REMARK    3  A    between atoms: C_23  and  N_17 
REMARK    4  A    between atoms: C_20  and  C_23 
ROOT
ATOM      1  C   UNL d   1      -3.380   1.998   3.849  0.00  0.00     0.318 C 
ATOM      2  N   UNL d   1      -0.102   2.588   1.041  0.00  0.00     0.105 N 
ATOM      3  N   UNL d   1      -2.260   2.224   3.061  0.00  0.00    -0.331 N 
ATOM      4  C   UNL d   1      -2.496   3.047   1.874  0.00  0.00     0.158 C 
ATOM      5  C   UNL d   1      -1.158   1.263   2.946  0.00  0.00     0.158 C 
ATOM      6  C   UNL d   1       0.097   1.899   2.328  0.00  0.00     0.293 C 
ATOM      7  C   UNL d   1      -1.223   3.531   1.146  0.00  0.00     0.293 C 
ATOM      8  O   UNL d   1      -4.462   2.534   3.632  0.00  0.00    -0.247 OA
ATOM      9  N   UNL d   1      -3.196   1.123   4.893  0.00  0.00    -0.343 N 
ATOM     10  H   UNL d   1      -2.278   1.177   5.301  0.00  0.00     0.164 HD
ENDROOT
BRANCH   2  11
ATOM     11  C   UNL d   1      -0.055   1.762  -0.182  0.00  0.00     0.290 C 
ATOM     12  C   UNL d   1      -1.086   0.643  -0.298  0.00  0.00    -0.009 C 
ATOM     13  C   UNL d   1      -0.456  -0.614  -0.163  0.00  0.00    -0.017 C 
ATOM     14  C   UNL d   1      -2.450   0.730  -0.510  0.00  0.00     0.010 C 
ATOM     15  C   UNL d   1      -1.213  -1.770  -0.052  0.00  0.00     0.013 C 
ATOM     16  C   UNL d   1       0.978  -0.423  -0.178  0.00  0.00    -0.017 A 
ATOM     17  C   UNL d   1      -2.605  -1.663  -0.122  0.00  0.00     0.001 C 
ATOM     18  C   UNL d   1      -3.217  -0.428  -0.384  0.00  0.00     0.001 C 
ATOM     19  C   UNL d   1       1.252   0.964  -0.243  0.00  0.00    -0.009 A 
ATOM     20  C   UNL d   1       2.013  -1.343  -0.167  0.00  0.00     0.013 A 
ATOM     21  C   UNL d   1       2.554   1.441  -0.292  0.00  0.00     0.010 A 
ATOM     22  C   UNL d   1       3.595   0.508  -0.278  0.00  0.00     0.001 A 
ATOM     23  C   UNL d   1       3.327  -0.866  -0.214  0.00  0.00     0.001 A 
ENDBRANCH   2  11
BRANCH   9  24
ATOM     24  C   UNL d   1      -4.284   0.900   5.833  0.00  0.00     0.129 C 
BRANCH  24  25
ATOM     25  C   UNL d   1      -4.150  -0.441   6.548  0.00  0.00     0.066 C 
BRANCH  25  26
ATOM     26  C   UNL d   1      -5.293  -0.675   7.492  0.00  0.00    -0.016 A 
ATOM     27  S   UNL d   1      -5.194  -0.153   9.121  0.00  0.00    -0.106 SA
ATOM     28  C   UNL d   1      -6.761  -0.741   9.471  0.00  0.00     0.050 A 
ATOM     29  C   UNL d   1      -7.351  -1.327   8.374  0.00  0.00     0.008 A 
ATOM     30  C   UNL d   1      -6.503  -1.288   7.229  0.00  0.00     0.015 A 
ENDBRANCH  25  26
ENDBRANCH  24  25
ENDBRANCH   9  24
TORSDOF 4
