REMARK  4 active torsions:
REMARK  status: ('A' for Active; 'I' for Inactive)
REMARK    1  A    between atoms: C_12  and  N_1 
REMARK    2  A    between atoms: C_8  and  C_4 
REMARK    3  A    between atoms: C_11  and  C_5 
REMARK    4  A    between atoms: N_6  and  C_9 
ROOT
ATOM      1  N   UNL d   1       0.136  -1.092  -0.025  0.00  0.00    -0.281 N 
ATOM      2  N   UNL d   1       1.146  -0.177  -0.020  0.00  0.00    -0.301 N 
ATOM      3  HN  UNL d   1       2.146  -0.378  -0.018  1.00  0.00     0.187 HD
ATOM      4  C   UNL d   1      -1.202  -0.490   0.039  0.00  0.00     0.171 A 
ATOM      5  C   UNL d   1       0.597   0.998  -0.018  0.00  0.00     0.038 A 
ATOM      6  C   UNL d   1      -0.905   1.009  -0.014  0.00  0.00     0.093 A 
ENDROOT
BRANCH   5   7
ATOM      7  C   UNL d   1       1.383   2.255  -0.027  0.00  0.00    -0.012 A 
ATOM      8  C   UNL d   1       2.783   2.180  -0.067  0.00  0.00     0.016 A 
ATOM      9  C   UNL d   1       3.556   3.345  -0.070  0.00  0.00     0.037 A 
ATOM     10  C   UNL d   1       2.921   4.592  -0.032  0.00  0.00     0.102 A 
ATOM     11  C   UNL d   1       1.522   4.677   0.003  0.00  0.00     0.037 A 
ATOM     12  C   UNL d   1       0.756   3.507   0.004  0.00  0.00     0.016 A 
BRANCH  10  13
ATOM     13  N   UNL d   1       3.723   5.822  -0.028  0.00  0.00    -0.116 N 
ATOM     14  O   UNL d   1       4.957   5.705  -0.050  0.00  0.00    -0.532 OA
ATOM     15  O   UNL d   1       3.119   6.902  -0.001  0.00  0.00    -0.532 OA
ENDBRANCH  10  13
ENDBRANCH   5   7
BRANCH   1  16
ATOM     16  C   UNL d   1       0.399  -2.461   0.048  0.00  0.00     0.051 A 
ATOM     17  C   UNL d   1       1.712  -2.940   0.185  0.00  0.00     0.031 A 
ATOM     18  C   UNL d   1       1.989  -4.306   0.307  0.00  0.00     0.002 A 
ATOM     19  C   UNL d   1       0.951  -5.232   0.292  0.00  0.00     0.000 A 
ATOM     20  C   UNL d   1      -0.357  -4.791   0.137  0.00  0.00     0.002 A 
ATOM     21  C   UNL d   1      -0.624  -3.424   0.006  0.00  0.00     0.031 A 
ENDBRANCH   1  16
BRANCH   4  22
ATOM     22  C   UNL d   1      -2.016  -0.818   1.252  0.00  0.00     0.077 A 
ATOM     23  O   UNL d   1      -3.369  -0.884   1.081  0.00  0.00    -0.325 OA
ATOM     24  C   UNL d   1      -3.898  -1.267   2.272  0.00  0.00     0.142 A 
ATOM     25  C   UNL d   1      -2.907  -1.433   3.210  0.00  0.00     0.027 A 
ATOM     26  C   UNL d   1      -1.690  -1.136   2.556  0.00  0.00     0.037 A 
ENDBRANCH   4  22
TORSDOF 4
