REMARK  4 active torsions:
REMARK  status: ('A' for Active; 'I' for Inactive)
REMARK    1  A    between atoms: C_2  and  C_1 
REMARK    2  A    between atoms: C_4  and  C_2 
REMARK    3  A    between atoms: C_10  and  C_8 
REMARK    4  A    between atoms: O_13  and  C_10 
ROOT
ATOM      1  C   UNL d   1      -2.850  -0.537  -0.271  0.00  0.00     0.194 C 
ATOM      2  O   UNL d   1      -3.525   0.346  -0.800  0.00  0.00    -0.287 OA
ENDROOT
BRANCH   1   3
ATOM      3  C   UNL d   1      -1.352  -0.424  -0.278  0.00  0.00     0.022 A 
ATOM      4  C   UNL d   1      -0.665   0.801  -0.130  0.00  0.00    -0.041 A 
ATOM      5  C   UNL d   1       0.762   0.787  -0.072  0.00  0.00    -0.049 A 
ATOM      6  C   UNL d   1      -1.378   2.132  -0.047  0.00  0.00     0.049 C 
ATOM      7  C   UNL d   1       1.553   2.077   0.046  0.00  0.00     0.049 C 
ATOM      8  C   UNL d   1       1.483  -0.445  -0.122  0.00  0.00    -0.050 A 
ATOM      9  C   UNL d   1       0.784  -1.647  -0.330  0.00  0.00    -0.055 A 
ATOM     10  C   UNL d   1       2.989  -0.413   0.023  0.00  0.00     0.049 C 
ATOM     11  C   UNL d   1      -0.617  -1.609  -0.441  0.00  0.00     0.023 A 
ATOM     12  C   UNL d   1       1.417  -3.014  -0.362  0.00  0.00     0.049 C 
ENDBRANCH   1   3
BRANCH   1  13
ATOM     13  C   UNL d   1      -3.579  -1.684   0.364  0.00  0.00     0.032 A 
ATOM     14  C   UNL d   1      -4.876  -2.083  -0.021  0.00  0.00     0.051 A 
ATOM     15  C   UNL d   1      -5.435  -3.241   0.568  0.00  0.00     0.019 A 
ATOM     16  C   UNL d   1      -4.741  -3.990   1.516  0.00  0.00     0.001 A 
ATOM     17  C   UNL d   1      -3.489  -3.569   1.932  0.00  0.00     0.001 A 
ATOM     18  C   UNL d   1      -2.929  -2.411   1.387  0.00  0.00     0.016 A 
BRANCH  14  19
ATOM     19  C   UNL d   1      -5.770  -1.458  -1.045  0.00  0.00     0.177 C 
ATOM     20  O   UNL d   1      -6.527  -2.145  -1.717  0.00  0.00    -0.646 OA
BRANCH  19  21
ATOM     21  O   UNL d   1      -5.861  -0.117  -1.035  0.00  0.00    -0.773 OA
ATOM     22  H   UNL d   1      -5.018   0.330  -0.782  0.00  0.00     0.167 HD
ENDBRANCH  19  21
ENDBRANCH  14  19
ENDBRANCH   1  13
TORSDOF 4
