REMARK  3 active torsions:
REMARK  status: ('A' for Active; 'I' for Inactive)
REMARK    1  A    between atoms: C_8  and  C_3 
REMARK    2  A    between atoms: N_11  and  C_4 
REMARK    3  A    between atoms: O_12  and  C_8 
ROOT
ATOM      1  N   UNL d   1      -0.767   1.165   0.073  0.00  0.00    -0.304 N 
ATOM      2  HN  UNL d   1      -1.222   2.075   0.149  1.00  0.00     0.171 HD
ATOM      3  C   UNL d   1       0.714  -1.338  -0.004  0.00  0.00     0.088 A 
ATOM      4  C   UNL d   1      -1.515   0.119   0.088  0.00  0.00     0.145 A 
ATOM      5  C   UNL d   1       1.310  -0.144  -0.002  0.00  0.00     0.099 A 
ATOM      6  S   UNL d   1      -0.989  -1.526  -0.042  0.00  0.00    -0.048 SA
ATOM      7  C   UNL d   1       0.592   1.141  -0.039  0.00  0.00     0.248 A 
ATOM      8  O   UNL d   1       1.261   2.163  -0.147  0.00  0.00    -0.268 OA
ENDROOT
BRANCH   3   9
ATOM      9  C   UNL d   1       1.600  -2.539   0.013  0.00  0.00     0.300 C 
ATOM     10  O   UNL d   1       2.823  -2.478   0.026  0.00  0.00    -0.259 OA
BRANCH   9  11
ATOM     11  O   UNL d   1       0.883  -3.692   0.006  0.00  0.00    -0.322 OA
ATOM     12  C   UNL d   1       1.671  -4.884   0.016  0.00  0.00     0.213 C 
ENDBRANCH   9  11
ENDBRANCH   3   9
BRANCH   4  13
ATOM     13  N   UNL d   1      -2.863   0.245   0.191  0.00  0.00    -0.380 N 
ATOM     14  H   UNL d   1      -3.207   1.168  -0.052  0.00  0.00     0.158 HD
ATOM     15  H   UNL d   1      -3.408  -0.524  -0.178  0.00  0.00     0.158 HD
ENDBRANCH   4  13
TORSDOF 3
