REMARK  3 active torsions:
REMARK  status: ('A' for Active; 'I' for Inactive)
REMARK    1  A    between atoms: N_9  and  C_1 
REMARK       I    between atoms: C_4  and  N_7 
REMARK       I    between atoms: N_10  and  C_4 
REMARK    2  A    between atoms: C_8  and  C_11 
REMARK    3  A    between atoms: C_17  and  N_10 
ROOT
ATOM      1  C   UNL d   1      -3.336   2.020   3.811  0.00  0.00     0.323 C 
ATOM      2  N   UNL d   1      -2.226   2.359   3.026  0.00  0.00    -0.331 N 
ATOM      3  N   UNL d   1       0.082   2.507   1.139  0.00  0.00     0.105 N 
ATOM      4  N   UNL d   1      -4.393   2.901   3.747  0.00  0.00    -0.309 N 
ATOM      5  O   UNL d   1      -3.330   1.003   4.502  0.00  0.00    -0.247 OA
ATOM      6  C   UNL d   1      -1.191   1.324   2.979  0.00  0.00     0.158 C 
ATOM      7  C   UNL d   1      -2.281   3.261   1.870  0.00  0.00     0.158 C 
ATOM      8  C   UNL d   1      -0.919   3.575   1.195  0.00  0.00     0.293 C 
ATOM      9  C   UNL d   1       0.148   1.832   2.446  0.00  0.00     0.293 C 
ATOM     10  H   UNL d   1      -4.255   3.740   3.215  0.00  0.00     0.170 HD
ENDROOT
BRANCH   4  11
ATOM     11  C   UNL d   1      -5.641   2.794   4.400  0.00  0.00     0.037 A 
ATOM     12  C   UNL d   1      -6.014   1.716   5.209  0.00  0.00     0.045 A 
ATOM     13  C   UNL d   1      -7.291   1.653   5.793  0.00  0.00     0.050 A 
ATOM     14  C   UNL d   1      -8.193   2.702   5.572  0.00  0.00     0.016 A 
ATOM     15  C   UNL d   1      -7.826   3.790   4.783  0.00  0.00     0.003 A 
ATOM     16  C   UNL d   1      -6.558   3.833   4.199  0.00  0.00     0.029 A 
BRANCH  13  17
ATOM     17  C   UNL d   1      -7.703   0.466   6.628  0.00  0.00     0.417 C 
ATOM     18  F   UNL d   1      -6.738  -0.485   6.763  0.00  0.00    -0.166 F 
ATOM     19  F   UNL d   1      -8.059   0.818   7.894  0.00  0.00    -0.166 F 
ATOM     20  F   UNL d   1      -8.785  -0.178   6.105  0.00  0.00    -0.166 F 
ENDBRANCH  13  17
ENDBRANCH   4  11
BRANCH   3  21
ATOM     21  C   UNL d   1       0.078   1.657  -0.067  0.00  0.00     0.290 C 
ATOM     22  C   UNL d   1       1.182   0.593  -0.004  0.00  0.00    -0.009 A 
ATOM     23  C   UNL d   1       0.613  -0.698   0.011  0.00  0.00    -0.017 A 
ATOM     24  C   UNL d   1       2.554   0.782   0.102  0.00  0.00     0.010 A 
ATOM     25  C   UNL d   1       1.418  -1.817   0.143  0.00  0.00     0.013 A 
ATOM     26  C   UNL d   1      -0.819  -0.580  -0.157  0.00  0.00    -0.017 C 
ATOM     27  C   UNL d   1       2.800  -1.634   0.260  0.00  0.00     0.001 A 
ATOM     28  C   UNL d   1       3.362  -0.347   0.236  0.00  0.00     0.001 A 
ATOM     29  C   UNL d   1      -1.149   0.784  -0.314  0.00  0.00    -0.009 C 
ATOM     30  C   UNL d   1      -1.800  -1.556  -0.218  0.00  0.00     0.013 C 
ATOM     31  C   UNL d   1      -2.427   1.158  -0.704  0.00  0.00     0.010 C 
ATOM     32  C   UNL d   1      -3.417   0.176  -0.771  0.00  0.00     0.001 C 
ATOM     33  C   UNL d   1      -3.113  -1.165  -0.498  0.00  0.00     0.001 C 
ENDBRANCH   3  21
TORSDOF 3
