REMARK  5 active torsions:
REMARK  status: ('A' for Active; 'I' for Inactive)
REMARK    1  A    between atoms: C_7  and  C_1 
REMARK       I    between atoms: N_9  and  C_7 
REMARK    2  A    between atoms: C_8  and  N_11 
REMARK    3  A    between atoms: N_17  and  C_8 
REMARK    4  A    between atoms: N_11  and  N_9 
REMARK    5  A    between atoms: C_19  and  N_17 
ROOT
ATOM      1  C   UNL d   1       2.023  -2.454   0.155  0.00  0.00     0.289 C 
ATOM      2  N   UNL d   1       1.240  -3.557   0.427  0.00  0.00    -0.262 N 
ATOM      3  O   UNL d   1       3.236  -2.547  -0.022  0.00  0.00    -0.264 OA
ATOM      4  H   UNL d   1       0.266  -3.483   0.708  0.00  0.00     0.190 HD
ENDROOT
BRANCH   1   5
ATOM      5  C   UNL d   1       1.288  -1.217   0.098  0.00  0.00     0.132 A 
ATOM      6  N   UNL d   1       1.744   0.013   0.541  0.00  0.00    -0.302 N 
ATOM      7  C   UNL d   1       0.726   0.932   0.292  0.00  0.00     0.112 A 
ATOM      8  C   UNL d   1       2.950   0.376   1.150  0.00  0.00     0.099 A 
ATOM      9  C   UNL d   1       0.946   2.284   0.682  0.00  0.00     0.049 A 
ATOM     10  N   UNL d   1      -0.305   0.369  -0.294  0.00  0.00    -0.344 N 
ATOM     11  C   UNL d   1       2.104   2.633   1.266  0.00  0.00     0.005 A 
ATOM     12  C   UNL d   1       3.152   1.653   1.516  0.00  0.00     0.018 A 
ATOM     13  C   UNL d   1       0.035  -0.952  -0.448  0.00  0.00     0.040 A 
ATOM     14  HN  UNL d   1      -1.176   0.819  -0.577  1.00  0.00     0.167 HD
ATOM     15  C   UNL d   1      -0.892  -1.853  -1.177  0.00  0.00     0.071 C 
ENDBRANCH   1   5
BRANCH   2  16
ATOM     16  N   UNL d   1       1.766  -4.850   0.321  0.00  0.00    -0.274 N 
ATOM     17  H   UNL d   1       2.685  -4.926  -0.108  0.00  0.00     0.189 HD
BRANCH  16  18
ATOM     18  C   UNL d   1       0.990  -5.948   0.658  0.00  0.00     0.186 C 
ATOM     19  S   UNL d   1      -0.399  -5.830   1.591  0.00  0.00    -0.040 SA
BRANCH  18  20
ATOM     20  N   UNL d   1       1.481  -7.111   0.104  0.00  0.00    -0.366 N 
ATOM     21  H   UNL d   1       2.248  -7.010  -0.548  0.00  0.00     0.161 HD
BRANCH  20  22
ATOM     22  C   UNL d   1       0.793  -8.398   0.057  0.00  0.00     0.117 C 
ATOM     23  C   UNL d   1      -0.160  -8.473  -1.125  0.00  0.00     0.026 C 
ENDBRANCH  20  22
ENDBRANCH  18  20
ENDBRANCH  16  18
ENDBRANCH   2  16
TORSDOF 5
