REMARK  6 active torsions:
REMARK  status: ('A' for Active; 'I' for Inactive)
REMARK       I    between atoms: C_6  and  N_2 
REMARK       I    between atoms: N_11  and  C_6 
REMARK    1  A    between atoms: S_12  and  C_7 
REMARK    2  A    between atoms: N_10  and  C_13 
REMARK    3  A    between atoms: C_28  and  N_11 
REMARK    4  A    between atoms: C_19  and  S_12 
REMARK    5  A    between atoms: C_16  and  C_19 
REMARK    6  A    between atoms: C_18  and  C_16 
ROOT
ATOM      1  C   UNL d   1       0.193   0.697   0.199  0.00  0.00     0.707 A 
ATOM      2  N   UNL d   1      -0.820   1.645   0.165  0.00  0.00    -0.131 N 
ATOM      3  N   UNL d   1      -0.105  -0.643   0.136  0.00  0.00    -0.159 N 
ATOM      4  N   UNL d   1       1.500   0.835   0.272  0.00  0.00    -0.129 N 
ATOM      5  HN  UNL d   1       2.009   1.719   0.314  1.00  0.00     0.205 HD
ATOM      6  C   UNL d   1      -0.581   3.020   0.053  0.00  0.00     0.341 C 
ATOM      7  C   UNL d   1       1.084  -1.301   0.181  0.00  0.00     0.177 A 
ATOM      8  N   UNL d   1       2.062  -0.429   0.280  0.00  0.00    -0.265 N 
ATOM      9  HN  UNL d   1       3.057  -0.645   0.350  1.00  0.00     0.189 HD
ATOM     10  N   UNL d   1       0.714   3.393  -0.233  0.00  0.00    -0.308 N 
ATOM     11  O   UNL d   1      -1.520   3.813   0.144  0.00  0.00    -0.246 OA
ATOM     12  C   UNL d   1      -1.446  -1.170   0.013  0.00  0.00     0.151 C 
ATOM     13  C   UNL d   1      -2.211   1.199   0.284  0.00  0.00     0.154 C 
ATOM     14  C   UNL d   1      -2.427  -0.108  -0.472  0.00  0.00     0.042 C 
ATOM     15  H   UNL d   1       1.425   2.684  -0.083  0.00  0.00     0.170 HD
ENDROOT
BRANCH   7  16
ATOM     16  S   UNL d   1       1.211  -3.019   0.083  0.00  0.00    -0.084 SA
BRANCH  16  17
ATOM     17  C   UNL d   1       2.989  -3.250   0.343  0.00  0.00     0.166 C 
BRANCH  17  18
ATOM     18  C   UNL d   1       3.437  -4.673   0.035  0.00  0.00     0.169 C 
ATOM     19  O   UNL d   1       2.712  -5.531  -0.463  0.00  0.00    -0.291 OA
BRANCH  18  20
ATOM     20  C   UNL d   1       4.858  -5.038   0.345  0.00  0.00     0.011 A 
ATOM     21  C   UNL d   1       5.760  -4.117   0.900  0.00  0.00     0.017 A 
ATOM     22  C   UNL d   1       7.075  -4.503   1.191  0.00  0.00     0.037 A 
ATOM     23  C   UNL d   1       7.493  -5.811   0.921  0.00  0.00     0.102 A 
ATOM     24  C   UNL d   1       6.606  -6.736   0.357  0.00  0.00     0.037 A 
ATOM     25  C   UNL d   1       5.292  -6.345   0.072  0.00  0.00     0.017 A 
BRANCH  23  26
ATOM     26  N   UNL d   1       8.870  -6.213   1.236  0.00  0.00    -0.116 N 
ATOM     27  O   UNL d   1       9.615  -5.361   1.740  0.00  0.00    -0.532 OA
ATOM     28  O   UNL d   1       9.204  -7.378   0.979  0.00  0.00    -0.532 OA
ENDBRANCH  23  26
ENDBRANCH  18  20
ENDBRANCH  17  18
ENDBRANCH  16  17
ENDBRANCH   7  16
BRANCH  10  29
ATOM     29  C   UNL d   1       1.163   4.655  -0.684  0.00  0.00     0.036 A 
ATOM     30  C   UNL d   1       0.313   5.713  -1.019  0.00  0.00     0.029 A 
ATOM     31  C   UNL d   1       0.827   6.917  -1.512  0.00  0.00     0.002 A 
ATOM     32  C   UNL d   1       2.199   7.077  -1.675  0.00  0.00     0.000 A 
ATOM     33  C   UNL d   1       3.058   6.033  -1.341  0.00  0.00     0.002 A 
ATOM     34  C   UNL d   1       2.543   4.829  -0.850  0.00  0.00     0.029 A 
ENDBRANCH  10  29
TORSDOF 6
