REMARK  4 active torsions:
REMARK  status: ('A' for Active; 'I' for Inactive)
REMARK    1  A    between atoms: C_3  and  C_1 
REMARK    2  A    between atoms: O_11  and  C_2 
REMARK       I    between atoms: N_6  and  C_3 
REMARK    3  A    between atoms: C_8  and  N_6 
REMARK    4  A    between atoms: C_14  and  C_10 
ROOT
ATOM      1  C   UNL d   1       3.827  -4.259   0.667  0.00  0.00     0.266 C 
ATOM      2  N   UNL d   1       2.784  -3.578   0.053  0.00  0.00    -0.322 N 
ATOM      3  O   UNL d   1       3.853  -5.476   0.837  0.00  0.00    -0.267 OA
ATOM      4  H   UNL d   1       2.991  -2.648  -0.276  0.00  0.00     0.169 HD
ENDROOT
BRANCH   1   5
ATOM      5  C   UNL d   1       4.930  -3.408   1.087  0.00  0.00     0.107 A 
ATOM      6  C   UNL d   1       6.286  -3.562   0.837  0.00  0.00     0.108 A 
ATOM      7  C   UNL d   1       7.049  -2.605   1.575  0.00  0.00     0.052 A 
ATOM      8 BR   UNL d   1       8.932  -2.394   1.554  0.00  0.00    -0.048 Br
ATOM      9  C   UNL d   1       6.266  -1.767   2.336  0.00  0.00     0.072 A 
ATOM     10  S   UNL d   1       4.605  -2.095   2.140  0.00  0.00    -0.092 SA
BRANCH   6  11
ATOM     11  O   UNL d   1       6.666  -4.490  -0.082  0.00  0.00    -0.353 OA
ATOM     12  C   UNL d   1       7.878  -5.176   0.184  0.00  0.00     0.210 C 
ENDBRANCH   6  11
ENDBRANCH   1   5
BRANCH   2  13
ATOM     13  C   UNL d   1       1.512  -4.114  -0.242  0.00  0.00     0.041 A 
ATOM     14  C   UNL d   1       0.735  -3.568  -1.285  0.00  0.00    -0.032 A 
ATOM     15  C   UNL d   1      -0.564  -4.071  -1.502  0.00  0.00     0.009 A 
ATOM     16  C   UNL d   1      -1.083  -5.095  -0.712  0.00  0.00     0.001 A 
ATOM     17  C   UNL d   1      -0.311  -5.636   0.308  0.00  0.00     0.002 A 
ATOM     18  C   UNL d   1       0.977  -5.150   0.538  0.00  0.00     0.030 A 
BRANCH  14  19
ATOM     19  C   UNL d   1       1.247  -2.513  -2.240  0.00  0.00     0.036 C 
ATOM     20  C   UNL d   1       0.738  -1.121  -1.905  0.00  0.00     0.010 C 
ENDBRANCH  14  19
ENDBRANCH   2  13
TORSDOF 4
