REMARK  2 active torsions:
REMARK  status: ('A' for Active; 'I' for Inactive)
REMARK    1  A    between atoms: C_11  and  C_4 
REMARK    2  A    between atoms: N_17  and  C_5 
ROOT
ATOM      1  C   UNL d   1      -0.226  -0.597   0.004  0.00  0.00     0.173 A 
ATOM      2  C   UNL d   1      -0.284   0.771   0.048  0.00  0.00     0.032 A 
ATOM      3  C   UNL d   1       2.188   0.640  -0.157  0.00  0.00     0.081 A 
ATOM      4  C   UNL d   1       0.975   1.580   0.021  0.00  0.00     0.112 A 
ATOM      5  C   UNL d   1       2.080  -0.716  -0.219  0.00  0.00     0.140 A 
ATOM      6  O   UNL d   1       0.845  -1.372  -0.091  0.00  0.00    -0.279 OA
ATOM      7  N   UNL d   1      -1.502  -1.055   0.050  0.00  0.00    -0.279 N 
ATOM      8  N   UNL d   1      -2.408  -0.060   0.105  0.00  0.00    -0.303 N 
ATOM      9  HN  UNL d   1      -3.424  -0.141   0.145  1.00  0.00     0.186 HD
ATOM     10  C   UNL d   1      -1.671   1.064   0.094  0.00  0.00     0.033 A 
ATOM     11  C   UNL d   1       3.469   1.258  -0.275  0.00  0.00     0.100 C 
ATOM     12  N   UNL d   1       4.520   1.741  -0.363  0.00  0.00    -0.191 NA
ATOM     13  C   UNL d   1      -2.361   2.378   0.101  0.00  0.00     0.070 C 
ATOM     14  H   UNL d   1      -1.828  -2.014   0.033  0.00  0.00     0.189 HD
ENDROOT
BRANCH   5  15
ATOM     15  N   UNL d   1       3.122  -1.593  -0.414  0.00  0.00    -0.282 NA
ATOM     16  H   UNL d   1       4.050  -1.250  -0.178  0.00  0.00     0.126 HD
ATOM     17  H   UNL d   1       2.926  -2.522  -0.052  0.00  0.00     0.126 HD
ENDBRANCH   5  15
BRANCH   4  18
ATOM     18  C   UNL d   1       0.913   2.677  -1.019  0.00  0.00    -0.004 A 
ATOM     19  S   UNL d   1       1.079   4.320  -0.555  0.00  0.00    -0.105 SA
ATOM     20  C   UNL d   1       0.954   4.860  -2.167  0.00  0.00     0.050 A 
ATOM     21  C   UNL d   1       0.802   3.818  -3.052  0.00  0.00     0.008 A 
ATOM     22  C   UNL d   1       0.774   2.557  -2.393  0.00  0.00     0.016 A 
ENDBRANCH   4  18
TORSDOF 2
