REMARK  4 active torsions:
REMARK  status: ('A' for Active; 'I' for Inactive)
REMARK    1  A    between atoms: C_4  and  C_1 
REMARK       I    between atoms: N_10  and  C_4 
REMARK    2  A    between atoms: N_7  and  N_10 
REMARK    3  A    between atoms: O_20  and  C_12 
REMARK    4  A    between atoms: C_17  and  C_16 
ROOT
ATOM      1  C   UNL d   1       3.892  -0.165   0.013  0.00  0.00     0.278 C 
ATOM      2  N   UNL d   1       4.693  -1.298  -0.140  0.00  0.00    -0.266 N 
ATOM      3  O   UNL d   1       2.669  -0.230  -0.125  0.00  0.00    -0.265 OA
ATOM      4  H   UNL d   1       5.700  -1.247  -0.031  0.00  0.00     0.190 HD
ENDROOT
BRANCH   2   5
ATOM      5  N   UNL d   1       4.094  -2.502  -0.373  0.00  0.00    -0.308 N 
ATOM      6  C   UNL d   1       4.861  -3.534  -0.511  0.00  0.00     0.118 C 
ATOM      7  HN  UNL d   1       3.079  -2.584  -0.436  1.00  0.00     0.186 HD
BRANCH   6   8
ATOM      8  C   UNL d   1       4.277  -4.878  -0.726  0.00  0.00    -0.018 A 
ATOM      9  C   UNL d   1       5.124  -5.980  -0.859  0.00  0.00     0.039 A 
ATOM     10  C   UNL d   1       4.571  -7.253  -1.031  0.00  0.00     0.068 A 
ATOM     11 CL   UNL d   1       5.642  -8.599  -1.184  0.00  0.00    -0.081 Cl
ATOM     12  C   UNL d   1       3.182  -7.422  -1.067  0.00  0.00     0.087 A 
ATOM     13  C   UNL d   1       2.338  -6.319  -0.947  0.00  0.00     0.039 A 
ATOM     14  C   UNL d   1       2.887  -5.046  -0.776  0.00  0.00     0.015 A 
BRANCH  12  15
ATOM     15  O   UNL d   1       2.647  -8.671  -1.218  0.00  0.00    -0.359 OA
ATOM     16  H   UNL d   1       1.678  -8.619  -1.157  0.00  0.00     0.217 HD
ENDBRANCH  12  15
ENDBRANCH   6   8
ENDBRANCH   2   5
BRANCH   1  17
ATOM     17  C   UNL d   1       4.581   1.081   0.347  0.00  0.00     0.097 A 
ATOM     18  S   UNL d   1       3.598   2.475   0.561  0.00  0.00    -0.082 SA
ATOM     19  C   UNL d   1       4.926   3.488   0.934  0.00  0.00     0.017 A 
ATOM     20  C   UNL d   1       4.873   4.866   1.230  0.00  0.00     0.020 A 
ATOM     21  C   UNL d   1       6.128   2.780   0.919  0.00  0.00     0.004 A 
ATOM     22  C   UNL d   1       6.054   5.540   1.539  0.00  0.00     0.001 A 
ATOM     23  C   UNL d   1       7.262   4.861   1.562  0.00  0.00     0.001 A 
ATOM     24  C   UNL d   1       7.311   3.496   1.253  0.00  0.00     0.014 A 
ATOM     25  C   UNL d   1       5.914   1.399   0.538  0.00  0.00     0.068 A 
ATOM     26 CL   UNL d   1       7.245   0.318   0.365  0.00  0.00    -0.082 Cl
ENDBRANCH   1  17
TORSDOF 4
