REMARK  7 active torsions:
REMARK  status: ('A' for Active; 'I' for Inactive)
REMARK    1  A    between atoms: C_10  and  C_2 
REMARK    2  A    between atoms: C_11  and  C_9 
REMARK    3  A    between atoms: O_16  and  C_11 
REMARK    4  A    between atoms: C_12  and  C_17 
REMARK    5  A    between atoms: N_13  and  O_16 
REMARK    6  A    between atoms: C_18  and  C_15 
REMARK    7  A    between atoms: N_30  and  C_15 
ROOT
ATOM      1  O   UNL d   1       2.023   2.880  -0.043  0.00  0.00    -0.193 OA
ENDROOT
BRANCH   1   2
ATOM      2  N   UNL d   1       3.431   2.957  -0.159  0.00  0.00    -0.246 N 
ATOM      3  C   UNL d   1       3.842   4.198  -0.123  0.00  0.00     0.109 C 
ATOM      4  HN  UNL d   1       4.047   2.149  -0.257  1.00  0.00     0.196 HD
BRANCH   3   5
ATOM      5  C   UNL d   1       5.316   4.458  -0.222  0.00  0.00     0.004 A 
ATOM      6  C   UNL d   1       6.139   3.558  -0.908  0.00  0.00     0.015 A 
ATOM      7  C   UNL d   1       7.513   3.801  -1.010  0.00  0.00     0.017 A 
ATOM      8  C   UNL d   1       8.086   4.941  -0.426  0.00  0.00     0.048 A 
ATOM      9  C   UNL d   1       7.255   5.839   0.263  0.00  0.00     0.017 A 
ATOM     10  C   UNL d   1       5.878   5.599   0.362  0.00  0.00     0.015 A 
BRANCH   8  11
ATOM     11  C   UNL d   1       9.571   5.202  -0.530  0.00  0.00     0.417 C 
ATOM     12  F   UNL d   1      10.245   4.248  -1.232  0.00  0.00    -0.166 F 
ATOM     13  F   UNL d   1       9.848   6.383  -1.151  0.00  0.00    -0.166 F 
ATOM     14  F   UNL d   1      10.178   5.269   0.687  0.00  0.00    -0.166 F 
ENDBRANCH   8  11
ENDBRANCH   3   5
BRANCH   3  15
ATOM     15  N   UNL d   1       3.000   5.283  -0.024  0.00  0.00    -0.286 NA
ATOM     16  H   UNL d   1       2.035   5.054  -0.233  0.00  0.00     0.125 HD
ATOM     17  H   UNL d   1       3.309   6.119  -0.499  0.00  0.00     0.125 HD
ENDBRANCH   3  15
ENDBRANCH   1   2
BRANCH   1  18
ATOM     18  C   UNL d   1       1.566   1.574  -0.023  0.00  0.00     0.322 C 
ATOM     19  O   UNL d   1       2.261   0.567  -0.123  0.00  0.00    -0.257 OA
BRANCH  18  20
ATOM     20  C   UNL d   1       0.106   1.551   0.115  0.00  0.00     0.085 A 
ATOM     21  C   UNL d   1      -0.768   0.447   0.148  0.00  0.00     0.042 A 
ATOM     22  C   UNL d   1      -2.090   0.895   0.278  0.00  0.00     0.034 A 
ATOM     23  C   UNL d   1      -3.385   0.362   0.360  0.00  0.00     0.145 A 
ATOM     24  C   UNL d   1      -2.199   2.226   0.351  0.00  0.00     0.104 A 
ATOM     25  N   UNL d   1      -4.273   1.395   0.486  0.00  0.00    -0.293 N 
ATOM     26  N   UNL d   1      -3.506   2.518   0.480  0.00  0.00    -0.288 N 
ATOM     27  HN  UNL d   1      -5.288   1.336   0.567  1.00  0.00     0.187 HD
ATOM     28  C   UNL d   1      -4.111   3.819   0.608  0.00  0.00     0.178 C 
ATOM     29  S   UNL d   1      -0.776   3.058   0.266  0.00  0.00    -0.064 SA
BRANCH  23  30
ATOM     30  C   UNL d   1      -3.853  -1.065   0.325  0.00  0.00     0.434 C 
ATOM     31  F   UNL d   1      -2.829  -1.949   0.185  0.00  0.00    -0.165 F 
ATOM     32  F   UNL d   1      -4.513  -1.420   1.462  0.00  0.00    -0.165 F 
ATOM     33  F   UNL d   1      -4.708  -1.304  -0.708  0.00  0.00    -0.165 F 
ENDBRANCH  23  30
ENDBRANCH  18  20
ENDBRANCH   1  18
TORSDOF 7
