REMARK  7 active torsions:
REMARK  status: ('A' for Active; 'I' for Inactive)
REMARK    1  A    between atoms: C_4  and  C_1 
REMARK    2  A    between atoms: C_2  and  C_15 
REMARK    3  A    between atoms: C_7  and  C_6 
REMARK    4  A    between atoms: O_26  and  C_7 
REMARK    5  A    between atoms: S_16  and  C_12 
REMARK    6  A    between atoms: C_15  and  S_16 
REMARK    7  A    between atoms: C_27  and  O_26 
ROOT
ATOM      1  C   UNL d   1      -0.531   7.891   1.930  0.00  0.00    -0.013 A 
ATOM      2  C   UNL d   1      -2.168   9.351   3.017  0.00  0.00     0.001 A 
ATOM      3  C   UNL d   1      -1.723   8.069   2.656  0.00  0.00     0.087 A 
ATOM      4  C   UNL d   1      -0.235  10.326   1.931  0.00  0.00     0.040 A 
ATOM      5  C   UNL d   1      -1.408  10.470   2.676  0.00  0.00     0.029 A 
ATOM      6  C   UNL d   1       0.183   9.043   1.546  0.00  0.00     0.028 A 
ATOM      7  O   UNL d   1      -2.459   6.955   2.971  0.00  0.00    -0.325 OA
ATOM      8  O   UNL d   1      -4.254   8.357   3.674  0.00  0.00    -0.362 OA
ATOM      9  C   UNL d   1      -3.471   7.204   3.946  0.00  0.00     0.345 C 
ATOM     10  C   UNL d   1      -3.445   9.519   3.785  0.00  0.00     0.212 C 
ENDROOT
BRANCH   1  11
ATOM     11  C   UNL d   1      -0.067   6.505   1.499  0.00  0.00     0.122 C 
BRANCH  11  12
ATOM     12  S   UNL d   1       1.736   6.268   1.733  0.00  0.00    -0.108 SA
BRANCH  12  13
ATOM     13  C   UNL d   1       2.006   4.683   0.962  0.00  0.00     0.069 A 
ATOM     14  C   UNL d   1       3.318   4.246   0.818  0.00  0.00     0.038 A 
ATOM     15  C   UNL d   1       3.559   3.000   0.241  0.00  0.00     0.020 A 
ATOM     16  C   UNL d   1       2.485   2.215  -0.179  0.00  0.00     0.063 A 
ATOM     17  C   UNL d   1       1.211   2.735   0.002  0.00  0.00     0.105 A 
ATOM     18  N   UNL d   1       0.950   3.946   0.560  0.00  0.00    -0.360 N 
ATOM     19  HN  UNL d   1      -0.006   4.285   0.669  1.00  0.00     0.166 HD
BRANCH  16  20
ATOM     20  C   UNL d   1       2.698   0.867  -0.798  0.00  0.00     0.418 C 
ATOM     21  F   UNL d   1       1.544   0.227  -1.129  0.00  0.00    -0.166 F 
ATOM     22  F   UNL d   1       3.373   0.017   0.026  0.00  0.00    -0.166 F 
ATOM     23  F   UNL d   1       3.430   0.932  -1.943  0.00  0.00    -0.166 F 
ENDBRANCH  16  20
ENDBRANCH  12  13
ENDBRANCH  11  12
ENDBRANCH   1  11
BRANCH   4  24
ATOM     24  C   UNL d   1       0.474  11.564   1.518  0.00  0.00     0.293 C 
ATOM     25  O   UNL d   1       0.087  12.685   1.804  0.00  0.00    -0.259 OA
BRANCH  24  26
ATOM     26  O   UNL d   1       1.519  11.261   0.710  0.00  0.00    -0.318 OA
BRANCH  26  27
ATOM     27  C   UNL d   1       2.008  12.348  -0.085  0.00  0.00     0.174 C 
ATOM     28  C   UNL d   1       1.214  12.371  -1.379  0.00  0.00     0.034 C 
ENDBRANCH  26  27
ENDBRANCH  24  26
ENDBRANCH   4  24
TORSDOF 7
