REMARK  4 active torsions:
REMARK  status: ('A' for Active; 'I' for Inactive)
REMARK    1  A    between atoms: C_13  and  N_4 
REMARK    2  A    between atoms: C_14  and  N_5 
REMARK    3  A    between atoms: C_16  and  N_7 
REMARK    4  A    between atoms: C_17  and  C_11 
ROOT
ATOM      1  C   UNL d   1      -0.900  -0.792  -0.122  0.00  0.00     0.147 C 
ATOM      2  C   UNL d   1      -1.618  -1.776  -0.737  0.00  0.00     0.132 C 
ATOM      3  C   UNL d   1      -0.186   0.756   1.450  0.00  0.00     0.193 C 
ATOM      4  N   UNL d   1       0.738  -0.281   1.418  0.00  0.00    -0.252 N 
ATOM      5  N   UNL d   1      -1.184   0.474   0.433  0.00  0.00    -0.280 N 
ATOM      6  C   UNL d   1       0.550  -1.043   0.296  0.00  0.00     0.284 C 
ATOM      7  N   UNL d   1      -2.975  -1.970  -1.073  0.00  0.00    -0.246 N 
ATOM      8  S   UNL d   1      -0.842  -3.415  -0.858  0.00  0.00    -0.048 SA
ATOM      9  N   UNL d   1      -3.413  -3.305  -1.098  0.00  0.00    -0.285 N 
ATOM     10  HN  UNL d   1      -4.388  -3.585  -1.206  1.00  0.00     0.188 HD
ATOM     11  C   UNL d   1      -2.426  -4.138  -0.969  0.00  0.00     0.101 C 
ATOM     12  S   UNL d   1      -0.131   2.079   2.502  0.00  0.00    -0.039 SA
ATOM     13  O   UNL d   1       1.385  -1.708  -0.308  0.00  0.00    -0.265 OA
ENDROOT
BRANCH   5  14
ATOM     14  C   UNL d   1      -2.258   1.383   0.219  0.00  0.00     0.042 A 
ATOM     15  C   UNL d   1      -1.987   2.738  -0.057  0.00  0.00     0.030 A 
ATOM     16  C   UNL d   1      -3.014   3.674  -0.210  0.00  0.00     0.002 A 
ATOM     17  C   UNL d   1      -4.335   3.257  -0.141  0.00  0.00     0.000 A 
ATOM     18  C   UNL d   1      -4.617   1.927   0.156  0.00  0.00     0.002 A 
ATOM     19  C   UNL d   1      -3.584   1.005   0.375  0.00  0.00     0.030 A 
ENDBRANCH   5  14
BRANCH   7  20
ATOM     20  C   UNL d   1      -3.904  -1.118  -1.732  0.00  0.00     0.057 A 
ATOM     21  C   UNL d   1      -3.538  -0.132  -2.653  0.00  0.00     0.031 A 
ATOM     22  C   UNL d   1      -4.516   0.698  -3.223  0.00  0.00     0.002 A 
ATOM     23  C   UNL d   1      -5.864   0.553  -2.886  0.00  0.00     0.000 A 
ATOM     24  C   UNL d   1      -6.253  -0.448  -2.005  0.00  0.00     0.002 A 
ATOM     25  C   UNL d   1      -5.283  -1.284  -1.454  0.00  0.00     0.031 A 
ENDBRANCH   7  20
BRANCH   4  26
ATOM     26  C   UNL d   1       1.727  -0.574   2.400  0.00  0.00     0.045 A 
ATOM     27  C   UNL d   1       3.036  -0.930   2.065  0.00  0.00     0.030 A 
ATOM     28  C   UNL d   1       3.977  -1.189   3.071  0.00  0.00     0.002 A 
ATOM     29  C   UNL d   1       3.608  -1.136   4.415  0.00  0.00     0.000 A 
ATOM     30  C   UNL d   1       2.295  -0.841   4.760  0.00  0.00     0.002 A 
ATOM     31  C   UNL d   1       1.365  -0.567   3.759  0.00  0.00     0.030 A 
ENDBRANCH   4  26
BRANCH  11  32
ATOM     32  C   UNL d   1      -2.590  -5.608  -0.921  0.00  0.00    -0.001 A 
ATOM     33  C   UNL d   1      -1.677  -6.435  -0.249  0.00  0.00     0.014 A 
ATOM     34  C   UNL d   1      -1.883  -7.817  -0.197  0.00  0.00     0.001 A 
ATOM     35  C   UNL d   1      -2.996  -8.382  -0.816  0.00  0.00     0.000 A 
ATOM     36  C   UNL d   1      -3.909  -7.567  -1.484  0.00  0.00     0.001 A 
ATOM     37  C   UNL d   1      -3.713  -6.183  -1.532  0.00  0.00     0.014 A 
ENDBRANCH  11  32
TORSDOF 4
