REMARK  4 active torsions:
REMARK  status: ('A' for Active; 'I' for Inactive)
REMARK    1  A    between atoms: C_4  and  C_1 
REMARK    2  A    between atoms: C_5  and  C_1 
REMARK    3  A    between atoms: O_6  and  N_2 
REMARK    4  A    between atoms: C_9  and  C_5 
ROOT
ATOM      1  C   UNL d   1       1.116  -0.072   0.017  0.00  0.00     0.046 C 
ATOM      2  N   UNL d   1       0.409  -1.118  -0.320  0.00  0.00    -0.272 N 
ATOM      3  HN  UNL d   1      -0.610  -1.128  -0.292  1.00  0.00     0.194 HD
ENDROOT
BRANCH   1   4
ATOM      4  C   UNL d   1       2.621  -0.002   0.101  0.00  0.00    -0.011 A 
ATOM      5  C   UNL d   1       3.305   1.169  -0.255  0.00  0.00     0.013 A 
ATOM      6  C   UNL d   1       4.703   1.227  -0.202  0.00  0.00     0.001 A 
ATOM      7  C   UNL d   1       5.431   0.118   0.211  0.00  0.00     0.000 A 
ATOM      8  C   UNL d   1       4.767  -1.044   0.593  0.00  0.00     0.001 A 
ATOM      9  C   UNL d   1       3.368  -1.096   0.553  0.00  0.00     0.013 A 
ENDBRANCH   1   4
BRANCH   1  10
ATOM     10  C   UNL d   1       0.314   1.212   0.337  0.00  0.00     0.034 C 
ATOM     11  C   UNL d   1      -0.959   0.905   1.136  0.00  0.00     0.016 C 
BRANCH  10  12
ATOM     12  C   UNL d   1      -0.013   2.024  -0.935  0.00  0.00     0.006 C 
ATOM     13  C   UNL d   1      -0.885   1.319  -1.964  0.00  0.00     0.006 C 
ENDBRANCH  10  12
ENDBRANCH   1  10
BRANCH   2  14
ATOM     14  O   UNL d   1       1.162  -2.219  -0.721  0.00  0.00    -0.290 OA
ATOM     15  H   UNL d   1       0.472  -2.882  -0.911  0.00  0.00     0.244 HD
ENDBRANCH   2  14
TORSDOF 4
