REMARK  5 active torsions:
REMARK  status: ('A' for Active; 'I' for Inactive)
REMARK    1  A    between atoms: C_7  and  C_1 
REMARK    2  A    between atoms: C_6  and  N_2 
REMARK    3  A    between atoms: O_16  and  C_7 
REMARK    4  A    between atoms: O_17  and  C_14 
REMARK    5  A    between atoms: C_18  and  O_16 
ROOT
ATOM      1  C   UNL d   1       1.696  -1.130  -0.003  0.00  0.00     0.074 A 
ATOM      2  N   UNL d   1       1.721   1.116  -0.051  0.00  0.00    -0.344 N 
ATOM      3  C   UNL d   1       2.531  -0.009  -0.024  0.00  0.00     0.025 A 
ATOM      4  C   UNL d   1       0.347  -0.649  -0.009  0.00  0.00     0.012 A 
ATOM      5  C   UNL d   1       0.382   0.751  -0.010  0.00  0.00     0.046 A 
ATOM      6  C   UNL d   1      -0.823   1.489   0.024  0.00  0.00     0.033 A 
ATOM      7  C   UNL d   1      -0.904  -1.316   0.003  0.00  0.00     0.051 A 
ATOM      8  C   UNL d   1       4.028   0.007  -0.011  0.00  0.00     0.069 C 
ATOM      9  C   UNL d   1      -2.080  -0.573   0.021  0.00  0.00     0.066 A 
ATOM     10  C   UNL d   1      -2.045   0.807   0.037  0.00  0.00     0.039 A 
ENDROOT
BRANCH   1  11
ATOM     11  C   UNL d   1       2.099  -2.538   0.072  0.00  0.00     0.296 C 
ATOM     12  O   UNL d   1       1.302  -3.463   0.197  0.00  0.00    -0.259 OA
BRANCH  11  13
ATOM     13  O   UNL d   1       3.451  -2.704   0.081  0.00  0.00    -0.318 OA
BRANCH  13  14
ATOM     14  C   UNL d   1       3.928  -3.929   0.644  0.00  0.00     0.174 C 
ATOM     15  C   UNL d   1       4.016  -3.751   2.150  0.00  0.00     0.034 C 
ENDBRANCH  13  14
ENDBRANCH  11  13
ENDBRANCH   1  11
BRANCH   2  16
ATOM     16  C   UNL d   1       2.266   2.471  -0.156  0.00  0.00     0.090 A 
ATOM     17  C   UNL d   1       1.670   3.713   0.471  0.00  0.00     0.028 A 
ATOM     18  C   UNL d   1       1.616   3.543  -1.010  0.00  0.00     0.028 A 
ENDBRANCH   2  16
BRANCH   9  19
ATOM     19  O   UNL d   1      -3.298  -1.191   0.028  0.00  0.00    -0.361 OA
ATOM     20  H   UNL d   1      -3.156  -2.150   0.007  0.00  0.00     0.217 HD
ENDBRANCH   9  19
TORSDOF 5
