REMARK  8 active torsions:
REMARK  status: ('A' for Active; 'I' for Inactive)
REMARK    1  A    between atoms: N_2  and  C_1 
REMARK    2  A    between atoms: N_7  and  C_1 
REMARK    3  A    between atoms: C_5  and  N_2 
REMARK    4  A    between atoms: C_6  and  C_10 
REMARK    5  A    between atoms: O_16  and  C_6 
REMARK    6  A    between atoms: C_14  and  N_7 
REMARK    7  A    between atoms: N_15  and  C_9 
REMARK    8  A    between atoms: C_22  and  O_16 
ROOT
ATOM      1  C   UNL d   1       1.047   0.340   0.889  0.00  0.00     0.177 C 
ATOM      2  S   UNL d   1       1.062  -0.429   2.380  0.00  0.00    -0.040 SA
ENDROOT
BRANCH   1   3
ATOM      3  N   UNL d   1       2.145   0.159   0.091  0.00  0.00    -0.319 N 
ATOM      4  H   UNL d   1       2.845  -0.453   0.489  0.00  0.00     0.169 HD
BRANCH   3   5
ATOM      5  C   UNL d   1       2.362   0.627  -1.214  0.00  0.00     0.108 A 
ATOM      6  N   UNL d   1       1.465   1.459  -1.790  0.00  0.00    -0.333 N 
ATOM      7  C   UNL d   1       1.692   1.861  -3.050  0.00  0.00     0.079 A 
ATOM      8  HN  UNL d   1       0.638   1.773  -1.281  1.00  0.00     0.168 HD
ATOM      9  C   UNL d   1       2.823   1.495  -3.762  0.00  0.00     0.042 A 
ATOM     10  C   UNL d   1       3.744   0.645  -3.162  0.00  0.00     0.007 A 
ATOM     11  C   UNL d   1       3.511   0.199  -1.867  0.00  0.00     0.049 A 
BRANCH   7  12
ATOM     12  N   UNL d   1       0.751   2.720  -3.611  0.00  0.00    -0.289 NA
ATOM     13  H   UNL d   1      -0.028   2.798  -2.964  0.00  0.00     0.125 HD
ATOM     14  H   UNL d   1       0.447   2.405  -4.526  0.00  0.00     0.125 HD
ENDBRANCH   7  12
ENDBRANCH   3   5
ENDBRANCH   1   3
BRANCH   1  15
ATOM     15  N   UNL d   1       0.069   1.163   0.404  0.00  0.00    -0.333 N 
ATOM     16  H   UNL d   1       0.404   1.816  -0.305  0.00  0.00     0.168 HD
BRANCH  15  17
ATOM     17  C   UNL d   1      -1.314   1.169   0.632  0.00  0.00     0.034 A 
ATOM     18  C   UNL d   1      -2.011   2.354   0.372  0.00  0.00     0.030 A 
ATOM     19  C   UNL d   1      -3.402   2.400   0.505  0.00  0.00     0.020 A 
ATOM     20  C   UNL d   1      -4.102   1.239   0.840  0.00  0.00     0.039 A 
ATOM     21  C   UNL d   1      -3.409   0.049   1.084  0.00  0.00     0.020 A 
ATOM     22  C   UNL d   1      -2.019   0.018   0.990  0.00  0.00     0.030 A 
BRANCH  20  23
ATOM     23  C   UNL d   1      -5.574   1.304   0.983  0.00  0.00     0.293 C 
ATOM     24  O   UNL d   1      -6.178   2.303   1.328  0.00  0.00    -0.259 OA
BRANCH  23  25
ATOM     25  O   UNL d   1      -6.097   0.084   0.711  0.00  0.00    -0.318 OA
BRANCH  25  26
ATOM     26  C   UNL d   1      -7.432  -0.134   1.179  0.00  0.00     0.174 C 
ATOM     27  C   UNL d   1      -7.332  -0.722   2.574  0.00  0.00     0.034 C 
ENDBRANCH  25  26
ENDBRANCH  23  25
ENDBRANCH  20  23
ENDBRANCH  15  17
ENDBRANCH   1  15
TORSDOF 8
