REMARK  5 active torsions:
REMARK  status: ('A' for Active; 'I' for Inactive)
REMARK    1  A    between atoms: N_6  and  C_1 
REMARK    2  A    between atoms: C_2  and  C_3 
REMARK       I    between atoms: C_9  and  N_7 
REMARK    3  A    between atoms: C_20  and  C_9 
REMARK    4  A    between atoms: C_12  and  S_19 
REMARK    5  A    between atoms: S_19  and  C_20 
ROOT
ATOM      1  N   UNL d   1       0.681   2.173  -0.164  0.00  0.00    -0.363 N 
ATOM      2  N   UNL d   1       2.453   4.375  -0.079  0.00  0.00    -0.348 N 
ATOM      3  C   UNL d   1       2.902   5.639  -0.439  0.00  0.00     0.229 C 
ATOM      4  C   UNL d   1       1.350   2.607  -1.405  0.00  0.00     0.144 C 
ATOM      5  C   UNL d   1       0.328   3.303   0.709  0.00  0.00     0.144 C 
ATOM      6  C   UNL d   1       2.688   3.249  -0.999  0.00  0.00     0.145 C 
ATOM      7  C   UNL d   1       1.640   4.028   1.107  0.00  0.00     0.145 C 
ATOM      8  O   UNL d   1       3.527   5.807  -1.492  0.00  0.00    -0.273 OA
ENDROOT
BRANCH   1   9
ATOM      9  C   UNL d   1      -0.122   1.050  -0.170  0.00  0.00     0.125 A 
ATOM     10  N   UNL d   1      -1.387   1.176   0.315  0.00  0.00    -0.350 N 
ATOM     11  C   UNL d   1      -2.174   0.074   0.399  0.00  0.00     0.106 A 
ATOM     12  HN  UNL d   1      -1.738   2.086   0.611  1.00  0.00     0.166 HD
ATOM     13  C   UNL d   1      -1.782  -1.194   0.014  0.00  0.00     0.065 A 
ATOM     14  C   UNL d   1      -0.486  -1.336  -0.479  0.00  0.00     0.045 A 
ATOM     15  C   UNL d   1       0.352  -0.221  -0.557  0.00  0.00     0.078 A 
ATOM     16 CL   UNL d   1       1.998  -0.540  -1.004  0.00  0.00    -0.080 Cl
BRANCH  13  17
ATOM     17  C   UNL d   1      -2.711  -2.356   0.173  0.00  0.00     0.418 C 
ATOM     18  F   UNL d   1      -2.217  -3.517  -0.342  0.00  0.00    -0.166 F 
ATOM     19  F   UNL d   1      -2.995  -2.619   1.478  0.00  0.00    -0.166 F 
ATOM     20  F   UNL d   1      -3.908  -2.156  -0.440  0.00  0.00    -0.166 F 
ENDBRANCH  13  17
ENDBRANCH   1   9
BRANCH   3  21
ATOM     21  C   UNL d   1       2.660   6.777   0.549  0.00  0.00     0.183 C 
BRANCH  21  22
ATOM     22  S   UNL d   1       2.901   8.416  -0.208  0.00  0.00    -0.103 SA
BRANCH  22  23
ATOM     23  C   UNL d   1       1.483   8.461  -1.290  0.00  0.00     0.069 A 
ATOM     24  N   UNL d   1       0.402   7.715  -0.961  0.00  0.00    -0.361 N 
ATOM     25  C   UNL d   1      -0.689   7.830  -1.752  0.00  0.00     0.089 A 
ATOM     26  HN  UNL d   1       0.410   7.093  -0.153  1.00  0.00     0.165 HD
ATOM     27  C   UNL d   1      -0.759   8.663  -2.855  0.00  0.00     0.017 A 
ATOM     28  C   UNL d   1       0.361   9.417  -3.179  0.00  0.00     0.004 A 
ATOM     29  C   UNL d   1       1.502   9.316  -2.386  0.00  0.00     0.037 A 
ENDBRANCH  22  23
ENDBRANCH  21  22
ENDBRANCH   3  21
TORSDOF 5
