REMARK  4 active torsions:
REMARK  status: ('A' for Active; 'I' for Inactive)
REMARK    1  A    between atoms: C_7  and  C_1 
REMARK    2  A    between atoms: O_11  and  N_8 
REMARK    3  A    between atoms: C_10  and  O_11 
REMARK    4  A    between atoms: C_13  and  C_10 
ROOT
ATOM      1  C   UNL d   1      -0.488  -2.626  -0.018  0.00  0.00     0.064 C 
ATOM      2  N   UNL d   1      -1.697  -3.102  -0.004  0.00  0.00    -0.259 N 
ATOM      3  HN  UNL d   1      -1.891  -4.103   0.011  1.00  0.00     0.194 HD
ATOM      4  C   UNL d   1       0.586  -3.693   0.007  0.00  0.00     0.073 C 
ENDROOT
BRANCH   2   5
ATOM      5  O   UNL d   1      -2.716  -2.136  -0.012  0.00  0.00    -0.195 OA
BRANCH   5   6
ATOM      6  C   UNL d   1      -3.792  -2.683  -0.655  0.00  0.00     0.315 C 
ATOM      7  O   UNL d   1      -3.821  -3.021  -1.831  0.00  0.00    -0.257 OA
BRANCH   6   8
ATOM      8  C   UNL d   1      -4.960  -2.786   0.255  0.00  0.00     0.041 A 
ATOM      9  C   UNL d   1      -4.800  -2.939   1.639  0.00  0.00     0.017 A 
ATOM     10  C   UNL d   1      -5.919  -3.090   2.460  0.00  0.00     0.001 A 
ATOM     11  C   UNL d   1      -7.199  -3.090   1.904  0.00  0.00     0.000 A 
ATOM     12  C   UNL d   1      -7.363  -2.954   0.525  0.00  0.00     0.001 A 
ATOM     13  C   UNL d   1      -6.245  -2.811  -0.301  0.00  0.00     0.017 A 
ENDBRANCH   6   8
ENDBRANCH   5   6
ENDBRANCH   2   5
BRANCH   1  14
ATOM     14  C   UNL d   1      -0.077  -1.239  -0.059  0.00  0.00     0.123 A 
ATOM     15  C   UNL d   1       1.052  -0.594  -0.557  0.00  0.00     0.043 A 
ATOM     16  N   UNL d   1       0.989   0.753  -0.278  0.00  0.00    -0.342 N 
ATOM     17  C   UNL d   1       2.221  -1.113  -1.301  0.00  0.00     0.071 C 
ATOM     18  C   UNL d   1      -0.154   0.895   0.355  0.00  0.00     0.120 A 
ATOM     19  HN  UNL d   1       1.672   1.474  -0.509  1.00  0.00     0.167 HD
ATOM     20  O   UNL d   1      -0.857  -0.265   0.523  0.00  0.00    -0.294 OA
ATOM     21  C   UNL d   1      -0.737   2.135   0.903  0.00  0.00     0.098 C 
ENDBRANCH   1  14
TORSDOF 4
