REMARK  9 active torsions:
REMARK  status: ('A' for Active; 'I' for Inactive)
REMARK    1  A    between atoms: N_2  and  C_1 
REMARK    2  A    between atoms: N_4  and  C_3 
REMARK    3  A    between atoms: C_5  and  N_6 
REMARK       I    between atoms: N_6  and  C_7 
REMARK    4  A    between atoms: C_7  and  C_12 
REMARK    5  A    between atoms: C_13  and  C_19 
REMARK    6  A    between atoms: C_15  and  C_22 
REMARK    7  A    between atoms: O_29  and  C_16 
REMARK    8  A    between atoms: O_30  and  C_20 
REMARK    9  A    between atoms: O_31  and  C_26 
ROOT
ATOM      1  C   UNL d   1       1.137  -0.169   0.283  0.00  0.00     0.125 A 
ATOM      2  C   UNL d   1       0.375  -1.341   0.092  0.00  0.00     0.044 A 
ATOM      3  C   UNL d   1       0.558   1.097   0.508  0.00  0.00     0.049 A 
ATOM      4  C   UNL d   1      -1.019  -1.142   0.039  0.00  0.00     0.027 A 
ATOM      5  C   UNL d   1      -0.828   1.232   0.523  0.00  0.00    -0.034 A 
ATOM      6  C   UNL d   1      -1.607   0.112   0.241  0.00  0.00     0.013 A 
ENDROOT
BRANCH   5   7
ATOM      7  C   UNL d   1      -1.448   2.538   0.752  0.00  0.00     0.017 C 
ATOM      8  C   UNL d   1      -2.614   2.687   1.399  0.00  0.00     0.075 C 
BRANCH   8   9
ATOM      9  C   UNL d   1      -3.212   4.038   1.504  0.00  0.00     0.245 C 
ATOM     10  N   UNL d   1      -4.203   4.095   2.463  0.00  0.00    -0.321 N 
ATOM     11  H   UNL d   1      -4.304   3.327   3.111  0.00  0.00     0.169 HD
ATOM     12  O   UNL d   1      -2.791   4.970   0.832  0.00  0.00    -0.268 OA
BRANCH  10  13
ATOM     13  C   UNL d   1      -4.878   5.286   2.805  0.00  0.00     0.071 A 
ATOM     14  C   UNL d   1      -5.208   6.214   1.805  0.00  0.00     0.069 A 
ATOM     15  C   UNL d   1      -5.903   7.382   2.112  0.00  0.00     0.070 A 
ATOM     16  C   UNL d   1      -6.253   7.632   3.437  0.00  0.00     0.039 A 
ATOM     17  C   UNL d   1      -5.950   6.707   4.440  0.00  0.00     0.042 A 
ATOM     18  C   UNL d   1      -5.266   5.529   4.130  0.00  0.00     0.095 A 
BRANCH  15  19
ATOM     19  O   UNL d   1      -6.295   8.333   1.210  0.00  0.00    -0.356 OA
ATOM     20  C   UNL d   1      -6.064   8.038  -0.166  0.00  0.00     0.210 C 
ENDBRANCH  15  19
BRANCH  18  21
ATOM     21  O   UNL d   1      -5.060   4.663   5.174  0.00  0.00    -0.354 OA
ATOM     22  C   UNL d   1      -3.700   4.282   5.381  0.00  0.00     0.210 C 
ENDBRANCH  18  21
ENDBRANCH  10  13
ENDBRANCH   8   9
ENDBRANCH   5   7
BRANCH   1  23
ATOM     23  N   UNL d   1       2.585  -0.195   0.195  0.00  0.00    -0.114 N 
ATOM     24  O   UNL d   1       3.097  -0.492  -0.887  0.00  0.00    -0.532 OA
ATOM     25  O   UNL d   1       3.207   0.146   1.216  0.00  0.00    -0.532 OA
ENDBRANCH   1  23
BRANCH   2  26
ATOM     26  N   UNL d   1       0.933  -2.647  -0.003  0.00  0.00    -0.281 NA
ATOM     27  C   UNL d   1       1.606  -3.057   1.250  0.00  0.00     0.096 C 
ATOM     28  C   UNL d   1       2.104  -4.503   1.257  0.00  0.00     0.024 C 
ATOM     29  C   UNL d   1       1.218  -5.544   0.560  0.00  0.00     0.024 C 
ATOM     30  C   UNL d   1       0.769  -4.982  -0.794  0.00  0.00     0.024 C 
ATOM     31  C   UNL d   1       0.061  -3.651  -0.636  0.00  0.00     0.096 C 
BRANCH  29  32
ATOM     32  C   UNL d   1       0.068  -6.127   1.381  0.00  0.00    -0.021 A 
ATOM     33  C   UNL d   1      -0.254  -7.497   1.344  0.00  0.00     0.074 A 
ATOM     34  C   UNL d   1      -1.292  -8.021   2.136  0.00  0.00     0.037 A 
ATOM     35  C   UNL d   1      -2.039  -7.188   2.966  0.00  0.00     0.003 A 
ATOM     36  C   UNL d   1      -1.746  -5.835   3.014  0.00  0.00     0.001 A 
ATOM     37  C   UNL d   1      -0.713  -5.314   2.229  0.00  0.00     0.010 A 
BRANCH  33  38
ATOM     38  O   UNL d   1       0.493  -8.439   0.678  0.00  0.00    -0.355 OA
ATOM     39  C   UNL d   1       0.389  -8.369  -0.740  0.00  0.00     0.210 C 
ENDBRANCH  33  38
ENDBRANCH  29  32
ENDBRANCH   2  26
TORSDOF 9
