REMARK  11 active torsions:
REMARK  status: ('A' for Active; 'I' for Inactive)
REMARK    1  A    between atoms: C_7  and  C_1 
REMARK    2  A    between atoms: C_6  and  C_2 
REMARK    3  A    between atoms: C_8  and  C_3 
REMARK    4  A    between atoms: O_14  and  C_6 
REMARK    5  A    between atoms: C_9  and  C_7 
REMARK    6  A    between atoms: C_10  and  C_8 
REMARK    7  A    between atoms: O_16  and  C_9 
REMARK    8  A    between atoms: O_15  and  C_10 
REMARK    9  A    between atoms: C_18  and  O_14 
REMARK   10  A    between atoms: C_20  and  O_15 
REMARK   11  A    between atoms: C_19  and  O_16 
ROOT
ATOM      1  C   UNL d   1       0.098  -1.201   0.014  0.00  0.00    -0.007 A 
ATOM      2  C   UNL d   1       0.848  -0.025   0.071  0.00  0.00     0.116 A 
ATOM      3  C   UNL d   1      -1.292  -0.819   0.113  0.00  0.00    -0.018 A 
ATOM      4  N   UNL d   1      -0.046   1.017   0.157  0.00  0.00    -0.354 N 
ATOM      5  C   UNL d   1      -1.334   0.566   0.125  0.00  0.00     0.013 A 
ATOM      6  C   UNL d   1      -2.462   1.533   0.087  0.00  0.00     0.068 C 
ATOM      7  H   UNL d   1       0.240   1.989   0.175  0.00  0.00     0.166 HD
ENDROOT
BRANCH   1   8
ATOM      8  C   UNL d   1       0.600  -2.605  -0.209  0.00  0.00     0.152 C 
BRANCH   8   9
ATOM      9  C   UNL d   1       0.888  -3.391   1.051  0.00  0.00     0.263 C 
ATOM     10  O   UNL d   1       0.607  -3.070   2.197  0.00  0.00    -0.265 OA
BRANCH   9  11
ATOM     11  O   UNL d   1       1.473  -4.578   0.696  0.00  0.00    -0.322 OA
BRANCH  11  12
ATOM     12  C   UNL d   1       1.761  -5.498   1.760  0.00  0.00     0.174 C 
ATOM     13  C   UNL d   1       3.120  -5.197   2.361  0.00  0.00     0.034 C 
ENDBRANCH  11  12
ENDBRANCH   9  11
ENDBRANCH   8   9
ENDBRANCH   1   8
BRANCH   2  14
ATOM     14  C   UNL d   1       2.260   0.278  -0.001  0.00  0.00     0.310 C 
ATOM     15  O   UNL d   1       2.705   1.422  -0.019  0.00  0.00    -0.258 OA
BRANCH  14  16
ATOM     16  O   UNL d   1       3.005  -0.849  -0.115  0.00  0.00    -0.317 OA
BRANCH  16  17
ATOM     17  C   UNL d   1       4.364  -0.635  -0.522  0.00  0.00     0.175 C 
ATOM     18  C   UNL d   1       4.414  -0.613  -2.039  0.00  0.00     0.034 C 
ENDBRANCH  16  17
ENDBRANCH  14  16
ENDBRANCH   2  14
BRANCH   3  19
ATOM     19  C   UNL d   1      -2.481  -1.737   0.140  0.00  0.00     0.152 C 
BRANCH  19  20
ATOM     20  C   UNL d   1      -3.050  -1.970  -1.242  0.00  0.00     0.263 C 
ATOM     21  O   UNL d   1      -2.395  -2.257  -2.237  0.00  0.00    -0.265 OA
BRANCH  20  22
ATOM     22  O   UNL d   1      -4.406  -1.815  -1.219  0.00  0.00    -0.322 OA
BRANCH  22  23
ATOM     23  C   UNL d   1      -5.044  -1.785  -2.504  0.00  0.00     0.174 C 
ATOM     24  C   UNL d   1      -4.933  -0.385  -3.078  0.00  0.00     0.034 C 
ENDBRANCH  22  23
ENDBRANCH  20  22
ENDBRANCH  19  20
ENDBRANCH   3  19
TORSDOF 11
