REMARK  2 active torsions:
REMARK  status: ('A' for Active; 'I' for Inactive)
REMARK    1  A    between atoms: C_8  and  C_3 
REMARK    2  A    between atoms: O_18  and  C_7 
ROOT
ATOM      1  C   UNL d   1      -0.811  -0.364   0.084  0.00  0.00     0.052 A 
ATOM      2  C   UNL d   1      -1.229   0.977   0.077  0.00  0.00    -0.013 A 
ATOM      3  C   UNL d   1      -2.583   1.285  -0.069  0.00  0.00     0.010 A 
ATOM      4  N   UNL d   1      -1.612  -1.429  -0.021  0.00  0.00    -0.335 N 
ATOM      5  HN  UNL d   1      -1.262  -2.386   0.025  1.00  0.00     0.168 HD
ATOM      6  C   UNL d   1      -3.437   0.167  -0.270  0.00  0.00     0.107 A 
ATOM      7  C   UNL d   1      -2.918  -1.139  -0.194  0.00  0.00     0.164 A 
ATOM      8  C   UNL d   1       0.627  -0.438   0.135  0.00  0.00    -0.002 A 
ATOM      9  C   UNL d   1      -0.004   1.872   0.191  0.00  0.00     0.081 A 
ATOM     10  C   UNL d   1       1.139   0.874   0.181  0.00  0.00    -0.041 A 
ATOM     11  C   UNL d   1      -4.814   0.328  -0.637  0.00  0.00     0.104 C 
ATOM     12  N   UNL d   1      -5.923   0.492  -0.963  0.00  0.00    -0.191 NA
ATOM     13  C   UNL d   1       1.476  -1.532   0.083  0.00  0.00     0.014 A 
ATOM     14  C   UNL d   1       2.501   1.115   0.166  0.00  0.00     0.008 A 
ATOM     15  C   UNL d   1       2.854  -1.297   0.069  0.00  0.00     0.001 A 
ATOM     16  C   UNL d   1       3.361   0.014   0.105  0.00  0.00     0.001 A 
ENDROOT
BRANCH   7  17
ATOM     17  O   UNL d   1      -3.808  -2.189  -0.330  0.00  0.00    -0.340 OA
ATOM     18  C   UNL d   1      -3.215  -3.471  -0.134  0.00  0.00     0.211 C 
ENDBRANCH   7  17
BRANCH   3  19
ATOM     19  C   UNL d   1      -3.080   2.690  -0.065  0.00  0.00    -0.002 A 
ATOM     20  C   UNL d   1      -4.112   3.158   0.785  0.00  0.00     0.046 A 
ATOM     21  C   UNL d   1      -4.613   4.463   0.683  0.00  0.00     0.048 A 
ATOM     22 CL   UNL d   1      -4.782   2.181   2.053  0.00  0.00    -0.083 Cl
ATOM     23  C   UNL d   1      -4.036   5.355  -0.212  0.00  0.00     0.035 A 
ATOM     24  C   UNL d   1      -2.975   4.952  -1.012  0.00  0.00     0.025 A 
ATOM     25 CL   UNL d   1      -4.628   6.966  -0.323  0.00  0.00    -0.084 Cl
ATOM     26  C   UNL d   1      -2.524   3.628  -0.959  0.00  0.00     0.016 A 
ENDBRANCH   3  19
TORSDOF 2
