REMARK  4 active torsions:
REMARK  status: ('A' for Active; 'I' for Inactive)
REMARK    1  A    between atoms: C_7  and  C_1 
REMARK    2  A    between atoms: C_9  and  C_4 
REMARK    3  A    between atoms: O_13  and  C_7 
REMARK    4  A    between atoms: N_14  and  C_12 
ROOT
ATOM      1  C   UNL d   1      -1.143  -1.503   0.029  0.00  0.00     0.052 A 
ATOM      2  N   UNL d   1      -1.179   1.256  -0.108  0.00  0.00    -0.355 N 
ATOM      3  HN  UNL d   1      -1.189   2.272  -0.193  1.00  0.00     0.166 HD
ATOM      4  C   UNL d   1      -2.345   0.574  -0.037  0.00  0.00     0.044 A 
ATOM      5  C   UNL d   1      -2.358  -0.809   0.002  0.00  0.00     0.049 A 
ATOM      6  C   UNL d   1       0.088  -0.804   0.021  0.00  0.00     0.007 A 
ATOM      7  C   UNL d   1      -0.010   0.600  -0.067  0.00  0.00     0.044 A 
ATOM      8  C   UNL d   1       1.384  -1.383   0.118  0.00  0.00     0.015 A 
ATOM      9  C   UNL d   1       1.149   1.361  -0.090  0.00  0.00     0.030 A 
ATOM     10  C   UNL d   1       2.535  -0.596   0.085  0.00  0.00     0.001 A 
ATOM     11  C   UNL d   1       2.417   0.783  -0.025  0.00  0.00     0.002 A 
ENDROOT
BRANCH   4  12
ATOM     12  C   UNL d   1      -3.572   1.394   0.029  0.00  0.00    -0.008 A 
ATOM     13  C   UNL d   1      -4.723   0.950   0.714  0.00  0.00     0.037 A 
ATOM     14  C   UNL d   1      -5.894   1.714   0.779  0.00  0.00     0.006 A 
ATOM     15  C   UNL d   1      -5.885   2.999   0.239  0.00  0.00     0.023 A 
ATOM     16  C   UNL d   1      -4.762   3.473  -0.439  0.00  0.00     0.003 A 
ATOM     17  C   UNL d   1      -3.622   2.675  -0.547  0.00  0.00     0.014 A 
BRANCH  14  18
ATOM     18  N   UNL d   1      -6.963   1.291   1.578  0.00  0.00    -0.303 NA
ATOM     19  H   UNL d   1      -7.036   0.283   1.671  0.00  0.00     0.124 HD
ATOM     20  H   UNL d   1      -7.851   1.720   1.338  0.00  0.00     0.124 HD
ENDBRANCH  14  18
ENDBRANCH   4  12
BRANCH   1  21
ATOM     21  C   UNL d   1      -1.273  -2.978   0.136  0.00  0.00     0.177 C 
ATOM     22  O   UNL d   1      -2.120  -3.506   0.834  0.00  0.00    -0.646 OA
BRANCH  21  23
ATOM     23  O   UNL d   1      -0.452  -3.672  -0.676  0.00  0.00    -0.773 OA
ATOM     24  H   UNL d   1       0.064  -3.134  -1.306  0.00  0.00     0.167 HD
ENDBRANCH  21  23
ENDBRANCH   1  21
TORSDOF 4
