REMARK  3 active torsions:
REMARK  status: ('A' for Active; 'I' for Inactive)
REMARK    1  A    between atoms: C_2  and  C_1 
REMARK       I    between atoms: N_6  and  C_2 
REMARK    2  A    between atoms: C_11  and  N_10 
REMARK    3  A    between atoms: O_18  and  C_17 
ROOT
ATOM      1  C   UNL d   1      -0.393  -2.650  -0.190  0.00  0.00     0.264 C 
ATOM      2  N   UNL d   1       0.797  -3.363  -0.440  0.00  0.00    -0.344 N 
ATOM      3  N   UNL d   1       3.221  -4.917  -0.729  0.00  0.00    -0.376 N 
ATOM      4  O   UNL d   1      -0.446  -1.863   0.755  0.00  0.00    -0.267 OA
ATOM      5  C   UNL d   1       1.825  -3.379   0.628  0.00  0.00     0.146 C 
ATOM      6  C   UNL d   1       0.917  -4.434  -1.430  0.00  0.00     0.146 C 
ATOM      7  C   UNL d   1       3.257  -3.729   0.144  0.00  0.00     0.143 C 
ATOM      8  C   UNL d   1       2.345  -4.726  -1.892  0.00  0.00     0.143 C 
ENDROOT
BRANCH   1   9
ATOM      9  C   UNL d   1      -1.525  -2.786  -1.088  0.00  0.00     0.114 C 
ATOM     10  C   UNL d   1      -2.355  -1.807  -1.628  0.00  0.00     0.046 C 
ATOM     11  N   UNL d   1      -3.344  -2.288  -2.483  0.00  0.00    -0.298 N 
ATOM     12  C   UNL d   1      -2.320  -0.340  -1.401  0.00  0.00     0.071 C 
ATOM     13  N   UNL d   1      -3.365  -3.607  -2.518  0.00  0.00    -0.269 N 
ATOM     14  HN  UNL d   1      -3.975  -1.692  -3.019  1.00  0.00     0.187 HD
ATOM     15  S   UNL d   1      -2.260  -4.291  -1.474  0.00  0.00     0.009 SA
ATOM     16  HN  UNL d   1      -3.990  -4.148  -3.116  1.00  0.00     0.195 HD
ENDBRANCH   1   9
BRANCH   3  17
ATOM     17  C   UNL d   1       4.336  -5.754  -0.851  0.00  0.00     0.064 A 
ATOM     18  C   UNL d   1       4.979  -6.355   0.263  0.00  0.00     0.094 A 
ATOM     19  C   UNL d   1       5.959  -7.350   0.069  0.00  0.00     0.039 A 
ATOM     20  C   UNL d   1       6.351  -7.735  -1.210  0.00  0.00     0.003 A 
ATOM     21  C   UNL d   1       5.790  -7.111  -2.310  0.00  0.00     0.002 A 
ATOM     22  C   UNL d   1       4.808  -6.134  -2.127  0.00  0.00     0.032 A 
BRANCH  18  23
ATOM     23  O   UNL d   1       4.547  -6.014   1.526  0.00  0.00    -0.354 OA
ATOM     24  C   UNL d   1       5.502  -6.177   2.571  0.00  0.00     0.210 C 
ENDBRANCH  18  23
ENDBRANCH   3  17
TORSDOF 3
