REMARK  7 active torsions:
REMARK  status: ('A' for Active; 'I' for Inactive)
REMARK       I    between atoms: N_3  and  C_1 
REMARK    1  A    between atoms: C_5  and  C_1 
REMARK    2  A    between atoms: C_8  and  C_2 
REMARK       I    between atoms: C_7  and  N_3 
REMARK    3  A    between atoms: C_6  and  C_4 
REMARK       I    between atoms: N_14  and  C_7 
REMARK    4  A    between atoms: O_26  and  C_8 
REMARK    5  A    between atoms: C_12  and  O_19 
REMARK    6  A    between atoms: C_24  and  N_14 
REMARK    7  A    between atoms: O_19  and  C_25 
ROOT
ATOM      1  C   UNL d   1       3.318   0.432  -1.257  0.00  0.00     0.036 A 
ATOM      2  C   UNL d   1       4.925  -1.022   0.528  0.00  0.00     0.077 A 
ATOM      3  C   UNL d   1       3.034  -0.904  -0.974  0.00  0.00     0.032 A 
ATOM      4  C   UNL d   1       4.483   1.002  -0.731  0.00  0.00     0.032 A 
ATOM      5  C   UNL d   1       3.844  -1.634  -0.106  0.00  0.00     0.039 A 
ATOM      6  C   UNL d   1       5.281   0.278   0.167  0.00  0.00     0.039 A 
ENDROOT
BRANCH   1   7
ATOM      7  N   UNL d   1       2.471   1.232  -2.049  0.00  0.00    -0.309 N 
ATOM      8  C   UNL d   1       1.161   0.959  -2.351  0.00  0.00     0.327 C 
ATOM      9  N   UNL d   1       0.531   1.861  -3.179  0.00  0.00    -0.275 N 
ATOM     10  O   UNL d   1       0.490   0.014  -1.944  0.00  0.00    -0.247 OA
ATOM     11  C   UNL d   1       0.969   3.080  -3.657  0.00  0.00     0.265 C 
ATOM     12  H   UNL d   1      -0.419   1.566  -3.367  0.00  0.00     0.173 HD
ATOM     13  O   UNL d   1       2.099   3.504  -3.434  0.00  0.00    -0.267 OA
ATOM     14  H   UNL d   1       2.793   2.166  -2.300  0.00  0.00     0.170 HD
BRANCH  11  15
ATOM     15  C   UNL d   1      -0.009   3.865  -4.445  0.00  0.00     0.109 A 
ATOM     16  C   UNL d   1       0.138   5.247  -4.569  0.00  0.00     0.135 A 
ATOM     17  F   UNL d   1       1.156   5.894  -3.984  0.00  0.00    -0.205 F 
ATOM     18  C   UNL d   1      -0.792   6.009  -5.278  0.00  0.00     0.043 A 
ATOM     19  C   UNL d   1      -1.887   5.394  -5.883  0.00  0.00     0.006 A 
ATOM     20  C   UNL d   1      -2.040   4.014  -5.782  0.00  0.00     0.043 A 
ATOM     21  C   UNL d   1      -1.106   3.263  -5.069  0.00  0.00     0.135 A 
ATOM     22  F   UNL d   1      -1.298   1.938  -4.989  0.00  0.00    -0.205 F 
ENDBRANCH  11  15
ENDBRANCH   1   7
BRANCH   2  23
ATOM     23  O   UNL d   1       5.703  -1.653   1.477  0.00  0.00    -0.294 OA
BRANCH  23  24
ATOM     24  C   UNL d   1       5.062  -2.533   2.345  0.00  0.00     0.148 A 
ATOM     25  N   UNL d   1       3.775  -2.329   2.688  0.00  0.00    -0.346 N 
ATOM     26  C   UNL d   1       3.170  -3.291   3.420  0.00  0.00     0.108 A 
ATOM     27  HN  UNL d   1       3.278  -1.483   2.407  1.00  0.00     0.167 HD
ATOM     28  C   UNL d   1       3.801  -4.445   3.875  0.00  0.00     0.070 A 
ATOM     29  C   UNL d   1       5.153  -4.626   3.551  0.00  0.00     0.069 A 
ATOM     30  C   UNL d   1       5.791  -3.623   2.787  0.00  0.00     0.073 A 
BRANCH  28  31
ATOM     31  C   UNL d   1       2.929  -5.395   4.587  0.00  0.00     0.295 C 
ATOM     32  O   UNL d   1       1.781  -5.625   4.239  0.00  0.00    -0.259 OA
BRANCH  31  33
ATOM     33  O   UNL d   1       3.543  -5.871   5.693  0.00  0.00    -0.322 OA
ATOM     34  C   UNL d   1       2.771  -6.860   6.382  0.00  0.00     0.213 C 
ENDBRANCH  31  33
ENDBRANCH  28  31
BRANCH  29  35
ATOM     35  C   UNL d   1       5.977  -5.837   3.890  0.00  0.00     0.418 C 
ATOM     36  F   UNL d   1       5.316  -6.897   4.415  0.00  0.00    -0.166 F 
ATOM     37  F   UNL d   1       6.598  -6.333   2.779  0.00  0.00    -0.166 F 
ATOM     38  F   UNL d   1       6.982  -5.540   4.760  0.00  0.00    -0.166 F 
ENDBRANCH  29  35
ENDBRANCH  23  24
ENDBRANCH   2  23
TORSDOF 7
