REMARK  7 active torsions:
REMARK  status: ('A' for Active; 'I' for Inactive)
REMARK    1  A    between atoms: O_14  and  C_1 
REMARK    2  A    between atoms: O_16  and  C_2 
REMARK    3  A    between atoms: O_15  and  C_3 
REMARK    4  A    between atoms: N_8  and  C_4 
REMARK       I    between atoms: C_7  and  N_8 
REMARK    5  A    between atoms: C_9  and  C_7 
REMARK    6  A    between atoms: C_10  and  C_11 
REMARK    7  A    between atoms: O_17  and  C_10 
ROOT
ATOM      1  C   UNL d   1       1.586  -0.172   0.166  0.00  0.00     0.135 A 
ATOM      2  C   UNL d   1       0.701  -1.213   0.527  0.00  0.00     0.106 A 
ATOM      3  C   UNL d   1       1.069   1.093  -0.152  0.00  0.00     0.106 A 
ATOM      4  C   UNL d   1      -1.208   0.228   0.058  0.00  0.00     0.040 A 
ATOM      5  C   UNL d   1      -0.684  -1.012   0.443  0.00  0.00     0.069 A 
ATOM      6  C   UNL d   1      -0.325   1.273  -0.202  0.00  0.00     0.069 A 
ENDROOT
BRANCH   4   7
ATOM      7  N   UNL d   1      -2.614   0.333  -0.062  0.00  0.00    -0.323 N 
ATOM      8  C   UNL d   1      -3.328   1.424  -0.521  0.00  0.00     0.245 C 
ATOM      9  O   UNL d   1      -2.899   2.534  -0.800  0.00  0.00    -0.268 OA
ATOM     10  H   UNL d   1      -3.134  -0.510   0.143  0.00  0.00     0.169 HD
BRANCH   8  11
ATOM     11  C   UNL d   1      -4.767   1.109  -0.713  0.00  0.00     0.081 C 
ATOM     12  C   UNL d   1      -5.569   2.049  -1.237  0.00  0.00     0.086 C 
BRANCH  12  13
ATOM     13  C   UNL d   1      -6.981   1.723  -1.482  0.00  0.00     0.165 C 
ATOM     14  O   UNL d   1      -7.476   0.628  -1.275  0.00  0.00    -0.647 OA
BRANCH  13  15
ATOM     15  O   UNL d   1      -7.671   2.772  -1.969  0.00  0.00    -0.773 OA
ATOM     16  H   UNL d   1      -7.161   3.595  -2.086  0.00  0.00     0.167 HD
ENDBRANCH  13  15
ENDBRANCH  12  13
ENDBRANCH   8  11
ENDBRANCH   4   7
BRANCH   3  17
ATOM     17  O   UNL d   1       1.738   2.251  -0.447  0.00  0.00    -0.353 OA
ATOM     18  C   UNL d   1       3.154   2.272  -0.387  0.00  0.00     0.210 C 
ENDBRANCH   3  17
BRANCH   2  19
ATOM     19  O   UNL d   1       1.276  -2.385   0.955  0.00  0.00    -0.353 OA
ATOM     20  C   UNL d   1       0.436  -3.360   1.556  0.00  0.00     0.210 C 
ENDBRANCH   2  19
BRANCH   1  21
ATOM     21  O   UNL d   1       2.944  -0.354   0.250  0.00  0.00    -0.351 OA
ATOM     22  C   UNL d   1       3.458  -1.369  -0.616  0.00  0.00     0.210 C 
ENDBRANCH   1  21
TORSDOF 7
