REMARK  8 active torsions:
REMARK  status: ('A' for Active; 'I' for Inactive)
REMARK    1  A    between atoms: C_14  and  C_1 
REMARK    2  A    between atoms: C_7  and  S_16 
REMARK    3  A    between atoms: S_16  and  C_22 
REMARK    4  A    between atoms: O_21  and  C_18 
REMARK    5  A    between atoms: C_27  and  O_21 
REMARK    6  A    between atoms: C_22  and  C_23 
REMARK    7  A    between atoms: C_23  and  C_27 
REMARK    8  A    between atoms: O_31  and  C_23 
ROOT
ATOM      1  C   UNL d   1      -1.426  -0.610   2.735  0.00  0.00     0.090 A 
ATOM      2  C   UNL d   1      -1.978   0.514   2.257  0.00  0.00     0.093 A 
ATOM      3  C   UNL d   1       0.627  -0.294   1.607  0.00  0.00     0.093 A 
ATOM      4  O   UNL d   1      -0.148  -1.058   2.452  0.00  0.00    -0.309 OA
ATOM      5  C   UNL d   1      -1.192   1.358   1.351  0.00  0.00     0.187 A 
ATOM      6  C   UNL d   1       0.165   0.890   1.036  0.00  0.00     0.048 A 
ATOM      7  C   UNL d   1       1.920  -0.739   1.323  0.00  0.00     0.075 A 
ATOM      8  C   UNL d   1       0.979   1.626   0.173  0.00  0.00     0.021 A 
ATOM      9  O   UNL d   1      -1.655   2.390   0.887  0.00  0.00    -0.287 OA
ATOM     10  C   UNL d   1       2.754   0.006   0.479  0.00  0.00     0.071 A 
ATOM     11  C   UNL d   1       2.271   1.181  -0.107  0.00  0.00     0.038 A 
ENDROOT
BRANCH  10  12
ATOM     12  O   UNL d   1       4.006  -0.512   0.261  0.00  0.00    -0.349 OA
BRANCH  12  13
ATOM     13  C   UNL d   1       5.014   0.459  -0.028  0.00  0.00     0.208 C 
BRANCH  13  14
ATOM     14  C   UNL d   1       6.407  -0.184  -0.077  0.00  0.00     0.152 C 
BRANCH  14  15
ATOM     15  C   UNL d   1       6.524  -1.255  -1.185  0.00  0.00     0.113 C 
BRANCH  15  16
ATOM     16  S   UNL d   1       8.205  -1.994  -1.137  0.00  0.00    -0.127 SA
BRANCH  16  17
ATOM     17  C   UNL d   1       8.160  -3.215  -2.450  0.00  0.00     0.007 A 
ATOM     18  C   UNL d   1       7.226  -4.263  -2.374  0.00  0.00     0.027 A 
ATOM     19  C   UNL d   1       7.269  -5.364  -3.250  0.00  0.00    -0.039 A 
ATOM     20  C   UNL d   1       6.314  -6.507  -3.058  0.00  0.00     0.050 C 
ATOM     21  C   UNL d   1       8.268  -5.395  -4.231  0.00  0.00     0.040 A 
ATOM     22  C   UNL d   1       9.184  -4.349  -4.337  0.00  0.00     0.032 A 
ATOM     23 CL   UNL d   1       8.444  -6.737  -5.305  0.00  0.00    -0.084 Cl
ATOM     24  C   UNL d   1       9.150  -3.255  -3.452  0.00  0.00    -0.044 A 
ATOM     25  C   UNL d   1      10.236  -2.223  -3.614  0.00  0.00     0.049 C 
ENDBRANCH  16  17
ENDBRANCH  15  16
ENDBRANCH  14  15
BRANCH  14  26
ATOM     26  O   UNL d   1       7.359   0.876  -0.261  0.00  0.00    -0.393 OA
ATOM     27  H   UNL d   1       7.383   1.110  -1.204  0.00  0.00     0.210 HD
ENDBRANCH  14  26
ENDBRANCH  13  14
ENDBRANCH  12  13
ENDBRANCH  10  12
BRANCH   1  28
ATOM     28  C   UNL d   1      -2.227  -1.470   3.611  0.00  0.00    -0.002 A 
ATOM     29  C   UNL d   1      -3.042  -2.466   3.055  0.00  0.00     0.016 A 
ATOM     30  C   UNL d   1      -3.905  -3.205   3.868  0.00  0.00     0.024 A 
ATOM     31  C   UNL d   1      -3.952  -2.953   5.237  0.00  0.00     0.034 A 
ATOM     32  C   UNL d   1      -3.134  -1.977   5.804  0.00  0.00     0.024 A 
ATOM     33 CL   UNL d   1      -5.043  -3.837   6.231  0.00  0.00    -0.084 Cl
ATOM     34  C   UNL d   1      -2.271  -1.235   4.992  0.00  0.00     0.016 A 
ENDBRANCH   1  28
TORSDOF 8
