REMARK  7 active torsions:
REMARK  status: ('A' for Active; 'I' for Inactive)
REMARK    1  A    between atoms: S_2  and  C_1 
REMARK    2  A    between atoms: N_9  and  S_2 
REMARK    3  A    between atoms: C_8  and  C_3 
REMARK    4  A    between atoms: C_12  and  C_4 
REMARK    5  A    between atoms: C_7  and  C_5 
REMARK    6  A    between atoms: O_18  and  C_8 
REMARK    7  A    between atoms: C_17  and  N_9 
ROOT
ATOM      1  C   UNL d   1       1.580   0.840  -0.089  0.00  0.00     0.110 A 
ATOM      2  C   UNL d   1       0.294   1.361  -0.051  0.00  0.00     0.104 A 
ATOM      3  C   UNL d   1       1.587  -0.622  -0.024  0.00  0.00     0.021 A 
ATOM      4  C   UNL d   1       0.278  -1.115   0.070  0.00  0.00     0.102 A 
ATOM      5  S   UNL d   1      -0.885   0.143  -0.044  0.00  0.00    -0.077 SA
ENDROOT
BRANCH   1   6
ATOM      6  S   UNL d   1       2.967   1.897  -0.284  0.00  0.00     0.248 S 
ATOM      7  O   UNL d   1       2.417   3.070  -0.932  0.00  0.00    -0.205 OA
ATOM      8  O   UNL d   1       3.568   1.944   1.025  0.00  0.00    -0.205 OA
BRANCH   6   9
ATOM      9  N   UNL d   1       4.029   1.179  -1.397  0.00  0.00    -0.181 NA
ATOM     10  H   UNL d   1       3.493   0.710  -2.124  0.00  0.00     0.146 HD
BRANCH   9  11
ATOM     11  C   UNL d   1       4.991   2.078  -1.969  0.00  0.00     0.022 A 
ATOM     12  C   UNL d   1       6.280   2.140  -1.449  0.00  0.00     0.025 A 
ATOM     13  C   UNL d   1       7.234   2.961  -2.062  0.00  0.00     0.008 A 
ATOM     14  C   UNL d   1       6.897   3.741  -3.178  0.00  0.00    -0.062 A 
ATOM     15  C   UNL d   1       5.580   3.723  -3.646  0.00  0.00     0.008 A 
ATOM     16  C   UNL d   1       7.943   4.568  -3.868  0.00  0.00     0.048 C 
ATOM     17  C   UNL d   1       4.631   2.894  -3.045  0.00  0.00     0.025 A 
ENDBRANCH   9  11
ENDBRANCH   6   9
ENDBRANCH   1   6
BRANCH   2  18
ATOM     18  C   UNL d   1      -0.177   2.730  -0.081  0.00  0.00     0.301 C 
ATOM     19  O   UNL d   1      -1.048   3.159  -0.832  0.00  0.00    -0.259 OA
BRANCH  18  20
ATOM     20  O   UNL d   1       0.427   3.455   0.900  0.00  0.00    -0.322 OA
ATOM     21  C   UNL d   1       0.059   4.835   0.882  0.00  0.00     0.213 C 
ENDBRANCH  18  20
ENDBRANCH   2  18
BRANCH   3  22
ATOM     22  C   UNL d   1       2.747  -1.533  -0.025  0.00  0.00    -0.023 A 
ATOM     23  C   UNL d   1       3.855  -1.289   0.797  0.00  0.00     0.012 A 
ATOM     24  C   UNL d   1       4.948  -2.164   0.815  0.00  0.00     0.001 A 
ATOM     25  C   UNL d   1       4.927  -3.328   0.054  0.00  0.00     0.000 A 
ATOM     26  C   UNL d   1       3.829  -3.598  -0.756  0.00  0.00     0.001 A 
ATOM     27  C   UNL d   1       2.766  -2.690  -0.824  0.00  0.00     0.012 A 
ENDBRANCH   3  22
BRANCH   4  28
ATOM     28  C   UNL d   1      -0.294  -2.503   0.205  0.00  0.00     0.424 C 
ATOM     29  F   UNL d   1       0.593  -3.436   0.625  0.00  0.00    -0.166 F 
ATOM     30  F   UNL d   1      -1.326  -2.548   1.090  0.00  0.00    -0.166 F 
ATOM     31  F   UNL d   1      -0.786  -2.943  -0.985  0.00  0.00    -0.166 F 
ENDBRANCH   4  28
TORSDOF 7
