REMARK  2 active torsions:
REMARK  status: ('A' for Active; 'I' for Inactive)
REMARK    1  A    between atoms: O_12  and  C_9 
REMARK    2  A    between atoms: O_13  and  C_10 
ROOT
ATOM      1  C   UNL d   1      -0.721   0.579   0.106  0.00  0.00     0.046 A 
ATOM      2  C   UNL d   1      -0.493  -0.790   0.125  0.00  0.00     0.086 A 
ATOM      3  C   UNL d   1       0.425   1.493   0.250  0.00  0.00     0.165 C 
ATOM      4  O   UNL d   1       0.744  -1.364   0.222  0.00  0.00    -0.340 OA
ATOM      5  C   UNL d   1      -2.019   1.090  -0.011  0.00  0.00     0.057 A 
ATOM      6  C   UNL d   1      -1.582  -1.654   0.057  0.00  0.00     0.077 A 
ATOM      7  C   UNL d   1       1.863  -0.504  -0.066  0.00  0.00     0.067 C 
ATOM      8  C   UNL d   1       1.729   0.854   0.624  0.00  0.00     0.121 C 
ATOM      9  C   UNL d   1      -3.120   0.227  -0.089  0.00  0.00     0.102 A 
ATOM     10  C   UNL d   1      -2.897  -1.164  -0.052  0.00  0.00     0.104 A 
ATOM     11  O   UNL d   1       0.288   2.705   0.137  0.00  0.00    -0.292 OA
ATOM     12  C   UNL d   1       2.041  -0.374  -1.589  0.00  0.00     0.046 C 
ATOM     13  C   UNL d   1       3.099  -1.219   0.503  0.00  0.00     0.046 C 
ENDROOT
BRANCH  10  14
ATOM     14  O   UNL d   1      -3.818  -2.178  -0.110  0.00  0.00    -0.353 OA
ATOM     15  C   UNL d   1      -5.196  -1.854  -0.215  0.00  0.00     0.210 C 
ENDBRANCH  10  14
BRANCH   9  16
ATOM     16  O   UNL d   1      -4.408   0.679  -0.192  0.00  0.00    -0.353 OA
ATOM     17  C   UNL d   1      -4.638   2.082  -0.204  0.00  0.00     0.210 C 
ENDBRANCH   9  16
TORSDOF 2
