REMARK  5 active torsions:
REMARK  status: ('A' for Active; 'I' for Inactive)
REMARK    1  A    between atoms: C_3  and  C_1 
REMARK    2  A    between atoms: C_6  and  C_1 
REMARK    3  A    between atoms: C_2  and  C_9 
REMARK    4  A    between atoms: O_11  and  C_2 
REMARK    5  A    between atoms: C_9  and  C_6 
ROOT
ATOM      1  C   UNL d   1       1.126   0.134   0.015  0.00  0.00     0.160 C 
ATOM      2  O   UNL d   1       0.531  -0.872  -0.376  0.00  0.00    -0.292 OA
ENDROOT
BRANCH   1   3
ATOM      3  C   UNL d   1       0.355   1.299   0.530  0.00  0.00     0.010 A 
ATOM      4  C   UNL d   1      -0.866   1.057   1.175  0.00  0.00     0.018 A 
ATOM      5  C   UNL d   1      -1.613   2.123   1.681  0.00  0.00     0.043 A 
ATOM      6  C   UNL d   1      -1.144   3.424   1.527  0.00  0.00     0.116 A 
ATOM      7  C   UNL d   1       0.053   3.679   0.870  0.00  0.00     0.043 A 
ATOM      8  F   UNL d   1      -1.860   4.446   2.013  0.00  0.00    -0.206 F 
ATOM      9  C   UNL d   1       0.806   2.616   0.365  0.00  0.00     0.018 A 
ENDBRANCH   1   3
BRANCH   1  10
ATOM     10  C   UNL d   1       2.643   0.194   0.025  0.00  0.00     0.094 C 
BRANCH  10  11
ATOM     11  C   UNL d   1       3.237  -0.855  -0.906  0.00  0.00     0.117 C 
BRANCH  11  12
ATOM     12  C   UNL d   1       2.901  -0.536  -2.341  0.00  0.00     0.139 C 
ATOM     13  O   UNL d   1       3.602   0.162  -3.057  0.00  0.00    -0.650 OA
BRANCH  12  14
ATOM     14  O   UNL d   1       1.717  -1.043  -2.748  0.00  0.00    -0.776 OA
ATOM     15  H   UNL d   1       1.184  -1.430  -2.011  0.00  0.00     0.167 HD
ENDBRANCH  12  14
ENDBRANCH  11  12
ENDBRANCH  10  11
ENDBRANCH   1  10
TORSDOF 5
