REMARK  12 active torsions:
REMARK  status: ('A' for Active; 'I' for Inactive)
REMARK    1  A    between atoms: C_4  and  C_1 
REMARK    2  A    between atoms: C_5  and  C_1 
REMARK    3  A    between atoms: C_2  and  C_6 
REMARK    4  A    between atoms: N_7  and  C_3 
REMARK    5  A    between atoms: O_21  and  C_4 
REMARK    6  A    between atoms: O_20  and  C_5 
REMARK    7  A    between atoms: C_8  and  N_7 
REMARK    8  A    between atoms: N_11  and  C_10 
REMARK    9  A    between atoms: C_19  and  N_11 
REMARK   10  A    between atoms: C_22  and  C_19 
REMARK   11  A    between atoms: C_24  and  O_20 
REMARK   12  A    between atoms: C_23  and  O_21 
ROOT
ATOM      1  C   UNL d   1      -1.625  -2.112  -4.659  0.00  0.00     0.050 A 
ATOM      2  C   UNL d   1       0.141  -2.073  -2.953  0.00  0.00     0.054 A 
ATOM      3  C   UNL d   1      -1.003  -1.510  -3.555  0.00  0.00     0.047 A 
ATOM      4  C   UNL d   1       0.690  -3.272  -3.491  0.00  0.00     0.035 A 
ATOM      5  C   UNL d   1      -1.115  -3.322  -5.137  0.00  0.00     0.018 A 
ATOM      6  C   UNL d   1       0.011  -3.898  -4.546  0.00  0.00     0.026 A 
ENDROOT
BRANCH   2   7
ATOM      7  N   UNL d   1       0.775  -1.304  -1.941  0.00  0.00    -0.363 N 
ATOM      8  H   UNL d   1       0.148  -0.743  -1.371  0.00  0.00     0.165 HD
BRANCH   7   9
ATOM      9  C   UNL d   1       2.122  -1.109  -1.710  0.00  0.00     0.112 C 
ATOM     10  C   UNL d   1       3.222  -1.117  -2.508  0.00  0.00     0.129 C 
BRANCH  10  11
ATOM     11  C   UNL d   1       4.564  -1.064  -1.872  0.00  0.00     0.300 C 
ATOM     12  O   UNL d   1       5.571  -1.566  -2.349  0.00  0.00    -0.259 OA
BRANCH  11  13
ATOM     13  O   UNL d   1       4.517  -0.438  -0.666  0.00  0.00    -0.318 OA
BRANCH  13  14
ATOM     14  C   UNL d   1       5.647  -0.682   0.183  0.00  0.00     0.174 C 
ATOM     15  C   UNL d   1       5.377  -1.959   0.960  0.00  0.00     0.034 C 
ENDBRANCH  13  14
ENDBRANCH  11  13
ENDBRANCH  10  11
BRANCH  10  16
ATOM     16  C   UNL d   1       3.163  -1.249  -3.976  0.00  0.00     0.300 C 
ATOM     17  O   UNL d   1       4.040  -1.724  -4.684  0.00  0.00    -0.259 OA
BRANCH  16  18
ATOM     18  O   UNL d   1       2.039  -0.647  -4.441  0.00  0.00    -0.318 OA
BRANCH  18  19
ATOM     19  C   UNL d   1       1.898  -0.518  -5.854  0.00  0.00     0.174 C 
ATOM     20  C   UNL d   1       2.254   0.918  -6.160  0.00  0.00     0.034 C 
ENDBRANCH  18  19
ENDBRANCH  16  18
ENDBRANCH  10  16
ENDBRANCH   7   9
ENDBRANCH   2   7
BRANCH   4  21
ATOM     21  N   UNL d   1       1.812  -3.873  -2.892  0.00  0.00    -0.287 NA
ATOM     22  H   UNL d   1       1.533  -4.391  -2.062  0.00  0.00     0.128 HD
BRANCH  21  23
ATOM     23  C   UNL d   1       2.776  -4.593  -3.729  0.00  0.00     0.131 C 
BRANCH  23  24
ATOM     24  C   UNL d   1       2.805  -6.072  -3.427  0.00  0.00    -0.045 A 
ATOM     25  C   UNL d   1       2.399  -7.010  -4.387  0.00  0.00     0.008 A 
ATOM     26  C   UNL d   1       2.499  -8.379  -4.129  0.00  0.00     0.001 A 
ATOM     27  C   UNL d   1       3.005  -8.824  -2.909  0.00  0.00     0.000 A 
ATOM     28  C   UNL d   1       3.406  -7.902  -1.944  0.00  0.00     0.001 A 
ATOM     29  C   UNL d   1       3.305  -6.534  -2.200  0.00  0.00     0.008 A 
ENDBRANCH  23  24
ENDBRANCH  21  23
ENDBRANCH   4  21
BRANCH   1  30
ATOM     30  C   UNL d   1      -2.804  -1.478  -5.349  0.00  0.00     0.417 C 
ATOM     31  F   UNL d   1      -3.178  -0.282  -4.812  0.00  0.00    -0.166 F 
ATOM     32  F   UNL d   1      -2.562  -1.233  -6.667  0.00  0.00    -0.166 F 
ATOM     33  F   UNL d   1      -3.914  -2.266  -5.314  0.00  0.00    -0.166 F 
ENDBRANCH   1  30
TORSDOF 12
