REMARK  3 active torsions:
REMARK  status: ('A' for Active; 'I' for Inactive)
REMARK    1  A    between atoms: N_7  and  C_2 
REMARK    2  A    between atoms: N_16  and  C_11 
REMARK    3  A    between atoms: O_19  and  C_17 
ROOT
ATOM      1  C   UNL d   1      -1.033   0.402   0.009  0.00  0.00     0.058 A 
ATOM      2  C   UNL d   1      -3.108   1.180  -0.073  0.00  0.00     0.150 A 
ATOM      3  N   UNL d   1      -1.830   1.522  -0.138  0.00  0.00    -0.335 N 
ATOM      4  HN  UNL d   1      -1.484   2.471  -0.275  1.00  0.00     0.168 HD
ATOM      5  C   UNL d   1      -1.711  -0.782   0.207  0.00  0.00     0.014 A 
ATOM      6  S   UNL d   1      -3.382  -0.517   0.200  0.00  0.00    -0.056 SA
ATOM      7  C   UNL d   1       0.425   0.376  -0.020  0.00  0.00    -0.002 A 
ATOM      8  C   UNL d   1       1.076  -0.875  -0.139  0.00  0.00    -0.043 A 
ATOM      9  C   UNL d   1       1.190   1.537   0.101  0.00  0.00     0.017 A 
ATOM     10  C   UNL d   1      -1.069  -2.108   0.418  0.00  0.00     0.053 C 
ATOM     11  C   UNL d   1       2.475  -0.931  -0.138  0.00  0.00     0.044 A 
ATOM     12  C   UNL d   1       0.269  -2.145  -0.336  0.00  0.00     0.045 C 
ATOM     13  C   UNL d   1       3.238   0.230   0.006  0.00  0.00     0.068 A 
ATOM     14  C   UNL d   1       2.593   1.464   0.120  0.00  0.00     0.037 A 
ENDROOT
BRANCH   2  15
ATOM     15  N   UNL d   1      -4.218   1.955  -0.189  0.00  0.00    -0.333 N 
ATOM     16  C   UNL d   1      -4.021   3.207  -0.416  0.00  0.00     0.179 C 
ATOM     17  HN  UNL d   1      -5.157   1.566  -0.100  1.00  0.00     0.168 HD
BRANCH  16  18
ATOM     18  N   UNL d   1      -5.001   4.166  -0.576  0.00  0.00    -0.386 N 
ATOM     19  C   UNL d   1      -4.681   5.562  -0.813  0.00  0.00     0.149 C 
ATOM     20  C   UNL d   1      -6.418   3.843  -0.503  0.00  0.00     0.149 C 
ENDBRANCH  16  18
ENDBRANCH   2  15
BRANCH  13  21
ATOM     21  O   UNL d   1       4.587   0.010   0.017  0.00  0.00    -0.356 OA
ATOM     22  C   UNL d   1       5.431   1.137   0.199  0.00  0.00     0.210 C 
ENDBRANCH  13  21
TORSDOF 3
