REMARK  5 active torsions:
REMARK  status: ('A' for Active; 'I' for Inactive)
REMARK    1  A    between atoms: C_4  and  C_1 
REMARK    2  A    between atoms: C_3  and  C_2 
REMARK       I    between atoms: N_8  and  C_4 
REMARK    3  A    between atoms: C_15  and  N_8 
REMARK    4  A    between atoms: O_19  and  C_9 
REMARK    5  A    between atoms: C_17  and  C_15 
ROOT
ATOM      1  C   UNL d   1       0.645   1.252  -0.010  0.00  0.00     0.062 A 
ATOM      2  C   UNL d   1      -0.590   0.821   0.490  0.00  0.00     0.069 A 
ATOM      3  C   UNL d   1       1.466   0.293  -0.613  0.00  0.00     0.108 A 
ATOM      4  N   UNL d   1       1.141  -1.009  -0.788  0.00  0.00    -0.346 N 
ATOM      5  HN  UNL d   1       1.774  -1.661  -1.251  1.00  0.00     0.167 HD
ATOM      6  C   UNL d   1      -0.057  -1.399  -0.321  0.00  0.00     0.142 A 
ATOM      7  C   UNL d   1      -0.937  -0.536   0.310  0.00  0.00     0.073 A 
ENDROOT
BRANCH   1   8
ATOM      8  C   UNL d   1       1.237   2.608   0.088  0.00  0.00     0.254 C 
ATOM      9  N   UNL d   1       0.418   3.688  -0.140  0.00  0.00    -0.353 N 
ATOM     10  H   UNL d   1      -0.558   3.573  -0.372  0.00  0.00     0.163 HD
ATOM     11  O   UNL d   1       2.433   2.712   0.337  0.00  0.00    -0.268 OA
BRANCH   9  12
ATOM     12  C   UNL d   1       0.880   5.043   0.084  0.00  0.00     0.161 C 
BRANCH  12  13
ATOM     13  C   UNL d   1       1.055   5.790  -1.211  0.00  0.00    -0.040 A 
ATOM     14  C   UNL d   1      -0.035   6.426  -1.823  0.00  0.00     0.010 A 
ATOM     15  C   UNL d   1       0.139   7.133  -3.017  0.00  0.00     0.024 A 
ATOM     16  C   UNL d   1       1.399   7.201  -3.606  0.00  0.00     0.034 A 
ATOM     17  C   UNL d   1       2.488   6.562  -3.017  0.00  0.00     0.024 A 
ATOM     18 CL   UNL d   1       1.611   8.079  -5.070  0.00  0.00    -0.084 Cl
ATOM     19  C   UNL d   1       2.315   5.853  -1.827  0.00  0.00     0.010 A 
ENDBRANCH  12  13
ENDBRANCH   9  12
ENDBRANCH   1   8
BRANCH   2  20
ATOM     20  C   UNL d   1      -1.585   1.662   1.229  0.00  0.00     0.418 C 
ATOM     21  F   UNL d   1      -1.180   2.910   1.579  0.00  0.00    -0.166 F 
ATOM     22  F   UNL d   1      -2.721   1.847   0.496  0.00  0.00    -0.166 F 
ATOM     23  F   UNL d   1      -1.992   1.082   2.393  0.00  0.00    -0.166 F 
ENDBRANCH   2  20
BRANCH   6  24
ATOM     24  O   UNL d   1      -0.462  -2.709  -0.446  0.00  0.00    -0.341 OA
ATOM     25  C   UNL d   1       0.496  -3.529  -1.110  0.00  0.00     0.211 C 
ENDBRANCH   6  24
TORSDOF 5
