REMARK  2 active torsions:
REMARK  status: ('A' for Active; 'I' for Inactive)
REMARK    1  A    between atoms: C_3  and  C_1 
REMARK       I    between atoms: N_7  and  C_3 
REMARK    2  A    between atoms: C_12  and  N_11 
ROOT
ATOM      1  C   UNL d   1      -1.364  -2.963   0.017  0.00  0.00     0.256 C 
ATOM      2  N   UNL d   1      -0.077  -3.497  -0.124  0.00  0.00    -0.345 N 
ATOM      3  N   UNL d   1       2.403  -4.905  -0.435  0.00  0.00    -0.376 N 
ATOM      4  O   UNL d   1      -2.292  -3.265  -0.731  0.00  0.00    -0.267 OA
ATOM      5  C   UNL d   1       1.000  -3.377   0.879  0.00  0.00     0.146 C 
ATOM      6  C   UNL d   1       0.053  -4.620  -1.071  0.00  0.00     0.146 C 
ATOM      7  C   UNL d   1       1.485  -4.847  -1.585  0.00  0.00     0.143 C 
ATOM      8  C   UNL d   1       2.413  -3.637   0.317  0.00  0.00     0.143 C 
ENDROOT
BRANCH   1   9
ATOM      9  C   UNL d   1      -1.668  -2.031   1.115  0.00  0.00     0.061 A 
ATOM     10  C   UNL d   1      -2.278  -0.774   0.855  0.00  0.00     0.082 A 
ATOM     11  N   UNL d   1      -2.568  -0.222  -0.336  0.00  0.00    -0.310 N 
ATOM     12  C   UNL d   1      -2.665   0.125   2.009  0.00  0.00     0.068 A 
ATOM     13  S   UNL d   1      -3.319   1.224  -0.034  0.00  0.00     0.068 SA
ATOM     14  HN  UNL d   1      -2.365  -0.618  -1.254  1.00  0.00     0.176 HD
ATOM     15  N   UNL d   1      -3.244   1.272   1.623  0.00  0.00    -0.310 N 
ATOM     16  HN  UNL d   1      -3.572   2.025   2.228  1.00  0.00     0.176 HD
ATOM     17  C   UNL d   1      -2.420  -0.257   3.351  0.00  0.00     0.032 A 
ATOM     18  C   UNL d   1      -1.838  -1.520   3.544  0.00  0.00     0.003 A 
ATOM     19  C   UNL d   1      -1.500  -2.381   2.474  0.00  0.00     0.019 A 
ENDBRANCH   1   9
BRANCH   3  20
ATOM     20  C   UNL d   1       3.631  -5.561  -0.556  0.00  0.00     0.052 A 
ATOM     21  C   UNL d   1       4.235  -6.210   0.550  0.00  0.00     0.060 A 
ATOM     22 CL   UNL d   1       3.468  -6.268   2.108  0.00  0.00    -0.082 Cl
ATOM     23  C   UNL d   1       5.448  -6.898   0.423  0.00  0.00     0.026 A 
ATOM     24  C   UNL d   1       6.086  -6.966  -0.811  0.00  0.00     0.002 A 
ATOM     25  C   UNL d   1       5.516  -6.342  -1.914  0.00  0.00     0.002 A 
ATOM     26  C   UNL d   1       4.303  -5.647  -1.786  0.00  0.00     0.031 A 
ENDBRANCH   3  20
TORSDOF 2
