REMARK  3 active torsions:
REMARK  status: ('A' for Active; 'I' for Inactive)
REMARK    1  A    between atoms: N_16  and  C_4 
REMARK    2  A    between atoms: C_12  and  C_6 
REMARK    3  A    between atoms: O_20  and  C_17 
ROOT
ATOM      1  C   UNL d   1       1.440   0.907  -0.001  0.00  0.00     0.073 A 
ATOM      2  C   UNL d   1       0.644   2.176  -0.027  0.00  0.00     0.301 A 
ATOM      3  C   UNL d   1       0.771  -0.327   0.012  0.00  0.00    -0.004 A 
ATOM      4  C   UNL d   1       2.861   0.975  -0.038  0.00  0.00     0.045 A 
ATOM      5  C   UNL d   1       3.613  -0.232  -0.047  0.00  0.00     0.077 A 
ATOM      6  C   UNL d   1       2.978  -1.492   0.000  0.00  0.00    -0.002 A 
ATOM      7  O   UNL d   1      -0.737   2.064   0.024  0.00  0.00    -0.274 OA
ATOM      8  C   UNL d   1       1.562  -1.491   0.035  0.00  0.00     0.027 A 
ATOM      9  C   UNL d   1      -0.701  -0.372   0.016  0.00  0.00     0.009 A 
ATOM     10  C   UNL d   1      -1.406   0.830   0.023  0.00  0.00     0.090 A 
ATOM     11  C   UNL d   1       5.046  -0.123  -0.139  0.00  0.00     0.102 C 
ATOM     12  N   UNL d   1       6.197   0.003  -0.208  0.00  0.00    -0.191 NA
ATOM     13  O   UNL d   1       1.171   3.277  -0.117  0.00  0.00    -0.259 OA
ATOM     14  C   UNL d   1      -1.474  -1.547   0.005  0.00  0.00     0.015 A 
ATOM     15  C   UNL d   1      -2.803   0.896   0.020  0.00  0.00     0.038 A 
ATOM     16  C   UNL d   1      -2.876  -1.502   0.005  0.00  0.00     0.001 A 
ATOM     17  C   UNL d   1      -3.541  -0.279   0.011  0.00  0.00     0.003 A 
ENDROOT
BRANCH   4  18
ATOM     18  N   UNL d   1       3.528   2.206   0.181  0.00  0.00    -0.301 NA
ATOM     19  H   UNL d   1       2.951   3.033  -0.019  0.00  0.00     0.124 HD
ATOM     20  H   UNL d   1       4.472   2.303  -0.184  0.00  0.00     0.124 HD
ENDBRANCH   4  18
BRANCH   6  21
ATOM     21  C   UNL d   1       3.687  -2.809   0.060  0.00  0.00    -0.022 A 
ATOM     22  C   UNL d   1       3.140  -3.950  -0.569  0.00  0.00     0.049 A 
ATOM     23  C   UNL d   1       3.697  -5.224  -0.410  0.00  0.00     0.069 A 
ATOM     24  C   UNL d   1       4.883  -5.364   0.305  0.00  0.00     0.037 A 
ATOM     25  C   UNL d   1       5.481  -4.253   0.889  0.00  0.00     0.004 A 
ATOM     26  C   UNL d   1       4.869  -3.001   0.798  0.00  0.00     0.012 A 
BRANCH  23  27
ATOM     27  O   UNL d   1       3.169  -6.392  -0.887  0.00  0.00    -0.356 OA
ATOM     28  C   UNL d   1       1.903  -6.313  -1.530  0.00  0.00     0.210 C 
ENDBRANCH  23  27
ENDBRANCH   6  21
TORSDOF 3
