REMARK  7 active torsions:
REMARK  status: ('A' for Active; 'I' for Inactive)
REMARK       I    between atoms: C_2  and  N_1 
REMARK       I    between atoms: N_8  and  C_2 
REMARK    1  A    between atoms: C_5  and  C_3 
REMARK    2  A    between atoms: C_6  and  C_5 
REMARK       I    between atoms: N_9  and  C_6 
REMARK    3  A    between atoms: C_7  and  N_9 
REMARK    4  A    between atoms: C_16  and  N_8 
REMARK    5  A    between atoms: O_19  and  C_21 
REMARK    6  A    between atoms: C_25  and  O_19 
REMARK    7  A    between atoms: C_31  and  C_25 
ROOT
ATOM      1  N   UNL d   1      -1.447  -1.142   0.283  0.00  0.00    -0.318 N 
ATOM      2  C   UNL d   1      -2.299  -2.034   0.925  0.00  0.00     0.323 C 
ATOM      3  C   UNL d   1       0.039  -1.273   0.395  0.00  0.00     0.189 C 
ATOM      4  C   UNL d   1       0.599  -0.146   1.304  0.00  0.00     0.241 C 
ATOM      5  N   UNL d   1      -3.646  -1.769   0.827  0.00  0.00    -0.309 N 
ATOM      6  N   UNL d   1       0.021   1.098   1.165  0.00  0.00    -0.358 N 
ATOM      7  O   UNL d   1      -1.861  -3.031   1.489  0.00  0.00    -0.247 OA
ATOM      8  O   UNL d   1       1.621  -0.244   1.980  0.00  0.00    -0.271 OA
ATOM      9  C   UNL d   1      -1.828   0.186  -0.229  0.00  0.00     0.148 C 
ATOM     10  C   UNL d   1      -1.351   1.276   0.735  0.00  0.00     0.142 C 
ATOM     11  H   UNL d   1      -3.933  -1.052   0.189  0.00  0.00     0.170 HD
ATOM     12  H   UNL d   1       0.439   1.798   1.768  0.00  0.00     0.162 HD
ENDROOT
BRANCH   3  13
ATOM     13  C   UNL d   1       0.692  -2.610   0.756  0.00  0.00     0.138 C 
BRANCH  13  14
ATOM     14  C   UNL d   1       0.655  -3.588  -0.395  0.00  0.00     0.224 C 
ATOM     15  N   UNL d   1      -0.344  -4.533  -0.306  0.00  0.00    -0.326 N 
ATOM     16  H   UNL d   1      -1.113  -4.326   0.339  0.00  0.00     0.169 HD
ATOM     17  O   UNL d   1       1.468  -3.495  -1.313  0.00  0.00    -0.273 OA
BRANCH  15  18
ATOM     18  C   UNL d   1      -0.443  -5.739  -1.044  0.00  0.00     0.058 A 
ATOM     19  C   UNL d   1       0.644  -6.269  -1.752  0.00  0.00     0.055 A 
ATOM     20  C   UNL d   1       0.543  -7.514  -2.377  0.00  0.00     0.036 A 
ATOM     21 CL   UNL d   1       1.902  -8.167  -3.210  0.00  0.00    -0.084 Cl
ATOM     22  C   UNL d   1      -0.639  -8.248  -2.318  0.00  0.00     0.026 A 
ATOM     23  C   UNL d   1      -1.737  -7.724  -1.640  0.00  0.00     0.028 A 
ATOM     24  C   UNL d   1      -1.639  -6.479  -1.009  0.00  0.00     0.060 A 
ATOM     25 CL   UNL d   1      -3.049  -5.877  -0.216  0.00  0.00    -0.082 Cl
ENDBRANCH  15  18
ENDBRANCH  13  14
ENDBRANCH   3  13
BRANCH   5  26
ATOM     26  C   UNL d   1      -4.711  -2.582   1.291  0.00  0.00     0.036 A 
ATOM     27  C   UNL d   1      -4.556  -3.709   2.096  0.00  0.00     0.032 A 
ATOM     28  C   UNL d   1      -5.657  -4.516   2.409  0.00  0.00     0.039 A 
ATOM     29  C   UNL d   1      -6.933  -4.188   1.958  0.00  0.00     0.069 A 
ATOM     30  C   UNL d   1      -7.102  -3.038   1.192  0.00  0.00     0.039 A 
ATOM     31  C   UNL d   1      -6.000  -2.236   0.868  0.00  0.00     0.032 A 
BRANCH  29  32
ATOM     32  O   UNL d   1      -7.914  -5.067   2.318  0.00  0.00    -0.347 OA
BRANCH  32  33
ATOM     33  C   UNL d   1      -9.258  -4.657   2.079  0.00  0.00     0.214 C 
BRANCH  33  34
ATOM     34  C   UNL d   1     -10.188  -5.633   2.757  0.00  0.00    -0.034 A 
ATOM     35  C   UNL d   1     -10.846  -5.277   3.941  0.00  0.00     0.009 A 
ATOM     36  C   UNL d   1     -11.710  -6.177   4.570  0.00  0.00     0.001 A 
ATOM     37  C   UNL d   1     -11.915  -7.440   4.022  0.00  0.00     0.000 A 
ATOM     38  C   UNL d   1     -11.254  -7.811   2.851  0.00  0.00     0.001 A 
ATOM     39  C   UNL d   1     -10.391  -6.912   2.222  0.00  0.00     0.009 A 
ENDBRANCH  33  34
ENDBRANCH  32  33
ENDBRANCH  29  32
ENDBRANCH   5  26
TORSDOF 7
