REMARK  4 active torsions:
REMARK  status: ('A' for Active; 'I' for Inactive)
REMARK    1  A    between atoms: N_2  and  S_1 
REMARK    2  A    between atoms: C_3  and  S_1 
REMARK    3  A    between atoms: C_5  and  N_4 
REMARK    4  A    between atoms: O_16  and  C_13 
ROOT
ATOM      1  N   UNL d   1       0.500   1.167  -0.161  0.00  0.00    -0.304 N 
ATOM      2  N   UNL d   1      -0.660   1.961   2.374  0.00  0.00    -0.376 N 
ATOM      3  C   UNL d   1       0.933   2.443   0.511  0.00  0.00     0.155 C 
ATOM      4  C   UNL d   1      -0.883   0.791   0.233  0.00  0.00     0.155 C 
ATOM      5  C   UNL d   1      -0.999   0.665   1.754  0.00  0.00     0.143 C 
ATOM      6  C   UNL d   1       0.702   2.431   2.053  0.00  0.00     0.143 C 
ENDROOT
BRANCH   1   7
ATOM      7  S   UNL d   1       1.616  -0.101  -0.240  0.00  0.00     0.261 S 
ATOM      8  O   UNL d   1       0.914  -1.349  -0.439  0.00  0.00    -0.200 OA
ATOM      9  O   UNL d   1       2.578   0.070   0.830  0.00  0.00    -0.200 OA
BRANCH   7  10
ATOM     10  C   UNL d   1       2.432   0.258  -1.778  0.00  0.00     0.081 A 
ATOM     11  C   UNL d   1       1.674   0.237  -2.958  0.00  0.00     0.049 A 
ATOM     12  C   UNL d   1       2.301   0.504  -4.172  0.00  0.00     0.035 A 
ATOM     13 CL   UNL d   1       1.384   0.493  -5.627  0.00  0.00    -0.084 Cl
ATOM     14  C   UNL d   1       3.668   0.782  -4.215  0.00  0.00     0.024 A 
ATOM     15  C   UNL d   1       4.420   0.786  -3.038  0.00  0.00     0.003 A 
ATOM     16  C   UNL d   1       3.803   0.521  -1.813  0.00  0.00     0.025 A 
ENDBRANCH   7  10
ENDBRANCH   1   7
BRANCH   2  17
ATOM     17  C   UNL d   1      -1.392   2.390   3.483  0.00  0.00     0.064 C 
ATOM     18  C   UNL d   1      -1.613   3.750   3.823  0.00  0.00     0.094 C 
ATOM     19  C   UNL d   1      -2.601   4.085   4.773  0.00  0.00     0.039 C 
ATOM     20  C   UNL d   1      -3.330   3.106   5.443  0.00  0.00     0.003 C 
ATOM     21  C   UNL d   1      -3.044   1.775   5.214  0.00  0.00     0.002 C 
ATOM     22  C   UNL d   1      -2.079   1.433   4.265  0.00  0.00     0.032 C 
BRANCH  18  23
ATOM     23  O   UNL d   1      -0.929   4.732   3.137  0.00  0.00    -0.354 OA
ATOM     24  C   UNL d   1      -0.775   5.971   3.835  0.00  0.00     0.210 C 
ENDBRANCH  18  23
ENDBRANCH   2  17
TORSDOF 4
