REMARK  10 active torsions:
REMARK  status: ('A' for Active; 'I' for Inactive)
REMARK    1  A    between atoms: N_2  and  C_1 
REMARK    2  A    between atoms: O_23  and  C_4 
REMARK    3  A    between atoms: C_5  and  N_15 
REMARK    4  A    between atoms: N_8  and  C_5 
REMARK    5  A    between atoms: S_13  and  C_7 
REMARK    6  A    between atoms: C_11  and  N_8 
REMARK    7  A    between atoms: C_9  and  C_21 
REMARK       I    between atoms: N_16  and  C_9 
REMARK    8  A    between atoms: O_25  and  C_10 
REMARK    9  A    between atoms: C_21  and  S_13 
REMARK   10  A    between atoms: N_15  and  N_16 
ROOT
ATOM      1  C   UNL d   1      -5.259  -0.720  -0.872  0.00  0.00     0.245 C 
ATOM      2  N   UNL d   1      -5.625   0.462  -1.494  0.00  0.00    -0.267 N 
ATOM      3  O   UNL d   1      -6.066  -1.632  -0.682  0.00  0.00    -0.271 OA
ATOM      4  H   UNL d   1      -5.012   1.264  -1.614  0.00  0.00     0.190 HD
ENDROOT
BRANCH   1   5
ATOM      5  C   UNL d   1      -3.808  -0.789  -0.431  0.00  0.00     0.184 C 
BRANCH   5   6
ATOM      6  S   UNL d   1      -2.962  -2.111  -1.357  0.00  0.00    -0.118 SA
BRANCH   6   7
ATOM      7  C   UNL d   1      -1.404  -2.217  -0.468  0.00  0.00     0.037 A 
ATOM      8  C   UNL d   1      -1.066  -3.475   0.066  0.00  0.00     0.060 A 
ATOM      9  C   UNL d   1       0.169  -3.710   0.683  0.00  0.00     0.102 A 
ATOM     10  C   UNL d   1       1.081  -2.657   0.717  0.00  0.00     0.138 A 
ATOM     11  C   UNL d   1       0.762  -1.382   0.215  0.00  0.00     0.077 A 
ATOM     12  C   UNL d   1      -0.480  -1.155  -0.384  0.00  0.00     0.087 A 
BRANCH   9  13
ATOM     13  O   UNL d   1       0.334  -4.995   1.115  0.00  0.00    -0.353 OA
ATOM     14  C   UNL d   1       1.030  -5.199   2.341  0.00  0.00     0.210 C 
ENDBRANCH   9  13
BRANCH  10  15
ATOM     15  N   UNL d   1       2.440  -2.839   1.178  0.00  0.00    -0.113 N 
ATOM     16  O   UNL d   1       2.797  -2.152   2.145  0.00  0.00    -0.532 OA
ATOM     17  O   UNL d   1       3.155  -3.634   0.555  0.00  0.00    -0.532 OA
ENDBRANCH  10  15
BRANCH  12  18
ATOM     18  O   UNL d   1      -0.859   0.043  -0.931  0.00  0.00    -0.355 OA
ATOM     19  C   UNL d   1       0.114   1.078  -1.010  0.00  0.00     0.210 C 
ENDBRANCH  12  18
ENDBRANCH   6   7
ENDBRANCH   5   6
ENDBRANCH   1   5
BRANCH   2  20
ATOM     20  N   UNL d   1      -6.975   0.623  -1.811  0.00  0.00    -0.274 N 
ATOM     21  H   UNL d   1      -7.530  -0.234  -1.826  0.00  0.00     0.189 HD
BRANCH  20  22
ATOM     22  C   UNL d   1      -7.553   1.839  -2.070  0.00  0.00     0.191 C 
ATOM     23  S   UNL d   1      -6.703   3.260  -2.311  0.00  0.00    -0.039 SA
BRANCH  22  24
ATOM     24  N   UNL d   1      -8.917   1.840  -2.213  0.00  0.00    -0.332 N 
ATOM     25  H   UNL d   1      -9.287   2.652  -2.694  0.00  0.00     0.168 HD
BRANCH  24  26
ATOM     26  C   UNL d   1      -9.871   1.003  -1.586  0.00  0.00     0.040 A 
ATOM     27  C   UNL d   1     -11.170   0.891  -2.114  0.00  0.00    -0.035 A 
ATOM     28  C   UNL d   1     -12.131   0.135  -1.414  0.00  0.00     0.015 A 
ATOM     29  C   UNL d   1     -11.598   1.485  -3.430  0.00  0.00     0.050 C 
ATOM     30  C   UNL d   1     -11.825  -0.504  -0.205  0.00  0.00    -0.061 A 
ATOM     31  C   UNL d   1     -10.533  -0.390   0.304  0.00  0.00     0.009 A 
ATOM     32  C   UNL d   1     -12.879  -1.271   0.534  0.00  0.00     0.048 C 
ATOM     33  C   UNL d   1      -9.572   0.357  -0.376  0.00  0.00     0.030 A 
ENDBRANCH  24  26
ENDBRANCH  22  24
ENDBRANCH  20  22
ENDBRANCH   2  20
TORSDOF 10
