REMARK  8 active torsions:
REMARK  status: ('A' for Active; 'I' for Inactive)
REMARK    1  A    between atoms: C_11  and  N_1 
REMARK    2  A    between atoms: S_7  and  C_2 
REMARK    3  A    between atoms: C_16  and  S_7 
REMARK       I    between atoms: N_8  and  C_10 
REMARK    4  A    between atoms: C_9  and  N_8 
REMARK    5  A    between atoms: C_10  and  C_16 
REMARK    6  A    between atoms: C_22  and  C_17 
REMARK    7  A    between atoms: C_23  and  C_22 
REMARK    8  A    between atoms: C_24  and  C_23 
ROOT
ATOM      1  N   UNL d   1       4.769  -3.195   0.053  0.00  0.00    -0.326 N 
ATOM      2  C   UNL d   1       3.616  -3.939   0.279  0.00  0.00     0.231 C 
ATOM      3  O   UNL d   1       2.540  -3.457   0.636  0.00  0.00    -0.272 OA
ATOM      4  H   UNL d   1       5.440  -3.608  -0.588  0.00  0.00     0.169 HD
ENDROOT
BRANCH   2   5
ATOM      5  C   UNL d   1       3.749  -5.426  -0.020  0.00  0.00     0.185 C 
BRANCH   5   6
ATOM      6  S   UNL d   1       2.983  -6.475   1.250  0.00  0.00    -0.082 SA
BRANCH   6   7
ATOM      7  C   UNL d   1       1.355  -5.863   1.314  0.00  0.00     0.177 A 
ATOM      8  N   UNL d   1       0.697  -5.436   2.461  0.00  0.00    -0.219 N 
ATOM      9  N   UNL d   1      -0.623  -5.326   2.149  0.00  0.00     0.001 NA
ATOM     10  N   UNL d   1      -0.713  -5.557   0.846  0.00  0.00    -0.006 NA
ATOM     11  N   UNL d   1       0.499  -5.918   0.319  0.00  0.00    -0.264 N 
ATOM     12  HN  UNL d   1       0.697  -6.177  -0.648  1.00  0.00     0.186 HD
BRANCH   8  13
ATOM     13  C   UNL d   1       1.166  -5.211   3.783  0.00  0.00     0.056 A 
ATOM     14  C   UNL d   1       2.498  -4.854   4.025  0.00  0.00     0.031 A 
ATOM     15  C   UNL d   1       2.987  -4.759   5.327  0.00  0.00     0.002 A 
ATOM     16  C   UNL d   1       2.141  -5.014   6.402  0.00  0.00     0.000 A 
ATOM     17  C   UNL d   1       0.797  -5.307   6.174  0.00  0.00     0.002 A 
ATOM     18  C   UNL d   1       0.298  -5.383   4.869  0.00  0.00     0.031 A 
ENDBRANCH   8  13
ENDBRANCH   6   7
ENDBRANCH   5   6
ENDBRANCH   2   5
BRANCH   1  19
ATOM     19  C   UNL d   1       4.864  -1.784   0.205  0.00  0.00     0.040 C 
ATOM     20  C   UNL d   1       4.176  -1.018   1.165  0.00  0.00    -0.035 C 
ATOM     21  C   UNL d   1       4.183   0.384   1.058  0.00  0.00     0.016 C 
ATOM     22  C   UNL d   1       3.444  -1.568   2.356  0.00  0.00     0.050 C 
ATOM     23  C   UNL d   1       4.926   1.047   0.081  0.00  0.00    -0.058 C 
ATOM     24  C   UNL d   1       5.739   0.285  -0.760  0.00  0.00     0.009 C 
ATOM     25  C   UNL d   1       5.705  -1.115  -0.698  0.00  0.00     0.030 C 
BRANCH  23  26
ATOM     26  C   UNL d   1       4.824   2.548  -0.037  0.00  0.00     0.038 C 
BRANCH  26  27
ATOM     27  C   UNL d   1       4.324   3.038  -1.401  0.00  0.00     0.004 C 
BRANCH  27  28
ATOM     28  C   UNL d   1       2.927   2.522  -1.765  0.00  0.00    -0.004 C 
ATOM     29  C   UNL d   1       2.482   3.054  -3.119  0.00  0.00     0.005 C 
ENDBRANCH  27  28
ENDBRANCH  26  27
ENDBRANCH  23  26
ENDBRANCH   1  19
TORSDOF 8
