REMARK  10 active torsions:
REMARK  status: ('A' for Active; 'I' for Inactive)
REMARK    1  A    between atoms: N_8  and  C_1 
REMARK       I    between atoms: C_10  and  N_8 
REMARK    2  A    between atoms: C_19  and  C_10 
REMARK    3  A    between atoms: O_18  and  C_16 
REMARK    4  A    between atoms: C_21  and  C_19 
REMARK    5  A    between atoms: C_26  and  C_21 
REMARK    6  A    between atoms: C_22  and  C_23 
REMARK    7  A    between atoms: C_23  and  C_25 
REMARK    8  A    between atoms: C_24  and  C_27 
REMARK    9  A    between atoms: C_25  and  C_24 
REMARK   10  A    between atoms: C_27  and  C_26 
ROOT
ATOM      1  C   UNL d   1      -3.202   1.079  -0.083  0.00  0.00     0.152 A 
ATOM      2  C   UNL d   1      -1.529  -0.360   0.300  0.00  0.00     0.058 A 
ATOM      3  N   UNL d   1      -2.912  -0.117   0.394  0.00  0.00    -0.335 N 
ATOM      4  HN  UNL d   1      -3.594  -0.772   0.777  1.00  0.00     0.168 HD
ATOM      5  C   UNL d   1      -0.845   0.674  -0.318  0.00  0.00     0.014 A 
ATOM      6  S   UNL d   1      -1.879   1.967  -0.715  0.00  0.00    -0.056 SA
ATOM      7  C   UNL d   1      -0.745  -1.528   0.743  0.00  0.00    -0.002 A 
ATOM      8  C   UNL d   1       0.681  -1.403   0.788  0.00  0.00    -0.043 A 
ATOM      9  C   UNL d   1      -1.291  -2.775   1.075  0.00  0.00     0.017 A 
ATOM     10  C   UNL d   1       0.611   0.692  -0.603  0.00  0.00     0.053 C 
ATOM     11  C   UNL d   1       1.503  -2.489   1.143  0.00  0.00     0.044 A 
ATOM     12  C   UNL d   1       1.351  -0.076   0.490  0.00  0.00     0.045 C 
ATOM     13  C   UNL d   1       0.939  -3.723   1.443  0.00  0.00     0.068 A 
ATOM     14  C   UNL d   1      -0.453  -3.857   1.409  0.00  0.00     0.037 A 
ENDROOT
BRANCH   1  15
ATOM     15  N   UNL d   1      -4.390   1.778  -0.182  0.00  0.00    -0.307 N 
ATOM     16  C   UNL d   1      -5.612   1.136  -0.100  0.00  0.00     0.223 C 
ATOM     17  O   UNL d   1      -5.785  -0.065   0.062  0.00  0.00    -0.273 OA
ATOM     18  H   UNL d   1      -4.316   2.748  -0.408  0.00  0.00     0.171 HD
BRANCH  16  19
ATOM     19  C   UNL d   1      -6.828   2.048  -0.273  0.00  0.00     0.103 C 
BRANCH  19  20
ATOM     20  C   UNL d   1      -6.836   2.720  -1.642  0.00  0.00     0.009 C 
BRANCH  20  21
ATOM     21  C   UNL d   1      -8.056   3.608  -1.860  0.00  0.00     0.000 C 
BRANCH  21  22
ATOM     22  C   UNL d   1      -7.992   4.269  -3.236  0.00  0.00     0.000 C 
BRANCH  22  23
ATOM     23  C   UNL d   1      -9.206   5.162  -3.453  0.00  0.00     0.000 C 
BRANCH  23  24
ATOM     24  C   UNL d   1      -9.153   5.828  -4.822  0.00  0.00     0.000 C 
BRANCH  24  25
ATOM     25  C   UNL d   1     -10.374   6.715  -5.025  0.00  0.00    -0.000 C 
BRANCH  25  26
ATOM     26  C   UNL d   1     -10.333   7.388  -6.392  0.00  0.00    -0.005 C 
ATOM     27  C   UNL d   1     -11.552   8.270  -6.589  0.00  0.00     0.005 C 
ENDBRANCH  25  26
ENDBRANCH  24  25
ENDBRANCH  23  24
ENDBRANCH  22  23
ENDBRANCH  21  22
ENDBRANCH  20  21
ENDBRANCH  19  20
ENDBRANCH  16  19
ENDBRANCH   1  15
BRANCH  13  28
ATOM     28  O   UNL d   1       1.848  -4.702   1.741  0.00  0.00    -0.356 OA
ATOM     29  C   UNL d   1       1.321  -5.985   2.055  0.00  0.00     0.210 C 
ENDBRANCH  13  28
TORSDOF 10
