REMARK  5 active torsions:
REMARK  status: ('A' for Active; 'I' for Inactive)
REMARK    1  A    between atoms: C_8  and  C_1 
REMARK    2  A    between atoms: C_12  and  C_4 
REMARK       I    between atoms: N_14  and  C_8 
REMARK    3  A    between atoms: N_9  and  C_16 
REMARK    4  A    between atoms: C_18  and  N_14 
REMARK    5  A    between atoms: C_16  and  C_18 
ROOT
ATOM      1  C   UNL d   1       0.016  -1.335  -0.049  0.00  0.00     0.092 A 
ATOM      2  N   UNL d   1      -1.185   0.565   0.343  0.00  0.00    -0.259 N 
ATOM      3  HN  UNL d   1      -1.920   1.212   0.627  1.00  0.00     0.195 HD
ATOM      4  C   UNL d   1      -1.176  -0.767   0.523  0.00  0.00     0.083 A 
ATOM      5  O   UNL d   1      -0.014   0.884  -0.295  0.00  0.00    -0.241 OA
ATOM      6  C   UNL d   1       0.711  -0.240  -0.523  0.00  0.00     0.090 A 
ATOM      7  C   UNL d   1       1.990  -0.023  -1.227  0.00  0.00     0.080 C 
ENDROOT
BRANCH   1   8
ATOM      8  C   UNL d   1       0.373  -2.732  -0.152  0.00  0.00     0.256 C 
ATOM      9  O   UNL d   1      -0.472  -3.607  -0.318  0.00  0.00    -0.267 OA
ATOM     10  N   UNL d   1       1.700  -3.047   0.003  0.00  0.00    -0.355 N 
ATOM     11  H   UNL d   1       2.398  -2.329   0.095  0.00  0.00     0.162 HD
BRANCH  10  12
ATOM     12  C   UNL d   1       2.148  -4.434   0.030  0.00  0.00     0.143 C 
BRANCH  12  13
ATOM     13  C   UNL d   1       2.391  -4.997  -1.376  0.00  0.00     0.147 C 
BRANCH  13  14
ATOM     14  N   UNL d   1       3.393  -4.228  -2.095  0.00  0.00    -0.331 N 
ATOM     15  C   UNL d   1       4.725  -4.116  -1.695  0.00  0.00     0.318 C 
ATOM     16  N   UNL d   1       5.392  -3.423  -2.702  0.00  0.00    -0.341 N 
ATOM     17  O   UNL d   1       5.227  -4.500  -0.659  0.00  0.00    -0.247 OA
ATOM     18  C   UNL d   1       4.454  -2.923  -3.669  0.00  0.00     0.144 C 
ATOM     19  H   UNL d   1       6.327  -3.081  -2.530  0.00  0.00     0.164 HD
ATOM     20  C   UNL d   1       3.249  -3.834  -3.477  0.00  0.00     0.147 C 
ENDBRANCH  13  14
ENDBRANCH  12  13
ENDBRANCH  10  12
ENDBRANCH   1   8
BRANCH   4  21
ATOM     21  C   UNL d   1      -2.275  -1.416   1.250  0.00  0.00    -0.006 A 
ATOM     22  C   UNL d   1      -3.577  -0.895   1.187  0.00  0.00     0.014 A 
ATOM     23  C   UNL d   1      -4.626  -1.500   1.886  0.00  0.00     0.001 A 
ATOM     24  C   UNL d   1      -4.389  -2.638   2.655  0.00  0.00     0.000 A 
ATOM     25  C   UNL d   1      -3.101  -3.157   2.741  0.00  0.00     0.001 A 
ATOM     26  C   UNL d   1      -2.050  -2.545   2.054  0.00  0.00     0.014 A 
ENDBRANCH   4  21
TORSDOF 5
