REMARK  3 active torsions:
REMARK  status: ('A' for Active; 'I' for Inactive)
REMARK    1  A    between atoms: C_3  and  O_9 
REMARK    2  A    between atoms: C_4  and  C_3 
REMARK    3  A    between atoms: O_9  and  C_11 
ROOT
ATOM      1  C   UNL d   1      -0.259   0.396  -0.154  0.00  0.00     0.045 A 
ATOM      2  C   UNL d   1       0.278  -0.860   0.039  0.00  0.00     0.086 A 
ATOM      3  O   UNL d   1      -0.629  -1.864   0.256  0.00  0.00    -0.343 OA
ATOM      4  C   UNL d   1      -1.684   0.235  -0.036  0.00  0.00     0.186 A 
ATOM      5  C   UNL d   1       1.644  -1.045   0.014  0.00  0.00     0.075 A 
ATOM      6  C   UNL d   1       0.510   1.517  -0.403  0.00  0.00     0.021 A 
ATOM      7  C   UNL d   1       2.453   0.076  -0.221  0.00  0.00     0.082 A 
ATOM      8  C   UNL d   1      -1.935  -1.236   0.171  0.00  0.00     0.259 A 
ATOM      9  O   UNL d   1      -2.498   1.135  -0.098  0.00  0.00    -0.290 OA
ATOM     10  C   UNL d   1       1.898   1.348  -0.444  0.00  0.00     0.038 A 
ENDROOT
BRANCH   7  11
ATOM     11  O   UNL d   1       3.846  -0.196  -0.202  0.00  0.00    -0.275 OA
BRANCH  11  12
ATOM     12  C   UNL d   1       4.911   0.709  -0.300  0.00  0.00     0.305 C 
ATOM     13  O   UNL d   1       4.791   1.919  -0.468  0.00  0.00    -0.258 OA
BRANCH  12  14
ATOM     14  C   UNL d   1       6.186   0.017  -0.188  0.00  0.00     0.080 A 
ATOM     15  S   UNL d   1       6.300  -1.666   0.130  0.00  0.00    -0.096 SA
ATOM     16  C   UNL d   1       8.006  -1.641   0.061  0.00  0.00     0.050 A 
ATOM     17  C   UNL d   1       8.494  -0.377  -0.177  0.00  0.00     0.009 A 
ATOM     18  C   UNL d   1       7.446   0.580  -0.307  0.00  0.00     0.025 A 
ENDBRANCH  12  14
ENDBRANCH  11  12
ENDBRANCH   7  11
TORSDOF 3
