REMARK  7 active torsions:
REMARK  status: ('A' for Active; 'I' for Inactive)
REMARK    1  A    between atoms: O_10  and  C_2 
REMARK    2  A    between atoms: C_16  and  C_6 
REMARK    3  A    between atoms: C_14  and  O_10 
REMARK    4  A    between atoms: C_11  and  C_14 
REMARK    5  A    between atoms: O_17  and  C_11 
REMARK    6  A    between atoms: C_13  and  C_16 
REMARK    7  A    between atoms: C_20  and  O_17 
ROOT
ATOM      1  C   UNL d   1       0.863   0.432   0.034  0.00  0.00     0.102 A 
ATOM      2  C   UNL d   1      -0.048   1.478   0.015  0.00  0.00     0.164 A 
ATOM      3  N   UNL d   1      -1.385   1.310   0.013  0.00  0.00    -0.339 N 
ATOM      4  HN  UNL d   1      -2.013   2.114   0.012  1.00  0.00     0.168 HD
ATOM      5  C   UNL d   1       0.363  -0.888   0.013  0.00  0.00    -0.029 A 
ATOM      6  C   UNL d   1      -1.046  -1.094  -0.003  0.00  0.00    -0.025 A 
ATOM      7  C   UNL d   1      -1.876   0.044   0.014  0.00  0.00     0.014 A 
ATOM      8  C   UNL d   1       2.268   0.729   0.068  0.00  0.00     0.104 C 
ATOM      9  N   UNL d   1       3.408   0.931   0.108  0.00  0.00    -0.191 NA
ATOM     10  C   UNL d   1       1.313  -2.065   0.006  0.00  0.00     0.050 C 
ATOM     11  C   UNL d   1      -3.378  -0.005   0.030  0.00  0.00     0.068 C 
ENDROOT
BRANCH   2  12
ATOM     12  O   UNL d   1       0.422   2.766   0.141  0.00  0.00    -0.325 OA
BRANCH  12  13
ATOM     13  C   UNL d   1      -0.272   3.704  -0.676  0.00  0.00     0.288 C 
BRANCH  13  14
ATOM     14  C   UNL d   1       0.255   3.730  -2.103  0.00  0.00     0.283 C 
ATOM     15  O   UNL d   1       1.093   2.966  -2.564  0.00  0.00    -0.263 OA
BRANCH  14  16
ATOM     16  O   UNL d   1      -0.277   4.802  -2.762  0.00  0.00    -0.320 OA
BRANCH  16  17
ATOM     17  C   UNL d   1       0.457   5.239  -3.915  0.00  0.00     0.174 C 
ATOM     18  C   UNL d   1       1.481   6.261  -3.452  0.00  0.00     0.034 C 
ENDBRANCH  16  17
ENDBRANCH  14  16
ENDBRANCH  13  14
ENDBRANCH  12  13
ENDBRANCH   2  12
BRANCH   6  19
ATOM     19  C   UNL d   1      -1.638  -2.493  -0.057  0.00  0.00     0.067 C 
BRANCH  19  20
ATOM     20  C   UNL d   1      -2.025  -3.149   1.243  0.00  0.00    -0.032 C 
ATOM     21  C   UNL d   1      -1.839  -2.717   2.497  0.00  0.00     0.007 C 
ENDBRANCH  19  20
ENDBRANCH   6  19
TORSDOF 7
