REMARK  4 active torsions:
REMARK  status: ('A' for Active; 'I' for Inactive)
REMARK    1  A    between atoms: C_6  and  C_1 
REMARK    2  A    between atoms: C_5  and  C_2 
REMARK    3  A    between atoms: O_14  and  C_6 
REMARK    4  A    between atoms: C_15  and  O_14 
ROOT
ATOM      1  C   UNL d   1      -0.741  -1.086   0.032  0.00  0.00     0.146 A 
ATOM      2  C   UNL d   1       0.645  -1.075   0.099  0.00  0.00     0.143 A 
ATOM      3  N   UNL d   1      -1.224   0.216   0.073  0.00  0.00    -0.340 N 
ATOM      4  HN  UNL d   1      -2.192   0.532   0.014  1.00  0.00     0.167 HD
ATOM      5  O   UNL d   1       1.021   0.243   0.246  0.00  0.00    -0.301 OA
ATOM      6  C   UNL d   1      -0.141   0.941   0.205  0.00  0.00     0.234 A 
ENDROOT
BRANCH   1   7
ATOM      7  C   UNL d   1      -1.585  -2.264  -0.092  0.00  0.00     0.313 C 
ATOM      8  O   UNL d   1      -1.300  -3.365   0.366  0.00  0.00    -0.258 OA
BRANCH   7   9
ATOM      9  O   UNL d   1      -2.709  -2.009  -0.825  0.00  0.00    -0.317 OA
BRANCH   9  10
ATOM     10  C   UNL d   1      -3.414  -3.171  -1.279  0.00  0.00     0.175 C 
ATOM     11  C   UNL d   1      -2.809  -3.623  -2.597  0.00  0.00     0.034 C 
ENDBRANCH   9  10
ENDBRANCH   7   9
ENDBRANCH   1   7
BRANCH   2  12
ATOM     12  C   UNL d   1       1.591  -2.143  -0.019  0.00  0.00     0.111 A 
ATOM     13  O   UNL d   1       1.304  -3.322  -0.655  0.00  0.00    -0.320 OA
ATOM     14  C   UNL d   1       2.407  -4.108  -0.598  0.00  0.00     0.142 A 
ATOM     15  C   UNL d   1       3.425  -3.452   0.049  0.00  0.00     0.027 A 
ATOM     16  C   UNL d   1       2.907  -2.183   0.408  0.00  0.00     0.042 A 
ENDBRANCH   2  12
TORSDOF 4
