REMARK  4 active torsions:
REMARK  status: ('A' for Active; 'I' for Inactive)
REMARK    1  A    between atoms: C_2  and  C_1 
REMARK       I    between atoms: N_5  and  C_1 
REMARK    2  A    between atoms: C_4  and  C_3 
REMARK    3  A    between atoms: O_9  and  C_4 
REMARK    4  A    between atoms: C_8  and  N_5 
ROOT
ATOM      1  C   UNL d   1       0.121   0.590   1.111  0.00  0.00     0.049 A 
ATOM      2  C   UNL d   1      -1.046   1.331   0.874  0.00  0.00     0.053 A 
ATOM      3  C   UNL d   1       0.712   0.652   2.388  0.00  0.00     0.018 A 
ATOM      4  C   UNL d   1      -1.643   2.049   1.925  0.00  0.00     0.019 A 
ATOM      5  C   UNL d   1      -1.058   2.079   3.192  0.00  0.00     0.001 A 
ATOM      6  C   UNL d   1       0.128   1.391   3.419  0.00  0.00     0.001 A 
ENDROOT
BRANCH   1   7
ATOM      7  C   UNL d   1       0.832  -0.262   0.119  0.00  0.00     0.257 C 
ATOM      8  N   UNL d   1       0.067  -0.938  -0.812  0.00  0.00    -0.323 N 
ATOM      9  H   UNL d   1      -0.927  -0.754  -0.874  0.00  0.00     0.169 HD
ATOM     10  O   UNL d   1       2.059  -0.272   0.178  0.00  0.00    -0.267 OA
BRANCH   8  11
ATOM     11  C   UNL d   1       0.561  -1.803  -1.813  0.00  0.00     0.035 A 
ATOM     12  C   UNL d   1       1.811  -2.423  -1.751  0.00  0.00     0.029 A 
ATOM     13  C   UNL d   1       2.228  -3.278  -2.775  0.00  0.00     0.002 A 
ATOM     14  C   UNL d   1       1.407  -3.506  -3.876  0.00  0.00     0.000 A 
ATOM     15  C   UNL d   1       0.157  -2.895  -3.946  0.00  0.00     0.002 A 
ATOM     16  C   UNL d   1      -0.270  -2.059  -2.911  0.00  0.00     0.029 A 
ENDBRANCH   8  11
ENDBRANCH   1   7
BRANCH   2  17
ATOM     17  C   UNL d   1      -1.735   1.417  -0.428  0.00  0.00     0.177 C 
ATOM     18  O   UNL d   1      -2.941   1.281  -0.527  0.00  0.00    -0.646 OA
BRANCH  17  19
ATOM     19  O   UNL d   1      -0.934   1.658  -1.480  0.00  0.00    -0.773 OA
ATOM     20  H   UNL d   1       0.015   1.804  -1.294  0.00  0.00     0.167 HD
ENDBRANCH  17  19
ENDBRANCH   2  17
TORSDOF 4
