REMARK  4 active torsions:
REMARK  status: ('A' for Active; 'I' for Inactive)
REMARK    1  A    between atoms: C_3  and  O_18 
REMARK    2  A    between atoms: C_3  and  C_14 
REMARK    3  A    between atoms: C_8  and  O_20 
REMARK    4  A    between atoms: O_25  and  C_22 
ROOT
ATOM      1  C   UNL d   1      -2.144   1.884   0.211  0.00  0.00     0.001 C 
ATOM      2  C   UNL d   1      -1.753   0.476   0.782  0.00  0.00     0.002 C 
ATOM      3  C   UNL d   1      -3.464   1.595  -0.611  0.00  0.00     0.128 C 
ATOM      4  C   UNL d   1      -0.420  -0.169   0.321  0.00  0.00    -0.002 C 
ATOM      5  C   UNL d   1       2.194   0.327   0.583  0.00  0.00    -0.034 C 
ATOM      6  C   UNL d   1       0.777   0.761   0.001  0.00  0.00     0.027 C 
ATOM      7  C   UNL d   1      -0.957   2.547  -0.541  0.00  0.00     0.045 C 
ATOM      8  C   UNL d   1       0.408   2.260   0.112  0.00  0.00     0.124 C 
ATOM      9  C   UNL d   1      -4.116   0.399   0.151  0.00  0.00     0.025 C 
ATOM     10  C   UNL d   1      -2.913  -0.490   0.407  0.00  0.00     0.013 C 
ATOM     11  C   UNL d   1       2.398  -1.236   0.636  0.00  0.00    -0.004 C 
ATOM     12  C   UNL d   1      -0.070  -1.326   1.260  0.00  0.00     0.006 C 
ATOM     13  C   UNL d   1       3.282   0.984  -0.338  0.00  0.00     0.012 C 
ATOM     14  C   UNL d   1       1.126  -2.082   0.739  0.00  0.00     0.006 C 
ATOM     15  C   UNL d   1       3.235  -1.779  -0.526  0.00  0.00     0.037 C 
ATOM     16  C   UNL d   1      -2.513   2.889   1.365  0.00  0.00     0.019 C 
ATOM     17  C   UNL d   1       4.660   0.333  -0.276  0.00  0.00     0.032 C 
ATOM     18  C   UNL d   1       4.626  -1.163  -0.586  0.00  0.00     0.118 C 
ATOM     19  C   UNL d   1       2.426   0.854   2.026  0.00  0.00     0.016 C 
ATOM     20  C   UNL d   1      -4.833   0.646   1.482  0.00  0.00     0.013 C 
ENDROOT
BRANCH   3  21
ATOM     21  O   UNL d   1      -4.306   2.741  -0.634  0.00  0.00    -0.381 OA
ATOM     22  H   UNL d   1      -5.236   2.455  -0.641  0.00  0.00     0.211 HD
ENDBRANCH   3  21
BRANCH   3  23
ATOM     23  C   UNL d   1      -3.241   1.104  -2.084  0.00  0.00     0.158 C 
ATOM     24  O   UNL d   1      -2.179   0.619  -2.479  0.00  0.00    -0.295 OA
ATOM     25  C   UNL d   1      -4.429   1.115  -3.024  0.00  0.00     0.094 C 
ENDBRANCH   3  23
BRANCH   8  26
ATOM     26  O   UNL d   1       0.413   2.726   1.458  0.00  0.00    -0.395 OA
ATOM     27  H   UNL d   1       0.051   2.030   2.022  0.00  0.00     0.210 HD
ENDBRANCH   8  26
BRANCH  18  28
ATOM     28  O   UNL d   1       5.171  -1.409  -1.882  0.00  0.00    -0.396 OA
ATOM     29  H   UNL d   1       4.541  -1.069  -2.541  0.00  0.00     0.210 HD
ENDBRANCH  18  28
TORSDOF 4
