REMARK  7 active torsions:
REMARK  status: ('A' for Active; 'I' for Inactive)
REMARK    1  A    between atoms: N_4  and  S_1 
REMARK    2  A    between atoms: C_8  and  S_1 
REMARK    3  A    between atoms: C_2  and  C_6 
REMARK    4  A    between atoms: C_3  and  C_7 
REMARK    5  A    between atoms: C_10  and  N_4 
REMARK       I    between atoms: C_5  and  N_11 
REMARK    6  A    between atoms: C_9  and  C_5 
REMARK    7  A    between atoms: N_11  and  C_31 
ROOT
ATOM      1  S   UNL d   1       0.879   0.231   0.074  0.00  0.00     0.263 S 
ATOM      2  O   UNL d   1      -0.140   1.204   0.404  0.00  0.00    -0.200 OA
ATOM      3  O   UNL d   1       1.233  -0.835   0.984  0.00  0.00    -0.200 OA
ENDROOT
BRANCH   1   4
ATOM      4  N   UNL d   1       2.324   1.033  -0.296  0.00  0.00    -0.281 N 
ATOM      5  H   UNL d   1       3.106   0.384  -0.363  0.00  0.00     0.179 HD
BRANCH   4   6
ATOM      6  C   UNL d   1       2.288   2.115  -1.217  0.00  0.00     0.044 A 
ATOM      7  C   UNL d   1       1.915   3.382  -0.772  0.00  0.00     0.046 A 
ATOM      8  C   UNL d   1       1.880   4.465  -1.664  0.00  0.00     0.050 A 
ATOM      9  C   UNL d   1       2.180   4.238  -3.018  0.00  0.00     0.032 A 
ATOM     10  C   UNL d   1       2.542   2.960  -3.475  0.00  0.00     0.050 A 
ATOM     11  C   UNL d   1       2.597   1.900  -2.558  0.00  0.00     0.046 A 
BRANCH   8  12
ATOM     12  C   UNL d   1       1.565   5.852  -1.153  0.00  0.00     0.417 C 
ATOM     13  F   UNL d   1       1.616   6.806  -2.125  0.00  0.00    -0.166 F 
ATOM     14  F   UNL d   1       0.326   5.945  -0.602  0.00  0.00    -0.166 F 
ATOM     15  F   UNL d   1       2.441   6.257  -0.193  0.00  0.00    -0.166 F 
ENDBRANCH   8  12
BRANCH  10  16
ATOM     16  C   UNL d   1       2.898   2.713  -4.921  0.00  0.00     0.417 C 
ATOM     17  F   UNL d   1       2.857   3.833  -5.692  0.00  0.00    -0.166 F 
ATOM     18  F   UNL d   1       4.156   2.210  -5.056  0.00  0.00    -0.166 F 
ATOM     19  F   UNL d   1       2.070   1.812  -5.515  0.00  0.00    -0.166 F 
ENDBRANCH  10  16
ENDBRANCH   4   6
ENDBRANCH   1   4
BRANCH   1  20
ATOM     20  C   UNL d   1       0.448  -0.525  -1.479  0.00  0.00     0.080 A 
ATOM     21  C   UNL d   1       0.923  -1.803  -1.785  0.00  0.00     0.027 A 
ATOM     22  C   UNL d   1       0.550  -2.413  -2.990  0.00  0.00     0.031 A 
ATOM     23  C   UNL d   1      -0.306  -1.760  -3.888  0.00  0.00     0.035 A 
ATOM     24  C   UNL d   1      -0.757  -0.474  -3.568  0.00  0.00     0.031 A 
ATOM     25  C   UNL d   1      -0.399   0.140  -2.363  0.00  0.00     0.027 A 
BRANCH  23  26
ATOM     26  N   UNL d   1      -0.683  -2.459  -5.063  0.00  0.00    -0.323 N 
ATOM     27  C   UNL d   1      -1.600  -2.029  -6.008  0.00  0.00     0.256 C 
ATOM     28  O   UNL d   1      -2.236  -0.981  -5.971  0.00  0.00    -0.267 OA
ATOM     29  H   UNL d   1      -0.308  -3.393  -5.155  0.00  0.00     0.169 HD
BRANCH  27  30
ATOM     30  C   UNL d   1      -1.862  -2.931  -7.169  0.00  0.00     0.034 A 
ATOM     31  C   UNL d   1      -0.921  -3.837  -7.669  0.00  0.00     0.042 A 
ATOM     32  C   UNL d   1      -1.208  -4.575  -8.828  0.00  0.00     0.056 A 
ATOM     33 CL   UNL d   1       0.013  -5.653  -9.411  0.00  0.00    -0.083 Cl
ATOM     34  C   UNL d   1      -2.433  -4.413  -9.489  0.00  0.00     0.055 A 
ATOM     35  C   UNL d   1      -3.379  -3.523  -8.982  0.00  0.00     0.026 A 
ATOM     36 CL   UNL d   1      -2.827  -5.258 -10.943  0.00  0.00    -0.083 Cl
ATOM     37  C   UNL d   1      -3.093  -2.787  -7.830  0.00  0.00     0.019 A 
ENDBRANCH  27  30
ENDBRANCH  23  26
ENDBRANCH   1  20
TORSDOF 7
