REMARK  4 active torsions:
REMARK  status: ('A' for Active; 'I' for Inactive)
REMARK    1  A    between atoms: C_11  and  C_2 
REMARK    2  A    between atoms: C_15  and  N_4 
REMARK    3  A    between atoms: C_18  and  C_10 
REMARK    4  A    between atoms: C_14  and  C_11 
ROOT
ATOM      1  C   UNL d   1      -1.258  -0.028  -0.132  0.00  0.00     0.118 C 
ATOM      2  C   UNL d   1       0.717   0.412   1.146  0.00  0.00     0.143 C 
ATOM      3  C   UNL d   1      -2.552   0.094  -0.499  0.00  0.00     0.106 C 
ATOM      4  N   UNL d   1      -0.580  -1.162   0.361  0.00  0.00    -0.247 N 
ATOM      5  S   UNL d   1      -0.164   1.359  -0.017  0.00  0.00    -0.046 SA
ATOM      6  N   UNL d   1       0.480  -0.859   1.236  0.00  0.00    -0.282 N 
ATOM      7  HN  UNL d   1       0.974  -1.522   1.833  1.00  0.00     0.188 HD
ATOM      8  N   UNL d   1      -4.509   0.791  -1.463  0.00  0.00    -0.256 N 
ATOM      9  HN  UNL d   1      -5.229   1.373  -1.892  1.00  0.00     0.195 HD
ATOM     10  C   UNL d   1      -3.416   1.217  -0.897  0.00  0.00     0.084 C 
ATOM     11  C   UNL d   1      -3.451  -1.070  -0.635  0.00  0.00     0.320 C 
ATOM     12  O   UNL d   1      -4.521  -0.630  -1.376  0.00  0.00    -0.194 OA
ATOM     13  O   UNL d   1      -3.317  -2.199  -0.206  0.00  0.00    -0.257 OA
ENDROOT
BRANCH   4  14
ATOM     14  C   UNL d   1      -0.421  -2.406  -0.323  0.00  0.00     0.057 A 
ATOM     15  C   UNL d   1      -0.606  -2.535  -1.711  0.00  0.00     0.033 A 
ATOM     16  C   UNL d   1      -0.447  -3.771  -2.348  0.00  0.00     0.026 A 
ATOM     17  C   UNL d   1      -0.093  -4.894  -1.605  0.00  0.00     0.034 A 
ATOM     18  C   UNL d   1       0.111  -4.792  -0.233  0.00  0.00     0.026 A 
ATOM     19 CL   UNL d   1       0.100  -6.413  -2.390  0.00  0.00    -0.084 Cl
ATOM     20  C   UNL d   1      -0.047  -3.555   0.400  0.00  0.00     0.033 A 
ENDBRANCH   4  14
BRANCH  10  21
ATOM     21  C   UNL d   1      -3.224   2.655  -0.636  0.00  0.00    -0.006 A 
ATOM     22  C   UNL d   1      -2.694   3.132   0.567  0.00  0.00     0.014 A 
ATOM     23  C   UNL d   1      -2.542   4.505   0.776  0.00  0.00     0.001 A 
ATOM     24  C   UNL d   1      -3.003   5.411  -0.175  0.00  0.00     0.000 A 
ATOM     25  C   UNL d   1      -3.623   4.947  -1.334  0.00  0.00     0.001 A 
ATOM     26  C   UNL d   1      -3.730   3.573  -1.567  0.00  0.00     0.014 A 
ENDBRANCH  10  21
BRANCH   2  27
ATOM     27  C   UNL d   1       1.587   1.300   1.977  0.00  0.00     0.224 C 
ATOM     28  O   UNL d   1       1.075   2.317   2.443  0.00  0.00    -0.284 OA
BRANCH  27  29
ATOM     29  C   UNL d   1       2.945   0.857   2.233  0.00  0.00     0.057 A 
ATOM     30  S   UNL d   1       3.986   1.920   3.102  0.00  0.00    -0.098 SA
ATOM     31  C   UNL d   1       5.273   0.803   3.081  0.00  0.00     0.050 A 
ATOM     32  C   UNL d   1       4.937  -0.356   2.416  0.00  0.00     0.009 A 
ATOM     33  C   UNL d   1       3.599  -0.321   1.917  0.00  0.00     0.023 A 
ENDBRANCH  27  29
ENDBRANCH   2  27
TORSDOF 4
