REMARK  5 active torsions:
REMARK  status: ('A' for Active; 'I' for Inactive)
REMARK    1  A    between atoms: C_2  and  S_1 
REMARK    2  A    between atoms: N_3  and  S_1 
REMARK    3  A    between atoms: C_4  and  N_3 
REMARK    4  A    between atoms: O_15  and  C_10 
REMARK    5  A    between atoms: O_17  and  C_13 
ROOT
ATOM      1  S   UNL d   1       0.716  -0.019   0.145  0.00  0.00     0.262 S 
ATOM      2  O   UNL d   1      -0.005   0.457   1.307  0.00  0.00    -0.200 OA
ATOM      3  O   UNL d   1       2.165  -0.062   0.183  0.00  0.00    -0.200 OA
ENDROOT
BRANCH   1   4
ATOM      4  C   UNL d   1       0.230   0.982  -1.239  0.00  0.00     0.115 A 
ATOM      5  C   UNL d   1      -0.746   1.972  -0.993  0.00  0.00     0.065 A 
ATOM      6  C   UNL d   1      -1.252   2.738  -2.036  0.00  0.00     0.069 A 
ATOM      7  C   UNL d   1      -0.767   2.533  -3.321  0.00  0.00     0.039 A 
ATOM      8  C   UNL d   1       0.234   1.590  -3.562  0.00  0.00     0.041 A 
ATOM      9  C   UNL d   1       0.772   0.820  -2.521  0.00  0.00     0.091 A 
BRANCH   6  10
ATOM     10  O   UNL d   1      -2.227   3.690  -1.938  0.00  0.00    -0.356 OA
ATOM     11  C   UNL d   1      -2.761   3.925  -0.642  0.00  0.00     0.210 C 
ENDBRANCH   6  10
BRANCH   9  12
ATOM     12  O   UNL d   1       1.764  -0.102  -2.732  0.00  0.00    -0.354 OA
ATOM     13  C   UNL d   1       2.548   0.107  -3.909  0.00  0.00     0.210 C 
ENDBRANCH   9  12
ENDBRANCH   1   4
BRANCH   1  14
ATOM     14  N   UNL d   1       0.202  -1.580  -0.160  0.00  0.00    -0.301 N 
ATOM     15  H   UNL d   1       0.933  -2.217  -0.474  0.00  0.00     0.173 HD
BRANCH  14  16
ATOM     16  C   UNL d   1      -1.214  -2.038  -0.154  0.00  0.00     0.185 C 
ATOM     17  C   UNL d   1      -2.014  -1.359  -1.274  0.00  0.00     0.241 C 
ATOM     18  N   UNL d   1      -3.339  -1.073  -1.121  0.00  0.00    -0.359 N 
ATOM     19  O   UNL d   1      -1.519  -1.102  -2.373  0.00  0.00    -0.271 OA
ATOM     20  C   UNL d   1      -4.280  -1.995  -0.530  0.00  0.00     0.122 C 
ATOM     21  H   UNL d   1      -3.673  -0.608  -1.958  0.00  0.00     0.162 HD
ATOM     22  C   UNL d   1      -4.272  -1.968   0.984  0.00  0.00     0.020 C 
ATOM     23  C   UNL d   1      -3.055  -2.671   1.569  0.00  0.00     0.004 C 
ATOM     24  C   UNL d   1      -1.749  -1.940   1.275  0.00  0.00     0.035 C 
ENDBRANCH  14  16
ENDBRANCH   1  14
TORSDOF 5
