REMARK  6 active torsions:
REMARK  status: ('A' for Active; 'I' for Inactive)
REMARK    1  A    between atoms: N_12  and  C_3 
REMARK    2  A    between atoms: C_10  and  C_4 
REMARK    3  A    between atoms: S_13  and  C_8 
REMARK    4  A    between atoms: N_11  and  C_17 
REMARK    5  A    between atoms: C_16  and  S_13 
REMARK    6  A    between atoms: C_17  and  C_16 
ROOT
ATOM      1  C   UNL d   1       3.549   2.629   3.014  0.00  0.00     0.051 A 
ATOM      2  C   UNL d   1       4.788   2.686   3.674  0.00  0.00     0.095 A 
ATOM      3  C   UNL d   1       2.560   2.672   4.061  0.00  0.00     0.061 A 
ATOM      4  C   UNL d   1       3.123   2.790   5.367  0.00  0.00     0.079 A 
ATOM      5  S   UNL d   1       4.889   2.764   5.406  0.00  0.00    -0.065 SA
ATOM      6  N   UNL d   1       5.913   2.681   3.029  0.00  0.00    -0.319 N 
ATOM      7  HN  UNL d   1       6.853   2.744   3.420  1.00  0.00     0.175 HD
ATOM      8  C   UNL d   1       3.745   2.523   1.661  0.00  0.00     0.073 A 
ATOM      9  S   UNL d   1       5.486   2.548   1.411  0.00  0.00    -0.006 SA
ENDROOT
BRANCH   8  10
ATOM     10  S   UNL d   1       2.719   2.283   0.283  0.00  0.00    -0.118 SA
BRANCH  10  11
ATOM     11  C   UNL d   1       1.734   3.790   0.180  0.00  0.00     0.110 C 
BRANCH  11  12
ATOM     12  C   UNL d   1       2.448   5.162   0.191  0.00  0.00     0.283 C 
BRANCH  12  13
ATOM     13  N   UNL d   1       1.440   6.220   0.026  0.00  0.00     0.093 N 
ATOM     14  C   UNL d   1       0.449   6.339   1.109  0.00  0.00     0.298 C 
ATOM     15  C   UNL d   1       0.692   7.442   2.145  0.00  0.00     0.198 C 
ATOM     16  O   UNL d   1       0.985   8.693   1.525  0.00  0.00    -0.388 OA
ATOM     17  C   UNL d   1       2.154   8.563   0.712  0.00  0.00     0.198 C 
ATOM     18  C   UNL d   1       1.940   7.532  -0.408  0.00  0.00     0.298 C 
ENDBRANCH  12  13
ENDBRANCH  11  12
ENDBRANCH  10  11
ENDBRANCH   8  10
BRANCH   3  19
ATOM     19  N   UNL d   1       1.229   2.636   3.833  0.00  0.00    -0.397 N 
ATOM     20  H   UNL d   1       0.839   2.321   2.951  0.00  0.00     0.156 HD
ATOM     21  H   UNL d   1       0.584   2.470   4.620  0.00  0.00     0.156 HD
ENDBRANCH   3  19
BRANCH   4  22
ATOM     22  C   UNL d   1       2.423   2.879   6.660  0.00  0.00     0.164 C 
ATOM     23  O   UNL d   1       1.238   2.554   6.784  0.00  0.00    -0.292 OA
ATOM     24  C   UNL d   1       3.156   3.398   7.891  0.00  0.00     0.097 C 
ENDBRANCH   4  22
TORSDOF 6
