REMARK  2 active torsions:
REMARK  status: ('A' for Active; 'I' for Inactive)
REMARK    1  A    between atoms: C_18  and  C_7 
REMARK    2  A    between atoms: O_22  and  C_18 
ROOT
ATOM      1  C   UNL d   1       2.299   2.121  -1.059  0.00  0.00    -0.034 C 
ATOM      2  C   UNL d   1      -0.204  -1.381  -0.187  0.00  0.00    -0.016 C 
ATOM      3  C   UNL d   1      -1.733  -1.121  -0.287  0.00  0.00    -0.068 C 
ATOM      4  C   UNL d   1       0.873   2.386  -0.555  0.00  0.00    -0.001 C 
ATOM      5  C   UNL d   1       0.621  -0.073   0.216  0.00  0.00     0.002 C 
ATOM      6  C   UNL d   1       0.022   1.128  -0.558  0.00  0.00    -0.004 C 
ATOM      7  C   UNL d   1       2.818   3.583  -1.277  0.00  0.00     0.022 C 
ATOM      8  C   UNL d   1      -2.639  -2.109  -0.157  0.00  0.00     0.053 C 
ATOM      9  C   UNL d   1       2.933   1.188  -0.010  0.00  0.00     0.010 C 
ATOM     10  C   UNL d   1       2.175  -0.172   0.106  0.00  0.00     0.007 C 
ATOM     11  C   UNL d   1       0.348   3.493  -1.468  0.00  0.00     0.006 C 
ATOM     12  C   UNL d   1      -0.039  -2.501   0.881  0.00  0.00     0.022 C 
ATOM     13  C   UNL d   1       1.577   4.308  -1.867  0.00  0.00     0.008 C 
ATOM     14  C   UNL d   1      -1.380   1.369  -0.002  0.00  0.00     0.010 C 
ATOM     15  C   UNL d   1      -2.269   0.270  -0.542  0.00  0.00     0.035 C 
ATOM     16  C   UNL d   1      -2.235  -3.502   0.114  0.00  0.00     0.149 C 
ATOM     17  O   UNL d   1      -3.070  -4.402  -0.003  0.00  0.00    -0.293 OA
ATOM     18  C   UNL d   1      -0.811  -3.778   0.521  0.00  0.00     0.084 C 
ATOM     19  C   UNL d   1       2.381   1.430  -2.453  0.00  0.00     0.016 C 
ATOM     20  C   UNL d   1       0.296  -1.929  -1.551  0.00  0.00     0.020 C 
ENDROOT
BRANCH   7  21
ATOM     21  C   UNL d   1       3.396   4.348  -0.071  0.00  0.00     0.118 C 
ATOM     22  C   UNL d   1       3.890   5.748  -0.456  0.00  0.00     0.040 C 
BRANCH  21  23
ATOM     23  O   UNL d   1       4.517   3.643   0.456  0.00  0.00    -0.396 OA
ATOM     24  H   UNL d   1       5.185   3.579  -0.248  0.00  0.00     0.210 HD
ENDBRANCH  21  23
ENDBRANCH   7  21
TORSDOF 2
