REMARK  6 active torsions:
REMARK  status: ('A' for Active; 'I' for Inactive)
REMARK    1  A    between atoms: C_12  and  N_6 
REMARK    2  A    between atoms: N_14  and  C_10 
REMARK    3  A    between atoms: C_11  and  C_12 
REMARK    4  A    between atoms: N_16  and  N_14 
REMARK    5  A    between atoms: C_23  and  C_22 
REMARK    6  A    between atoms: O_31  and  C_26 
ROOT
ATOM      1  C   UNL d   1      -0.183  -0.869  -0.089  0.00  0.00     0.160 A 
ATOM      2  C   UNL d   1      -0.523   0.450  -0.102  0.00  0.00     0.165 A 
ATOM      3  N   UNL d   1      -1.261  -1.667  -0.083  0.00  0.00    -0.172 N 
ATOM      4  HN  UNL d   1      -1.269  -2.687  -0.079  1.00  0.00     0.186 HD
ATOM      5  N   UNL d   1       1.118  -1.307  -0.058  0.00  0.00    -0.287 N 
ATOM      6  N   UNL d   1      -1.908   0.471  -0.131  0.00  0.00    -0.168 N 
ATOM      7  N   UNL d   1       1.788   0.977  -0.047  0.00  0.00    -0.269 N 
ATOM      8  C   UNL d   1       2.152  -0.378  -0.040  0.00  0.00     0.332 A 
ATOM      9  C   UNL d   1       0.473   1.467  -0.059  0.00  0.00     0.282 A 
ATOM     10  C   UNL d   1      -2.308  -0.866  -0.083  0.00  0.00     0.701 A 
ATOM     11  O   UNL d   1       3.333  -0.737  -0.012  0.00  0.00    -0.246 OA
ATOM     12  O   UNL d   1       0.214   2.663  -0.024  0.00  0.00    -0.265 OA
ATOM     13  C   UNL d   1       1.442  -2.721  -0.035  0.00  0.00     0.163 C 
ATOM     14  C   UNL d   1       2.844   1.970  -0.008  0.00  0.00     0.164 C 
ENDROOT
BRANCH  10  15
ATOM     15  N   UNL d   1      -3.600  -1.287  -0.081  0.00  0.00    -0.132 N 
ATOM     16  H   UNL d   1      -4.335  -0.602  -0.236  0.00  0.00     0.205 HD
BRANCH  15  17
ATOM     17  N   UNL d   1      -3.845  -2.536  -0.591  0.00  0.00    -0.297 N 
ATOM     18  C   UNL d   1      -5.079  -2.895  -0.718  0.00  0.00     0.119 C 
ATOM     19  HN  UNL d   1      -3.082  -3.158  -0.858  1.00  0.00     0.186 HD
BRANCH  18  20
ATOM     20  C   UNL d   1      -5.421  -4.162  -1.397  0.00  0.00    -0.019 A 
ATOM     21  C   UNL d   1      -4.425  -4.912  -2.036  0.00  0.00     0.015 A 
ATOM     22  C   UNL d   1      -4.765  -6.073  -2.729  0.00  0.00     0.037 A 
ATOM     23  C   UNL d   1      -6.093  -6.481  -2.775  0.00  0.00     0.065 A 
ATOM     24  C   UNL d   1      -7.090  -5.748  -2.134  0.00  0.00     0.037 A 
ATOM     25  C   UNL d   1      -6.754  -4.580  -1.444  0.00  0.00     0.015 A 
BRANCH  23  26
ATOM     26  O   UNL d   1      -6.381  -7.616  -3.473  0.00  0.00    -0.361 OA
ATOM     27  H   UNL d   1      -7.338  -7.777  -3.431  0.00  0.00     0.217 HD
ENDBRANCH  23  26
ENDBRANCH  18  20
ENDBRANCH  15  17
ENDBRANCH  10  15
BRANCH   6  28
ATOM     28  C   UNL d   1      -2.770   1.658  -0.036  0.00  0.00     0.190 C 
BRANCH  28  29
ATOM     29  C   UNL d   1      -3.002   2.394  -1.348  0.00  0.00     0.004 C 
ATOM     30  C   UNL d   1      -3.771   1.849  -2.397  0.00  0.00     0.043 C 
ATOM     31 CL   UNL d   1      -4.782   0.466  -2.199  0.00  0.00    -0.084 Cl
ATOM     32  C   UNL d   1      -3.887   2.483  -3.644  0.00  0.00     0.024 C 
ATOM     33  C   UNL d   1      -3.283   3.710  -3.868  0.00  0.00     0.003 C 
ATOM     34  C   UNL d   1      -2.623   4.332  -2.817  0.00  0.00     0.024 C 
ATOM     35  C   UNL d   1      -2.513   3.701  -1.567  0.00  0.00     0.043 C 
ATOM     36 CL   UNL d   1      -1.907   4.702  -0.290  0.00  0.00    -0.084 Cl
ENDBRANCH  28  29
ENDBRANCH   6  28
TORSDOF 6
