REMARK  6 active torsions:
REMARK  status: ('A' for Active; 'I' for Inactive)
REMARK    1  A    between atoms: C_9  and  C_3 
REMARK    2  A    between atoms: C_13  and  C_6 
REMARK    3  A    between atoms: C_8  and  C_12 
REMARK    4  A    between atoms: C_19  and  C_13 
REMARK    5  A    between atoms: O_26  and  C_19 
REMARK    6  A    between atoms: C_20  and  O_26 
ROOT
ATOM      1  N   UNL d   1       1.311   0.202  -0.134  0.00  0.00    -0.323 N 
ATOM      2  HN  UNL d   1       2.310   0.361  -0.265  1.00  0.00     0.169 HD
ATOM      3  C   UNL d   1       0.295   1.131  -0.009  0.00  0.00     0.137 A 
ATOM      4  N   UNL d   1      -0.922   0.584   0.141  0.00  0.00    -0.242 N 
ATOM      5  HN  UNL d   1      -1.817   1.061   0.248  1.00  0.00     0.196 HD
ATOM      6  C   UNL d   1       0.666  -0.939  -0.042  0.00  0.00     0.150 A 
ATOM      7  O   UNL d   1      -0.679  -0.778   0.116  0.00  0.00    -0.223 OA
ENDROOT
BRANCH   3   8
ATOM      8  C   UNL d   1       0.529   2.568  -0.024  0.00  0.00     0.010 A 
ATOM      9  C   UNL d   1       1.820   3.075  -0.224  0.00  0.00     0.016 A 
ATOM     10  C   UNL d   1       2.045   4.454  -0.233  0.00  0.00     0.010 A 
ATOM     11  C   UNL d   1       0.992   5.363  -0.038  0.00  0.00    -0.035 A 
ATOM     12  C   UNL d   1      -0.298   4.849   0.163  0.00  0.00     0.010 A 
ATOM     13  C   UNL d   1      -0.525   3.470   0.170  0.00  0.00     0.016 A 
BRANCH  11  14
ATOM     14  C   UNL d   1       1.274   6.848  -0.058  0.00  0.00     0.141 C 
ATOM     15  S   UNL d   1       0.814   7.701   1.476  0.00  0.00    -0.148 SA
ATOM     16  C   UNL d   1       0.807   9.339   0.719  0.00  0.00     0.085 C 
ATOM     17  C   UNL d   1       0.027   9.231  -0.579  0.00  0.00     0.085 C 
ATOM     18  S   UNL d   1       0.483   7.706  -1.461  0.00  0.00    -0.148 SA
ENDBRANCH  11  14
ENDBRANCH   3   8
BRANCH   6  19
ATOM     19  C   UNL d   1       1.187  -2.328  -0.057  0.00  0.00     0.113 C 
BRANCH  19  20
ATOM     20  C   UNL d   1       0.081  -3.347   0.204  0.00  0.00     0.183 C 
BRANCH  20  21
ATOM     21  O   UNL d   1       0.620  -4.670   0.213  0.00  0.00    -0.351 OA
BRANCH  21  22
ATOM     22  C   UNL d   1      -0.322  -5.659   0.346  0.00  0.00     0.069 A 
ATOM     23  C   UNL d   1       0.023  -6.894  -0.210  0.00  0.00     0.040 A 
ATOM     24  C   UNL d   1      -0.866  -7.968  -0.141  0.00  0.00     0.045 A 
ATOM     25  C   UNL d   1      -2.088  -7.806   0.499  0.00  0.00     0.116 A 
ATOM     26  C   UNL d   1      -2.435  -6.592   1.077  0.00  0.00     0.045 A 
ATOM     27  F   UNL d   1      -2.944  -8.834   0.564  0.00  0.00    -0.206 F 
ATOM     28  C   UNL d   1      -1.549  -5.516   1.004  0.00  0.00     0.040 A 
ENDBRANCH  21  22
ENDBRANCH  20  21
ENDBRANCH  19  20
ENDBRANCH   6  19
TORSDOF 6
