REMARK  9 active torsions:
REMARK  status: ('A' for Active; 'I' for Inactive)
REMARK    1  A    between atoms: C_4  and  C_1 
REMARK    2  A    between atoms: C_5  and  C_1 
REMARK       I    between atoms: C_2  and  N_8 
REMARK    3  A    between atoms: C_3  and  C_2 
REMARK    4  A    between atoms: O_16  and  C_4 
REMARK    5  A    between atoms: O_17  and  C_5 
REMARK    6  A    between atoms: N_9  and  C_7 
REMARK    7  A    between atoms: N_8  and  N_9 
REMARK    8  A    between atoms: C_18  and  O_16 
REMARK    9  A    between atoms: C_19  and  O_17 
ROOT
ATOM      1  C   UNL d   1       0.899  -0.051  -0.177  0.00  0.00     0.131 C 
ATOM      2  C   UNL d   1       2.240  -0.170  -0.175  0.00  0.00     0.131 C 
ENDROOT
BRANCH   2   3
ATOM      3  N   UNL d   1       3.046  -1.165  -0.680  0.00  0.00    -0.308 N 
ATOM      4  H   UNL d   1       2.622  -1.846  -1.322  0.00  0.00     0.186 HD
BRANCH   3   5
ATOM      5  N   UNL d   1       4.429  -1.056  -0.731  0.00  0.00    -0.266 N 
ATOM      6  C   UNL d   1       5.123  -1.646  -1.781  0.00  0.00     0.276 C 
ATOM      7  O   UNL d   1       4.538  -2.162  -2.734  0.00  0.00    -0.265 OA
ATOM      8  H   UNL d   1       4.912  -0.848   0.136  0.00  0.00     0.190 HD
BRANCH   6   9
ATOM      9  C   UNL d   1       6.579  -1.614  -1.659  0.00  0.00     0.074 A 
ATOM     10  S   UNL d   1       7.365  -0.924  -0.295  0.00  0.00    -0.097 SA
ATOM     11  C   UNL d   1       8.916  -1.248  -0.932  0.00  0.00     0.050 A 
ATOM     12  C   UNL d   1       8.851  -1.877  -2.153  0.00  0.00     0.009 A 
ATOM     13  C   UNL d   1       7.505  -2.095  -2.568  0.00  0.00     0.025 A 
ENDBRANCH   6   9
ENDBRANCH   3   5
ENDBRANCH   2   3
BRANCH   1  14
ATOM     14  C   UNL d   1      -0.013  -1.050  -0.780  0.00  0.00     0.300 C 
ATOM     15  O   UNL d   1      -1.183  -0.835  -1.061  0.00  0.00    -0.259 OA
BRANCH  14  16
ATOM     16  O   UNL d   1       0.594  -2.265  -0.873  0.00  0.00    -0.318 OA
BRANCH  16  17
ATOM     17  C   UNL d   1      -0.292  -3.392  -0.891  0.00  0.00     0.174 C 
ATOM     18  C   UNL d   1      -0.518  -3.812   0.550  0.00  0.00     0.034 C 
ENDBRANCH  16  17
ENDBRANCH  14  16
ENDBRANCH   1  14
BRANCH   1  19
ATOM     19  C   UNL d   1       0.345   1.131   0.532  0.00  0.00     0.300 C 
ATOM     20  O   UNL d   1       0.972   2.161   0.746  0.00  0.00    -0.259 OA
BRANCH  19  21
ATOM     21  O   UNL d   1      -0.912   0.877   0.973  0.00  0.00    -0.318 OA
BRANCH  21  22
ATOM     22  C   UNL d   1      -1.591   1.938   1.660  0.00  0.00     0.174 C 
ATOM     23  C   UNL d   1      -2.161   2.936   0.668  0.00  0.00     0.034 C 
ENDBRANCH  21  22
ENDBRANCH  19  21
ENDBRANCH   1  19
TORSDOF 9
