REMARK  5 active torsions:
REMARK  status: ('A' for Active; 'I' for Inactive)
REMARK    1  A    between atoms: C_11  and  N_2 
REMARK    2  A    between atoms: S_15  and  C_7 
REMARK    3  A    between atoms: C_19  and  C_11 
REMARK    4  A    between atoms: C_21  and  S_15 
REMARK    5  A    between atoms: C_16  and  C_21 
ROOT
ATOM      1  C   UNL d   1       0.770   0.370   0.053  0.00  0.00     0.073 C 
ATOM      2  N   UNL d   1       2.980   1.235  -0.174  0.00  0.00    -0.289 N 
ATOM      3  C   UNL d   1       1.324  -0.865  -0.171  0.00  0.00     0.092 C 
ATOM      4  C   UNL d   1       1.669   1.479   0.254  0.00  0.00     0.263 C 
ATOM      5  N   UNL d   1       2.642  -1.123  -0.345  0.00  0.00    -0.330 N 
ATOM      6  HN  UNL d   1       3.005  -2.072  -0.436  1.00  0.00     0.168 HD
ATOM      7  C   UNL d   1       3.411  -0.076  -0.386  0.00  0.00     0.150 C 
ATOM      8  C   UNL d   1      -0.655   0.361  -0.013  0.00  0.00    -0.026 C 
ATOM      9  C   UNL d   1      -1.127  -0.934  -0.051  0.00  0.00    -0.008 C 
ATOM     10  S   UNL d   1       0.126  -2.082  -0.207  0.00  0.00    -0.075 SA
ATOM     11  C   UNL d   1      -1.559   1.559  -0.006  0.00  0.00     0.041 C 
ATOM     12  O   UNL d   1       1.284   2.521   0.776  0.00  0.00    -0.267 OA
ATOM     13  C   UNL d   1      -2.578  -1.316  -0.011  0.00  0.00     0.051 C 
ATOM     14  C   UNL d   1      -3.018   1.169  -0.298  0.00  0.00     0.009 C 
ATOM     15  C   UNL d   1      -3.446  -0.116   0.442  0.00  0.00    -0.014 C 
ATOM     16  C   UNL d   1      -3.400   0.078   1.966  0.00  0.00     0.010 C 
ENDROOT
BRANCH   2  17
ATOM     17  C   UNL d   1       3.814   2.441  -0.304  0.00  0.00     0.173 C 
BRANCH  17  18
ATOM     18  C   UNL d   1       3.149   3.453  -1.226  0.00  0.00    -0.040 A 
ATOM     19  C   UNL d   1       2.909   4.757  -0.777  0.00  0.00     0.009 A 
ATOM     20  C   UNL d   1       2.028   5.584  -1.473  0.00  0.00     0.001 A 
ATOM     21  C   UNL d   1       1.405   5.124  -2.631  0.00  0.00     0.000 A 
ATOM     22  C   UNL d   1       1.714   3.863  -3.138  0.00  0.00     0.001 A 
ATOM     23  C   UNL d   1       2.606   3.037  -2.454  0.00  0.00     0.009 A 
ENDBRANCH  17  18
ENDBRANCH   2  17
BRANCH   7  24
ATOM     24  S   UNL d   1       5.125  -0.315  -0.680  0.00  0.00    -0.090 SA
BRANCH  24  25
ATOM     25  C   UNL d   1       5.181  -1.938  -1.470  0.00  0.00     0.108 C 
BRANCH  25  26
ATOM     26  C   UNL d   1       5.222  -1.889  -2.971  0.00  0.00    -0.026 C 
ATOM     27  C   UNL d   1       4.489  -1.128  -3.798  0.00  0.00     0.007 C 
ENDBRANCH  25  26
ENDBRANCH  24  25
ENDBRANCH   7  24
TORSDOF 5
