REMARK  2 active torsions:
REMARK  status: ('A' for Active; 'I' for Inactive)
REMARK    1  A    between atoms: O_19  and  C_7 
REMARK    2  A    between atoms: O_23  and  C_18 
ROOT
ATOM      1  C   UNL d   1      -1.416  -0.996  -0.371  0.00  0.00     0.003 C 
ATOM      2  C   UNL d   1       0.797  -1.899  -1.314  0.00  0.00    -0.000 C 
ATOM      3  C   UNL d   1       0.029  -1.454   0.017  0.00  0.00     0.002 C 
ATOM      4  C   UNL d   1       1.288  -0.668  -2.080  0.00  0.00     0.027 C 
ATOM      5  C   UNL d   1       2.433  -0.106  -1.162  0.00  0.00    -0.047 C 
ATOM      6  C   UNL d   1      -1.431  -0.698  -1.903  0.00  0.00     0.018 C 
ATOM      7  C   UNL d   1      -1.768   0.308   0.452  0.00  0.00     0.128 C 
ATOM      8  C   UNL d   1      -0.109  -0.009  -2.525  0.00  0.00    -0.009 C 
ATOM      9  C   UNL d   1       3.178  -1.036  -0.344  0.00  0.00    -0.049 C 
ATOM     10  C   UNL d   1      -2.832   1.157  -0.141  0.00  0.00    -0.078 C 
ATOM     11  C   UNL d   1       1.897  -2.952  -1.289  0.00  0.00     0.010 C 
ATOM     12  C   UNL d   1       0.409  -0.268   0.951  0.00  0.00     0.010 C 
ATOM     13  C   UNL d   1      -3.737   1.742  -0.648  0.00  0.00     0.015 C 
ATOM     14  C   UNL d   1       2.638   1.253  -0.890  0.00  0.00     0.011 C 
ATOM     15  C   UNL d   1       3.066  -2.536  -0.459  0.00  0.00     0.039 C 
ATOM     16  C   UNL d   1      -0.422   0.958   0.585  0.00  0.00     0.052 C 
ATOM     17  C   UNL d   1       3.839  -0.623   0.831  0.00  0.00     0.044 C 
ATOM     18  C   UNL d   1       3.733   0.691   1.244  0.00  0.00     0.068 C 
ATOM     19  C   UNL d   1       3.266   1.644   0.327  0.00  0.00     0.037 C 
ATOM     20  C   UNL d   1      -2.322  -2.173   0.062  0.00  0.00     0.020 C 
ATOM     21  C   UNL d   1      -0.310  -0.189  -4.054  0.00  0.00     0.011 C 
ENDROOT
BRANCH   7  22
ATOM     22  O   UNL d   1      -2.177  -0.003   1.792  0.00  0.00    -0.377 OA
ATOM     23  H   UNL d   1      -3.130  -0.197   1.770  0.00  0.00     0.211 HD
ENDBRANCH   7  22
BRANCH  18  24
ATOM     24  O   UNL d   1       3.912   1.064   2.557  0.00  0.00    -0.356 OA
ATOM     25  C   UNL d   1       3.426   0.101   3.518  0.00  0.00     0.210 C 
ENDBRANCH  18  24
TORSDOF 2
