REMARK  6 active torsions:
REMARK  status: ('A' for Active; 'I' for Inactive)
REMARK    1  A    between atoms: C_18  and  N_1 
REMARK    2  A    between atoms: C_3  and  C_2 
REMARK    3  A    between atoms: S_24  and  C_6 
REMARK    4  A    between atoms: O_26  and  C_7 
REMARK    5  A    between atoms: C_14  and  C_25 
REMARK    6  A    between atoms: C_25  and  S_24 
ROOT
ATOM      1  C   UNL d   1       5.568  -5.167   0.314  0.00  0.00     0.186 A 
ATOM      2  N   UNL d   1       4.255  -5.045   0.337  0.00  0.00    -0.322 N 
ATOM      3  HN  UNL d   1       3.555  -5.757   0.549  1.00  0.00     0.169 HD
ATOM      4  C   UNL d   1       4.057  -3.712   0.004  0.00  0.00     0.114 A 
ATOM      5  N   UNL d   1       5.190  -3.051  -0.255  0.00  0.00    -0.246 N 
ATOM      6  HN  UNL d   1       5.299  -2.077  -0.540  1.00  0.00     0.196 HD
ATOM      7  O   UNL d   1       6.180  -3.994  -0.047  0.00  0.00    -0.217 OA
ENDROOT
BRANCH   4   8
ATOM      8  C   UNL d   1       2.693  -3.079  -0.018  0.00  0.00     0.160 C 
BRANCH   8   9
ATOM      9  S   UNL d   1       2.683  -1.276  -0.423  0.00  0.00    -0.085 SA
BRANCH   9  10
ATOM     10  C   UNL d   1       0.998  -0.911  -0.234  0.00  0.00     0.165 A 
ATOM     11  N   UNL d   1       0.379   0.321  -0.339  0.00  0.00    -0.286 N 
ATOM     12  C   UNL d   1      -0.944   0.065  -0.044  0.00  0.00     0.240 A 
ATOM     13  N   UNL d   1      -1.125  -1.218   0.150  0.00  0.00    -0.263 N 
ATOM     14  N   UNL d   1       0.100  -1.827   0.048  0.00  0.00    -0.277 N 
ATOM     15  HN  UNL d   1      -2.014  -1.679   0.343  1.00  0.00     0.190 HD
ATOM     16  HN  UNL d   1       0.282  -2.823   0.171  1.00  0.00     0.189 HD
BRANCH  11  17
ATOM     17  C   UNL d   1       0.857   1.659  -0.665  0.00  0.00     0.096 A 
ATOM     18  C   UNL d   1       2.004   2.011  -1.585  0.00  0.00     0.028 A 
ATOM     19  C   UNL d   1       2.151   2.224  -0.117  0.00  0.00     0.028 A 
ENDBRANCH  11  17
BRANCH  12  20
ATOM     20  O   UNL d   1      -1.930   0.952   0.062  0.00  0.00    -0.331 OA
ATOM     21  H   UNL d   1      -1.562   1.813   0.297  0.00  0.00     0.221 HD
ENDBRANCH  12  20
ENDBRANCH   9  10
ENDBRANCH   8   9
ENDBRANCH   4   8
BRANCH   1  22
ATOM     22  C   UNL d   1       6.338  -6.391   0.663  0.00  0.00     0.073 A 
ATOM     23  C   UNL d   1       7.710  -6.468   0.759  0.00  0.00     0.089 A 
ATOM     24  O   UNL d   1       8.059  -7.731   1.121  0.00  0.00    -0.242 OA
ATOM     25  C   UNL d   1       8.824  -5.518   0.576  0.00  0.00     0.080 C 
ATOM     26  N   UNL d   1       6.924  -8.506   1.253  0.00  0.00    -0.265 N 
ATOM     27  C   UNL d   1       5.892  -7.698   0.969  0.00  0.00     0.045 A 
ATOM     28  HN  UNL d   1       6.880  -9.491   1.513  1.00  0.00     0.194 HD
ATOM     29  C   UNL d   1       4.516  -8.243   0.986  0.00  0.00     0.071 C 
ENDBRANCH   1  22
TORSDOF 6
