REMARK  3 active torsions:
REMARK  status: ('A' for Active; 'I' for Inactive)
REMARK    1  A    between atoms: C_6  and  N_2 
REMARK    2  A    between atoms: C_7  and  C_6 
REMARK    3  A    between atoms: C_10  and  C_7 
ROOT
ATOM      1  S   UNL d   1      -0.292  -1.720   0.789  0.00  0.00     0.269 S 
ATOM      2  N   UNL d   1       1.087  -1.290  -0.081  0.00  0.00    -0.230 N 
ATOM      3  C   UNL d   1       1.060   0.035  -0.563  0.00  0.00     0.269 A 
ATOM      4  C   UNL d   1      -0.198   0.682  -0.155  0.00  0.00     0.056 A 
ATOM      5  C   UNL d   1      -1.035  -0.161   0.564  0.00  0.00     0.095 A 
ATOM      6  O   UNL d   1      -1.038  -2.695   0.032  0.00  0.00    -0.200 OA
ATOM      7  O   UNL d   1       0.040  -1.849   2.187  0.00  0.00    -0.200 OA
ATOM      8  O   UNL d   1       1.948   0.563  -1.205  0.00  0.00    -0.266 OA
ATOM      9  C   UNL d   1      -0.547   2.005  -0.375  0.00  0.00     0.018 A 
ATOM     10  C   UNL d   1      -2.249   0.258   1.079  0.00  0.00     0.026 A 
ATOM     11  C   UNL d   1      -1.766   2.457   0.143  0.00  0.00     0.001 A 
ATOM     12  C   UNL d   1      -2.612   1.589   0.858  0.00  0.00     0.002 A 
ENDROOT
BRANCH   2  13
ATOM     13  C   UNL d   1       2.298  -2.098   0.051  0.00  0.00     0.229 C 
BRANCH  13  14
ATOM     14  C   UNL d   1       2.078  -3.587  -0.044  0.00  0.00     0.178 C 
ATOM     15  O   UNL d   1       2.130  -4.298   0.959  0.00  0.00    -0.290 OA
BRANCH  14  16
ATOM     16  C   UNL d   1       1.796  -4.213  -1.372  0.00  0.00     0.014 A 
ATOM     17  C   UNL d   1       1.579  -5.600  -1.403  0.00  0.00     0.055 A 
ATOM     18  C   UNL d   1       1.257  -6.178  -2.611  0.00  0.00     0.105 A 
ATOM     19  O   UNL d   1       0.983  -7.494  -2.814  0.00  0.00    -0.323 OA
ATOM     20  C   UNL d   1       1.164  -5.439  -3.766  0.00  0.00     0.105 A 
ATOM     21  C   UNL d   1       0.624  -7.483  -4.210  0.00  0.00     0.352 A 
ATOM     22  O   UNL d   1       0.811  -6.197  -4.838  0.00  0.00    -0.323 OA
ATOM     23  C   UNL d   1       1.402  -4.083  -3.780  0.00  0.00     0.040 A 
ATOM     24  C   UNL d   1       1.719  -3.461  -2.566  0.00  0.00     0.018 A 
ENDBRANCH  14  16
ENDBRANCH  13  14
ENDBRANCH   2  13
TORSDOF 3
