REMARK  2 active torsions:
REMARK  status: ('A' for Active; 'I' for Inactive)
REMARK    1  A    between atoms: C_13  and  N_8 
REMARK    2  A    between atoms: O_22  and  C_18 
ROOT
ATOM      1  N   UNL d   1       0.218  -0.192  -0.044  0.00  0.00    -0.279 N 
ATOM      2  C   UNL d   1       1.453   0.475  -0.010  0.00  0.00     0.123 A 
ATOM      3  C   UNL d   1       0.144  -1.596   0.026  0.00  0.00     0.136 A 
ATOM      4  C   UNL d   1       1.364  -2.358   0.020  0.00  0.00     0.095 A 
ATOM      5  C   UNL d   1       2.583  -0.259   0.003  0.00  0.00    -0.004 A 
ATOM      6  N   UNL d   1      -1.106  -2.009   0.113  0.00  0.00    -0.339 N 
ATOM      7  HN  UNL d   1      -1.431  -2.969   0.227  1.00  0.00     0.167 HD
ATOM      8  N   UNL d   1       1.743   1.839  -0.073  0.00  0.00    -0.332 N 
ATOM      9  C   UNL d   1       2.563  -1.714   0.018  0.00  0.00    -0.027 A 
ATOM     10  C   UNL d   1      -1.091   0.257  -0.162  0.00  0.00     0.069 A 
ATOM     11  C   UNL d   1      -1.875  -0.882   0.018  0.00  0.00     0.061 A 
ATOM     12  C   UNL d   1       1.288  -3.790   0.003  0.00  0.00     0.104 C 
ATOM     13  C   UNL d   1       3.794   0.623  -0.011  0.00  0.00     0.063 C 
ATOM     14  C   UNL d   1       3.201   2.023  -0.263  0.00  0.00     0.135 C 
ATOM     15  N   UNL d   1       1.291  -4.951  -0.018  0.00  0.00    -0.191 NA
ATOM     16  C   UNL d   1       3.911  -2.390   0.026  0.00  0.00     0.050 C 
ATOM     17  C   UNL d   1      -1.676   1.510  -0.393  0.00  0.00     0.032 A 
ATOM     18  C   UNL d   1      -3.274  -0.766   0.064  0.00  0.00     0.032 A 
ATOM     19  C   UNL d   1      -3.067   1.617  -0.309  0.00  0.00     0.002 A 
ATOM     20  C   UNL d   1      -3.858   0.497  -0.073  0.00  0.00     0.002 A 
ENDROOT
BRANCH   8  21
ATOM     21  C   UNL d   1       1.124   2.929   0.580  0.00  0.00     0.038 A 
ATOM     22  C   UNL d   1       0.368   2.791   1.756  0.00  0.00     0.066 A 
ATOM     23  C   UNL d   1      -0.266   3.897   2.337  0.00  0.00     0.070 A 
ATOM     24  C   UNL d   1      -0.124   5.160   1.758  0.00  0.00     0.037 A 
ATOM     25  C   UNL d   1       0.635   5.324   0.605  0.00  0.00     0.005 A 
ATOM     26  C   UNL d   1       1.250   4.217   0.024  0.00  0.00     0.030 A 
BRANCH  23  27
ATOM     27  O   UNL d   1      -1.052   3.882   3.458  0.00  0.00    -0.356 OA
ATOM     28  C   UNL d   1      -1.272   2.620   4.073  0.00  0.00     0.210 C 
ENDBRANCH  23  27
ENDBRANCH   8  21
TORSDOF 2
