REMARK  6 active torsions:
REMARK  status: ('A' for Active; 'I' for Inactive)
REMARK    1  A    between atoms: C_4  and  C_1 
REMARK    2  A    between atoms: C_2  and  C_3 
REMARK       I    between atoms: C_3  and  N_11 
REMARK       I    between atoms: N_12  and  C_4 
REMARK    3  A    between atoms: N_11  and  C_24 
REMARK    4  A    between atoms: C_25  and  N_12 
REMARK    5  A    between atoms: C_17  and  C_25 
REMARK    6  A    between atoms: C_24  and  C_17 
ROOT
ATOM      1  C   UNL d   1       2.699   5.163  -0.018  0.00  0.00     0.039 C 
ENDROOT
BRANCH   1   2
ATOM      2  C   UNL d   1       1.272   4.620   0.006  0.00  0.00     0.124 C 
BRANCH   2   3
ATOM      3  N   UNL d   1       1.237   3.169  -0.034  0.00  0.00    -0.357 N 
ATOM      4  C   UNL d   1       1.211   2.469  -1.225  0.00  0.00     0.257 C 
ATOM      5  O   UNL d   1       1.243   3.045  -2.307  0.00  0.00    -0.267 OA
ATOM      6  H   UNL d   1       1.227   2.667   0.847  0.00  0.00     0.162 HD
BRANCH   4   7
ATOM      7  C   UNL d   1       1.143   0.983  -1.152  0.00  0.00     0.108 A 
ATOM      8  C   UNL d   1       1.091   0.229  -2.330  0.00  0.00     0.135 A 
ATOM      9  F   UNL d   1       1.094   0.810  -3.538  0.00  0.00    -0.205 F 
ATOM     10  C   UNL d   1       1.034  -1.168  -2.299  0.00  0.00     0.043 A 
ATOM     11  C   UNL d   1       1.026  -1.842  -1.081  0.00  0.00     0.006 A 
ATOM     12  C   UNL d   1       1.072  -1.110   0.102  0.00  0.00     0.043 A 
ATOM     13  C   UNL d   1       1.128   0.286   0.060  0.00  0.00     0.135 A 
ATOM     14  F   UNL d   1       1.170   0.936   1.234  0.00  0.00    -0.205 F 
ENDBRANCH   4   7
ENDBRANCH   2   3
ENDBRANCH   1   2
BRANCH   1  15
ATOM     15  C   UNL d   1       2.691   6.689  -0.003  0.00  0.00     0.124 C 
BRANCH  15  16
ATOM     16  N   UNL d   1       4.028   7.249  -0.026  0.00  0.00    -0.357 N 
ATOM     17  C   UNL d   1       4.229   8.617   0.017  0.00  0.00     0.257 C 
ATOM     18  O   UNL d   1       3.287   9.402   0.075  0.00  0.00    -0.267 OA
ATOM     19  H   UNL d   1       4.821   6.625  -0.121  0.00  0.00     0.162 HD
BRANCH  17  20
ATOM     20  C   UNL d   1       5.636   9.108   0.017  0.00  0.00     0.108 A 
ATOM     21  C   UNL d   1       6.733   8.242   0.053  0.00  0.00     0.135 A 
ATOM     22  F   UNL d   1       6.566   6.911   0.034  0.00  0.00    -0.205 F 
ATOM     23  C   UNL d   1       8.044   8.723   0.115  0.00  0.00     0.043 A 
ATOM     24  C   UNL d   1       8.284  10.093   0.133  0.00  0.00     0.006 A 
ATOM     25  C   UNL d   1       7.207  10.974   0.075  0.00  0.00     0.043 A 
ATOM     26  C   UNL d   1       5.899  10.483   0.018  0.00  0.00     0.135 A 
ATOM     27  F   UNL d   1       4.911  11.389  -0.035  0.00  0.00    -0.205 F 
ENDBRANCH  17  20
ENDBRANCH  15  16
ENDBRANCH   1  15
TORSDOF 6
