REMARK  1 active torsions:
REMARK  status: ('A' for Active; 'I' for Inactive)
REMARK    1  A    between atoms: C_7  and  C_3 
ROOT
ATOM      1  C   UNL d   1      -0.736   0.356  -0.009  0.00  0.00     0.050 C 
ATOM      2  C   UNL d   1      -1.383  -0.824  -0.010  0.00  0.00    -0.025 C 
ATOM      3  C   UNL d   1      -2.894  -0.882  -0.091  0.00  0.00     0.150 C 
ATOM      4  C   UNL d   1      -2.832   1.568   0.067  0.00  0.00     0.173 C 
ATOM      5  N   UNL d   1      -1.478   1.511  -0.067  0.00  0.00    -0.332 N 
ATOM      6  N   UNL d   1      -3.470   0.393   0.296  0.00  0.00    -0.354 N 
ATOM      7  C   UNL d   1       0.746   0.415   0.025  0.00  0.00    -0.003 A 
ATOM      8  C   UNL d   1      -0.686  -2.155   0.049  0.00  0.00     0.043 C 
ATOM      9  S   UNL d   1      -3.662   3.002  -0.034  0.00  0.00    -0.041 SA
ATOM     10  C   UNL d   1       1.495  -0.777   0.011  0.00  0.00    -0.045 A 
ATOM     11  C   UNL d   1       0.841  -2.132  -0.045  0.00  0.00     0.044 C 
ATOM     12  C   UNL d   1       1.451   1.633   0.077  0.00  0.00     0.014 A 
ATOM     13  C   UNL d   1       2.902  -0.729   0.024  0.00  0.00     0.008 A 
ATOM     14  C   UNL d   1       2.845   1.670   0.087  0.00  0.00     0.001 A 
ATOM     15  C   UNL d   1       3.574   0.488   0.056  0.00  0.00     0.001 A 
ATOM     16  H   UNL d   1      -1.023   2.404  -0.185  0.00  0.00     0.168 HD
ATOM     17  H   UNL d   1      -4.479   0.447   0.348  0.00  0.00     0.163 HD
ENDROOT
BRANCH   3  18
ATOM     18  C   UNL d   1      -3.410  -1.264  -1.474  0.00  0.00    -0.009 A 
ATOM     19  C   UNL d   1      -4.194  -2.404  -1.708  0.00  0.00     0.042 A 
ATOM     20 CL   UNL d   1      -4.542  -3.560  -0.472  0.00  0.00    -0.084 Cl
ATOM     21  C   UNL d   1      -4.734  -2.647  -2.977  0.00  0.00     0.024 A 
ATOM     22  C   UNL d   1      -4.496  -1.766  -4.032  0.00  0.00     0.002 A 
ATOM     23  C   UNL d   1      -3.691  -0.653  -3.830  0.00  0.00     0.001 A 
ATOM     24  C   UNL d   1      -3.146  -0.413  -2.571  0.00  0.00     0.011 A 
ENDBRANCH   3  18
TORSDOF 1
