REMARK  3 active torsions:
REMARK  status: ('A' for Active; 'I' for Inactive)
REMARK    1  A    between atoms: C_7  and  C_3 
REMARK    2  A    between atoms: C_11  and  C_5 
REMARK    3  A    between atoms: O_19  and  C_15 
ROOT
ATOM      1  N   UNL d   1      -0.443   1.591  -0.798  0.00  0.00    -0.358 N 
ATOM      2  HN  UNL d   1      -0.267   2.160  -1.626  1.00  0.00     0.166 HD
ATOM      3  C   UNL d   1      -2.368  -0.589   0.599  0.00  0.00     0.092 C 
ATOM      4  S   UNL d   1      -1.192  -1.520  -0.488  0.00  0.00    -0.118 SA
ATOM      5  C   UNL d   1      -1.577   1.708  -0.171  0.00  0.00     0.021 C 
ATOM      6  C   UNL d   1      -1.964   0.836   1.014  0.00  0.00     0.078 C 
ATOM      7  C   UNL d   1       0.545   0.694  -0.353  0.00  0.00     0.049 A 
ATOM      8  C   UNL d   1       0.355  -0.689  -0.168  0.00  0.00     0.028 A 
ATOM      9  C   UNL d   1       1.819   1.237  -0.134  0.00  0.00     0.031 A 
ATOM     10  C   UNL d   1       1.441  -1.489   0.227  0.00  0.00     0.021 A 
ATOM     11  C   UNL d   1       2.699  -0.927   0.452  0.00  0.00     0.002 A 
ATOM     12  C   UNL d   1       2.889   0.438   0.272  0.00  0.00     0.002 A 
ENDROOT
BRANCH   3  13
ATOM     13  C   UNL d   1      -3.798  -0.611   0.038  0.00  0.00    -0.033 A 
ATOM     14  C   UNL d   1      -4.943  -0.864   0.862  0.00  0.00    -0.018 A 
ATOM     15  C   UNL d   1      -6.236  -0.773   0.275  0.00  0.00    -0.025 A 
ATOM     16  C   UNL d   1      -4.896  -1.202   2.239  0.00  0.00     0.013 A 
ATOM     17  C   UNL d   1      -7.388  -1.008   1.042  0.00  0.00     0.012 A 
ATOM     18  C   UNL d   1      -6.378  -0.446  -1.079  0.00  0.00     0.012 A 
ATOM     19  C   UNL d   1      -7.301  -1.347   2.389  0.00  0.00     0.001 A 
ATOM     20  C   UNL d   1      -6.053  -1.446   2.987  0.00  0.00     0.001 A 
ATOM     21  C   UNL d   1      -5.267  -0.213  -1.876  0.00  0.00     0.002 A 
ATOM     22  C   UNL d   1      -3.995  -0.293  -1.324  0.00  0.00     0.009 A 
ENDBRANCH   3  13
BRANCH   5  23
ATOM     23  C   UNL d   1      -2.528   2.762  -0.650  0.00  0.00    -0.013 A 
ATOM     24  C   UNL d   1      -2.550   3.083  -2.015  0.00  0.00     0.016 A 
ATOM     25  C   UNL d   1      -3.384   4.099  -2.497  0.00  0.00     0.037 A 
ATOM     26  C   UNL d   1      -4.192   4.816  -1.615  0.00  0.00     0.068 A 
ATOM     27  C   UNL d   1      -4.171   4.495  -0.257  0.00  0.00     0.037 A 
ATOM     28  C   UNL d   1      -3.342   3.477   0.229  0.00  0.00     0.016 A 
BRANCH  26  29
ATOM     29  O   UNL d   1      -5.030   5.846  -1.942  0.00  0.00    -0.356 OA
ATOM     30  C   UNL d   1      -5.022   6.279  -3.296  0.00  0.00     0.210 C 
ENDBRANCH  26  29
ENDBRANCH   5  23
TORSDOF 3
