REMARK  1 active torsions:
REMARK  status: ('A' for Active; 'I' for Inactive)
REMARK    1  A    between atoms: C_14  and  C_6 
ROOT
ATOM      1  C   UNL d   1       5.797   3.307  -7.627  0.00  0.00    -0.030 C 
ATOM      2  C   UNL d   1       4.473   6.782  -5.076  0.00  0.00    -0.036 C 
ATOM      3  C   UNL d   1       6.521   3.717  -6.310  0.00  0.00    -0.001 C 
ATOM      4  C   UNL d   1       4.490   5.296  -5.628  0.00  0.00    -0.002 C 
ATOM      5  C   UNL d   1       5.685   4.398  -5.197  0.00  0.00    -0.005 C 
ATOM      6  C   UNL d   1       5.934   1.760  -7.674  0.00  0.00     0.063 C 
ATOM      7  C   UNL d   1       4.942   6.865  -3.579  0.00  0.00     0.001 C 
ATOM      8  C   UNL d   1       4.328   3.749  -7.643  0.00  0.00     0.011 C 
ATOM      9  C   UNL d   1       4.162   5.179  -7.131  0.00  0.00     0.006 C 
ATOM     10  C   UNL d   1       7.176   2.419  -5.775  0.00  0.00     0.006 C 
ATOM     11  C   UNL d   1       3.015   7.351  -5.250  0.00  0.00     0.017 C 
ATOM     12  C   UNL d   1       7.260   1.490  -6.968  0.00  0.00     0.013 C 
ATOM     13  C   UNL d   1       6.656   5.074  -4.223  0.00  0.00     0.006 C 
ATOM     14  C   UNL d   1       3.790   6.874  -2.571  0.00  0.00     0.083 C 
ATOM     15  C   UNL d   1       5.930   5.787  -3.113  0.00  0.00     0.006 C 
ATOM     16  C   UNL d   1       2.911   8.065  -2.803  0.00  0.00     0.127 C 
ATOM     17  O   UNL d   1       2.510   8.753  -1.871  0.00  0.00    -0.298 OA
ATOM     18  C   UNL d   1       2.483   8.343  -4.217  0.00  0.00     0.079 C 
ATOM     19  C   UNL d   1       6.555   3.969  -8.811  0.00  0.00     0.016 C 
ATOM     20  C   UNL d   1       5.420   7.669  -5.934  0.00  0.00     0.016 C 
ENDROOT
BRANCH   6  21
ATOM     21  C   UNL d   1       5.887   1.120  -9.057  0.00  0.00     0.128 C 
ATOM     22  O   UNL d   1       6.887   0.997  -9.764  0.00  0.00    -0.298 OA
ATOM     23  C   UNL d   1       4.549   0.607  -9.521  0.00  0.00     0.091 C 
ENDBRANCH   6  21
TORSDOF 1
