REMARK  5 active torsions:
REMARK  status: ('A' for Active; 'I' for Inactive)
REMARK    1  A    between atoms: C_4  and  C_1 
REMARK       I    between atoms: N_7  and  C_4 
REMARK    2  A    between atoms: C_10  and  N_7 
REMARK    3  A    between atoms: C_11  and  N_7 
REMARK    4  A    between atoms: C_17  and  C_10 
REMARK    5  A    between atoms: C_18  and  C_11 
ROOT
ATOM      1  C   UNL d   1      -3.655  -0.263  -0.968  0.00  0.00     0.250 C 
ATOM      2  N   UNL d   1      -4.681  -1.209  -0.724  0.00  0.00    -0.238 NA
ATOM      3  O   UNL d   1      -3.826   0.637  -1.792  0.00  0.00    -0.272 OA
ENDROOT
BRANCH   2   4
ATOM      4  C   UNL d   1      -5.944  -0.821  -1.372  0.00  0.00     0.156 C 
BRANCH   4   5
ATOM      5  C   UNL d   1      -7.211  -1.454  -0.838  0.00  0.00     0.022 A 
ATOM      6  N   UNL d   1      -7.642  -2.593  -1.438  0.00  0.00    -0.368 N 
ATOM      7  C   UNL d   1      -8.839  -3.087  -1.052  0.00  0.00     0.088 A 
ATOM      8  HN  UNL d   1      -7.083  -3.059  -2.153  1.00  0.00     0.165 HD
ATOM      9  C   UNL d   1      -9.641  -2.500  -0.089  0.00  0.00     0.017 A 
ATOM     10  C   UNL d   1      -9.179  -1.347   0.534  0.00  0.00     0.003 A 
ATOM     11  C   UNL d   1      -7.945  -0.818   0.164  0.00  0.00     0.026 A 
ENDBRANCH   4   5
ENDBRANCH   2   4
BRANCH   2  12
ATOM     12  C   UNL d   1      -4.332  -2.634  -0.842  0.00  0.00     0.137 C 
BRANCH  12  13
ATOM     13  C   UNL d   1      -4.097  -3.364   0.466  0.00  0.00    -0.045 A 
ATOM     14  C   UNL d   1      -4.832  -3.093   1.629  0.00  0.00     0.008 A 
ATOM     15  C   UNL d   1      -4.556  -3.775   2.818  0.00  0.00     0.001 A 
ATOM     16  C   UNL d   1      -3.569  -4.760   2.851  0.00  0.00     0.000 A 
ATOM     17  C   UNL d   1      -2.862  -5.071   1.693  0.00  0.00     0.001 A 
ATOM     18  C   UNL d   1      -3.127  -4.381   0.509  0.00  0.00     0.008 A 
ENDBRANCH  12  13
ENDBRANCH   2  12
BRANCH   1  19
ATOM     19  C   UNL d   1      -2.428  -0.311  -0.192  0.00  0.00     0.096 A 
ATOM     20  N   UNL d   1      -2.203  -0.969   0.991  0.00  0.00    -0.351 N 
ATOM     21  C   UNL d   1      -0.980  -0.636   1.528  0.00  0.00     0.044 A 
ATOM     22  H   UNL d   1      -2.872  -1.548   1.471  0.00  0.00     0.166 HD
ATOM     23  C   UNL d   1      -0.403  -1.034   2.738  0.00  0.00     0.037 A 
ATOM     24  C   UNL d   1      -0.374   0.260   0.654  0.00  0.00    -0.001 A 
ATOM     25  C   UNL d   1       0.829  -0.471   3.090  0.00  0.00    -0.059 A 
ATOM     26  C   UNL d   1       1.455  -0.788   4.417  0.00  0.00     0.048 C 
ATOM     27  C   UNL d   1       1.451   0.442   2.229  0.00  0.00     0.014 A 
ATOM     28  C   UNL d   1       0.880   0.820   0.995  0.00  0.00    -0.049 A 
ATOM     29  C   UNL d   1       1.593   1.843   0.155  0.00  0.00     0.049 C 
ATOM     30  C   UNL d   1      -1.276   0.426  -0.434  0.00  0.00     0.049 A 
ENDBRANCH   1  19
TORSDOF 5
