REMARK  3 active torsions:
REMARK  status: ('A' for Active; 'I' for Inactive)
REMARK    1  A    between atoms: C_6  and  C_1 
REMARK    2  A    between atoms: O_13  and  C_6 
REMARK    3  A    between atoms: C_15  and  O_13 
ROOT
ATOM      1  C   UNL d   1      -2.474  -0.033  -0.300  0.00  0.00     0.057 A 
ATOM      2  N   UNL d   1      -0.358   0.647  -0.032  0.00  0.00    -0.329 N 
ATOM      3  C   UNL d   1      -0.336  -0.725  -0.022  0.00  0.00     0.061 A 
ATOM      4  C   UNL d   1      -1.632  -1.178  -0.148  0.00  0.00     0.051 A 
ATOM      5  C   UNL d   1      -1.650   1.077  -0.174  0.00  0.00     0.114 A 
ATOM      6  N   UNL d   1       2.059  -0.695   0.161  0.00  0.00    -0.366 N 
ATOM      7  HN  UNL d   1       2.962  -1.165   0.235  1.00  0.00     0.165 HD
ATOM      8  C   UNL d   1       0.950  -1.380   0.075  0.00  0.00     0.032 A 
ATOM      9  C   UNL d   1       0.819   1.366   0.061  0.00  0.00     0.113 A 
ATOM     10  C   UNL d   1       1.974   0.685   0.149  0.00  0.00     0.105 A 
ATOM     11  C   UNL d   1       1.006  -2.884   0.072  0.00  0.00     0.070 C 
ENDROOT
BRANCH   1  12
ATOM     12  C   UNL d   1      -3.896  -0.033  -0.608  0.00  0.00     0.294 C 
ATOM     13  O   UNL d   1      -4.552  -1.061  -0.717  0.00  0.00    -0.259 OA
BRANCH  12  14
ATOM     14  O   UNL d   1      -4.362   1.222  -0.869  0.00  0.00    -0.318 OA
BRANCH  14  15
ATOM     15  C   UNL d   1      -5.579   1.281  -1.623  0.00  0.00     0.174 C 
ATOM     16  C   UNL d   1      -5.221   1.293  -3.099  0.00  0.00     0.034 C 
ENDBRANCH  14  15
ENDBRANCH  12  14
ENDBRANCH   1  12
TORSDOF 3
