REMARK  2 active torsions:
REMARK  status: ('A' for Active; 'I' for Inactive)
REMARK    1  A    between atoms: C_12  and  C_7 
REMARK    2  A    between atoms: C_13  and  C_8 
ROOT
ATOM      1  C   UNL d   1       2.987   0.017  -1.171  0.00  0.00     0.026 C 
ATOM      2  C   UNL d   1       2.495  -0.174  -3.603  0.00  0.00     0.026 C 
ATOM      3  C   UNL d   1       2.922   0.736  -2.508  0.00  0.00     0.188 C 
ATOM      4  N   UNL d   1       2.032  -1.970  -2.228  0.00  0.00     0.102 N 
ATOM      5  C   UNL d   1       2.019  -1.161  -0.995  0.00  0.00     0.260 C 
ATOM      6  C   UNL d   1       1.369  -1.087  -3.204  0.00  0.00     0.260 C 
ATOM      7  C   UNL d   1       3.450  -0.388  -4.525  0.00  0.00     0.024 C 
ATOM      8  C   UNL d   1       3.942   0.514  -0.356  0.00  0.00     0.024 C 
ATOM      9  C   UNL d   1       0.570  -0.689  -0.935  0.00  0.00     0.043 C 
ATOM     10  C   UNL d   1       0.238  -0.390  -2.400  0.00  0.00     0.043 C 
ATOM     11  O   UNL d   1       3.227   1.901  -2.688  0.00  0.00    -0.287 OA
ATOM     12  C   UNL d   1       1.428  -3.288  -2.185  0.00  0.00     0.311 C 
ENDROOT
BRANCH   8  13
ATOM     13  C   UNL d   1       4.333   0.131   1.002  0.00  0.00    -0.035 A 
ATOM     14  C   UNL d   1       4.322  -1.181   1.484  0.00  0.00     0.014 A 
ATOM     15  C   UNL d   1       4.675  -1.450   2.809  0.00  0.00     0.043 A 
ATOM     16  C   UNL d   1       5.097  -0.415   3.633  0.00  0.00     0.116 A 
ATOM     17  C   UNL d   1       5.191   0.882   3.154  0.00  0.00     0.043 A 
ATOM     18  F   UNL d   1       5.428  -0.676   4.904  0.00  0.00    -0.206 F 
ATOM     19  C   UNL d   1       4.812   1.154   1.839  0.00  0.00     0.014 A 
ENDBRANCH   8  13
BRANCH   7  20
ATOM     20  C   UNL d   1       3.636  -1.710  -5.140  0.00  0.00    -0.035 A 
ATOM     21  C   UNL d   1       3.164  -2.016  -6.414  0.00  0.00     0.014 A 
ATOM     22  C   UNL d   1       3.337  -3.308  -6.923  0.00  0.00     0.043 A 
ATOM     23  C   UNL d   1       3.973  -4.282  -6.154  0.00  0.00     0.116 A 
ATOM     24  C   UNL d   1       4.449  -3.992  -4.887  0.00  0.00     0.043 A 
ATOM     25  F   UNL d   1       4.117  -5.520  -6.644  0.00  0.00    -0.206 F 
ATOM     26  C   UNL d   1       4.290  -2.702  -4.384  0.00  0.00     0.014 A 
ENDBRANCH   7  20
TORSDOF 2
