REMARK  3 active torsions:
REMARK  status: ('A' for Active; 'I' for Inactive)
REMARK    1  A    between atoms: C_6  and  C_1 
REMARK    2  A    between atoms: C_7  and  C_2 
REMARK    3  A    between atoms: C_11  and  C_7 
ROOT
ATOM      1  C   UNL d   1      -1.254   0.129   0.057  0.00  0.00     0.039 A 
ATOM      2  C   UNL d   1       1.031   0.151   0.084  0.00  0.00     0.016 A 
ATOM      3  C   UNL d   1      -0.792  -1.183   0.100  0.00  0.00     0.020 A 
ATOM      4  N   UNL d   1       0.581  -1.139   0.162  0.00  0.00    -0.362 N 
ATOM      5  C   UNL d   1      -0.081   0.975   0.041  0.00  0.00    -0.024 A 
ATOM      6  C   UNL d   1      -1.450  -2.517   0.038  0.00  0.00     0.069 C 
ATOM      7  C   UNL d   1      -0.086   2.466  -0.032  0.00  0.00     0.051 C 
ATOM      8  H   UNL d   1       1.181  -1.952   0.207  0.00  0.00     0.165 HD
ENDROOT
BRANCH   2   9
ATOM      9  C   UNL d   1       2.497   0.448   0.009  0.00  0.00     0.061 C 
BRANCH   9  10
ATOM     10  C   UNL d   1       3.147   0.754   1.371  0.00  0.00    -0.017 C 
ATOM     11  C   UNL d   1       3.094  -0.436   2.333  0.00  0.00     0.010 C 
ATOM     12  C   UNL d   1       4.609   1.160   1.154  0.00  0.00     0.010 C 
ENDBRANCH   9  10
ENDBRANCH   2   9
BRANCH   1  13
ATOM     13  C   UNL d   1      -2.642   0.619  -0.020  0.00  0.00     0.158 C 
ATOM     14  O   UNL d   1      -2.907   1.684  -0.576  0.00  0.00    -0.293 OA
ATOM     15  C   UNL d   1      -3.768  -0.155   0.617  0.00  0.00     0.097 C 
ENDBRANCH   1  13
TORSDOF 3
