REMARK  1 active torsions:
REMARK  status: ('A' for Active; 'I' for Inactive)
REMARK    1  A    between atoms: C_10  and  C_7 
ROOT
ATOM      1  C   UNL d   1       2.194   0.593   0.030  0.00  0.00     0.151 A 
ATOM      2  N   UNL d   1       2.602  -0.695  -0.092  0.00  0.00    -0.284 N 
ATOM      3  C   UNL d   1      -0.019   0.075   0.016  0.00  0.00     0.049 A 
ATOM      4  C   UNL d   1       0.230  -1.245  -0.096  0.00  0.00    -0.024 A 
ATOM      5  N   UNL d   1       0.979   1.016   0.069  0.00  0.00    -0.336 N 
ATOM      6  HN  UNL d   1       0.766   2.011   0.136  1.00  0.00     0.168 HD
ATOM      7  C   UNL d   1       1.643  -1.775  -0.208  0.00  0.00     0.161 A 
ATOM      8  S   UNL d   1       3.539   1.686   0.146  0.00  0.00    -0.084 SA
ATOM      9  C   UNL d   1       3.951  -0.935   0.028  0.00  0.00     0.236 A 
ATOM     10  C   UNL d   1      -1.437   0.530   0.021  0.00  0.00    -0.003 A 
ATOM     11  C   UNL d   1      -0.887  -2.259  -0.204  0.00  0.00     0.043 C 
ATOM     12  C   UNL d   1       4.746   0.343   0.117  0.00  0.00     0.185 A 
ATOM     13  C   UNL d   1      -2.478  -0.393   0.256  0.00  0.00    -0.045 A 
ATOM     14  O   UNL d   1       4.475  -2.040   0.072  0.00  0.00    -0.272 OA
ATOM     15  C   UNL d   1      -2.143  -1.831   0.547  0.00  0.00     0.044 C 
ATOM     16  C   UNL d   1      -1.774   1.870  -0.218  0.00  0.00     0.014 A 
ATOM     17  C   UNL d   1      -3.815   0.030   0.269  0.00  0.00     0.008 A 
ATOM     18  C   UNL d   1      -3.110   2.282  -0.225  0.00  0.00     0.001 A 
ATOM     19  C   UNL d   1      -4.128   1.364   0.021  0.00  0.00     0.001 A 
ENDROOT
BRANCH   7  20
ATOM     20  C   UNL d   1       1.811  -2.542  -1.518  0.00  0.00    -0.009 A 
ATOM     21  C   UNL d   1       2.106  -3.916  -1.557  0.00  0.00     0.042 A 
ATOM     22 CL   UNL d   1       2.413  -4.845  -0.132  0.00  0.00    -0.084 Cl
ATOM     23  C   UNL d   1       2.116  -4.602  -2.775  0.00  0.00     0.024 A 
ATOM     24  C   UNL d   1       1.821  -3.937  -3.963  0.00  0.00     0.002 A 
ATOM     25  C   UNL d   1       1.553  -2.572  -3.946  0.00  0.00     0.001 A 
ATOM     26  C   UNL d   1       1.566  -1.876  -2.739  0.00  0.00     0.011 A 
ENDBRANCH   7  20
TORSDOF 1
