REMARK  6 active torsions:
REMARK  status: ('A' for Active; 'I' for Inactive)
REMARK    1  A    between atoms: C_2  and  S_1 
REMARK    2  A    between atoms: N_3  and  S_1 
REMARK    3  A    between atoms: C_11  and  N_3 
REMARK    4  A    between atoms: C_12  and  N_3 
REMARK    5  A    between atoms: C_22  and  C_11 
REMARK    6  A    between atoms: C_23  and  C_12 
ROOT
ATOM      1  N   UNL d   1       0.314   0.729   1.328  0.00  0.00    -0.295 N 
ENDROOT
BRANCH   1   2
ATOM      2  S   UNL d   1       0.898  -0.114  -0.014  0.00  0.00     0.268 S 
ATOM      3  O   UNL d   1       2.093  -0.853   0.323  0.00  0.00    -0.200 OA
ATOM      4  O   UNL d   1      -0.200  -0.774  -0.687  0.00  0.00    -0.200 OA
BRANCH   2   5
ATOM      5  C   UNL d   1       1.462   1.086  -1.220  0.00  0.00     0.121 A 
ATOM      6  S   UNL d   1       0.266   2.080  -1.933  0.00  0.00    -0.074 SA
ATOM      7  C   UNL d   1       1.382   2.799  -3.014  0.00  0.00     0.042 A 
ATOM      8  C   UNL d   1       0.984   3.752  -4.016  0.00  0.00     0.117 A 
ATOM      9  C   UNL d   1       2.662   2.325  -2.791  0.00  0.00     0.024 A 
ATOM     10  O   UNL d   1       1.886   4.328  -4.878  0.00  0.00    -0.237 OA
ATOM     11  C   UNL d   1      -0.266   4.249  -4.335  0.00  0.00     0.059 A 
ATOM     12  N   UNL d   1       1.239   5.184  -5.751  0.00  0.00    -0.272 N 
ATOM     13  C   UNL d   1      -0.048   5.121  -5.415  0.00  0.00     0.117 A 
ATOM     14  HN  UNL d   1       1.658   5.743  -6.494  1.00  0.00     0.194 HD
ATOM     15  C   UNL d   1       2.709   1.346  -1.753  0.00  0.00     0.034 A 
ENDBRANCH   2   5
ENDBRANCH   1   2
BRANCH   1  16
ATOM     16  C   UNL d   1      -1.133   1.052   1.350  0.00  0.00     0.192 C 
BRANCH  16  17
ATOM     17  C   UNL d   1      -2.093  -0.122   1.481  0.00  0.00     0.027 A 
ATOM     18  N   UNL d   1      -1.938  -0.956   2.543  0.00  0.00    -0.368 N 
ATOM     19  C   UNL d   1      -2.806  -1.988   2.652  0.00  0.00     0.088 A 
ATOM     20  HN  UNL d   1      -1.198  -0.809   3.230  1.00  0.00     0.165 HD
ATOM     21  C   UNL d   1      -3.850  -2.218   1.773  0.00  0.00     0.017 A 
ATOM     22  C   UNL d   1      -4.007  -1.350   0.701  0.00  0.00     0.003 A 
ATOM     23  C   UNL d   1      -3.117  -0.290   0.547  0.00  0.00     0.027 A 
ENDBRANCH  16  17
ENDBRANCH   1  16
BRANCH   1  24
ATOM     24  C   UNL d   1       0.855   0.332   2.653  0.00  0.00     0.192 C 
BRANCH  24  25
ATOM     25  C   UNL d   1       2.346   0.560   2.855  0.00  0.00     0.027 A 
ATOM     26  N   UNL d   1       2.942   1.598   2.210  0.00  0.00    -0.368 N 
ATOM     27  C   UNL d   1       4.279   1.731   2.364  0.00  0.00     0.088 A 
ATOM     28  HN  UNL d   1       2.405   2.248   1.637  1.00  0.00     0.165 HD
ATOM     29  C   UNL d   1       5.056   0.898   3.153  0.00  0.00     0.017 A 
ATOM     30  C   UNL d   1       4.426  -0.130   3.841  0.00  0.00     0.003 A 
ATOM     31  C   UNL d   1       3.053  -0.301   3.698  0.00  0.00     0.027 A 
ENDBRANCH  24  25
ENDBRANCH   1  24
TORSDOF 6
