REMARK  6 active torsions:
REMARK  status: ('A' for Active; 'I' for Inactive)
REMARK    1  A    between atoms: C_12  and  N_1 
REMARK    2  A    between atoms: O_13  and  C_3 
REMARK    3  A    between atoms: O_5  and  C_4 
REMARK    4  A    between atoms: C_10  and  O_5 
REMARK    5  A    between atoms: C_9  and  C_6 
REMARK    6  A    between atoms: C_14  and  C_10 
ROOT
ATOM      1  C   UNL d   1      -3.422  -1.857  -0.901  0.00  0.00     0.102 A 
ATOM      2  C   UNL d   1      -4.011  -0.582  -0.750  0.00  0.00     0.102 A 
ATOM      3  C   UNL d   1      -2.025  -1.986  -0.937  0.00  0.00     0.052 A 
ATOM      4  C   UNL d   1      -3.198   0.549  -0.672  0.00  0.00     0.040 A 
ATOM      5  C   UNL d   1      -1.227  -0.844  -0.843  0.00  0.00    -0.018 A 
ATOM      6  C   UNL d   1      -1.817   0.416  -0.728  0.00  0.00     0.015 A 
ENDROOT
BRANCH   5   7
ATOM      7  C   UNL d   1       0.251  -0.954  -0.758  0.00  0.00     0.094 C 
ATOM      8  N   UNL d   1       0.899  -0.053  -0.118  0.00  0.00    -0.393 N 
ATOM      9  HN  UNL d   1       0.383   0.732   0.279  1.00  0.00     0.159 HD
BRANCH   8  10
ATOM     10  C   UNL d   1       2.336  -0.106   0.062  0.00  0.00     0.081 C 
ATOM     11  C   UNL d   1       2.805  -0.992   1.239  0.00  0.00     0.025 C 
ATOM     12  C   UNL d   1       2.147  -2.354   1.489  0.00  0.00     0.002 C 
ATOM     13  C   UNL d   1       0.743  -2.371   2.113  0.00  0.00     0.000 C 
ATOM     14  C   UNL d   1       0.541  -1.567   3.407  0.00  0.00     0.000 C 
ATOM     15  C   UNL d   1      -0.845  -0.890   3.479  0.00  0.00     0.000 C 
ATOM     16  C   UNL d   1      -0.933   0.427   2.701  0.00  0.00     0.000 C 
ATOM     17  C   UNL d   1      -0.280   1.619   3.404  0.00  0.00     0.000 C 
ATOM     18  C   UNL d   1      -0.077   2.859   2.513  0.00  0.00     0.000 C 
ATOM     19  C   UNL d   1       0.823   2.713   1.273  0.00  0.00     0.000 C 
ATOM     20  C   UNL d   1       2.211   2.106   1.512  0.00  0.00     0.002 C 
ATOM     21  C   UNL d   1       2.812   1.367   0.285  0.00  0.00     0.025 C 
ENDBRANCH   8  10
ENDBRANCH   5   7
BRANCH   1  22
ATOM     22  O   UNL d   1      -4.295  -2.907  -1.052  0.00  0.00    -0.353 OA
ATOM     23  C   UNL d   1      -3.852  -4.190  -0.635  0.00  0.00     0.210 C 
ENDBRANCH   1  22
BRANCH   2  24
ATOM     24  O   UNL d   1      -5.383  -0.529  -0.689  0.00  0.00    -0.344 OA
BRANCH  24  25
ATOM     25  C   UNL d   1      -5.942   0.667  -0.140  0.00  0.00     0.214 C 
BRANCH  25  26
ATOM     26  C   UNL d   1      -7.429   0.545   0.098  0.00  0.00    -0.034 A 
ATOM     27  C   UNL d   1      -8.172  -0.556  -0.340  0.00  0.00     0.009 A 
ATOM     28  C   UNL d   1      -9.546  -0.626  -0.104  0.00  0.00     0.001 A 
ATOM     29  C   UNL d   1     -10.195   0.415   0.568  0.00  0.00     0.000 A 
ATOM     30  C   UNL d   1      -9.470   1.520   0.998  0.00  0.00     0.001 A 
ATOM     31  C   UNL d   1      -8.095   1.589   0.765  0.00  0.00     0.009 A 
ENDBRANCH  25  26
ENDBRANCH  24  25
ENDBRANCH   2  24
TORSDOF 6
