REMARK  2 active torsions:
REMARK  status: ('A' for Active; 'I' for Inactive)
REMARK    1  A    between atoms: C_9  and  C_5 
REMARK    2  A    between atoms: O_16  and  C_10 
ROOT
ATOM      1  C   UNL d   1      -2.485   0.521  -0.356  0.00  0.00     0.003 C 
ATOM      2  C   UNL d   1      -1.266   1.355  -0.184  0.00  0.00     0.190 C 
ATOM      3  C   UNL d   1       0.038   0.639  -0.063  0.00  0.00     0.031 A 
ATOM      4  S   UNL d   1      -1.260  -1.866  -0.164  0.00  0.00    -0.124 SA
ATOM      5  C   UNL d   1      -3.412   0.951  -1.235  0.00  0.00     0.023 C 
ATOM      6  C   UNL d   1       0.140  -0.762  -0.095  0.00  0.00     0.015 A 
ATOM      7  C   UNL d   1      -2.522  -0.731   0.456  0.00  0.00     0.122 C 
ATOM      8  O   UNL d   1      -1.326   2.579  -0.170  0.00  0.00    -0.287 OA
ATOM      9  C   UNL d   1       1.204   1.417   0.027  0.00  0.00     0.017 A 
ATOM     10  C   UNL d   1       1.408  -1.359  -0.075  0.00  0.00     0.019 A 
ATOM     11  C   UNL d   1       2.459   0.808   0.063  0.00  0.00     0.001 A 
ATOM     12  C   UNL d   1       2.562  -0.577   0.003  0.00  0.00     0.001 A 
ENDROOT
BRANCH   5  13
ATOM     13  C   UNL d   1      -4.563   0.121  -1.589  0.00  0.00    -0.035 A 
ATOM     14  C   UNL d   1      -5.742   0.178  -0.846  0.00  0.00     0.014 A 
ATOM     15  C   UNL d   1      -6.753  -0.756  -1.084  0.00  0.00     0.037 A 
ATOM     16  C   UNL d   1      -6.608  -1.734  -2.071  0.00  0.00     0.068 A 
ATOM     17  C   UNL d   1      -5.445  -1.766  -2.839  0.00  0.00     0.037 A 
ATOM     18  C   UNL d   1      -4.425  -0.840  -2.597  0.00  0.00     0.014 A 
BRANCH  16  19
ATOM     19  O   UNL d   1      -7.634  -2.635  -2.143  0.00  0.00    -0.356 OA
ATOM     20  C   UNL d   1      -7.789  -3.325  -3.376  0.00  0.00     0.210 C 
ENDBRANCH  16  19
ENDBRANCH   5  13
TORSDOF 2
