REMARK  3 active torsions:
REMARK  status: ('A' for Active; 'I' for Inactive)
REMARK    1  A    between atoms: C_5  and  N_11 
REMARK    2  A    between atoms: N_12  and  C_6 
REMARK    3  A    between atoms: N_11  and  N_12 
ROOT
ATOM      1  N   UNL d   1       4.855  -0.864   0.210  0.00  0.00    -0.287 N 
ATOM      2  H   UNL d   1       4.816  -0.039   0.812  0.00  0.00     0.188 HD
ENDROOT
BRANCH   1   3
ATOM      3  C   UNL d   1       6.042  -1.549   0.003  0.00  0.00     0.106 C 
ATOM      4  N   UNL d   1       6.001  -2.683  -0.639  0.00  0.00    -0.343 N 
ATOM      5  C   UNL d   1       7.138  -3.451  -0.911  0.00  0.00     0.050 A 
ATOM      6  HN  UNL d   1       5.095  -3.026  -0.958  1.00  0.00     0.167 HD
ATOM      7  C   UNL d   1       6.914  -4.685  -1.540  0.00  0.00     0.031 A 
ATOM      8  C   UNL d   1       8.457  -3.055  -0.664  0.00  0.00     0.027 A 
ATOM      9  C   UNL d   1       7.970  -5.514  -1.923  0.00  0.00     0.002 A 
ATOM     10  C   UNL d   1       9.277  -5.119  -1.665  0.00  0.00     0.002 A 
ATOM     11  C   UNL d   1       9.518  -3.898  -1.038  0.00  0.00     0.021 A 
ATOM     12  S   UNL d   1       8.873  -1.476   0.031  0.00  0.00    -0.120 SA
ATOM     13  C   UNL d   1       7.273  -0.916   0.625  0.00  0.00     0.157 C 
ENDBRANCH   1   3
BRANCH   1  14
ATOM     14  N   UNL d   1       3.651  -1.470  -0.031  0.00  0.00    -0.287 N 
ATOM     15  H   UNL d   1       3.723  -2.388  -0.474  0.00  0.00     0.188 HD
BRANCH  14  16
ATOM     16  C   UNL d   1       2.483  -1.088   0.608  0.00  0.00     0.106 C 
ATOM     17  N   UNL d   1       2.458   0.035   1.272  0.00  0.00    -0.343 N 
ATOM     18  C   UNL d   1       1.294   0.506   1.903  0.00  0.00     0.050 A 
ATOM     19  HN  UNL d   1       3.312   0.590   1.334  1.00  0.00     0.167 HD
ATOM     20  C   UNL d   1       0.134  -0.247   2.116  0.00  0.00     0.027 A 
ATOM     21  C   UNL d   1       1.339   1.819   2.396  0.00  0.00     0.031 A 
ATOM     22  S   UNL d   1       0.005  -1.948   1.627  0.00  0.00    -0.120 SA
ATOM     23  C   UNL d   1      -0.954   0.318   2.802  0.00  0.00     0.021 A 
ATOM     24  C   UNL d   1       1.310  -2.026   0.396  0.00  0.00     0.157 C 
ATOM     25  C   UNL d   1      -0.891   1.624   3.288  0.00  0.00     0.002 A 
ATOM     26  C   UNL d   1       0.260   2.376   3.087  0.00  0.00     0.002 A 
ENDBRANCH  14  16
ENDBRANCH   1  14
TORSDOF 3
