REMARK  4 active torsions:
REMARK  status: ('A' for Active; 'I' for Inactive)
REMARK    1  A    between atoms: C_14  and  N_3 
REMARK       I    between atoms: C_12  and  N_10 
REMARK    2  A    between atoms: O_21  and  C_12 
REMARK    3  A    between atoms: C_15  and  C_14 
REMARK    4  A    between atoms: C_25  and  O_21 
ROOT
ATOM      1  C   UNL d   1       0.652   0.397   0.065  0.00  0.00     0.073 A 
ATOM      2  C   UNL d   1       1.188  -0.867   0.108  0.00  0.00     0.091 A 
ATOM      3  N   UNL d   1       2.908   1.171   0.095  0.00  0.00    -0.305 N 
ATOM      4  C   UNL d   1       1.562   1.529   0.043  0.00  0.00     0.262 A 
ATOM      5  C   UNL d   1      -0.781   0.381   0.053  0.00  0.00    -0.023 A 
ATOM      6  C   UNL d   1      -1.268  -0.916   0.059  0.00  0.00     0.010 A 
ATOM      7  N   UNL d   1       2.507  -1.181   0.161  0.00  0.00    -0.346 N 
ATOM      8  HN  UNL d   1       2.847  -2.142   0.201  1.00  0.00     0.167 HD
ATOM      9  S   UNL d   1      -0.017  -2.076   0.084  0.00  0.00    -0.074 SA
ATOM     10  N   UNL d   1      -3.527  -0.121   0.332  0.00  0.00    -0.323 N 
ATOM     11  C   UNL d   1       3.298  -0.155   0.156  0.00  0.00     0.187 A 
ATOM     12  C   UNL d   1      -4.411  -0.070   1.391  0.00  0.00     0.363 C 
ATOM     13  C   UNL d   1      -2.717  -1.310   0.033  0.00  0.00     0.174 C 
ATOM     14  C   UNL d   1      -1.716   1.555   0.070  0.00  0.00     0.061 C 
ATOM     15  C   UNL d   1      -3.137   1.125  -0.335  0.00  0.00     0.133 C 
ATOM     16  O   UNL d   1       1.164   2.687  -0.034  0.00  0.00    -0.267 OA
ATOM     17  O   UNL d   1      -4.937   0.962   1.793  0.00  0.00    -0.238 OA
ENDROOT
BRANCH   3  18
ATOM     18  C   UNL d   1       3.917   2.227   0.047  0.00  0.00     0.173 C 
BRANCH  18  19
ATOM     19  C   UNL d   1       4.284   2.733   1.426  0.00  0.00    -0.018 A 
ATOM     20  C   UNL d   1       5.376   2.244   2.160  0.00  0.00     0.042 A 
ATOM     21 CL   UNL d   1       6.505   1.117   1.497  0.00  0.00    -0.084 Cl
ATOM     22  C   UNL d   1       5.600   2.670   3.474  0.00  0.00     0.024 A 
ATOM     23  C   UNL d   1       4.750   3.601   4.068  0.00  0.00     0.002 A 
ATOM     24  C   UNL d   1       3.691   4.130   3.340  0.00  0.00     0.001 A 
ATOM     25  C   UNL d   1       3.461   3.704   2.031  0.00  0.00     0.010 A 
ENDBRANCH  18  19
ENDBRANCH   3  18
BRANCH  12  26
ATOM     26  O   UNL d   1      -4.592  -1.285   1.971  0.00  0.00    -0.304 OA
BRANCH  26  27
ATOM     27  C   UNL d   1      -5.090  -1.259   3.314  0.00  0.00     0.176 C 
ATOM     28  C   UNL d   1      -3.898  -1.110   4.244  0.00  0.00     0.034 C 
ENDBRANCH  26  27
ENDBRANCH  12  26
TORSDOF 4
