REMARK  3 active torsions:
REMARK  status: ('A' for Active; 'I' for Inactive)
REMARK    1  A    between atoms: C_6  and  C_2 
REMARK    2  A    between atoms: O_15  and  C_3 
REMARK    3  A    between atoms: C_11  and  C_7 
ROOT
ATOM      1  C   UNL d   1      -0.676   1.301   0.014  0.00  0.00     0.110 A 
ATOM      2  C   UNL d   1      -1.414   0.111  -0.004  0.00  0.00     0.075 A 
ATOM      3  C   UNL d   1       0.712   1.201   0.044  0.00  0.00     0.162 A 
ATOM      4  N   UNL d   1       1.379   0.030   0.054  0.00  0.00    -0.335 N 
ATOM      5  HN  UNL d   1       2.399   0.015   0.089  1.00  0.00     0.168 HD
ATOM      6  C   UNL d   1       0.674  -1.123   0.019  0.00  0.00     0.045 A 
ATOM      7  C   UNL d   1      -0.716  -1.111  -0.003  0.00  0.00     0.048 A 
ATOM      8  C   UNL d   1      -1.289   2.589   0.004  0.00  0.00     0.104 C 
ATOM      9  N   UNL d   1      -1.711   3.670  -0.004  0.00  0.00    -0.191 NA
ENDROOT
BRANCH   2  10
ATOM     10  C   UNL d   1      -2.918   0.049  -0.029  0.00  0.00     0.419 C 
ATOM     11  F   UNL d   1      -3.545   1.250   0.013  0.00  0.00    -0.166 F 
ATOM     12  F   UNL d   1      -3.377  -0.573  -1.150  0.00  0.00    -0.166 F 
ATOM     13  F   UNL d   1      -3.411  -0.665   1.020  0.00  0.00    -0.166 F 
ENDBRANCH   2  10
BRANCH   3  14
ATOM     14  O   UNL d   1       1.548   2.281   0.061  0.00  0.00    -0.345 OA
ATOM     15  H   UNL d   1       1.057   3.117   0.021  0.00  0.00     0.219 HD
ENDBRANCH   3  14
BRANCH   6  16
ATOM     16  C   UNL d   1       1.463  -2.369  -0.013  0.00  0.00    -0.009 A 
ATOM     17  C   UNL d   1       2.701  -2.458   0.651  0.00  0.00     0.013 A 
ATOM     18  C   UNL d   1       3.470  -3.624   0.602  0.00  0.00     0.001 A 
ATOM     19  C   UNL d   1       3.020  -4.726  -0.119  0.00  0.00     0.000 A 
ATOM     20  C   UNL d   1       1.797  -4.669  -0.778  0.00  0.00     0.001 A 
ATOM     21  C   UNL d   1       1.026  -3.504  -0.722  0.00  0.00     0.013 A 
ENDBRANCH   6  16
TORSDOF 3
