REMARK  4 active torsions:
REMARK  status: ('A' for Active; 'I' for Inactive)
REMARK    1  A    between atoms: C_2  and  C_1 
REMARK       I    between atoms: N_3  and  C_1 
REMARK       I    between atoms: C_6  and  N_3 
REMARK    2  A    between atoms: C_4  and  C_5 
REMARK       I    between atoms: N_14  and  C_6 
REMARK    3  A    between atoms: C_18  and  N_14 
REMARK    4  A    between atoms: C_19  and  C_18 
ROOT
ATOM      1  C   UNL d   1       2.289  -0.384   0.341  0.00  0.00     0.062 A 
ATOM      2  C   UNL d   1       3.270   0.576   0.043  0.00  0.00     0.066 A 
ATOM      3  N   UNL d   1       3.988  -1.861   1.264  0.00  0.00    -0.374 N 
ATOM      4  HN  UNL d   1       4.244  -2.756   1.681  1.00  0.00     0.164 HD
ATOM      5  C   UNL d   1       2.705  -1.568   0.947  0.00  0.00     0.105 A 
ATOM      6  C   UNL d   1       4.603   0.290   0.405  0.00  0.00     0.034 A 
ATOM      7  C   UNL d   1       4.910  -0.916   1.002  0.00  0.00     0.088 A 
ENDROOT
BRANCH   1   8
ATOM      8  C   UNL d   1       0.839  -0.161   0.142  0.00  0.00     0.261 C 
ATOM      9  N   UNL d   1       0.083  -1.248  -0.259  0.00  0.00    -0.275 N 
ATOM     10  C   UNL d   1      -1.252  -1.283  -0.589  0.00  0.00     0.323 C 
ATOM     11  H   UNL d   1       0.496  -2.164  -0.342  0.00  0.00     0.173 HD
ATOM     12  O   UNL d   1      -1.791  -2.362  -0.804  0.00  0.00    -0.247 OA
ATOM     13  N   UNL d   1      -1.869  -0.074  -0.698  0.00  0.00    -0.343 N 
ATOM     14  H   UNL d   1      -1.357   0.736  -0.356  0.00  0.00     0.164 HD
ATOM     15  O   UNL d   1       0.375   0.948   0.396  0.00  0.00    -0.267 OA
BRANCH  13  16
ATOM     16  C   UNL d   1      -3.254   0.080  -1.080  0.00  0.00     0.124 C 
BRANCH  16  17
ATOM     17  C   UNL d   1      -4.203   0.063   0.115  0.00  0.00     0.015 C 
ATOM     18  C   UNL d   1      -3.975   1.233   1.061  0.00  0.00     0.006 C 
ENDBRANCH  16  17
ENDBRANCH  13  16
ENDBRANCH   1   8
BRANCH   2  19
ATOM     19  C   UNL d   1       3.027   1.892  -0.652  0.00  0.00     0.418 C 
ATOM     20  F   UNL d   1       1.807   2.079  -1.210  0.00  0.00    -0.166 F 
ATOM     21  F   UNL d   1       3.255   2.954   0.170  0.00  0.00    -0.166 F 
ATOM     22  F   UNL d   1       3.903   2.053  -1.692  0.00  0.00    -0.166 F 
ENDBRANCH   2  19
TORSDOF 4
