REMARK  6 active torsions:
REMARK  status: ('A' for Active; 'I' for Inactive)
REMARK    1  A    between atoms: O_7  and  S_1 
REMARK    2  A    between atoms: C_19  and  S_1 
REMARK    3  A    between atoms: S_2  and  O_9 
REMARK    4  A    between atoms: C_20  and  S_2 
REMARK    5  A    between atoms: C_6  and  O_7 
REMARK    6  A    between atoms: O_9  and  C_10 
ROOT
ATOM      1  C   UNL d   1       2.065  -0.036  -2.979  0.00  0.00     0.078 C 
ATOM      2  C   UNL d   1       3.243  -0.597  -2.284  0.00  0.00     0.168 C 
ATOM      3  C   UNL d   1       2.285   0.683  -4.157  0.00  0.00     0.089 C 
ATOM      4  C   UNL d   1       0.757  -0.260  -2.528  0.00  0.00     0.109 C 
ATOM      5  O   UNL d   1       3.528   1.077  -4.583  0.00  0.00    -0.339 OA
ATOM      6  C   UNL d   1      -0.093   0.673  -4.606  0.00  0.00     0.095 C 
ATOM      7  C   UNL d   1       4.599  -0.152  -2.754  0.00  0.00     0.122 C 
ATOM      8  C   UNL d   1       4.531   1.151  -3.549  0.00  0.00     0.067 C 
ATOM      9  C   UNL d   1       1.205   1.027  -4.978  0.00  0.00     0.076 C 
ATOM     10  C   UNL d   1      -0.316   0.080  -3.359  0.00  0.00     0.077 C 
ATOM     11  O   UNL d   1       3.128  -1.468  -1.427  0.00  0.00    -0.292 OA
ATOM     12  C   UNL d   1       4.299   2.381  -2.653  0.00  0.00     0.046 C 
ATOM     13  C   UNL d   1       5.879   1.345  -4.265  0.00  0.00     0.046 C 
ENDROOT
BRANCH   4  14
ATOM     14  O   UNL d   1       0.575  -0.816  -1.282  0.00  0.00    -0.228 OA
BRANCH  14  15
ATOM     15  S   UNL d   1      -0.723  -0.444  -0.365  0.00  0.00     0.303 S 
ATOM     16  O   UNL d   1      -1.799  -1.356  -0.698  0.00  0.00    -0.193 OA
ATOM     17  O   UNL d   1      -0.920   0.996  -0.416  0.00  0.00    -0.193 OA
BRANCH  15  18
ATOM     18  C   UNL d   1      -0.255  -0.821   1.309  0.00  0.00     0.086 A 
ATOM     19  C   UNL d   1      -0.854  -0.096   2.347  0.00  0.00     0.026 A 
ATOM     20  C   UNL d   1      -0.492  -0.357   3.668  0.00  0.00     0.002 A 
ATOM     21  C   UNL d   1       0.463  -1.336   3.943  0.00  0.00     0.000 A 
ATOM     22  C   UNL d   1       1.057  -2.057   2.906  0.00  0.00     0.002 A 
ATOM     23  C   UNL d   1       0.706  -1.797   1.577  0.00  0.00     0.026 A 
ENDBRANCH  15  18
ENDBRANCH  14  15
ENDBRANCH   4  14
BRANCH   6  24
ATOM     24  O   UNL d   1      -1.108   0.959  -5.495  0.00  0.00    -0.229 OA
BRANCH  24  25
ATOM     25  S   UNL d   1      -2.381  -0.066  -5.627  0.00  0.00     0.303 S 
ATOM     26  O   UNL d   1      -1.878  -1.399  -5.916  0.00  0.00    -0.193 OA
ATOM     27  O   UNL d   1      -3.276   0.157  -4.505  0.00  0.00    -0.193 OA
BRANCH  25  28
ATOM     28  C   UNL d   1      -3.255   0.478  -7.081  0.00  0.00     0.086 A 
ATOM     29  C   UNL d   1      -2.955  -0.093  -8.322  0.00  0.00     0.026 A 
ATOM     30  C   UNL d   1      -3.735   0.231  -9.432  0.00  0.00     0.002 A 
ATOM     31  C   UNL d   1      -4.811   1.112  -9.300  0.00  0.00     0.000 A 
ATOM     32  C   UNL d   1      -5.109   1.677  -8.059  0.00  0.00     0.002 A 
ATOM     33  C   UNL d   1      -4.333   1.360  -6.944  0.00  0.00     0.026 A 
ENDBRANCH  25  28
ENDBRANCH  24  25
ENDBRANCH   6  24
TORSDOF 6
