REMARK  5 active torsions:
REMARK  status: ('A' for Active; 'I' for Inactive)
REMARK    1  A    between atoms: C_13  and  C_4 
REMARK    2  A    between atoms: N_5  and  C_9 
REMARK    3  A    between atoms: S_12  and  C_6 
REMARK    4  A    between atoms: C_18  and  S_12 
REMARK    5  A    between atoms: C_19  and  C_18 
ROOT
ATOM      1  O   UNL d   1       0.751   0.486   0.246  0.00  0.00    -0.267 OA
ATOM      2  N   UNL d   1      -0.736  -1.113  -0.230  0.00  0.00    -0.277 N 
ATOM      3  HN  UNL d   1      -1.154  -2.032  -0.373  1.00  0.00     0.189 HD
ATOM      4  C   UNL d   1       0.500  -0.859   0.150  0.00  0.00     0.175 A 
ATOM      5  C   UNL d   1      -0.458   1.032  -0.108  0.00  0.00     0.204 A 
ATOM      6  N   UNL d   1      -1.355   0.111  -0.397  0.00  0.00    -0.272 N 
ATOM      7  HN  UNL d   1      -2.319   0.270  -0.687  1.00  0.00     0.189 HD
ENDROOT
BRANCH   5   8
ATOM      8  S   UNL d   1      -0.734   2.747  -0.169  0.00  0.00    -0.080 SA
BRANCH   8   9
ATOM      9  C   UNL d   1      -2.543   2.806  -0.003  0.00  0.00     0.121 C 
BRANCH   9  10
ATOM     10  C   UNL d   1      -3.060   4.230  -0.062  0.00  0.00    -0.048 A 
ATOM     11  C   UNL d   1      -3.452   4.794  -1.287  0.00  0.00     0.010 A 
ATOM     12  C   UNL d   1      -3.898   6.118  -1.357  0.00  0.00     0.036 A 
ATOM     13  C   UNL d   1      -3.950   6.892  -0.191  0.00  0.00     0.102 A 
ATOM     14  C   UNL d   1      -3.573   6.343   1.041  0.00  0.00     0.036 A 
ATOM     15  C   UNL d   1      -3.130   5.017   1.101  0.00  0.00     0.010 A 
BRANCH  13  16
ATOM     16  N   UNL d   1      -4.391   8.292  -0.263  0.00  0.00    -0.116 N 
ATOM     17  O   UNL d   1      -4.706   8.741  -1.374  0.00  0.00    -0.532 OA
ATOM     18  O   UNL d   1      -4.419   8.943   0.791  0.00  0.00    -0.532 OA
ENDBRANCH  13  16
ENDBRANCH   9  10
ENDBRANCH   8   9
ENDBRANCH   5   8
BRANCH   4  19
ATOM     19  C   UNL d   1       1.587  -1.777   0.471  0.00  0.00     0.019 A 
ATOM     20  C   UNL d   1       1.373  -3.160   0.395  0.00  0.00     0.033 A 
ATOM     21  C   UNL d   1       2.420  -4.016   0.691  0.00  0.00     0.088 A 
ATOM     22  N   UNL d   1       3.648  -3.597   1.058  0.00  0.00    -0.375 N 
ATOM     23  C   UNL d   1       3.838  -2.264   1.130  0.00  0.00     0.088 A 
ATOM     24  HN  UNL d   1       4.397  -4.256   1.270  1.00  0.00     0.164 HD
ATOM     25  C   UNL d   1       2.855  -1.327   0.854  0.00  0.00     0.033 A 
ENDBRANCH   4  19
TORSDOF 5
