REMARK  4 active torsions:
REMARK  status: ('A' for Active; 'I' for Inactive)
REMARK    1  A    between atoms: C_2  and  C_1 
REMARK    2  A    between atoms: N_3  and  C_1 
REMARK    3  A    between atoms: C_6  and  N_3 
REMARK    4  A    between atoms: O_9  and  N_4 
ROOT
ATOM      1  C   UNL d   1       0.774   2.519  -0.830  0.00  0.00     0.063 C 
ATOM      2  C   UNL d   1       2.292   2.729  -1.027  0.00  0.00     0.044 C 
ATOM      3  C   UNL d   1       0.456   2.974   0.609  0.00  0.00     0.044 C 
ENDROOT
BRANCH   1   4
ATOM      4  C   UNL d   1       0.459   1.025  -1.095  0.00  0.00     0.033 C 
ATOM      5  N   UNL d   1      -0.044   0.296  -0.134  0.00  0.00    -0.275 N 
ATOM      6  HN  UNL d   1      -0.234   0.640   0.808  1.00  0.00     0.193 HD
ATOM      7  C   UNL d   1       0.759   0.455  -2.467  0.00  0.00     0.068 C 
BRANCH   5   8
ATOM      8  O   UNL d   1      -0.292  -1.015  -0.556  0.00  0.00    -0.290 OA
ATOM      9  H   UNL d   1      -0.736  -1.407   0.220  0.00  0.00     0.244 HD
ENDBRANCH   5   8
ENDBRANCH   1   4
BRANCH   1  10
ATOM     10  N   UNL d   1       0.068   3.390  -1.802  0.00  0.00    -0.376 N 
ATOM     11  H   UNL d   1       0.577   3.525  -2.672  0.00  0.00     0.161 HD
BRANCH  10  12
ATOM     12  C   UNL d   1      -1.305   3.468  -1.987  0.00  0.00     0.031 A 
ATOM     13  C   UNL d   1      -2.258   2.753  -1.260  0.00  0.00     0.071 A 
ATOM     14  C   UNL d   1      -3.622   2.935  -1.485  0.00  0.00     0.118 A 
ATOM     15  F   UNL d   1      -4.503   2.209  -0.784  0.00  0.00    -0.206 F 
ATOM     16  C   UNL d   1      -4.083   3.850  -2.418  0.00  0.00     0.042 A 
ATOM     17  C   UNL d   1      -3.159   4.607  -3.127  0.00  0.00     0.005 A 
ATOM     18  C   UNL d   1      -1.789   4.418  -2.906  0.00  0.00     0.029 A 
ENDBRANCH  10  12
ENDBRANCH   1  10
TORSDOF 4
