REMARK  7 active torsions:
REMARK  status: ('A' for Active; 'I' for Inactive)
REMARK    1  A    between atoms: C_16  and  N_1 
REMARK    2  A    between atoms: C_2  and  C_14 
REMARK    3  A    between atoms: S_15  and  C_3 
REMARK    4  A    between atoms: O_23  and  C_6 
REMARK    5  A    between atoms: C_19  and  C_7 
REMARK    6  A    between atoms: C_14  and  S_15 
REMARK    7  A    between atoms: C_17  and  C_16 
ROOT
ATOM      1  N   UNL d   1       1.199   0.591   0.162  0.00  0.00    -0.285 N 
ATOM      2  C   UNL d   1       1.648  -0.590  -0.357  0.00  0.00     0.165 A 
ATOM      3  C   UNL d   1       0.527   1.200  -0.867  0.00  0.00     0.240 A 
ATOM      4  N   UNL d   1       1.265  -0.701  -1.609  0.00  0.00    -0.277 N 
ATOM      5  HN  UNL d   1       1.469  -1.480  -2.234  1.00  0.00     0.189 HD
ATOM      6  N   UNL d   1       0.536   0.424  -1.924  0.00  0.00    -0.263 N 
ATOM      7  HN  UNL d   1       0.086   0.618  -2.818  1.00  0.00     0.190 HD
ENDROOT
BRANCH   2   8
ATOM      8  S   UNL d   1       2.577  -1.767   0.509  0.00  0.00    -0.087 SA
BRANCH   8   9
ATOM      9  C   UNL d   1       3.363  -2.632  -0.892  0.00  0.00     0.126 C 
BRANCH   9  10
ATOM     10  C   UNL d   1       4.158  -3.813  -0.454  0.00  0.00     0.012 A 
ATOM     11  C   UNL d   1       5.482  -3.926   0.112  0.00  0.00     0.074 A 
ATOM     12  N   UNL d   1       5.773  -5.229   0.296  0.00  0.00    -0.260 N 
ATOM     13  O   UNL d   1       4.705  -5.959  -0.136  0.00  0.00    -0.242 OA
ATOM     14  HN  UNL d   1       6.638  -5.603   0.688  1.00  0.00     0.195 HD
ATOM     15  C   UNL d   1       3.742  -5.128  -0.585  0.00  0.00     0.082 A 
ATOM     16  C   UNL d   1       2.532  -5.784  -1.117  0.00  0.00     0.079 C 
BRANCH  11  17
ATOM     17  C   UNL d   1       6.498  -2.922   0.497  0.00  0.00    -0.007 A 
ATOM     18  C   UNL d   1       7.754  -3.359   0.969  0.00  0.00     0.014 A 
ATOM     19  C   UNL d   1       8.739  -2.459   1.387  0.00  0.00     0.001 A 
ATOM     20  C   UNL d   1       8.491  -1.093   1.342  0.00  0.00     0.000 A 
ATOM     21  C   UNL d   1       7.267  -0.634   0.865  0.00  0.00     0.001 A 
ATOM     22  C   UNL d   1       6.284  -1.540   0.441  0.00  0.00     0.014 A 
ENDBRANCH  11  17
ENDBRANCH   9  10
ENDBRANCH   8   9
ENDBRANCH   2   8
BRANCH   1  23
ATOM     23  C   UNL d   1       1.299   1.073   1.522  0.00  0.00     0.200 C 
BRANCH  23  24
ATOM     24  C   UNL d   1       2.460   1.983   1.679  0.00  0.00     0.070 A 
ATOM     25  O   UNL d   1       2.180   3.317   1.762  0.00  0.00    -0.325 OA
ATOM     26  C   UNL d   1       3.361   3.960   1.958  0.00  0.00     0.142 A 
ATOM     27  C   UNL d   1       4.401   3.061   1.978  0.00  0.00     0.027 A 
ATOM     28  C   UNL d   1       3.821   1.782   1.796  0.00  0.00     0.036 A 
ENDBRANCH  23  24
ENDBRANCH   1  23
BRANCH   3  29
ATOM     29  O   UNL d   1      -0.073   2.380  -0.829  0.00  0.00    -0.331 OA
ATOM     30  H   UNL d   1       0.308   2.912  -0.112  0.00  0.00     0.221 HD
ENDBRANCH   3  29
TORSDOF 7
