REMARK  4 active torsions:
REMARK  status: ('A' for Active; 'I' for Inactive)
REMARK    1  A    between atoms: C_2  and  C_1 
REMARK    2  A    between atoms: N_4  and  C_1 
REMARK    3  A    between atoms: C_3  and  C_2 
REMARK       I    between atoms: N_9  and  C_3 
REMARK    4  A    between atoms: C_10  and  N_4 
ROOT
ATOM      1  C   UNL d   1       2.256   0.591   0.242  0.00  0.00     0.245 C 
ATOM      2  C   UNL d   1       3.374  -0.131  -0.381  0.00  0.00     0.080 C 
ATOM      3  N   UNL d   1       4.293  -0.653  -0.865  0.00  0.00    -0.196 NA
ENDROOT
BRANCH   1   4
ATOM      4  C   UNL d   1       0.900   0.030  -0.218  0.00  0.00     0.105 C 
ATOM      5  S   UNL d   1       0.458   0.268  -1.836  0.00  0.00    -0.063 SA
BRANCH   4   6
ATOM      6  N   UNL d   1       0.157  -0.655   0.735  0.00  0.00    -0.349 N 
ATOM      7  H   UNL d   1       0.676  -1.034   1.533  0.00  0.00     0.166 HD
BRANCH   6   8
ATOM      8  C   UNL d   1      -1.228  -0.947   0.764  0.00  0.00     0.032 A 
ATOM      9  C   UNL d   1      -1.653  -2.018   1.557  0.00  0.00     0.029 A 
ATOM     10  C   UNL d   1      -3.009  -2.355   1.630  0.00  0.00     0.002 A 
ATOM     11  C   UNL d   1      -3.955  -1.601   0.940  0.00  0.00     0.000 A 
ATOM     12  C   UNL d   1      -3.546  -0.503   0.190  0.00  0.00     0.002 A 
ATOM     13  C   UNL d   1      -2.191  -0.175   0.108  0.00  0.00     0.029 A 
ENDBRANCH   6   8
ENDBRANCH   4   6
ENDBRANCH   1   4
BRANCH   1  14
ATOM     14  C   UNL d   1       2.506   0.597   1.739  0.00  0.00     0.239 C 
ATOM     15  O   UNL d   1       2.142  -0.302   2.494  0.00  0.00    -0.272 OA
ATOM     16  N   UNL d   1       3.188   1.674   2.238  0.00  0.00    -0.369 N 
ATOM     17  H   UNL d   1       3.697   2.331   1.657  0.00  0.00     0.159 HD
ATOM     18  H   UNL d   1       3.432   1.649   3.222  0.00  0.00     0.159 HD
ENDBRANCH   1  14
TORSDOF 4
