REMARK  3 active torsions:
REMARK  status: ('A' for Active; 'I' for Inactive)
REMARK    1  A    between atoms: N_14  and  C_2 
REMARK       I    between atoms: C_7  and  N_6 
REMARK    2  A    between atoms: O_15  and  C_7 
REMARK    3  A    between atoms: C_16  and  O_15 
ROOT
ATOM      1  C   UNL d   1       1.276  -1.559   0.072  0.00  0.00     0.085 A 
ATOM      2  C   UNL d   1       2.386  -0.736   0.037  0.00  0.00     0.089 A 
ATOM      3  C   UNL d   1       0.276   0.545   0.072  0.00  0.00     0.011 A 
ATOM      4  C   UNL d   1       0.049  -0.821   0.076  0.00  0.00    -0.018 A 
ATOM      5  S   UNL d   1       1.934   0.920   0.038  0.00  0.00    -0.074 SA
ATOM      6  N   UNL d   1      -2.090   0.992   0.280  0.00  0.00    -0.323 N 
ATOM      7  C   UNL d   1      -2.927   1.512   1.246  0.00  0.00     0.363 C 
ATOM      8  C   UNL d   1      -0.782   1.615   0.062  0.00  0.00     0.174 C 
ATOM      9  C   UNL d   1       1.361  -2.991   0.093  0.00  0.00     0.103 C 
ATOM     10  N   UNL d   1       1.418  -4.148   0.112  0.00  0.00    -0.191 NA
ATOM     11  C   UNL d   1      -1.352  -1.363   0.095  0.00  0.00     0.061 C 
ATOM     12  C   UNL d   1      -2.339  -0.290  -0.397  0.00  0.00     0.133 C 
ATOM     13  O   UNL d   1      -2.687   2.526   1.889  0.00  0.00    -0.238 OA
ENDROOT
BRANCH   2  14
ATOM     14  N   UNL d   1       3.692  -1.078   0.001  0.00  0.00    -0.392 N 
ATOM     15  H   UNL d   1       4.021  -2.035   0.099  0.00  0.00     0.156 HD
ATOM     16  H   UNL d   1       4.415  -0.367   0.063  0.00  0.00     0.156 HD
ENDBRANCH   2  14
BRANCH   7  17
ATOM     17  O   UNL d   1      -4.021   0.731   1.443  0.00  0.00    -0.304 OA
BRANCH  17  18
ATOM     18  C   UNL d   1      -4.724   0.934   2.675  0.00  0.00     0.176 C 
ATOM     19  C   UNL d   1      -4.077   0.052   3.728  0.00  0.00     0.034 C 
ENDBRANCH  17  18
ENDBRANCH   7  17
TORSDOF 3
