REMARK  3 active torsions:
REMARK  status: ('A' for Active; 'I' for Inactive)
REMARK    1  A    between atoms: C_7  and  C_1 
REMARK       I    between atoms: N_11  and  C_7 
REMARK    2  A    between atoms: C_15  and  N_11 
REMARK    3  A    between atoms: C_17  and  C_15 
ROOT
ATOM      1  C   UNL d   1      -1.335  -2.727   0.049  0.00  0.00     0.254 C 
ATOM      2  N   UNL d   1      -0.391  -3.723  -0.018  0.00  0.00    -0.353 N 
ATOM      3  O   UNL d   1      -1.036  -1.542   0.191  0.00  0.00    -0.268 OA
ATOM      4  H   UNL d   1      -0.689  -4.687  -0.132  0.00  0.00     0.163 HD
ENDROOT
BRANCH   1   5
ATOM      5  C   UNL d   1      -2.763  -3.083  -0.059  0.00  0.00     0.061 A 
ATOM      6  C   UNL d   1      -3.281  -4.402  -0.030  0.00  0.00     0.082 A 
ATOM      7  N   UNL d   1      -2.597  -5.558   0.065  0.00  0.00    -0.310 N 
ATOM      8  C   UNL d   1      -4.781  -4.625  -0.106  0.00  0.00     0.068 A 
ATOM      9  S   UNL d   1      -3.722  -6.784   0.070  0.00  0.00     0.068 SA
ATOM     10  HN  UNL d   1      -1.584  -5.663   0.123  1.00  0.00     0.176 HD
ATOM     11  N   UNL d   1      -5.130  -5.919  -0.058  0.00  0.00    -0.310 N 
ATOM     12  HN  UNL d   1      -6.076  -6.298  -0.093  1.00  0.00     0.176 HD
ATOM     13  C   UNL d   1      -5.685  -3.540  -0.213  0.00  0.00     0.032 A 
ATOM     14  C   UNL d   1      -5.116  -2.259  -0.243  0.00  0.00     0.003 A 
ATOM     15  C   UNL d   1      -3.722  -2.043  -0.168  0.00  0.00     0.019 A 
ENDBRANCH   1   5
BRANCH   2  16
ATOM     16  C   UNL d   1       1.020  -3.441   0.143  0.00  0.00     0.161 C 
BRANCH  16  17
ATOM     17  C   UNL d   1       1.758  -3.289  -1.169  0.00  0.00    -0.040 A 
ATOM     18  C   UNL d   1       1.369  -2.320  -2.110  0.00  0.00     0.012 A 
ATOM     19  C   UNL d   1       2.089  -2.142  -3.293  0.00  0.00     0.043 A 
ATOM     20  C   UNL d   1       3.209  -2.925  -3.536  0.00  0.00     0.116 A 
ATOM     21  C   UNL d   1       3.624  -3.880  -2.616  0.00  0.00     0.043 A 
ATOM     22  F   UNL d   1       3.907  -2.749  -4.666  0.00  0.00    -0.206 F 
ATOM     23  C   UNL d   1       2.901  -4.062  -1.434  0.00  0.00     0.012 A 
ENDBRANCH  16  17
ENDBRANCH   2  16
TORSDOF 3
