REMARK  2 active torsions:
REMARK  status: ('A' for Active; 'I' for Inactive)
REMARK    1  A    between atoms: C_13  and  C_6 
REMARK    2  A    between atoms: S_14  and  C_10 
ROOT
ATOM      1  C   UNL d   1      -0.047  -0.841  -0.034  0.00  0.00     0.105 A 
ATOM      2  N   UNL d   1       1.093  -1.552  -0.051  0.00  0.00    -0.328 N 
ATOM      3  HN  UNL d   1       1.133  -2.571  -0.084  1.00  0.00     0.168 HD
ATOM      4  C   UNL d   1      -0.130   0.537   0.012  0.00  0.00     0.083 A 
ATOM      5  S   UNL d   1      -1.575  -1.574  -0.069  0.00  0.00    -0.069 SA
ATOM      6  C   UNL d   1      -2.391  -0.056   0.002  0.00  0.00     0.019 A 
ATOM      7  C   UNL d   1      -1.478   0.989   0.029  0.00  0.00     0.053 A 
ATOM      8  N   UNL d   1       1.009   1.275   0.036  0.00  0.00    -0.296 N 
ATOM      9  HN  UNL d   1       0.986   2.294   0.065  1.00  0.00     0.187 HD
ATOM     10  C   UNL d   1       2.174  -0.755  -0.021  0.00  0.00     0.159 A 
ATOM     11  N   UNL d   1       2.157   0.604   0.019  0.00  0.00    -0.279 N 
ATOM     12  HN  UNL d   1       3.039   1.116   0.037  1.00  0.00     0.189 HD
ENDROOT
BRANCH   6  13
ATOM     13  C   UNL d   1      -3.865   0.001  -0.006  0.00  0.00    -0.019 A 
ATOM     14  C   UNL d   1      -4.647  -0.977   0.630  0.00  0.00     0.013 A 
ATOM     15  C   UNL d   1      -6.043  -0.914   0.602  0.00  0.00     0.001 A 
ATOM     16  C   UNL d   1      -6.681   0.134  -0.056  0.00  0.00     0.000 A 
ATOM     17  C   UNL d   1      -5.923   1.120  -0.682  0.00  0.00     0.001 A 
ATOM     18  C   UNL d   1      -4.527   1.054  -0.656  0.00  0.00     0.013 A 
ENDBRANCH   6  13
BRANCH  10  19
ATOM     19  S   UNL d   1       3.744  -1.600  -0.027  0.00  0.00    -0.097 SA
ATOM     20  C   UNL d   1       4.882  -0.194  -0.043  0.00  0.00     0.099 C 
ENDBRANCH  10  19
TORSDOF 2
