REMARK  8 active torsions:
REMARK  status: ('A' for Active; 'I' for Inactive)
REMARK    1  A    between atoms: C_2  and  C_1 
REMARK    2  A    between atoms: C_11  and  C_1 
REMARK    3  A    between atoms: N_3  and  C_10 
REMARK    4  A    between atoms: C_12  and  C_4 
REMARK    5  A    between atoms: C_7  and  C_5 
REMARK    6  A    between atoms: C_16  and  C_5 
REMARK    7  A    between atoms: C_8  and  C_7 
REMARK    8  A    between atoms: C_15  and  C_8 
ROOT
ATOM      1  C   UNL d   1       0.639  -0.073  -1.175  0.00  0.00    -0.004 C 
ATOM      2  C   UNL d   1       1.586  -0.235  -2.153  0.00  0.00     0.066 C 
ATOM      3  C   UNL d   1       2.365   0.839  -2.694  0.00  0.00     0.101 C 
ATOM      4  N   UNL d   1       2.987   1.696  -3.162  0.00  0.00    -0.191 NA
ENDROOT
BRANCH   2   5
ATOM      5  C   UNL d   1       1.901  -1.606  -2.666  0.00  0.00    -0.014 C 
ATOM      6  C   UNL d   1       0.933  -2.373  -3.344  0.00  0.00     0.015 C 
ATOM      7  C   UNL d   1       1.086  -3.758  -3.467  0.00  0.00     0.037 C 
ATOM      8  C   UNL d   1       2.239  -4.369  -2.960  0.00  0.00     0.102 C 
ATOM      9  C   UNL d   1       3.278  -3.594  -2.428  0.00  0.00     0.037 C 
ATOM     10  C   UNL d   1       3.107  -2.215  -2.284  0.00  0.00     0.015 C 
BRANCH   8  11
ATOM     11  N   UNL d   1       2.325  -5.834  -2.907  0.00  0.00    -0.116 N 
ATOM     12  O   UNL d   1       1.383  -6.486  -3.380  0.00  0.00    -0.532 OA
ATOM     13  O   UNL d   1       3.326  -6.332  -2.373  0.00  0.00    -0.532 OA
ENDBRANCH   8  11
ENDBRANCH   2   5
BRANCH   1  14
ATOM     14  C   UNL d   1      -0.097  -1.280  -0.723  0.00  0.00     0.022 C 
ATOM     15  C   UNL d   1       0.318  -2.228   0.156  0.00  0.00    -0.040 C 
BRANCH  15  16
ATOM     16  C   UNL d   1       1.453  -1.975   1.131  0.00  0.00     0.123 C 
BRANCH  16  17
ATOM     17  C   UNL d   1       1.177  -2.059   2.645  0.00  0.00     0.163 C 
ATOM     18  O   UNL d   1       2.103  -1.880   3.441  0.00  0.00    -0.292 OA
BRANCH  17  19
ATOM     19  C   UNL d   1      -0.153  -2.414   3.223  0.00  0.00     0.010 A 
ATOM     20  C   UNL d   1      -0.167  -3.297   4.314  0.00  0.00     0.017 A 
ATOM     21  C   UNL d   1      -1.377  -3.682   4.902  0.00  0.00     0.025 A 
ATOM     22  C   UNL d   1      -2.575  -3.176   4.407  0.00  0.00     0.034 A 
ATOM     23  C   UNL d   1      -2.572  -2.277   3.342  0.00  0.00     0.025 A 
ATOM     24 CL   UNL d   1      -4.066  -3.654   5.119  0.00  0.00    -0.084 Cl
ATOM     25  C   UNL d   1      -1.361  -1.885   2.758  0.00  0.00     0.017 A 
ENDBRANCH  17  19
ENDBRANCH  16  17
ENDBRANCH  15  16
BRANCH  15  26
ATOM     26  C   UNL d   1      -0.253  -3.623   0.091  0.00  0.00    -0.029 A 
ATOM     27  C   UNL d   1      -1.385  -3.945  -0.681  0.00  0.00     0.012 A 
ATOM     28  C   UNL d   1      -1.835  -5.263  -0.821  0.00  0.00     0.001 A 
ATOM     29  C   UNL d   1      -1.183  -6.298  -0.166  0.00  0.00     0.000 A 
ATOM     30  C   UNL d   1      -0.081  -6.014   0.628  0.00  0.00     0.001 A 
ATOM     31  C   UNL d   1       0.381  -4.698   0.746  0.00  0.00     0.012 A 
ENDBRANCH  15  26
ENDBRANCH   1  14
BRANCH   1  32
ATOM     32  C   UNL d   1       0.255   1.258  -0.599  0.00  0.00    -0.024 A 
ATOM     33  C   UNL d   1       0.030   2.399  -1.384  0.00  0.00     0.014 A 
ATOM     34  C   UNL d   1      -0.379   3.608  -0.802  0.00  0.00     0.024 A 
ATOM     35  C   UNL d   1      -0.602   3.683   0.570  0.00  0.00     0.034 A 
ATOM     36  C   UNL d   1      -0.396   2.567   1.368  0.00  0.00     0.024 A 
ATOM     37 CL   UNL d   1      -1.148   5.151   1.279  0.00  0.00    -0.084 Cl
ATOM     38  C   UNL d   1       0.038   1.372   0.786  0.00  0.00     0.014 A 
ENDBRANCH   1  32
TORSDOF 8
