REMARK  8 active torsions:
REMARK  status: ('A' for Active; 'I' for Inactive)
REMARK    1  A    between atoms: S_12  and  C_5 
REMARK    2  A    between atoms: N_19  and  C_6 
REMARK    3  A    between atoms: S_18  and  C_7 
REMARK    4  A    between atoms: C_16  and  S_12 
REMARK    5  A    between atoms: C_13  and  O_17 
REMARK    6  A    between atoms: C_14  and  C_16 
REMARK    7  A    between atoms: C_15  and  C_14 
REMARK    8  A    between atoms: O_17  and  C_23 
ROOT
ATOM      1  C   UNL d   1      -2.480   4.493   2.089  0.00  0.00     0.096 A 
ATOM      2  C   UNL d   1      -4.118   4.383   3.875  0.00  0.00     0.101 A 
ATOM      3  N   UNL d   1      -4.131   2.728   2.135  0.00  0.00    -0.339 N 
ATOM      4  HN  UNL d   1      -4.545   1.897   1.712  1.00  0.00     0.167 HD
ATOM      5  C   UNL d   1      -3.099   3.369   1.531  0.00  0.00     0.093 A 
ATOM      6  C   UNL d   1      -4.599   3.207   3.299  0.00  0.00     0.101 A 
ATOM      7  C   UNL d   1      -3.037   5.054   3.260  0.00  0.00     0.047 A 
ATOM      8  C   UNL d   1      -4.693   4.828   5.110  0.00  0.00     0.104 C 
ATOM      9  C   UNL d   1      -1.248   4.991   1.543  0.00  0.00     0.103 C 
ATOM     10  N   UNL d   1      -0.233   5.380   1.148  0.00  0.00    -0.191 NA
ATOM     11  N   UNL d   1      -5.169   5.134   6.125  0.00  0.00    -0.191 NA
ENDROOT
BRANCH   7  12
ATOM     12  S   UNL d   1      -2.314   6.493   4.098  0.00  0.00    -0.131 SA
ATOM     13  C   UNL d   1      -2.622   7.856   2.927  0.00  0.00     0.095 C 
ENDBRANCH   7  12
BRANCH   6  14
ATOM     14  N   UNL d   1      -5.650   2.471   3.841  0.00  0.00    -0.287 NA
ATOM     15  H   UNL d   1      -5.579   2.302   4.841  0.00  0.00     0.125 HD
ATOM     16  H   UNL d   1      -5.756   1.605   3.316  0.00  0.00     0.125 HD
ENDBRANCH   6  14
BRANCH   5  17
ATOM     17  S   UNL d   1      -2.549   2.617  -0.004  0.00  0.00    -0.103 SA
BRANCH  17  18
ATOM     18  C   UNL d   1      -4.060   1.738  -0.552  0.00  0.00     0.164 C 
BRANCH  18  19
ATOM     19  C   UNL d   1      -5.192   2.683  -0.926  0.00  0.00     0.169 C 
ATOM     20  O   UNL d   1      -5.028   3.850  -1.277  0.00  0.00    -0.291 OA
BRANCH  19  21
ATOM     21  C   UNL d   1      -6.584   2.144  -0.858  0.00  0.00     0.011 A 
ATOM     22  C   UNL d   1      -7.633   3.023  -0.561  0.00  0.00     0.018 A 
ATOM     23  C   UNL d   1      -8.939   2.542  -0.401  0.00  0.00     0.038 A 
ATOM     24  C   UNL d   1      -9.202   1.180  -0.550  0.00  0.00     0.074 A 
ATOM     25  C   UNL d   1      -8.169   0.316  -0.919  0.00  0.00     0.038 A 
ATOM     26  C   UNL d   1      -6.861   0.790  -1.065  0.00  0.00     0.018 A 
BRANCH  24  27
ATOM     27  O   UNL d   1     -10.424   0.589  -0.396  0.00  0.00    -0.290 OA
BRANCH  27  28
ATOM     28  C   UNL d   1     -11.283   1.208   0.548  0.00  0.00     0.505 C 
ATOM     29  F   UNL d   1     -11.997   2.174  -0.080  0.00  0.00    -0.184 F 
ATOM     30  F   UNL d   1     -12.172   0.269   0.961  0.00  0.00    -0.184 F 
ENDBRANCH  27  28
ENDBRANCH  24  27
ENDBRANCH  19  21
ENDBRANCH  18  19
ENDBRANCH  17  18
ENDBRANCH   5  17
TORSDOF 8
