REMARK  4 active torsions:
REMARK  status: ('A' for Active; 'I' for Inactive)
REMARK    1  A    between atoms: C_7  and  C_1 
REMARK    2  A    between atoms: C_6  and  N_2 
REMARK    3  A    between atoms: O_15  and  C_7 
REMARK    4  A    between atoms: O_17  and  C_14 
ROOT
ATOM      1  C   UNL d   1       1.689  -1.133   0.029  0.00  0.00     0.072 A 
ATOM      2  N   UNL d   1       1.737   1.115   0.015  0.00  0.00    -0.344 N 
ATOM      3  C   UNL d   1       2.541  -0.023   0.035  0.00  0.00     0.026 A 
ATOM      4  C   UNL d   1       0.348  -0.635   0.032  0.00  0.00     0.012 A 
ATOM      5  C   UNL d   1       0.394   0.762   0.048  0.00  0.00     0.046 A 
ATOM      6  C   UNL d   1      -0.807   1.504   0.065  0.00  0.00     0.033 A 
ATOM      7  C   UNL d   1      -0.910  -1.283   0.022  0.00  0.00     0.051 A 
ATOM      8  C   UNL d   1       4.036  -0.011  -0.032  0.00  0.00     0.069 C 
ATOM      9  C   UNL d   1      -2.100  -0.554   0.026  0.00  0.00     0.069 A 
ATOM     10  C   UNL d   1      -2.042   0.831   0.050  0.00  0.00     0.039 A 
ENDROOT
BRANCH   1  11
ATOM     11  C   UNL d   1       2.047  -2.553  -0.037  0.00  0.00     0.179 C 
ATOM     12  O   UNL d   1       1.346  -3.406  -0.572  0.00  0.00    -0.646 OA
BRANCH  11  13
ATOM     13  O   UNL d   1       3.211  -2.894   0.568  0.00  0.00    -0.773 OA
ATOM     14  H   UNL d   1       3.549  -2.169   1.121  0.00  0.00     0.167 HD
ENDBRANCH  11  13
ENDBRANCH   1  11
BRANCH   2  15
ATOM     15  C   UNL d   1       2.287   2.469  -0.106  0.00  0.00     0.090 A 
ATOM     16  C   UNL d   1       1.696   3.724   0.500  0.00  0.00     0.028 A 
ATOM     17  C   UNL d   1       1.643   3.531  -0.978  0.00  0.00     0.028 A 
ENDBRANCH   2  15
BRANCH   9  18
ATOM     18  O   UNL d   1      -3.229  -1.324   0.009  0.00  0.00    -0.356 OA
ATOM     19  C   UNL d   1      -4.481  -0.654  -0.027  0.00  0.00     0.210 C 
ENDBRANCH   9  18
TORSDOF 4
