REMARK  2 active torsions:
REMARK  status: ('A' for Active; 'I' for Inactive)
REMARK    1  A    between atoms: C_7  and  N_1 
REMARK    2  A    between atoms: C_2  and  C_8 
ROOT
ATOM      1  C   UNL d   1      -2.148   3.299   3.287  0.00  0.00     0.087 A 
ATOM      2  O   UNL d   1      -2.423   2.993   4.593  0.00  0.00    -0.309 OA
ATOM      3  C   UNL d   1      -2.730   4.510   2.965  0.00  0.00     0.052 A 
ATOM      4  C   UNL d   1      -3.384   4.983   4.129  0.00  0.00     0.002 A 
ATOM      5  C   UNL d   1      -3.168   4.014   5.101  0.00  0.00     0.086 A 
ATOM      6  C   UNL d   1      -4.130   6.126   4.461  0.00  0.00     0.038 A 
ATOM      7  C   UNL d   1      -3.651   4.100   6.405  0.00  0.00     0.040 A 
ATOM      8  C   UNL d   1      -4.617   6.243   5.768  0.00  0.00     0.035 A 
ATOM      9  C   UNL d   1      -4.385   5.250   6.724  0.00  0.00     0.026 A 
ATOM     10 CL   UNL d   1      -5.516   7.646   6.204  0.00  0.00    -0.084 Cl
ENDROOT
BRANCH   1  11
ATOM     11  C   UNL d   1      -1.350   2.334   2.535  0.00  0.00    -0.002 A 
ATOM     12  C   UNL d   1      -0.849   1.163   3.128  0.00  0.00     0.017 A 
ATOM     13  C   UNL d   1      -0.114   0.234   2.379  0.00  0.00     0.037 A 
ATOM     14  C   UNL d   1       0.128   0.477   1.022  0.00  0.00     0.102 A 
ATOM     15  C   UNL d   1      -0.343   1.646   0.417  0.00  0.00     0.037 A 
ATOM     16  C   UNL d   1      -1.075   2.565   1.176  0.00  0.00     0.017 A 
BRANCH  14  17
ATOM     17  N   UNL d   1       0.865  -0.505   0.219  0.00  0.00    -0.116 N 
ATOM     18  O   UNL d   1       1.028  -0.261  -0.985  0.00  0.00    -0.532 OA
ATOM     19  O   UNL d   1       1.278  -1.524   0.791  0.00  0.00    -0.532 OA
ENDBRANCH  14  17
ENDBRANCH   1  11
TORSDOF 2
