REMARK  2 active torsions:
REMARK  status: ('A' for Active; 'I' for Inactive)
REMARK    1  A    between atoms: C_13  and  C_4 
REMARK    2  A    between atoms: C_12  and  C_10 
ROOT
ATOM      1  N   UNL d   1      -0.510  -0.806   0.082  0.00  0.00    -0.214 N 
ATOM      2  N   UNL d   1       0.466  -1.744   0.328  0.00  0.00    -0.292 N 
ATOM      3  HN  UNL d   1       0.237  -2.673   0.681  1.00  0.00     0.187 HD
ATOM      4  C   UNL d   1      -1.876  -1.032  -0.031  0.00  0.00     0.154 A 
ATOM      5  C   UNL d   1      -0.383   0.559  -0.020  0.00  0.00     0.182 A 
ATOM      6  N   UNL d   1      -2.490   0.139  -0.145  0.00  0.00    -0.281 N 
ATOM      7  HN  UNL d   1      -3.498   0.275  -0.221  1.00  0.00     0.188 HD
ATOM      8  N   UNL d   1      -1.547   1.138  -0.144  0.00  0.00    -0.277 N 
ATOM      9  HN  UNL d   1      -1.722   2.140  -0.225  1.00  0.00     0.189 HD
ATOM     10  C   UNL d   1       1.699  -1.389   0.090  0.00  0.00     0.053 C 
ATOM     11  S   UNL d   1       1.162   1.312   0.055  0.00  0.00    -0.085 SA
ATOM     12  C   UNL d   1       2.114  -0.083  -0.587  0.00  0.00     0.142 C 
ENDROOT
BRANCH   4  13
ATOM     13  C   UNL d   1      -2.541  -2.337  -0.035  0.00  0.00     0.011 A 
ATOM     14  C   UNL d   1      -3.859  -2.438   0.438  0.00  0.00     0.017 A 
ATOM     15  C   UNL d   1      -4.533  -3.664   0.430  0.00  0.00     0.025 A 
ATOM     16  C   UNL d   1      -3.894  -4.799  -0.062  0.00  0.00     0.034 A 
ATOM     17  C   UNL d   1      -2.593  -4.717  -0.549  0.00  0.00     0.025 A 
ATOM     18 CL   UNL d   1      -4.718  -6.309  -0.077  0.00  0.00    -0.084 Cl
ATOM     19  C   UNL d   1      -1.922  -3.491  -0.538  0.00  0.00     0.017 A 
ENDBRANCH   4  13
BRANCH  10  20
ATOM     20  C   UNL d   1       2.736  -2.360   0.433  0.00  0.00     0.029 A 
ATOM     21  S   UNL d   1       4.220  -2.429  -0.421  0.00  0.00    -0.100 SA
ATOM     22  C   UNL d   1       4.813  -3.695   0.557  0.00  0.00     0.050 A 
ATOM     23  C   UNL d   1       3.892  -4.094   1.497  0.00  0.00     0.008 A 
ATOM     24  C   UNL d   1       2.684  -3.340   1.410  0.00  0.00     0.021 A 
ENDBRANCH  10  20
TORSDOF 2
