REMARK  8 active torsions:
REMARK  status: ('A' for Active; 'I' for Inactive)
REMARK    1  A    between atoms: C_2  and  C_1 
REMARK       I    between atoms: N_3  and  C_1 
REMARK       I    between atoms: C_4  and  N_3 
REMARK       I    between atoms: N_6  and  C_4 
REMARK    2  A    between atoms: C_5  and  N_6 
REMARK    3  A    between atoms: C_7  and  C_16 
REMARK    4  A    between atoms: C_8  and  C_17 
REMARK    5  A    between atoms: O_15  and  C_9 
REMARK    6  A    between atoms: C_16  and  O_15 
REMARK    7  A    between atoms: C_17  and  O_26 
REMARK    8  A    between atoms: O_26  and  C_25 
ROOT
ATOM      1  C   UNL d   1       0.198  -1.415  -0.250  0.00  0.00     0.068 A 
ATOM      2  C   UNL d   1       0.602  -2.620   0.342  0.00  0.00     0.085 A 
ATOM      3  C   UNL d   1      -0.807  -1.397  -1.226  0.00  0.00     0.056 A 
ATOM      4  C   UNL d   1      -0.048  -3.798  -0.035  0.00  0.00     0.040 A 
ATOM      5  C   UNL d   1      -1.460  -2.572  -1.586  0.00  0.00     0.070 A 
ATOM      6  C   UNL d   1      -1.078  -3.772  -0.990  0.00  0.00     0.039 A 
ENDROOT
BRANCH   1   7
ATOM      7  C   UNL d   1       0.828  -0.124   0.080  0.00  0.00     0.262 C 
ATOM      8  N   UNL d   1       0.968   0.297   1.397  0.00  0.00    -0.275 N 
ATOM      9  C   UNL d   1       0.250   0.171   2.571  0.00  0.00     0.327 C 
ATOM     10  H   UNL d   1       1.458   1.183   1.422  0.00  0.00     0.173 HD
ATOM     11  N   UNL d   1      -0.592  -0.900   2.702  0.00  0.00    -0.303 N 
ATOM     12  O   UNL d   1       0.368   1.077   3.397  0.00  0.00    -0.247 OA
ATOM     13  H   UNL d   1      -1.040  -1.230   1.860  0.00  0.00     0.171 HD
ATOM     14  O   UNL d   1       1.169   0.618  -0.840  0.00  0.00    -0.267 OA
BRANCH  11  15
ATOM     15  C   UNL d   1      -1.288  -1.212   3.900  0.00  0.00     0.114 A 
ATOM     16  C   UNL d   1      -2.523  -1.857   3.783  0.00  0.00     0.146 A 
ATOM     17  F   UNL d   1      -2.971  -2.209   2.567  0.00  0.00    -0.204 F 
ATOM     18  C   UNL d   1      -3.321  -2.119   4.897  0.00  0.00     0.045 A 
ATOM     19  C   UNL d   1      -2.875  -1.759   6.167  0.00  0.00     0.006 A 
ATOM     20  C   UNL d   1      -1.615  -1.180   6.312  0.00  0.00     0.045 A 
ATOM     21  C   UNL d   1      -0.826  -0.924   5.189  0.00  0.00     0.146 A 
ATOM     22  F   UNL d   1       0.414  -0.461   5.398  0.00  0.00    -0.204 F 
ENDBRANCH  11  15
ENDBRANCH   1   7
BRANCH   2  23
ATOM     23  O   UNL d   1       1.633  -2.545   1.234  0.00  0.00    -0.341 OA
BRANCH  23  24
ATOM     24  C   UNL d   1       1.918  -3.687   2.049  0.00  0.00     0.293 C 
BRANCH  24  25
ATOM     25  C   UNL d   1       3.008  -3.355   3.060  0.00  0.00     0.408 C 
ATOM     26  F   UNL d   1       4.057  -2.728   2.486  0.00  0.00    -0.169 F 
ATOM     27  F   UNL d   1       2.540  -2.572   4.055  0.00  0.00    -0.169 F 
ATOM     28  F   UNL d   1       3.479  -4.492   3.627  0.00  0.00    -0.169 F 
ENDBRANCH  24  25
ENDBRANCH  23  24
ENDBRANCH   2  23
BRANCH   5  29
ATOM     29  O   UNL d   1      -2.419  -2.424  -2.546  0.00  0.00    -0.342 OA
BRANCH  29  30
ATOM     30  C   UNL d   1      -3.425  -3.443  -2.615  0.00  0.00     0.293 C 
BRANCH  30  31
ATOM     31  C   UNL d   1      -4.617  -2.966  -3.433  0.00  0.00     0.408 C 
ATOM     32  F   UNL d   1      -5.006  -1.719  -3.086  0.00  0.00    -0.169 F 
ATOM     33  F   UNL d   1      -4.349  -2.970  -4.757  0.00  0.00    -0.169 F 
ATOM     34  F   UNL d   1      -5.677  -3.786  -3.233  0.00  0.00    -0.169 F 
ENDBRANCH  30  31
ENDBRANCH  29  30
ENDBRANCH   5  29
TORSDOF 8
