REMARK  7 active torsions:
REMARK  status: ('A' for Active; 'I' for Inactive)
REMARK    1  A    between atoms: C_9  and  N_1 
REMARK    2  A    between atoms: C_11  and  C_2 
REMARK    3  A    between atoms: S_8  and  C_5 
REMARK    4  A    between atoms: C_15  and  S_8 
REMARK    5  A    between atoms: C_10  and  C_15 
REMARK    6  A    between atoms: O_16  and  C_10 
REMARK    7  A    between atoms: C_23  and  O_16 
ROOT
ATOM      1  N   UNL d   1      -0.337  -1.339  -0.043  0.00  0.00    -0.275 N 
ATOM      2  C   UNL d   1       0.909  -0.700  -0.051  0.00  0.00     0.139 A 
ATOM      3  N   UNL d   1       0.718   0.610  -0.070  0.00  0.00    -0.282 N 
ATOM      4  HN  UNL d   1       1.453   1.316  -0.050  1.00  0.00     0.188 HD
ATOM      5  C   UNL d   1      -1.248  -0.293  -0.104  0.00  0.00     0.168 A 
ATOM      6  N   UNL d   1      -0.624   0.861  -0.119  0.00  0.00    -0.278 N 
ATOM      7  HN  UNL d   1      -1.063   1.781  -0.160  1.00  0.00     0.189 HD
ENDROOT
BRANCH   2   8
ATOM      8  C   UNL d   1       2.243  -1.314  -0.085  0.00  0.00     0.013 A 
ATOM      9  C   UNL d   1       2.545  -2.422  -0.881  0.00  0.00     0.032 A 
ATOM     10  C   UNL d   1       3.819  -2.963  -0.811  0.00  0.00     0.088 A 
ATOM     11  N   UNL d   1       4.808  -2.460  -0.044  0.00  0.00    -0.375 N 
ATOM     12  C   UNL d   1       4.515  -1.355   0.673  0.00  0.00     0.088 A 
ATOM     13  HN  UNL d   1       5.730  -2.893  -0.008  1.00  0.00     0.164 HD
ATOM     14  C   UNL d   1       3.267  -0.755   0.684  0.00  0.00     0.032 A 
ENDBRANCH   2   8
BRANCH   1  15
ATOM     15  C   UNL d   1      -0.598  -2.737   0.026  0.00  0.00     0.043 A 
ATOM     16  C   UNL d   1       0.173  -3.558   0.863  0.00  0.00     0.030 A 
ATOM     17  C   UNL d   1      -0.032  -4.939   0.875  0.00  0.00     0.002 A 
ATOM     18  C   UNL d   1      -1.017  -5.506   0.070  0.00  0.00     0.000 A 
ATOM     19  C   UNL d   1      -1.801  -4.695  -0.749  0.00  0.00     0.002 A 
ATOM     20  C   UNL d   1      -1.591  -3.314  -0.776  0.00  0.00     0.030 A 
ENDBRANCH   1  15
BRANCH   5  21
ATOM     21  S   UNL d   1      -2.977  -0.441   0.021  0.00  0.00    -0.082 SA
BRANCH  21  22
ATOM     22  C   UNL d   1      -3.496   1.044  -0.893  0.00  0.00     0.193 C 
BRANCH  22  23
ATOM     23  C   UNL d   1      -2.937   1.067  -2.301  0.00  0.00     0.268 C 
ATOM     24  O   UNL d   1      -2.574   0.093  -2.948  0.00  0.00    -0.264 OA
BRANCH  23  25
ATOM     25  O   UNL d   1      -2.908   2.358  -2.745  0.00  0.00    -0.321 OA
BRANCH  25  26
ATOM     26  C   UNL d   1      -2.145   2.583  -3.939  0.00  0.00     0.174 C 
ATOM     27  C   UNL d   1      -0.691   2.796  -3.558  0.00  0.00     0.034 C 
ENDBRANCH  25  26
ENDBRANCH  23  25
ENDBRANCH  22  23
ENDBRANCH  21  22
ENDBRANCH   5  21
TORSDOF 7
