REMARK  11 active torsions:
REMARK  status: ('A' for Active; 'I' for Inactive)
REMARK    1  A    between atoms: N_2  and  C_1 
REMARK    2  A    between atoms: N_3  and  C_6 
REMARK    3  A    between atoms: C_5  and  N_7 
REMARK    4  A    between atoms: C_18  and  C_5 
REMARK    5  A    between atoms: C_19  and  C_5 
REMARK    6  A    between atoms: C_20  and  C_5 
REMARK    7  A    between atoms: N_7  and  C_17 
REMARK    8  A    between atoms: N_8  and  O_12 
REMARK    9  A    between atoms: O_12  and  C_10 
REMARK   10  A    between atoms: C_17  and  C_11 
REMARK   11  A    between atoms: C_23  and  C_11 
ROOT
ATOM      1  N   UNL d   1       3.738   2.353   1.117  0.00  0.00    -0.262 N 
ATOM      2  HN  UNL d   1       4.191   3.216   1.418  1.00  0.00     0.194 HD
ATOM      3  C   UNL d   1       2.501   2.336   0.683  0.00  0.00     0.070 C 
ENDROOT
BRANCH   3   4
ATOM      4  C   UNL d   1       1.829   3.743   0.762  0.00  0.00     0.331 C 
BRANCH   4   5
ATOM      5  N   UNL d   1       1.943   4.430  -0.531  0.00  0.00     0.112 N 
ATOM      6  H   UNL d   1       2.938   4.570  -0.718  0.00  0.00     0.318 HD
BRANCH   5   7
ATOM      7  C   UNL d   1       1.294   5.792  -0.635  0.00  0.00     0.239 C 
BRANCH   7   8
ATOM      8  C   UNL d   1       1.911   6.709   0.490  0.00  0.00    -0.011 C 
ATOM      9  C   UNL d   1       3.091   7.450   0.299  0.00  0.00     0.010 C 
ATOM     10  C   UNL d   1       3.532   8.369   1.260  0.00  0.00     0.001 C 
ATOM     11  C   UNL d   1       2.833   8.533   2.455  0.00  0.00     0.000 C 
ATOM     12  C   UNL d   1       1.732   7.732   2.720  0.00  0.00     0.001 C 
ATOM     13  C   UNL d   1       1.299   6.812   1.764  0.00  0.00     0.010 C 
ENDBRANCH   7   8
BRANCH   7  14
ATOM     14  C   UNL d   1       1.543   6.337  -2.096  0.00  0.00    -0.011 A 
ATOM     15  C   UNL d   1       1.638   5.447  -3.190  0.00  0.00     0.010 A 
ATOM     16  C   UNL d   1       1.731   5.910  -4.506  0.00  0.00     0.001 A 
ATOM     17  C   UNL d   1       1.740   7.275  -4.767  0.00  0.00     0.000 A 
ATOM     18  C   UNL d   1       1.643   8.178  -3.712  0.00  0.00     0.001 A 
ATOM     19  C   UNL d   1       1.524   7.716  -2.397  0.00  0.00     0.010 A 
ENDBRANCH   7  14
BRANCH   7  20
ATOM     20  C   UNL d   1      -0.277   5.701  -0.538  0.00  0.00    -0.011 C 
ATOM     21  C   UNL d   1      -1.059   6.788  -0.092  0.00  0.00     0.010 C 
ATOM     22  C   UNL d   1      -2.430   6.651   0.132  0.00  0.00     0.001 C 
ATOM     23  C   UNL d   1      -3.064   5.449  -0.158  0.00  0.00     0.000 C 
ATOM     24  C   UNL d   1      -2.341   4.414  -0.742  0.00  0.00     0.001 C 
ATOM     25  C   UNL d   1      -0.968   4.561  -0.965  0.00  0.00     0.010 C 
ENDBRANCH   7  20
ENDBRANCH   5   7
ENDBRANCH   4   5
ENDBRANCH   3   4
BRANCH   3  26
ATOM     26  C   UNL d   1       1.673   1.145   0.197  0.00  0.00    -0.010 A 
ATOM     27  C   UNL d   1       2.179  -0.154   0.034  0.00  0.00     0.013 A 
ATOM     28  C   UNL d   1       1.374  -1.218  -0.409  0.00  0.00     0.001 A 
ATOM     29  C   UNL d   1       0.040  -1.004  -0.728  0.00  0.00     0.000 A 
ATOM     30  C   UNL d   1      -0.489   0.267  -0.581  0.00  0.00     0.001 A 
ATOM     31  C   UNL d   1       0.314   1.313  -0.106  0.00  0.00     0.013 A 
ENDBRANCH   3  26
BRANCH   1  32
ATOM     32  O   UNL d   1       4.396   1.131   1.143  0.00  0.00    -0.235 OA
BRANCH  32  33
ATOM     33  C   UNL d   1       5.183   1.003   2.267  0.00  0.00     0.132 A 
ATOM     34  C   UNL d   1       6.227   0.060   2.301  0.00  0.00     0.141 A 
ATOM     35  C   UNL d   1       6.991  -0.129   3.472  0.00  0.00     0.075 A 
ATOM     36  C   UNL d   1       6.703   0.633   4.612  0.00  0.00     0.105 A 
ATOM     37  C   UNL d   1       5.671   1.573   4.594  0.00  0.00     0.039 A 
ATOM     38  C   UNL d   1       4.918   1.749   3.431  0.00  0.00     0.044 A 
BRANCH  34  39
ATOM     39  N   UNL d   1       6.567  -0.765   1.135  0.00  0.00    -0.113 N 
ATOM     40  O   UNL d   1       7.692  -1.283   1.119  0.00  0.00    -0.532 OA
ATOM     41  O   UNL d   1       5.714  -0.936   0.254  0.00  0.00    -0.532 OA
ENDBRANCH  34  39
BRANCH  36  42
ATOM     42  N   UNL d   1       7.479   0.430   5.843  0.00  0.00    -0.116 N 
ATOM     43  O   UNL d   1       8.350  -0.451   5.834  0.00  0.00    -0.532 OA
ATOM     44  O   UNL d   1       7.213   1.147   6.816  0.00  0.00    -0.532 OA
ENDBRANCH  36  42
ENDBRANCH  32  33
ENDBRANCH   1  32
TORSDOF 11
