REMARK  5 active torsions:
REMARK  status: ('A' for Active; 'I' for Inactive)
REMARK    1  A    between atoms: C_2  and  C_1 
REMARK       I    between atoms: N_5  and  C_1 
REMARK    2  A    between atoms: C_3  and  C_4 
REMARK    3  A    between atoms: O_9  and  C_3 
REMARK    4  A    between atoms: C_8  and  N_5 
REMARK    5  A    between atoms: O_15  and  C_10 
ROOT
ATOM      1  C   UNL d   1       1.048  -0.382   0.496  0.00  0.00     0.245 C 
ATOM      2  N   UNL d   1       0.192   0.667   0.751  0.00  0.00    -0.324 N 
ATOM      3  O   UNL d   1       0.760  -1.567   0.365  0.00  0.00    -0.268 OA
ATOM      4  H   UNL d   1       0.592   1.595   0.821  0.00  0.00     0.169 HD
ENDROOT
BRANCH   2   5
ATOM      5  C   UNL d   1      -1.209   0.596   0.916  0.00  0.00     0.035 A 
ATOM      6  C   UNL d   1      -1.938  -0.593   0.855  0.00  0.00     0.032 A 
ATOM      7  C   UNL d   1      -3.331  -0.589   0.990  0.00  0.00     0.039 A 
ATOM      8  C   UNL d   1      -4.014   0.608   1.185  0.00  0.00     0.068 A 
ATOM      9  C   UNL d   1      -3.290   1.794   1.296  0.00  0.00     0.039 A 
ATOM     10  C   UNL d   1      -1.898   1.791   1.153  0.00  0.00     0.032 A 
BRANCH   8  11
ATOM     11  O   UNL d   1      -5.370   0.722   1.316  0.00  0.00    -0.356 OA
ATOM     12  C   UNL d   1      -6.126  -0.245   0.589  0.00  0.00     0.210 C 
ENDBRANCH   8  11
ENDBRANCH   2   5
BRANCH   1  13
ATOM     13  C   UNL d   1       2.464   0.053   0.386  0.00  0.00     0.081 C 
ATOM     14  C   UNL d   1       3.412  -0.885   0.234  0.00  0.00     0.086 C 
BRANCH  14  15
ATOM     15  C   UNL d   1       4.817  -0.467   0.130  0.00  0.00     0.165 C 
ATOM     16  O   UNL d   1       5.189   0.693   0.151  0.00  0.00    -0.647 OA
BRANCH  15  17
ATOM     17  O   UNL d   1       5.653  -1.516   0.015  0.00  0.00    -0.773 OA
ATOM     18  H   UNL d   1       5.232  -2.396   0.016  0.00  0.00     0.167 HD
ENDBRANCH  15  17
ENDBRANCH  14  15
ENDBRANCH   1  13
TORSDOF 5
