REMARK  4 active torsions:
REMARK  status: ('A' for Active; 'I' for Inactive)
REMARK    1  A    between atoms: C_12  and  C_3 
REMARK    2  A    between atoms: C_16  and  C_7 
REMARK    3  A    between atoms: C_13  and  C_11 
REMARK    4  A    between atoms: O_21  and  C_12 
ROOT
ATOM      1  N   UNL d   1      -0.109   1.425   0.021  0.00  0.00    -0.279 N 
ATOM      2  C   UNL d   1      -0.365   0.111   0.214  0.00  0.00     0.155 A 
ATOM      3  C   UNL d   1      -2.517   1.749   0.341  0.00  0.00     0.067 A 
ATOM      4  C   UNL d   1       1.179   1.744  -0.350  0.00  0.00     0.267 C 
ATOM      5  N   UNL d   1      -1.510  -0.413   0.486  0.00  0.00    -0.339 N 
ATOM      6  HN  UNL d   1      -1.599  -1.416   0.651  1.00  0.00     0.168 HD
ATOM      7  C   UNL d   1      -1.179   2.410   0.060  0.00  0.00     0.169 A 
ATOM      8  C   UNL d   1       2.056   0.542  -0.196  0.00  0.00     0.078 C 
ATOM      9  C   UNL d   1      -2.613   0.413   0.548  0.00  0.00     0.022 A 
ATOM     10  S   UNL d   1       1.067  -0.859   0.038  0.00  0.00    -0.048 SA
ATOM     11  C   UNL d   1       3.393   0.485  -0.133  0.00  0.00     0.043 C 
ATOM     12  O   UNL d   1       1.546   2.813  -0.813  0.00  0.00    -0.266 OA
ATOM     13  C   UNL d   1      -3.866  -0.389   0.806  0.00  0.00     0.069 C 
ENDROOT
BRANCH   7  14
ATOM     14  C   UNL d   1      -0.841   3.508   1.071  0.00  0.00    -0.030 A 
ATOM     15  C   UNL d   1      -0.738   3.244   2.446  0.00  0.00     0.009 A 
ATOM     16  C   UNL d   1      -0.379   4.259   3.336  0.00  0.00     0.001 A 
ATOM     17  C   UNL d   1      -0.114   5.543   2.865  0.00  0.00     0.000 A 
ATOM     18  C   UNL d   1      -0.214   5.821   1.504  0.00  0.00     0.001 A 
ATOM     19  C   UNL d   1      -0.576   4.811   0.614  0.00  0.00     0.009 A 
ENDBRANCH   7  14
BRANCH   3  20
ATOM     20  C   UNL d   1      -3.648   2.707   0.252  0.00  0.00     0.293 C 
ATOM     21  O   UNL d   1      -3.616   3.696  -0.469  0.00  0.00    -0.259 OA
BRANCH  20  22
ATOM     22  O   UNL d   1      -4.668   2.384   1.079  0.00  0.00    -0.323 OA
ATOM     23  C   UNL d   1      -5.812   3.241   1.004  0.00  0.00     0.213 C 
ENDBRANCH  20  22
ENDBRANCH   3  20
BRANCH  11  24
ATOM     24  C   UNL d   1       4.218   1.637  -0.094  0.00  0.00     0.006 A 
ATOM     25  S   UNL d   1       4.762   2.223   1.431  0.00  0.00    -0.102 SA
ATOM     26  C   UNL d   1       5.639   3.497   0.709  0.00  0.00     0.050 A 
ATOM     27  C   UNL d   1       5.544   3.477  -0.662  0.00  0.00     0.008 A 
ATOM     28  C   UNL d   1       4.727   2.403  -1.126  0.00  0.00     0.019 A 
ENDBRANCH  11  24
TORSDOF 4
