REMARK  4 active torsions:
REMARK  status: ('A' for Active; 'I' for Inactive)
REMARK    1  A    between atoms: C_5  and  C_1 
REMARK    2  A    between atoms: O_10  and  C_2 
REMARK    3  A    between atoms: C_9  and  N_3 
REMARK    4  A    between atoms: C_13  and  C_9 
ROOT
ATOM      1  N   UNL d   1       3.735   2.578  -0.056  0.00  0.00    -0.388 N 
ATOM      2  HN  UNL d   1       4.731   2.796  -0.089  1.00  0.00     0.159 HD
ATOM      3  C   UNL d   1       3.312   1.350  -0.024  0.00  0.00     0.014 C 
ATOM      4  C   UNL d   1       1.844   0.946   0.010  0.00  0.00     0.068 C 
ENDROOT
BRANCH   3   5
ATOM      5  C   UNL d   1       4.323   0.226  -0.021  0.00  0.00     0.019 A 
ATOM      6  C   UNL d   1       5.704   0.477  -0.047  0.00  0.00     0.079 A 
ATOM      7  C   UNL d   1       6.630  -0.571  -0.043  0.00  0.00     0.061 A 
ATOM      8  C   UNL d   1       6.183  -1.888  -0.010  0.00  0.00     0.036 A 
ATOM      9  C   UNL d   1       4.820  -2.164   0.015  0.00  0.00     0.025 A 
ATOM     10 CL   UNL d   1       7.310  -3.188   0.002  0.00  0.00    -0.084 Cl
ATOM     11  C   UNL d   1       3.896  -1.114   0.008  0.00  0.00     0.018 A 
BRANCH   6  12
ATOM     12  O   UNL d   1       6.229   1.743  -0.075  0.00  0.00    -0.360 OA
ATOM     13  H   UNL d   1       5.472   2.373  -0.059  0.00  0.00     0.217 HD
ENDBRANCH   6  12
ENDBRANCH   3   5
BRANCH   1  14
ATOM     14  C   UNL d   1       2.718   3.643  -0.045  0.00  0.00     0.158 C 
BRANCH  14  15
ATOM     15  C   UNL d   1       3.297   5.034  -0.125  0.00  0.00    -0.041 A 
ATOM     16  C   UNL d   1       4.078   5.419  -1.222  0.00  0.00     0.009 A 
ATOM     17  C   UNL d   1       4.538   6.732  -1.337  0.00  0.00     0.001 A 
ATOM     18  C   UNL d   1       4.221   7.673  -0.359  0.00  0.00     0.000 A 
ATOM     19  C   UNL d   1       3.444   7.303   0.737  0.00  0.00     0.001 A 
ATOM     20  C   UNL d   1       2.982   5.991   0.852  0.00  0.00     0.009 A 
ENDBRANCH  14  15
ENDBRANCH   1  14
TORSDOF 4
