REMARK  5 active torsions:
REMARK  status: ('A' for Active; 'I' for Inactive)
REMARK    1  A    between atoms: C_5  and  N_1 
REMARK    2  A    between atoms: C_2  and  C_6 
REMARK    3  A    between atoms: C_9  and  C_2 
REMARK    4  A    between atoms: C_10  and  C_2 
REMARK    5  A    between atoms: C_15  and  C_9 
ROOT
ATOM      1  C   UNL d   1      -2.014  -0.389  -4.893  0.00  0.00     0.107 C 
ATOM      2  C   UNL d   1      -3.402  -0.884  -4.597  0.00  0.00     0.079 C 
ATOM      3  N   UNL d   1      -4.469  -1.284  -4.365  0.00  0.00    -0.196 NA
ENDROOT
BRANCH   1   4
ATOM      4  C   UNL d   1      -1.136  -0.429  -3.602  0.00  0.00    -0.030 A 
ATOM      5  C   UNL d   1      -1.086  -1.604  -2.818  0.00  0.00     0.012 A 
ATOM      6  C   UNL d   1      -0.374  -1.651  -1.615  0.00  0.00     0.037 A 
ATOM      7  C   UNL d   1       0.299  -0.513  -1.166  0.00  0.00     0.102 A 
ATOM      8  C   UNL d   1       0.300   0.652  -1.935  0.00  0.00     0.037 A 
ATOM      9  C   UNL d   1      -0.387   0.678  -3.154  0.00  0.00     0.012 A 
BRANCH   7  10
ATOM     10  N   UNL d   1       1.003  -0.534   0.122  0.00  0.00    -0.116 N 
ATOM     11  O   UNL d   1       1.532   0.515   0.509  0.00  0.00    -0.532 OA
ATOM     12  O   UNL d   1       1.023  -1.604   0.749  0.00  0.00    -0.532 OA
ENDBRANCH   7  10
ENDBRANCH   1   4
BRANCH   1  13
ATOM     13  C   UNL d   1      -2.234   1.067  -5.476  0.00  0.00     0.073 C 
BRANCH  13  14
ATOM     14  C   UNL d   1      -2.833   2.188  -4.623  0.00  0.00    -0.056 A 
ATOM     15  C   UNL d   1      -3.338   2.021  -3.324  0.00  0.00     0.007 A 
ATOM     16  C   UNL d   1      -3.753   3.119  -2.564  0.00  0.00     0.001 A 
ATOM     17  C   UNL d   1      -3.698   4.401  -3.097  0.00  0.00     0.000 A 
ATOM     18  C   UNL d   1      -3.244   4.586  -4.399  0.00  0.00     0.001 A 
ATOM     19  C   UNL d   1      -2.818   3.490  -5.156  0.00  0.00     0.007 A 
ENDBRANCH  13  14
ENDBRANCH   1  13
BRANCH   1  20
ATOM     20  C   UNL d   1      -1.348  -1.326  -5.959  0.00  0.00    -0.031 A 
ATOM     21  C   UNL d   1      -1.716  -2.687  -6.063  0.00  0.00     0.009 A 
ATOM     22  C   UNL d   1      -1.098  -3.549  -6.973  0.00  0.00     0.001 A 
ATOM     23  C   UNL d   1      -0.091  -3.075  -7.804  0.00  0.00     0.000 A 
ATOM     24  C   UNL d   1       0.303  -1.744  -7.716  0.00  0.00     0.001 A 
ATOM     25  C   UNL d   1      -0.308  -0.881  -6.798  0.00  0.00     0.009 A 
ENDBRANCH   1  20
TORSDOF 5
