REMARK  4 active torsions:
REMARK  status: ('A' for Active; 'I' for Inactive)
REMARK    1  A    between atoms: C_12  and  C_1 
REMARK       I    between atoms: C_7  and  N_14 
REMARK    2  A    between atoms: C_8  and  C_7 
REMARK    3  A    between atoms: N_13  and  C_9 
REMARK    4  A    between atoms: N_14  and  C_12 
ROOT
ATOM      1  C   UNL d   1      -2.799   4.199   0.240  0.00  0.00     0.253 C 
ATOM      2  N   UNL d   1      -2.170   2.994   0.003  0.00  0.00    -0.352 N 
ATOM      3  O   UNL d   1      -3.989   4.314   0.482  0.00  0.00    -0.268 OA
ATOM      4  H   UNL d   1      -1.264   2.977  -0.439  0.00  0.00     0.163 HD
ENDROOT
BRANCH   1   5
ATOM      5  C   UNL d   1      -1.935   5.410   0.150  0.00  0.00     0.047 A 
ATOM      6  C   UNL d   1      -0.597   5.404   0.513  0.00  0.00     0.106 A 
ATOM      7  N   UNL d   1       0.237   6.480   0.423  0.00  0.00    -0.351 N 
ATOM      8  C   UNL d   1      -0.277   7.629  -0.059  0.00  0.00     0.103 A 
ATOM      9  HN  UNL d   1       1.214   6.418   0.710  1.00  0.00     0.166 HD
ATOM     10  C   UNL d   1      -1.635   7.725  -0.384  0.00  0.00     0.049 A 
ATOM     11  C   UNL d   1      -2.475   6.619  -0.270  0.00  0.00     0.022 A 
BRANCH   8  12
ATOM     12  N   UNL d   1       0.503   8.762  -0.197  0.00  0.00    -0.363 N 
ATOM     13  C   UNL d   1       1.732   8.920   0.588  0.00  0.00     0.150 C 
ATOM     14  C   UNL d   1       2.013  10.440   0.666  0.00  0.00     0.187 C 
ATOM     15  O   UNL d   1       2.120  11.042  -0.642  0.00  0.00    -0.388 OA
ATOM     16  C   UNL d   1       0.928  10.806  -1.417  0.00  0.00     0.187 C 
ATOM     17  C   UNL d   1       0.653   9.302  -1.558  0.00  0.00     0.150 C 
ENDBRANCH   8  12
ENDBRANCH   1   5
BRANCH   2  18
ATOM     18  C   UNL d   1      -2.894   1.736   0.053  0.00  0.00     0.165 C 
BRANCH  18  19
ATOM     19  C   UNL d   1      -1.980   0.659   0.547  0.00  0.00     0.007 A 
ATOM     20  C   UNL d   1      -1.355   0.595   1.790  0.00  0.00     0.034 A 
ATOM     21  N   UNL d   1      -0.695  -0.606   1.820  0.00  0.00    -0.300 N 
ATOM     22  C   UNL d   1      -1.383   1.584   2.898  0.00  0.00     0.070 C 
ATOM     23  C   UNL d   1       0.079  -1.209   2.879  0.00  0.00     0.177 C 
ATOM     24  N   UNL d   1      -0.810  -1.300   0.676  0.00  0.00    -0.303 N 
ATOM     25  C   UNL d   1      -1.590  -0.548  -0.104  0.00  0.00     0.032 A 
ATOM     26  HN  UNL d   1      -0.393  -2.203   0.453  1.00  0.00     0.186 HD
ATOM     27  C   UNL d   1      -1.925  -1.046  -1.462  0.00  0.00     0.070 C 
ENDBRANCH  18  19
ENDBRANCH   2  18
TORSDOF 4
