REMARK  2 active torsions:
REMARK  status: ('A' for Active; 'I' for Inactive)
REMARK    1  A    between atoms: C_6  and  C_1 
REMARK    2  A    between atoms: C_10  and  C_6 
ROOT
ATOM      1  C   UNL d   1      -2.404   0.049  -0.013  0.00  0.00     0.128 A 
ATOM      2  O   UNL d   1      -1.585  -1.047  -0.038  0.00  0.00    -0.304 OA
ATOM      3  C   UNL d   1      -0.296  -0.600  -0.009  0.00  0.00     0.104 A 
ATOM      4  C   UNL d   1      -0.278   0.791   0.027  0.00  0.00     0.003 A 
ATOM      5  C   UNL d   1      -1.637   1.197   0.057  0.00  0.00     0.055 A 
ATOM      6  C   UNL d   1       0.861  -1.382  -0.018  0.00  0.00     0.047 A 
ATOM      7  C   UNL d   1       2.089  -0.714  -0.007  0.00  0.00     0.041 A 
ATOM      8  C   UNL d   1       0.963   1.453   0.032  0.00  0.00     0.033 A 
ATOM      9  C   UNL d   1       2.132   0.681   0.012  0.00  0.00     0.013 A 
ATOM     10 BR   UNL d   1       0.789  -3.265  -0.044  0.00  0.00    -0.048 Br
ATOM     11 BR   UNL d   1       3.810   1.558   0.011  0.00  0.00    -0.051 Br
ENDROOT
BRANCH   1  12
ATOM     12  C   UNL d   1      -3.841  -0.114  -0.022  0.00  0.00     0.215 C 
ATOM     13  O   UNL d   1      -4.601   0.712   0.487  0.00  0.00    -0.284 OA
BRANCH  12  14
ATOM     14  C   UNL d   1      -4.453  -1.285  -0.715  0.00  0.00     0.017 A 
ATOM     15  C   UNL d   1      -3.832  -1.898  -1.814  0.00  0.00     0.017 A 
ATOM     16  C   UNL d   1      -4.458  -2.958  -2.476  0.00  0.00     0.020 A 
ATOM     17  C   UNL d   1      -5.709  -3.399  -2.049  0.00  0.00     0.011 A 
ATOM     18  C   UNL d   1      -6.344  -2.790  -0.968  0.00  0.00     0.020 A 
ATOM     19 BR   UNL d   1      -6.555  -4.827  -2.954  0.00  0.00    -0.051 Br
ATOM     20  C   UNL d   1      -5.718  -1.730  -0.305  0.00  0.00     0.017 A 
ENDBRANCH  12  14
ENDBRANCH   1  12
TORSDOF 2
