REMARK  1 active torsions:
REMARK  status: ('A' for Active; 'I' for Inactive)
REMARK       I    between atoms: C_2  and  N_1 
REMARK    1  A    between atoms: C_4  and  C_2 
ROOT
ATOM      1  C   UNL d   1      -0.023   3.481  -1.171  0.00  0.00     0.034 A 
ATOM      2  C   UNL d   1       0.047   4.855  -0.906  0.00  0.00     0.049 A 
ATOM      3  C   UNL d   1       1.111   5.628  -1.349  0.00  0.00     0.060 A 
ATOM      4  N   UNL d   1       1.146   6.939  -1.044  0.00  0.00    -0.363 N 
ATOM      5  HN  UNL d   1       0.390   7.392  -0.529  1.00  0.00     0.165 HD
ATOM      6  N   UNL d   1       3.240   5.707  -2.473  0.00  0.00    -0.363 N 
ATOM      7  HN  UNL d   1       4.003   5.269  -2.989  1.00  0.00     0.165 HD
ATOM      8  C   UNL d   1       2.152   5.012  -2.086  0.00  0.00     0.059 A 
ATOM      9  C   UNL d   1       0.939   2.904  -1.997  0.00  0.00     0.019 A 
ATOM     10  C   UNL d   1       2.038   3.666  -2.413  0.00  0.00     0.033 A 
ATOM     11  C   UNL d   1       2.234   7.623  -1.455  0.00  0.00     0.105 A 
ATOM     12  C   UNL d   1       3.266   7.017  -2.140  0.00  0.00     0.105 A 
ENDROOT
BRANCH   1  13
ATOM     13  C   UNL d   1      -1.157   2.731  -0.569  0.00  0.00     0.258 C 
ATOM     14  N   UNL d   1      -1.044   1.406  -0.106  0.00  0.00    -0.313 N 
ATOM     15  C   UNL d   1       0.147   0.650   0.146  0.00  0.00     0.043 A 
ATOM     16  C   UNL d   1      -2.296   0.712   0.215  0.00  0.00     0.133 C 
ATOM     17  C   UNL d   1       0.091  -0.756   0.086  0.00  0.00    -0.031 A 
ATOM     18  C   UNL d   1       1.374   1.248   0.459  0.00  0.00     0.030 A 
ATOM     19  C   UNL d   1       1.272  -1.514   0.194  0.00  0.00     0.009 A 
ATOM     20  C   UNL d   1      -1.214  -1.507  -0.032  0.00  0.00     0.042 C 
ATOM     21  C   UNL d   1       2.498  -0.888   0.395  0.00  0.00     0.001 A 
ATOM     22  C   UNL d   1       2.545   0.491   0.556  0.00  0.00     0.002 A 
ATOM     23  C   UNL d   1      -2.365  -0.628  -0.490  0.00  0.00     0.025 C 
ATOM     24  O   UNL d   1      -2.231   3.337  -0.537  0.00  0.00    -0.267 OA
ENDBRANCH   1  13
TORSDOF 1
