REMARK  7 active torsions:
REMARK  status: ('A' for Active; 'I' for Inactive)
REMARK    1  A    between atoms: S_14  and  C_5 
REMARK    2  A    between atoms: N_6  and  C_11 
REMARK    3  A    between atoms: N_22  and  C_7 
REMARK    4  A    between atoms: S_21  and  C_8 
REMARK    5  A    between atoms: C_20  and  S_14 
REMARK    6  A    between atoms: C_16  and  C_18 
REMARK    7  A    between atoms: C_18  and  C_20 
ROOT
ATOM      1  C   UNL d   1       0.068   1.375  -0.232  0.00  0.00     0.096 A 
ATOM      2  C   UNL d   1       0.365  -1.012   0.089  0.00  0.00     0.101 A 
ATOM      3  N   UNL d   1      -1.844  -0.059   0.098  0.00  0.00    -0.339 N 
ATOM      4  HN  UNL d   1      -2.853  -0.176   0.191  1.00  0.00     0.167 HD
ATOM      5  C   UNL d   1      -1.309   1.171  -0.096  0.00  0.00     0.093 A 
ATOM      6  C   UNL d   1      -1.024  -1.125   0.165  0.00  0.00     0.101 A 
ATOM      7  C   UNL d   1       0.929   0.263  -0.112  0.00  0.00     0.047 A 
ATOM      8  C   UNL d   1       0.573   2.672  -0.556  0.00  0.00     0.103 C 
ATOM      9  C   UNL d   1       1.166  -2.199   0.180  0.00  0.00     0.104 C 
ATOM     10  N   UNL d   1       1.005   3.716  -0.834  0.00  0.00    -0.191 NA
ATOM     11  N   UNL d   1       1.788  -3.178   0.230  0.00  0.00    -0.191 NA
ENDROOT
BRANCH   5  12
ATOM     12  S   UNL d   1      -2.488   2.526  -0.124  0.00  0.00    -0.103 SA
BRANCH  12  13
ATOM     13  C   UNL d   1      -4.009   1.648  -0.611  0.00  0.00     0.164 C 
BRANCH  13  14
ATOM     14  C   UNL d   1      -5.216   2.574  -0.733  0.00  0.00     0.169 C 
ATOM     15  O   UNL d   1      -5.234   3.737  -0.339  0.00  0.00    -0.291 OA
BRANCH  14  16
ATOM     16  C   UNL d   1      -6.463   2.020  -1.362  0.00  0.00     0.013 A 
ATOM     17  C   UNL d   1      -6.545   0.698  -1.814  0.00  0.00     0.051 A 
ATOM     18  C   UNL d   1      -7.705   0.255  -2.471  0.00  0.00     0.103 A 
ATOM     19  C   UNL d   1      -8.803   1.104  -2.645  0.00  0.00     0.036 A 
ATOM     20  C   UNL d   1      -8.736   2.410  -2.161  0.00  0.00     0.003 A 
ATOM     21  C   UNL d   1      -7.573   2.866  -1.529  0.00  0.00     0.015 A 
BRANCH  18  22
ATOM     22  N   UNL d   1      -7.746  -1.111  -3.010  0.00  0.00    -0.116 N 
ATOM     23  O   UNL d   1      -6.741  -1.819  -2.847  0.00  0.00    -0.532 OA
ATOM     24  O   UNL d   1      -8.772  -1.469  -3.603  0.00  0.00    -0.532 OA
ENDBRANCH  18  22
ENDBRANCH  14  16
ENDBRANCH  13  14
ENDBRANCH  12  13
ENDBRANCH   5  12
BRANCH   7  25
ATOM     25  S   UNL d   1       2.720   0.405  -0.363  0.00  0.00    -0.131 SA
ATOM     26  C   UNL d   1       3.237   1.344   1.106  0.00  0.00     0.095 C 
ENDBRANCH   7  25
BRANCH   6  27
ATOM     27  N   UNL d   1      -1.673  -2.338   0.374  0.00  0.00    -0.287 NA
ATOM     28  H   UNL d   1      -1.373  -3.089  -0.241  0.00  0.00     0.125 HD
ATOM     29  H   UNL d   1      -2.679  -2.198   0.340  0.00  0.00     0.125 HD
ENDBRANCH   6  27
TORSDOF 7
