REMARK  3 active torsions:
REMARK  status: ('A' for Active; 'I' for Inactive)
REMARK    1  A    between atoms: C_11  and  N_3 
REMARK    2  A    between atoms: O_14  and  C_5 
REMARK    3  A    between atoms: C_15  and  C_11 
ROOT
ATOM      1  C   UNL d   1       1.460   0.807   0.057  0.00  0.00     0.100 A 
ATOM      2  C   UNL d   1       0.740   2.112   0.111  0.00  0.00     0.264 A 
ATOM      3  N   UNL d   1      -0.645   2.104   0.003  0.00  0.00    -0.308 N 
ATOM      4  C   UNL d   1       0.762  -0.335  -0.003  0.00  0.00     0.110 A 
ATOM      5  C   UNL d   1       2.908   0.722   0.057  0.00  0.00     0.090 A 
ATOM      6  C   UNL d   1      -0.702  -0.343  -0.022  0.00  0.00     0.026 A 
ATOM      7  C   UNL d   1       3.526  -0.458  -0.020  0.00  0.00     0.120 A 
ATOM      8  C   UNL d   1      -1.393   0.882  -0.047  0.00  0.00     0.051 A 
ATOM      9  O   UNL d   1       1.394  -1.600  -0.069  0.00  0.00    -0.273 OA
ATOM     10  C   UNL d   1       2.756  -1.707  -0.090  0.00  0.00     0.290 A 
ATOM     11  O   UNL d   1       1.409   3.141   0.241  0.00  0.00    -0.267 OA
ATOM     12  O   UNL d   1       3.326  -2.790  -0.161  0.00  0.00    -0.260 OA
ATOM     13  C   UNL d   1      -1.422  -1.552  -0.022  0.00  0.00     0.016 A 
ATOM     14  C   UNL d   1      -2.796   0.860  -0.095  0.00  0.00     0.031 A 
ATOM     15  C   UNL d   1      -2.814  -1.553  -0.050  0.00  0.00     0.001 A 
ATOM     16  C   UNL d   1      -3.501  -0.347  -0.090  0.00  0.00     0.002 A 
ENDROOT
BRANCH   3  17
ATOM     17  C   UNL d   1      -1.327   3.403   0.008  0.00  0.00     0.171 C 
BRANCH  17  18
ATOM     18  C   UNL d   1      -2.053   3.716   1.300  0.00  0.00    -0.040 A 
ATOM     19  C   UNL d   1      -1.501   3.395   2.549  0.00  0.00     0.009 A 
ATOM     20  C   UNL d   1      -2.215   3.635   3.722  0.00  0.00     0.001 A 
ATOM     21  C   UNL d   1      -3.477   4.223   3.664  0.00  0.00     0.000 A 
ATOM     22  C   UNL d   1      -4.014   4.595   2.433  0.00  0.00     0.001 A 
ATOM     23  C   UNL d   1      -3.303   4.353   1.258  0.00  0.00     0.009 A 
ENDBRANCH  17  18
ENDBRANCH   3  17
BRANCH   5  24
ATOM     24  O   UNL d   1       3.655   1.882   0.135  0.00  0.00    -0.359 OA
ATOM     25  H   UNL d   1       3.047   2.652   0.208  0.00  0.00     0.217 HD
ENDBRANCH   5  24
TORSDOF 3
