REMARK  5 active torsions:
REMARK  status: ('A' for Active; 'I' for Inactive)
REMARK    1  A    between atoms: N_2  and  C_9 
REMARK    2  A    between atoms: S_12  and  C_3 
REMARK    3  A    between atoms: N_13  and  C_4 
REMARK    4  A    between atoms: C_16  and  S_12 
REMARK    5  A    between atoms: C_17  and  C_16 
ROOT
ATOM      1  S   UNL d   1       3.972   2.000  -1.290  0.00  0.00    -0.099 SA
ENDROOT
BRANCH   1   2
ATOM      2  C   UNL d   1       2.319   2.395  -0.889  0.00  0.00     0.130 A 
ATOM      3  S   UNL d   1       1.539   3.783  -1.523  0.00  0.00    -0.027 SA
ATOM      4  C   UNL d   1       0.127   3.279  -0.687  0.00  0.00     0.159 A 
ATOM      5  N   UNL d   1       0.291   2.183   0.021  0.00  0.00    -0.279 N 
ATOM      6  N   UNL d   1       1.571   1.668  -0.094  0.00  0.00    -0.286 N 
ATOM      7  HN  UNL d   1      -0.442   1.761   0.590  1.00  0.00     0.189 HD
ATOM      8  HN  UNL d   1       1.893   0.825   0.382  1.00  0.00     0.188 HD
BRANCH   4   9
ATOM      9  N   UNL d   1      -1.020   3.975  -0.770  0.00  0.00    -0.379 N 
ATOM     10  H   UNL d   1      -0.987   4.944  -1.065  0.00  0.00     0.158 HD
ATOM     11  H   UNL d   1      -1.741   3.759  -0.091  0.00  0.00     0.158 HD
ENDBRANCH   4   9
ENDBRANCH   1   2
BRANCH   1  12
ATOM     12  C   UNL d   1       4.330   0.669  -0.102  0.00  0.00     0.120 C 
BRANCH  12  13
ATOM     13  C   UNL d   1       5.773   0.201  -0.175  0.00  0.00    -0.048 A 
ATOM     14  C   UNL d   1       6.843   1.115  -0.154  0.00  0.00     0.010 A 
ATOM     15  C   UNL d   1       8.167   0.677  -0.240  0.00  0.00     0.036 A 
ATOM     16  C   UNL d   1       8.436  -0.693  -0.313  0.00  0.00     0.102 A 
ATOM     17  C   UNL d   1       7.390  -1.623  -0.288  0.00  0.00     0.036 A 
ATOM     18  C   UNL d   1       6.066  -1.173  -0.217  0.00  0.00     0.010 A 
BRANCH  16  19
ATOM     19  N   UNL d   1       9.825  -1.156  -0.417  0.00  0.00    -0.116 N 
ATOM     20  O   UNL d   1      10.026  -2.379  -0.434  0.00  0.00    -0.532 OA
ATOM     21  O   UNL d   1      10.716  -0.297  -0.484  0.00  0.00    -0.532 OA
ENDBRANCH  16  19
ENDBRANCH  12  13
ENDBRANCH   1  12
TORSDOF 5
