REMARK  3 active torsions:
REMARK  status: ('A' for Active; 'I' for Inactive)
REMARK    1  A    between atoms: C_7  and  C_1 
REMARK    2  A    between atoms: N_13  and  N_8 
REMARK    3  A    between atoms: C_12  and  N_13 
ROOT
ATOM      1  C   UNL d   1       2.078  -1.612  -0.028  0.00  0.00     0.139 C 
ATOM      2  N   UNL d   1       1.980  -2.890  -0.192  0.00  0.00    -0.308 N 
ATOM      3  HN  UNL d   1       1.078  -3.350  -0.317  1.00  0.00     0.186 HD
ENDROOT
BRANCH   2   4
ATOM      4  N   UNL d   1       3.149  -3.589  -0.189  0.00  0.00    -0.286 N 
ATOM      5  H   UNL d   1       3.865  -3.391   0.509  0.00  0.00     0.188 HD
BRANCH   4   6
ATOM      6  C   UNL d   1       3.045  -4.990  -0.316  0.00  0.00     0.119 A 
ATOM      7  N   UNL d   1       3.979  -5.739   0.308  0.00  0.00    -0.351 N 
ATOM      8  C   UNL d   1       3.873  -7.084   0.194  0.00  0.00     0.089 A 
ATOM      9  HN  UNL d   1       4.733  -5.310   0.844  1.00  0.00     0.166 HD
ATOM     10  C   UNL d   1       2.880  -7.729  -0.525  0.00  0.00     0.017 A 
ATOM     11  C   UNL d   1       1.938  -6.949  -1.177  0.00  0.00     0.005 A 
ATOM     12  C   UNL d   1       2.026  -5.564  -1.077  0.00  0.00     0.050 A 
ENDBRANCH   4   6
ENDBRANCH   2   4
BRANCH   1  13
ATOM     13  C   UNL d   1       0.872  -0.800  -0.011  0.00  0.00     0.083 A 
ATOM     14  N   UNL d   1       0.977   0.540   0.109  0.00  0.00    -0.297 N 
ATOM     15  N   UNL d   1      -0.297   0.978   0.082  0.00  0.00    -0.306 N 
ATOM     16  HN  UNL d   1       1.828   1.095   0.199  1.00  0.00     0.187 HD
ATOM     17  C   UNL d   1      -0.585   2.389   0.177  0.00  0.00     0.177 C 
ATOM     18  C   UNL d   1      -1.218  -0.016  -0.039  0.00  0.00     0.131 A 
ATOM     19  C   UNL d   1      -0.492  -1.176  -0.101  0.00  0.00     0.057 A 
ATOM     20 BR   UNL d   1      -1.222  -2.893  -0.266  0.00  0.00    -0.047 Br
ENDBRANCH   1  13
TORSDOF 3
