REMARK  2 active torsions:
REMARK  status: ('A' for Active; 'I' for Inactive)
REMARK    1  A    between atoms: O_11  and  C_5 
REMARK    2  A    between atoms: C_16  and  O_11 
ROOT
ATOM      1  C   UNL d   1       0.777   0.428  -0.037  0.00  0.00     0.057 A 
ATOM      2  C   UNL d   1       1.309  -0.851  -0.061  0.00  0.00     0.090 A 
ATOM      3  C   UNL d   1      -1.137  -0.906  -0.067  0.00  0.00    -0.008 A 
ATOM      4  C   UNL d   1      -0.661   0.393  -0.083  0.00  0.00    -0.028 A 
ATOM      5  C   UNL d   1       1.716   1.463   0.034  0.00  0.00     0.162 A 
ATOM      6  S   UNL d   1       0.110  -2.062  -0.112  0.00  0.00    -0.075 SA
ATOM      7  N   UNL d   1       2.613  -1.177  -0.034  0.00  0.00    -0.346 N 
ATOM      8  HN  UNL d   1       2.959  -2.135  -0.081  1.00  0.00     0.167 HD
ATOM      9  N   UNL d   1       3.036   1.183   0.115  0.00  0.00    -0.332 N 
ATOM     10  HN  UNL d   1       3.728   1.926   0.214  1.00  0.00     0.168 HD
ATOM     11  C   UNL d   1      -1.581   1.581  -0.069  0.00  0.00     0.041 C 
ATOM     12  C   UNL d   1       3.404  -0.105   0.062  0.00  0.00     0.183 A 
ATOM     13  C   UNL d   1      -2.584  -1.296  -0.025  0.00  0.00     0.051 C 
ATOM     14  C   UNL d   1      -3.043   1.180  -0.321  0.00  0.00     0.009 C 
ATOM     15  C   UNL d   1      -3.454  -0.102   0.434  0.00  0.00    -0.014 C 
ATOM     16  C   UNL d   1      -3.387   0.093   1.954  0.00  0.00     0.010 C 
ENDROOT
BRANCH   5  17
ATOM     17  O   UNL d   1       1.278   2.775   0.132  0.00  0.00    -0.293 OA
BRANCH  17  18
ATOM     18  C   UNL d   1       2.027   3.777  -0.438  0.00  0.00     0.077 A 
ATOM     19  C   UNL d   1       2.856   3.618  -1.549  0.00  0.00     0.037 A 
ATOM     20  C   UNL d   1       3.551   4.713  -2.068  0.00  0.00     0.003 A 
ATOM     21  C   UNL d   1       3.393   5.974  -1.498  0.00  0.00     0.000 A 
ATOM     22  C   UNL d   1       2.535   6.146  -0.412  0.00  0.00     0.003 A 
ATOM     23  C   UNL d   1       1.851   5.050   0.115  0.00  0.00     0.037 A 
ENDBRANCH  17  18
ENDBRANCH   5  17
TORSDOF 2
