REMARK  3 active torsions:
REMARK  status: ('A' for Active; 'I' for Inactive)
REMARK    1  A    between atoms: N_8  and  C_2 
REMARK    2  A    between atoms: C_11  and  C_5 
REMARK    3  A    between atoms: C_7  and  C_12 
ROOT
ATOM      1  C   UNL d   1      -0.377  -1.201  -0.075  0.00  0.00     0.108 A 
ATOM      2  C   UNL d   1       0.985  -0.725   0.022  0.00  0.00     0.132 A 
ATOM      3  N   UNL d   1       1.099   0.596   0.140  0.00  0.00    -0.311 N 
ATOM      4  HN  UNL d   1       1.980   1.102   0.226  1.00  0.00     0.176 HD
ATOM      5  C   UNL d   1      -1.295  -0.163  -0.005  0.00  0.00     0.056 A 
ATOM      6  S   UNL d   1      -0.392   1.292   0.126  0.00  0.00    -0.011 SA
ATOM      7  C   UNL d   1      -0.746  -2.579  -0.160  0.00  0.00     0.104 C 
ATOM      8  N   UNL d   1      -1.046  -3.700  -0.229  0.00  0.00    -0.191 NA
ENDROOT
BRANCH   2   9
ATOM      9  N   UNL d   1       2.051  -1.575   0.118  0.00  0.00    -0.362 N 
ATOM     10  C   UNL d   1       3.273  -1.131   0.812  0.00  0.00     0.150 C 
ATOM     11  C   UNL d   1       3.969  -2.373   1.399  0.00  0.00     0.187 C 
ATOM     12  O   UNL d   1       4.263  -3.350   0.383  0.00  0.00    -0.388 OA
ATOM     13  C   UNL d   1       3.062  -3.753  -0.301  0.00  0.00     0.187 C 
ATOM     14  C   UNL d   1       2.364  -2.545  -0.947  0.00  0.00     0.150 C 
ENDBRANCH   2   9
BRANCH   5  15
ATOM     15  C   UNL d   1      -2.769  -0.146   0.029  0.00  0.00    -0.016 A 
ATOM     16  C   UNL d   1      -3.481  -1.162   0.688  0.00  0.00     0.013 A 
ATOM     17  C   UNL d   1      -4.880  -1.159   0.731  0.00  0.00     0.017 A 
ATOM     18  C   UNL d   1      -5.610  -0.125   0.135  0.00  0.00     0.048 A 
ATOM     19  C   UNL d   1      -4.910   0.897  -0.518  0.00  0.00     0.017 A 
ATOM     20  C   UNL d   1      -3.510   0.881  -0.576  0.00  0.00     0.013 A 
BRANCH  18  21
ATOM     21  C   UNL d   1      -7.117  -0.127   0.209  0.00  0.00     0.417 C 
ATOM     22  F   UNL d   1      -7.692   0.966  -0.365  0.00  0.00    -0.166 F 
ATOM     23  F   UNL d   1      -7.667  -1.207  -0.411  0.00  0.00    -0.166 F 
ATOM     24  F   UNL d   1      -7.574  -0.158   1.491  0.00  0.00    -0.166 F 
ENDBRANCH  18  21
ENDBRANCH   5  15
TORSDOF 3
