REMARK  4 active torsions:
REMARK  status: ('A' for Active; 'I' for Inactive)
REMARK    1  A    between atoms: C_18  and  C_6 
REMARK    2  A    between atoms: C_13  and  C_7 
REMARK    3  A    between atoms: C_14  and  S_17 
REMARK    4  A    between atoms: S_17  and  C_18 
ROOT
ATOM      1  C   UNL d   1       0.521  -1.029   0.029  0.00  0.00     0.189 A 
ATOM      2  N   UNL d   1       0.752  -0.096   0.929  0.00  0.00    -0.322 N 
ATOM      3  HN  UNL d   1       1.300  -0.165   1.787  1.00  0.00     0.169 HD
ATOM      4  C   UNL d   1       1.116  -2.333   0.098  0.00  0.00     0.058 A 
ATOM      5  S   UNL d   1       0.840  -3.544  -1.071  0.00  0.00    -0.090 SA
ATOM      6  C   UNL d   1       0.078   0.993   0.433  0.00  0.00     0.113 A 
ATOM      7  C   UNL d   1       1.906  -4.664  -0.300  0.00  0.00    -0.009 A 
ATOM      8  N   UNL d   1      -0.609   0.750  -0.691  0.00  0.00    -0.246 N 
ATOM      9  HN  UNL d   1      -1.205   1.388  -1.218  1.00  0.00     0.196 HD
ATOM     10  O   UNL d   1      -0.312  -0.589  -0.967  0.00  0.00    -0.217 OA
ATOM     11  C   UNL d   1       1.986  -2.772   1.075  0.00  0.00     0.024 A 
ATOM     12  C   UNL d   1       2.437  -4.101   0.848  0.00  0.00     0.017 A 
ENDROOT
BRANCH   6  13
ATOM     13  C   UNL d   1       0.077   2.326   1.102  0.00  0.00     0.159 C 
BRANCH  13  14
ATOM     14  S   UNL d   1       1.685   2.695   1.896  0.00  0.00    -0.105 SA
BRANCH  14  15
ATOM     15  C   UNL d   1       1.336   4.295   2.591  0.00  0.00     0.069 A 
ATOM     16  N   UNL d   1       0.122   4.843   2.365  0.00  0.00    -0.361 N 
ATOM     17  C   UNL d   1      -0.110   6.067   2.887  0.00  0.00     0.089 A 
ATOM     18  HN  UNL d   1      -0.589   4.353   1.822  1.00  0.00     0.165 HD
ATOM     19  C   UNL d   1       0.816   6.778   3.631  0.00  0.00     0.017 A 
ATOM     20  C   UNL d   1       2.057   6.198   3.856  0.00  0.00     0.004 A 
ATOM     21  C   UNL d   1       2.324   4.935   3.331  0.00  0.00     0.037 A 
ENDBRANCH  14  15
ENDBRANCH  13  14
ENDBRANCH   6  13
BRANCH   7  22
ATOM     22  C   UNL d   1       2.161  -6.056  -0.894  0.00  0.00    -0.018 C 
ATOM     23  C   UNL d   1       2.792  -5.937  -2.296  0.00  0.00     0.020 C 
ATOM     24  C   UNL d   1       3.141  -6.862  -0.010  0.00  0.00     0.020 C 
ATOM     25  C   UNL d   1       0.850  -6.860  -0.984  0.00  0.00     0.020 C 
ENDBRANCH   7  22
TORSDOF 4
