REMARK  4 active torsions:
REMARK  status: ('A' for Active; 'I' for Inactive)
REMARK    1  A    between atoms: C_7  and  N_1 
REMARK    2  A    between atoms: S_6  and  C_3 
REMARK    3  A    between atoms: C_14  and  S_6 
REMARK    4  A    between atoms: C_10  and  C_11 
ROOT
ATOM      1  N   UNL d   1       5.235  -3.983  -1.086  0.00  0.00    -0.244 N 
ATOM      2  C   UNL d   1       4.769  -3.581  -2.310  0.00  0.00     0.256 A 
ATOM      3  C   UNL d   1       3.103  -3.192  -0.845  0.00  0.00     0.079 A 
ATOM      4  C   UNL d   1       4.260  -3.777  -0.138  0.00  0.00     0.272 A 
ATOM      5  C   UNL d   1       3.404  -3.078  -2.133  0.00  0.00     0.099 A 
ATOM      6  O   UNL d   1       5.286  -3.606  -3.414  0.00  0.00    -0.268 OA
ATOM      7  O   UNL d   1       4.283  -3.962   1.070  0.00  0.00    -0.266 OA
ENDROOT
BRANCH   3   8
ATOM      8  S   UNL d   1       1.704  -2.634  -0.050  0.00  0.00    -0.085 SA
BRANCH   8   9
ATOM      9  C   UNL d   1       0.739  -4.129  -0.047  0.00  0.00     0.005 A 
ATOM     10  C   UNL d   1       0.807  -5.032   1.015  0.00  0.00     0.019 A 
ATOM     11  C   UNL d   1      -0.010  -6.171   1.029  0.00  0.00     0.009 A 
ATOM     12  C   UNL d   1      -0.917  -6.442  -0.015  0.00  0.00    -0.051 A 
ATOM     13  C   UNL d   1      -0.966  -5.518  -1.071  0.00  0.00     0.009 A 
ATOM     14  C   UNL d   1      -0.153  -4.377  -1.086  0.00  0.00     0.019 A 
BRANCH  12  15
ATOM     15  C   UNL d   1      -1.805  -7.700   0.021  0.00  0.00    -0.024 C 
ATOM     16  C   UNL d   1      -2.745  -7.822  -1.201  0.00  0.00     0.019 C 
ATOM     17  C   UNL d   1      -0.918  -8.963   0.046  0.00  0.00     0.019 C 
ATOM     18  C   UNL d   1      -2.700  -7.697   1.280  0.00  0.00     0.019 C 
ENDBRANCH  12  15
ENDBRANCH   8   9
ENDBRANCH   3   8
BRANCH   1  19
ATOM     19  C   UNL d   1       6.536  -4.502  -0.825  0.00  0.00     0.046 A 
ATOM     20  C   UNL d   1       7.595  -4.312  -1.726  0.00  0.00     0.031 A 
ATOM     21  C   UNL d   1       8.879  -4.806  -1.458  0.00  0.00     0.009 A 
ATOM     22  C   UNL d   1       9.135  -5.524  -0.289  0.00  0.00    -0.062 A 
ATOM     23  C   UNL d   1       8.091  -5.726   0.613  0.00  0.00     0.009 A 
ATOM     24  C   UNL d   1      10.513  -6.043  -0.006  0.00  0.00     0.048 C 
ATOM     25  C   UNL d   1       6.813  -5.217   0.350  0.00  0.00     0.031 A 
ENDBRANCH   1  19
TORSDOF 4
