REMARK  5 active torsions:
REMARK  status: ('A' for Active; 'I' for Inactive)
REMARK    1  A    between atoms: C_4  and  C_1 
REMARK    2  A    between atoms: O_10  and  C_2 
REMARK    3  A    between atoms: O_7  and  C_4 
REMARK    4  A    between atoms: C_9  and  O_7 
REMARK    5  A    between atoms: C_8  and  O_10 
ROOT
ATOM      1  C   UNL d   1      -0.011   1.178  -0.208  0.00  0.00     0.153 A 
ATOM      2  C   UNL d   1      -0.060  -1.019  -0.053  0.00  0.00     0.191 A 
ATOM      3  O   UNL d   1      -0.850   0.095  -0.090  0.00  0.00    -0.281 OA
ATOM      4  C   UNL d   1       1.299   0.738  -0.272  0.00  0.00     0.048 A 
ATOM      5  C   UNL d   1       1.264  -0.670  -0.223  0.00  0.00     0.067 A 
ENDROOT
BRANCH   1   6
ATOM      6  C   UNL d   1      -0.504   2.534  -0.249  0.00  0.00     0.322 C 
ATOM      7  O   UNL d   1       0.233   3.517  -0.229  0.00  0.00    -0.257 OA
BRANCH   6   8
ATOM      8  O   UNL d   1      -1.895   2.563  -0.363  0.00  0.00    -0.273 OA
BRANCH   8   9
ATOM      9  C   UNL d   1      -2.664   3.732  -0.606  0.00  0.00     0.080 A 
ATOM     10  C   UNL d   1      -3.986   3.492  -0.989  0.00  0.00     0.044 A 
ATOM     11  C   UNL d   1      -4.838   4.559  -1.297  0.00  0.00    -0.059 A 
ATOM     12  C   UNL d   1      -6.251   4.317  -1.735  0.00  0.00     0.048 C 
ATOM     13  C   UNL d   1      -4.352   5.870  -1.200  0.00  0.00     0.013 A 
ATOM     14  C   UNL d   1      -3.034   6.120  -0.795  0.00  0.00    -0.059 A 
ATOM     15  C   UNL d   1      -2.191   5.040  -0.497  0.00  0.00     0.044 A 
ATOM     16  C   UNL d   1      -2.546   7.535  -0.684  0.00  0.00     0.048 C 
ENDBRANCH   8   9
ENDBRANCH   6   8
ENDBRANCH   1   6
BRANCH   2  17
ATOM     17  O   UNL d   1      -0.714  -2.164   0.156  0.00  0.00    -0.288 OA
BRANCH  17  18
ATOM     18  C   UNL d   1      -0.049  -3.233   0.720  0.00  0.00     0.081 A 
ATOM     19  C   UNL d   1       0.843  -3.073   1.787  0.00  0.00     0.061 A 
ATOM     20  C   UNL d   1       1.521  -4.176   2.299  0.00  0.00     0.038 A 
ATOM     21 CL   UNL d   1       2.673  -3.953   3.557  0.00  0.00    -0.084 Cl
ATOM     22  C   UNL d   1       1.283  -5.450   1.793  0.00  0.00     0.048 A 
ATOM     23  C   UNL d   1       0.352  -5.611   0.767  0.00  0.00     0.038 A 
ATOM     24  C   UNL d   1      -0.317  -4.510   0.226  0.00  0.00     0.061 A 
ATOM     25 CL   UNL d   1       0.032  -7.189   0.160  0.00  0.00    -0.084 Cl
ENDBRANCH  17  18
ENDBRANCH   2  17
TORSDOF 5
