REMARK  5 active torsions:
REMARK  status: ('A' for Active; 'I' for Inactive)
REMARK    1  A    between atoms: C_2  and  C_13 
REMARK       I    between atoms: N_6  and  C_2 
REMARK       I    between atoms: C_4  and  N_7 
REMARK    2  A    between atoms: O_8  and  C_5 
REMARK    3  A    between atoms: C_14  and  N_6 
REMARK    4  A    between atoms: N_7  and  C_15 
REMARK    5  A    between atoms: C_13  and  O_8 
ROOT
ATOM      1  C   UNL d   1      -4.778  -2.447  -0.023  0.00  0.00     0.246 C 
ATOM      2  N   UNL d   1      -4.479  -3.795  -0.177  0.00  0.00    -0.325 N 
ATOM      3  O   UNL d   1      -3.971  -1.556   0.244  0.00  0.00    -0.271 OA
ATOM      4  H   UNL d   1      -5.196  -4.371  -0.602  0.00  0.00     0.169 HD
ENDROOT
BRANCH   2   5
ATOM      5  C   UNL d   1      -3.227  -4.407   0.046  0.00  0.00     0.034 A 
ATOM      6  C   UNL d   1      -2.166  -3.777   0.696  0.00  0.00     0.032 A 
ATOM      7  C   UNL d   1      -0.927  -4.417   0.825  0.00  0.00     0.032 A 
ATOM      8  C   UNL d   1      -0.724  -5.697   0.302  0.00  0.00     0.034 A 
ATOM      9  C   UNL d   1      -1.803  -6.355  -0.285  0.00  0.00     0.032 A 
ATOM     10  C   UNL d   1      -3.048  -5.718  -0.404  0.00  0.00     0.032 A 
BRANCH   8  11
ATOM     11  N   UNL d   1       0.585  -6.219   0.376  0.00  0.00    -0.328 N 
ATOM     12  C   UNL d   1       1.050  -7.398  -0.175  0.00  0.00     0.218 C 
ATOM     13  O   UNL d   1       0.388  -8.246  -0.761  0.00  0.00    -0.274 OA
ATOM     14  C   UNL d   1       2.544  -7.569  -0.029  0.00  0.00     0.117 C 
ATOM     15  H   UNL d   1       1.269  -5.619   0.818  0.00  0.00     0.169 HD
ENDBRANCH   8  11
ENDBRANCH   2   5
BRANCH   1  16
ATOM     16  C   UNL d   1      -6.263  -2.128  -0.192  0.00  0.00     0.278 C 
BRANCH  16  17
ATOM     17  O   UNL d   1      -6.617  -2.055  -1.560  0.00  0.00    -0.340 OA
BRANCH  17  18
ATOM     18  C   UNL d   1      -7.848  -1.572  -1.923  0.00  0.00     0.091 A 
ATOM     19  C   UNL d   1      -8.981  -1.274  -1.144  0.00  0.00     0.069 A 
ATOM     20  C   UNL d   1     -10.160  -0.817  -1.758  0.00  0.00     0.050 A 
ATOM     21 CL   UNL d   1      -9.094  -1.450   0.573  0.00  0.00    -0.081 Cl
ATOM     22  C   UNL d   1     -10.224  -0.659  -3.138  0.00  0.00     0.035 A 
ATOM     23 CL   UNL d   1     -11.685  -0.124  -3.870  0.00  0.00    -0.084 Cl
ATOM     24  C   UNL d   1      -9.117  -0.942  -3.923  0.00  0.00     0.026 A 
ATOM     25  C   UNL d   1      -7.940  -1.392  -3.316  0.00  0.00     0.040 A 
ENDBRANCH  17  18
ENDBRANCH  16  17
ENDBRANCH   1  16
TORSDOF 5
