REMARK  3 active torsions:
REMARK  status: ('A' for Active; 'I' for Inactive)
REMARK    1  A    between atoms: C_9  and  C_1 
REMARK    2  A    between atoms: C_2  and  N_3 
REMARK    3  A    between atoms: O_19  and  C_8 
ROOT
ATOM      1  N   UNL d   1       0.688   4.308   0.121  0.00  0.00    -0.350 N 
ATOM      2  HN  UNL d   1       1.639   3.994   0.313  1.00  0.00     0.166 HD
ATOM      3  C   UNL d   1      -0.274   3.462  -0.070  0.00  0.00     0.104 C 
ENDROOT
BRANCH   1   4
ATOM      4  C   UNL d   1       0.371   5.678   0.054  0.00  0.00     0.127 A 
ATOM      5  N   UNL d   1      -0.656   6.021  -0.763  0.00  0.00    -0.349 N 
ATOM      6  C   UNL d   1      -0.974   7.335  -0.850  0.00  0.00     0.113 A 
ATOM      7  HN  UNL d   1      -1.170   5.316  -1.293  1.00  0.00     0.167 HD
ATOM      8  C   UNL d   1      -0.305   8.335  -0.164  0.00  0.00     0.051 A 
ATOM      9  C   UNL d   1       0.756   7.981   0.659  0.00  0.00     0.053 A 
ATOM     10 CL   UNL d   1      -0.780   9.976  -0.324  0.00  0.00    -0.083 Cl
ATOM     11  C   UNL d   1       1.105   6.634   0.768  0.00  0.00     0.079 A 
ATOM     12 CL   UNL d   1       2.428   6.203   1.790  0.00  0.00    -0.080 Cl
ENDBRANCH   1   4
BRANCH   3  13
ATOM     13  C   UNL d   1      -0.049   2.001  -0.040  0.00  0.00     0.016 A 
ATOM     14  C   UNL d   1      -1.116   1.126  -0.270  0.00  0.00     0.099 A 
ATOM     15  C   UNL d   1      -0.897  -0.256  -0.242  0.00  0.00     0.069 A 
ATOM     16 CL   UNL d   1      -2.203  -1.348  -0.526  0.00  0.00    -0.081 Cl
ATOM     17  C   UNL d   1       0.373  -0.767   0.014  0.00  0.00     0.050 A 
ATOM     18  C   UNL d   1       1.430   0.113   0.242  0.00  0.00     0.036 A 
ATOM     19  C   UNL d   1       1.229   1.493   0.217  0.00  0.00     0.039 A 
ATOM     20 CL   UNL d   1       3.000  -0.516   0.560  0.00  0.00    -0.084 Cl
BRANCH  14  21
ATOM     21  O   UNL d   1      -2.367   1.626  -0.520  0.00  0.00    -0.358 OA
ATOM     22  H   UNL d   1      -2.970   0.872  -0.667  0.00  0.00     0.217 HD
ENDBRANCH  14  21
ENDBRANCH   3  13
TORSDOF 3
