REMARK  2 active torsions:
REMARK  status: ('A' for Active; 'I' for Inactive)
REMARK    1  A    between atoms: C_7  and  C_3 
REMARK    2  A    between atoms: C_8  and  C_7 
ROOT
ATOM      1  C   UNL d   1       1.922   0.075  -0.213  0.00  0.00     0.231 A 
ATOM      2  N   UNL d   1       1.013   1.121  -0.139  0.00  0.00    -0.326 N 
ATOM      3  C   UNL d   1       1.128  -1.248  -0.115  0.00  0.00     0.117 A 
ATOM      4  C   UNL d   1      -0.288   0.658  -0.065  0.00  0.00     0.042 A 
ATOM      5  C   UNL d   1      -0.297  -0.735  -0.068  0.00  0.00    -0.018 A 
ATOM      6  O   UNL d   1       3.126   0.215  -0.354  0.00  0.00    -0.272 OA
ATOM      7  C   UNL d   1      -1.496  -1.425  -0.025  0.00  0.00     0.010 A 
ATOM      8  C   UNL d   1      -1.439   1.414  -0.005  0.00  0.00     0.030 A 
ATOM      9  C   UNL d   1      -2.680  -0.681   0.033  0.00  0.00     0.001 A 
ATOM     10  C   UNL d   1      -2.652   0.726   0.046  0.00  0.00     0.002 A 
ATOM     11  H   UNL d   1       1.296   2.088  -0.189  0.00  0.00     0.169 HD
ENDROOT
BRANCH   3  12
ATOM     12  C   UNL d   1       1.470  -2.044   1.148  0.00  0.00     0.057 C 
BRANCH  12  13
ATOM     13  C   UNL d   1       2.908  -2.493   1.262  0.00  0.00    -0.057 A 
ATOM     14  C   UNL d   1       3.693  -2.052   2.337  0.00  0.00     0.007 A 
ATOM     15  C   UNL d   1       5.025  -2.452   2.457  0.00  0.00     0.001 A 
ATOM     16  C   UNL d   1       5.586  -3.299   1.506  0.00  0.00     0.000 A 
ATOM     17  C   UNL d   1       4.814  -3.752   0.437  0.00  0.00     0.001 A 
ATOM     18  C   UNL d   1       3.479  -3.354   0.317  0.00  0.00     0.007 A 
ENDBRANCH  12  13
ENDBRANCH   3  12
TORSDOF 2
