REMARK  6 active torsions:
REMARK  status: ('A' for Active; 'I' for Inactive)
REMARK    1  A    between atoms: N_2  and  S_1 
REMARK    2  A    between atoms: C_6  and  S_1 
REMARK    3  A    between atoms: C_3  and  N_2 
REMARK    4  A    between atoms: O_12  and  C_10 
REMARK    5  A    between atoms: C_17  and  O_12 
REMARK    6  A    between atoms: C_15  and  C_17 
ROOT
ATOM      1  C   UNL d   1       1.137  -0.457  -2.823  0.00  0.00     0.128 A 
ATOM      2  N   UNL d   1       0.076  -0.206  -3.617  0.00  0.00    -0.354 N 
ATOM      3  HN  UNL d   1      -0.862  -0.530  -3.380  1.00  0.00     0.166 HD
ATOM      4  C   UNL d   1       2.454  -0.058  -3.079  0.00  0.00     0.108 A 
ATOM      5  C   UNL d   1       0.321   0.497  -4.739  0.00  0.00     0.089 A 
ATOM      6  C   UNL d   1       2.663   0.634  -4.272  0.00  0.00     0.041 A 
ATOM      7  C   UNL d   1       1.584   0.925  -5.109  0.00  0.00     0.020 A 
ENDROOT
BRANCH   1   8
ATOM      8  N   UNL d   1       0.728  -1.138  -1.645  0.00  0.00    -0.164 NA
ATOM      9  H   UNL d   1      -0.148  -1.594  -1.910  0.00  0.00     0.147 HD
BRANCH   8  10
ATOM     10  S   UNL d   1       0.314  -0.052  -0.409  0.00  0.00     0.247 S 
ATOM     11  O   UNL d   1      -1.068   0.319  -0.605  0.00  0.00    -0.205 OA
ATOM     12  O   UNL d   1       1.358   0.941  -0.232  0.00  0.00    -0.205 OA
BRANCH  10  13
ATOM     13  C   UNL d   1       0.381  -1.118   1.011  0.00  0.00     0.074 A 
ATOM     14  C   UNL d   1       1.588  -1.744   1.331  0.00  0.00     0.025 A 
ATOM     15  C   UNL d   1       1.660  -2.550   2.467  0.00  0.00     0.002 A 
ATOM     16  C   UNL d   1       0.533  -2.723   3.274  0.00  0.00     0.000 A 
ATOM     17  C   UNL d   1      -0.675  -2.106   2.942  0.00  0.00     0.002 A 
ATOM     18  C   UNL d   1      -0.757  -1.302   1.805  0.00  0.00     0.025 A 
ENDBRANCH  10  13
ENDBRANCH   8  10
ENDBRANCH   1   8
BRANCH   4  19
ATOM     19  O   UNL d   1       3.445  -0.437  -2.212  0.00  0.00    -0.343 OA
BRANCH  19  20
ATOM     20  C   UNL d   1       4.612   0.390  -2.181  0.00  0.00     0.214 C 
BRANCH  20  21
ATOM     21  C   UNL d   1       5.605  -0.204  -1.205  0.00  0.00    -0.032 A 
ATOM     22  C   UNL d   1       6.588  -1.106  -1.647  0.00  0.00     0.035 A 
ATOM     23  C   UNL d   1       7.466  -1.712  -0.739  0.00  0.00     0.056 A 
ATOM     24 CL   UNL d   1       8.639  -2.816  -1.367  0.00  0.00    -0.083 Cl
ATOM     25  C   UNL d   1       7.367  -1.420   0.624  0.00  0.00     0.055 A 
ATOM     26  C   UNL d   1       6.415  -0.497   1.067  0.00  0.00     0.026 A 
ATOM     27 CL   UNL d   1       8.367  -2.180   1.811  0.00  0.00    -0.083 Cl
ATOM     28  C   UNL d   1       5.538   0.105   0.159  0.00  0.00     0.011 A 
ENDBRANCH  20  21
ENDBRANCH  19  20
ENDBRANCH   4  19
TORSDOF 6
