REMARK  3 active torsions:
REMARK  status: ('A' for Active; 'I' for Inactive)
REMARK    1  A    between atoms: N_2  and  S_1 
REMARK    2  A    between atoms: C_6  and  S_1 
REMARK    3  A    between atoms: C_3  and  N_2 
ROOT
ATOM      1  N   UNL d   1       0.665   0.093   1.659  0.00  0.00    -0.180 NA
ATOM      2  H   UNL d   1      -0.254   0.507   1.811  0.00  0.00     0.146 HD
ENDROOT
BRANCH   1   3
ATOM      3  S   UNL d   1       0.957  -0.074  -0.017  0.00  0.00     0.245 S 
ATOM      4  O   UNL d   1      -0.063  -0.940  -0.571  0.00  0.00    -0.206 OA
ATOM      5  O   UNL d   1       2.364  -0.331  -0.237  0.00  0.00    -0.206 OA
BRANCH   3   6
ATOM      6  C   UNL d   1       0.612   1.574  -0.605  0.00  0.00     0.074 A 
ATOM      7  C   UNL d   1       1.655   2.496  -0.723  0.00  0.00     0.025 A 
ATOM      8  C   UNL d   1       1.415   3.740  -1.312  0.00  0.00     0.008 A 
ATOM      9  C   UNL d   1       0.138   4.070  -1.791  0.00  0.00    -0.062 A 
ATOM     10  C   UNL d   1      -0.904   3.143  -1.651  0.00  0.00     0.008 A 
ATOM     11  C   UNL d   1      -0.082   5.382  -2.486  0.00  0.00     0.048 C 
ATOM     12  C   UNL d   1      -0.670   1.895  -1.064  0.00  0.00     0.025 A 
ENDBRANCH   3   6
ENDBRANCH   1   3
BRANCH   1  13
ATOM     13  C   UNL d   1       0.868  -1.111   2.427  0.00  0.00     0.034 A 
ATOM     14  C   UNL d   1       2.155  -1.408   2.925  0.00  0.00    -0.038 A 
ATOM     15  C   UNL d   1       2.363  -2.609   3.630  0.00  0.00     0.026 A 
ATOM     16  C   UNL d   1       3.343  -0.500   2.754  0.00  0.00     0.050 C 
ATOM     17  C   UNL d   1       1.311  -3.491   3.848  0.00  0.00     0.007 A 
ATOM     18  C   UNL d   1       0.040  -3.196   3.364  0.00  0.00     0.026 A 
ATOM     19  I   UNL d   1       1.632  -5.248   4.911  0.00  0.00    -0.045 I 
ATOM     20  C   UNL d   1      -0.195  -2.014   2.637  0.00  0.00    -0.038 A 
ATOM     21  C   UNL d   1      -1.611  -1.762   2.191  0.00  0.00     0.050 C 
ENDBRANCH   1  13
TORSDOF 3
