REMARK  4 active torsions:
REMARK  status: ('A' for Active; 'I' for Inactive)
REMARK    1  A    between atoms: C_9  and  N_2 
REMARK    2  A    between atoms: C_11  and  C_4 
REMARK    3  A    between atoms: O_7  and  C_11 
REMARK    4  A    between atoms: C_8  and  O_7 
ROOT
ATOM      1  C   UNL d   1      -0.595  -0.017   0.075  0.00  0.00     0.363 C 
ATOM      2  N   UNL d   1       0.177  -1.135  -0.120  0.00  0.00    -0.322 N 
ATOM      3  O   UNL d   1       0.217   1.072   0.269  0.00  0.00    -0.295 OA
ATOM      4  C   UNL d   1       1.573   0.684  -0.016  0.00  0.00     0.176 C 
ATOM      5  C   UNL d   1       1.560  -0.828   0.117  0.00  0.00     0.163 C 
ATOM      6  O   UNL d   1      -1.813   0.042   0.086  0.00  0.00    -0.238 OA
ENDROOT
BRANCH   4   7
ATOM      7  C   UNL d   1       1.949   1.139  -1.428  0.00  0.00     0.210 C 
BRANCH   7   8
ATOM      8  O   UNL d   1       3.294   0.743  -1.708  0.00  0.00    -0.347 OA
BRANCH   8   9
ATOM      9  C   UNL d   1       3.753   0.988  -2.978  0.00  0.00     0.090 A 
ATOM     10  C   UNL d   1       5.130   1.212  -3.142  0.00  0.00     0.067 A 
ATOM     11 CL   UNL d   1       6.206   1.236  -1.789  0.00  0.00    -0.081 Cl
ATOM     12  C   UNL d   1       5.670   1.432  -4.414  0.00  0.00     0.026 A 
ATOM     13  C   UNL d   1       4.843   1.413  -5.536  0.00  0.00     0.002 A 
ATOM     14  C   UNL d   1       3.481   1.170  -5.386  0.00  0.00     0.003 A 
ATOM     15  C   UNL d   1       2.939   0.954  -4.115  0.00  0.00     0.038 A 
ENDBRANCH   8   9
ENDBRANCH   7   8
ENDBRANCH   4   7
BRANCH   2  16
ATOM     16  C   UNL d   1      -0.348  -2.491  -0.258  0.00  0.00     0.081 C 
ATOM     17  C   UNL d   1       0.071  -3.102  -1.594  0.00  0.00     0.032 C 
ATOM     18  C   UNL d   1       0.061  -3.387   0.909  0.00  0.00     0.032 C 
ENDBRANCH   2  16
TORSDOF 4
