REMARK  4 active torsions:
REMARK  status: ('A' for Active; 'I' for Inactive)
REMARK    1  A    between atoms: N_2  and  S_1 
REMARK    2  A    between atoms: C_11  and  S_1 
REMARK    3  A    between atoms: S_4  and  C_3 
REMARK    4  A    between atoms: C_6  and  C_5 
ROOT
ATOM      1  C   UNL d   1      -0.332   0.099  -2.200  0.00  0.00     0.141 C 
ATOM      2  C   UNL d   1      -0.778   1.276  -2.679  0.00  0.00     0.065 C 
ATOM      3  C   UNL d   1      -0.557  -1.171  -2.778  0.00  0.00     0.111 C 
ATOM      4  N   UNL d   1      -0.776  -2.207  -3.253  0.00  0.00    -0.191 NA
ENDROOT
BRANCH   1   5
ATOM      5  S   UNL d   1       0.576   0.118  -0.709  0.00  0.00     0.181 S 
ATOM      6  O   UNL d   1       1.514  -0.988  -0.693  0.00  0.00    -0.222 OA
ATOM      7  O   UNL d   1       1.055   1.462  -0.428  0.00  0.00    -0.222 OA
ATOM      8  C   UNL d   1      -0.677  -0.240   0.497  0.00  0.00     0.168 C 
ENDBRANCH   1   5
BRANCH   2   9
ATOM      9  C   UNL d   1      -1.494   1.467  -3.901  0.00  0.00     0.052 C 
ATOM     10  N   UNL d   1      -2.360   2.554  -4.076  0.00  0.00    -0.247 N 
ATOM     11  C   UNL d   1      -2.559   2.756  -5.419  0.00  0.00     0.110 C 
ATOM     12  C   UNL d   1      -2.142   1.617  -6.073  0.00  0.00     0.021 C 
ATOM     13  C   UNL d   1      -1.479   0.803  -5.120  0.00  0.00     0.032 C 
BRANCH  10  14
ATOM     14  S   UNL d   1      -2.755   3.663  -2.837  0.00  0.00     0.269 S 
ATOM     15  O   UNL d   1      -1.599   4.544  -2.794  0.00  0.00    -0.200 OA
ATOM     16  O   UNL d   1      -3.107   2.821  -1.706  0.00  0.00    -0.200 OA
BRANCH  14  17
ATOM     17  C   UNL d   1      -4.169   4.675  -3.164  0.00  0.00     0.080 A 
ATOM     18  C   UNL d   1      -5.047   4.523  -4.235  0.00  0.00     0.025 A 
ATOM     19  C   UNL d   1      -6.085   5.448  -4.408  0.00  0.00     0.002 A 
ATOM     20  C   UNL d   1      -6.278   6.483  -3.491  0.00  0.00     0.000 A 
ATOM     21  C   UNL d   1      -5.438   6.600  -2.389  0.00  0.00     0.002 A 
ATOM     22  C   UNL d   1      -4.383   5.704  -2.230  0.00  0.00     0.025 A 
ENDBRANCH  14  17
ENDBRANCH  10  14
ENDBRANCH   2   9
TORSDOF 4
