REMARK  4 active torsions:
REMARK  status: ('A' for Active; 'I' for Inactive)
REMARK    1  A    between atoms: C_8  and  N_1 
REMARK    2  A    between atoms: C_11  and  C_8 
REMARK    3  A    between atoms: C_13  and  C_11 
REMARK    4  A    between atoms: O_12  and  C_13 
ROOT
ATOM      1  N   UNL d   1       1.886   0.011  -0.102  0.00  0.00    -0.280 N 
ATOM      2  C   UNL d   1       1.129  -1.126  -0.001  0.00  0.00     0.261 A 
ATOM      3  C   UNL d   1       1.109   1.138  -0.100  0.00  0.00     0.261 A 
ATOM      4  C   UNL d   1      -0.267  -0.697   0.009  0.00  0.00     0.048 A 
ATOM      5  C   UNL d   1      -0.280   0.685  -0.034  0.00  0.00     0.048 A 
ATOM      6  O   UNL d   1       1.445   2.305  -0.149  0.00  0.00    -0.267 OA
ATOM      7  O   UNL d   1       1.484  -2.287   0.073  0.00  0.00    -0.267 OA
ATOM      8  C   UNL d   1      -1.459   1.405  -0.026  0.00  0.00     0.018 A 
ATOM      9  C   UNL d   1      -1.430  -1.440   0.046  0.00  0.00     0.018 A 
ATOM     10  C   UNL d   1      -2.652   0.675   0.014  0.00  0.00     0.001 A 
ATOM     11  C   UNL d   1      -2.637  -0.735   0.045  0.00  0.00     0.001 A 
ENDROOT
BRANCH   1  12
ATOM     12  C   UNL d   1       3.337   0.024  -0.137  0.00  0.00     0.137 C 
BRANCH  12  13
ATOM     13  C   UNL d   1       3.924  -0.660  -1.370  0.00  0.00     0.046 C 
BRANCH  13  14
ATOM     14  C   UNL d   1       3.502  -0.004  -2.676  0.00  0.00     0.165 C 
BRANCH  14  15
ATOM     15  O   UNL d   1       4.128  -0.692  -3.752  0.00  0.00    -0.401 OA
ATOM     16  H   UNL d   1       3.800  -0.295  -4.577  0.00  0.00     0.209 HD
ENDBRANCH  14  15
ENDBRANCH  13  14
ENDBRANCH  12  13
ENDBRANCH   1  12
TORSDOF 4
