REMARK  5 active torsions:
REMARK  status: ('A' for Active; 'I' for Inactive)
REMARK    1  A    between atoms: N_12  and  C_3 
REMARK    2  A    between atoms: S_14  and  C_9 
REMARK    3  A    between atoms: C_16  and  N_12 
REMARK    4  A    between atoms: C_20  and  S_14 
REMARK    5  A    between atoms: C_19  and  C_16 
ROOT
ATOM      1  C   UNL d   1       1.328  -0.809  -0.064  0.00  0.00     0.090 A 
ATOM      2  C   UNL d   1       0.778   0.460  -0.108  0.00  0.00     0.043 A 
ATOM      3  C   UNL d   1       1.691   1.530  -0.158  0.00  0.00     0.096 A 
ATOM      4  N   UNL d   1       2.632  -1.107  -0.049  0.00  0.00    -0.330 N 
ATOM      5  HN  UNL d   1       2.991  -2.061  -0.009  1.00  0.00     0.168 HD
ATOM      6  N   UNL d   1       3.020   1.258  -0.165  0.00  0.00    -0.327 N 
ATOM      7  HN  UNL d   1       3.705   2.012  -0.225  1.00  0.00     0.169 HD
ATOM      8  C   UNL d   1      -1.115  -0.915  -0.025  0.00  0.00    -0.008 A 
ATOM      9  C   UNL d   1       3.418  -0.029  -0.092  0.00  0.00     0.146 A 
ATOM     10  C   UNL d   1      -0.665   0.390  -0.101  0.00  0.00    -0.029 A 
ATOM     11  S   UNL d   1       0.155  -2.043  -0.008  0.00  0.00    -0.075 SA
ATOM     12  C   UNL d   1      -1.611   1.558  -0.122  0.00  0.00     0.041 C 
ATOM     13  C   UNL d   1      -2.553  -1.333   0.019  0.00  0.00     0.051 C 
ATOM     14  C   UNL d   1      -3.069   1.123  -0.338  0.00  0.00     0.009 C 
ATOM     15  C   UNL d   1      -3.450  -0.150   0.447  0.00  0.00    -0.014 C 
ATOM     16  C   UNL d   1      -3.391   0.079   1.962  0.00  0.00     0.010 C 
ENDROOT
BRANCH   3  17
ATOM     17  N   UNL d   1       1.214   2.838  -0.153  0.00  0.00    -0.274 NA
ATOM     18  H   UNL d   1       0.904   3.066   0.788  0.00  0.00     0.129 HD
BRANCH  17  19
ATOM     19  C   UNL d   1       2.062   3.876  -0.703  0.00  0.00     0.132 C 
BRANCH  19  20
ATOM     20  C   UNL d   1       1.341   5.196  -0.528  0.00  0.00    -0.045 A 
ATOM     21  C   UNL d   1       1.583   5.993   0.600  0.00  0.00     0.008 A 
ATOM     22  C   UNL d   1       0.885   7.188   0.792  0.00  0.00     0.001 A 
ATOM     23  C   UNL d   1      -0.070   7.596  -0.135  0.00  0.00     0.000 A 
ATOM     24  C   UNL d   1      -0.336   6.809  -1.254  0.00  0.00     0.001 A 
ATOM     25  C   UNL d   1       0.360   5.612  -1.447  0.00  0.00     0.008 A 
ENDBRANCH  19  20
ENDBRANCH  17  19
ENDBRANCH   3  17
BRANCH   9  26
ATOM     26  S   UNL d   1       5.157  -0.401  -0.060  0.00  0.00    -0.090 SA
BRANCH  26  27
ATOM     27  C   UNL d   1       5.845   0.960   0.954  0.00  0.00     0.047 C 
ATOM     28  C   UNL d   1       5.218   1.052   2.344  0.00  0.00     0.021 C 
ATOM     29  C   UNL d   1       7.347   0.695   1.091  0.00  0.00     0.021 C 
ENDBRANCH  26  27
ENDBRANCH   9  26
TORSDOF 5
