REMARK  3 active torsions:
REMARK  status: ('A' for Active; 'I' for Inactive)
REMARK    1  A    between atoms: C_2  and  C_1 
REMARK    2  A    between atoms: C_12  and  N_3 
REMARK    3  A    between atoms: C_14  and  C_8 
ROOT
ATOM      1  C   UNL d   1      -0.431  -2.730  -0.029  0.00  0.00     0.056 A 
ATOM      2  C   UNL d   1       0.076  -3.555   0.960  0.00  0.00     0.073 A 
ATOM      3  N   UNL d   1      -1.210  -4.830  -0.436  0.00  0.00    -0.310 N 
ATOM      4  HN  UNL d   1      -1.699  -5.629  -0.840  1.00  0.00     0.186 HD
ATOM      5  N   UNL d   1      -0.415  -4.801   0.645  0.00  0.00    -0.299 N 
ATOM      6  C   UNL d   1      -1.211  -3.565  -0.856  0.00  0.00     0.124 A 
ATOM      7  H   UNL d   1      -0.276  -5.667   1.157  0.00  0.00     0.187 HD
ENDROOT
BRANCH   1   8
ATOM      8  C   UNL d   1      -0.189  -1.276  -0.206  0.00  0.00     0.152 C 
ATOM      9  N   UNL d   1      -1.044  -0.344  -0.767  0.00  0.00    -0.224 N 
ATOM     10  N   UNL d   1      -0.318   0.753  -1.083  0.00  0.00     0.001 NA
ATOM     11  N   UNL d   1       0.862   0.574  -0.505  0.00  0.00    -0.007 NA
ATOM     12  N   UNL d   1       0.948  -0.668   0.069  0.00  0.00    -0.269 N 
ATOM     13  HN  UNL d   1       1.732  -1.045   0.601  1.00  0.00     0.185 HD
BRANCH   9  14
ATOM     14  C   UNL d   1      -2.457  -0.344  -0.860  0.00  0.00     0.056 A 
ATOM     15  C   UNL d   1      -3.230  -1.103   0.035  0.00  0.00     0.033 A 
ATOM     16  C   UNL d   1      -4.624  -1.062  -0.035  0.00  0.00     0.026 A 
ATOM     17  C   UNL d   1      -5.246  -0.273  -0.999  0.00  0.00     0.034 A 
ATOM     18  C   UNL d   1      -4.486   0.492  -1.883  0.00  0.00     0.026 A 
ATOM     19 CL   UNL d   1      -6.963  -0.230  -1.083  0.00  0.00    -0.084 Cl
ATOM     20  C   UNL d   1      -3.090   0.473  -1.805  0.00  0.00     0.033 A 
ENDBRANCH   9  14
ENDBRANCH   1   8
BRANCH   2  21
ATOM     21  C   UNL d   1       0.836  -3.300   2.185  0.00  0.00    -0.007 A 
ATOM     22  C   UNL d   1       0.579  -2.152   2.951  0.00  0.00     0.017 A 
ATOM     23  C   UNL d   1       1.272  -1.914   4.140  0.00  0.00     0.043 A 
ATOM     24  C   UNL d   1       2.217  -2.832   4.572  0.00  0.00     0.116 A 
ATOM     25  C   UNL d   1       2.485  -3.980   3.836  0.00  0.00     0.043 A 
ATOM     26  F   UNL d   1       2.878  -2.610   5.715  0.00  0.00    -0.206 F 
ATOM     27  C   UNL d   1       1.797  -4.214   2.642  0.00  0.00     0.017 A 
ENDBRANCH   2  21
TORSDOF 3
