REMARK  4 active torsions:
REMARK  status: ('A' for Active; 'I' for Inactive)
REMARK    1  A    between atoms: C_2  and  S_1 
REMARK    2  A    between atoms: N_4  and  S_1 
REMARK    3  A    between atoms: C_3  and  N_4 
REMARK    4  A    between atoms: C_17  and  C_11 
ROOT
ATOM      1  C   UNL d   1       0.924   2.637   0.592  0.00  0.00     0.133 A 
ATOM      2  C   UNL d   1       0.112   3.725   0.790  0.00  0.00     0.082 A 
ATOM      3  N   UNL d   1       2.082   4.104   1.859  0.00  0.00    -0.296 N 
ATOM      4  HN  UNL d   1       2.831   4.524   2.411  1.00  0.00     0.187 HD
ATOM      5  N   UNL d   1       2.101   2.921   1.225  0.00  0.00    -0.280 N 
ATOM      6  C   UNL d   1       0.864   4.616   1.611  0.00  0.00     0.062 A 
ATOM      7  C   UNL d   1       3.292   2.108   1.266  0.00  0.00     0.179 C 
ENDROOT
BRANCH   1   8
ATOM      8  N   UNL d   1       0.555   1.472  -0.038  0.00  0.00    -0.263 N 
ATOM      9  H   UNL d   1       0.412   0.638   0.504  0.00  0.00     0.180 HD
BRANCH   8  10
ATOM     10  S   UNL d   1       0.562   1.253  -1.652  0.00  0.00     0.281 S 
ATOM     11  O   UNL d   1       1.412   0.125  -1.971  0.00  0.00    -0.199 OA
ATOM     12  O   UNL d   1      -0.789   1.325  -2.164  0.00  0.00    -0.199 OA
BRANCH  10  13
ATOM     13  C   UNL d   1       1.377   2.612  -2.410  0.00  0.00     0.166 A 
ATOM     14  N   UNL d   1       2.651   3.029  -2.046  0.00  0.00    -0.340 N 
ATOM     15  C   UNL d   1       2.904   4.067  -2.814  0.00  0.00     0.183 A 
ATOM     16  HN  UNL d   1       3.259   2.619  -1.337  1.00  0.00     0.167 HD
ATOM     17  N   UNL d   1       1.847   4.357  -3.631  0.00  0.00    -0.354 N 
ATOM     18  C   UNL d   1       0.861   3.444  -3.387  0.00  0.00     0.135 A 
ATOM     19  C   UNL d   1       1.794   5.447  -4.574  0.00  0.00     0.156 C 
ENDBRANCH  10  13
ENDBRANCH   8  10
ENDBRANCH   1   8
BRANCH   6  20
ATOM     20  C   UNL d   1       0.442   5.900   2.187  0.00  0.00    -0.008 A 
ATOM     21  C   UNL d   1      -0.844   6.412   1.956  0.00  0.00     0.015 A 
ATOM     22  C   UNL d   1      -1.250   7.616   2.543  0.00  0.00     0.024 A 
ATOM     23  C   UNL d   1      -0.373   8.320   3.364  0.00  0.00     0.034 A 
ATOM     24  C   UNL d   1       0.910   7.836   3.598  0.00  0.00     0.024 A 
ATOM     25 CL   UNL d   1      -0.884   9.789   4.097  0.00  0.00    -0.084 Cl
ATOM     26  C   UNL d   1       1.314   6.632   3.011  0.00  0.00     0.015 A 
ENDBRANCH   6  20
TORSDOF 4
