REMARK  2 active torsions:
REMARK  status: ('A' for Active; 'I' for Inactive)
REMARK    1  A    between atoms: C_3  and  C_1 
REMARK       I    between atoms: N_6  and  C_3 
REMARK    2  A    between atoms: C_9  and  N_6 
ROOT
ATOM      1  C   UNL d   1       2.488  -1.728   0.630  0.00  0.00     0.274 C 
ATOM      2  N   UNL d   1       3.555  -1.085   0.025  0.00  0.00    -0.322 N 
ATOM      3  O   UNL d   1       1.615  -1.194   1.308  0.00  0.00    -0.266 OA
ATOM      4  H   UNL d   1       4.135  -1.672  -0.568  0.00  0.00     0.169 HD
ENDROOT
BRANCH   2   5
ATOM      5  C   UNL d   1       3.862   0.291   0.078  0.00  0.00     0.038 A 
ATOM      6  C   UNL d   1       3.226   1.193   0.936  0.00  0.00     0.053 A 
ATOM      7  C   UNL d   1       3.569   2.547   0.914  0.00  0.00     0.037 A 
ATOM      8 CL   UNL d   1       2.776   3.643   1.981  0.00  0.00    -0.084 Cl
ATOM      9  C   UNL d   1       4.542   3.022   0.043  0.00  0.00     0.048 A 
ATOM     10  C   UNL d   1       5.186   2.124  -0.800  0.00  0.00     0.037 A 
ATOM     11  C   UNL d   1       4.861   0.765  -0.780  0.00  0.00     0.053 A 
ATOM     12 CL   UNL d   1       6.390   2.697  -1.889  0.00  0.00    -0.084 Cl
ENDBRANCH   2   5
BRANCH   1  13
ATOM     13  C   UNL d   1       2.455  -3.163   0.363  0.00  0.00     0.121 A 
ATOM     14  N   UNL d   1       3.483  -3.799  -0.334  0.00  0.00    -0.287 N 
ATOM     15  N   UNL d   1       3.261  -5.098  -0.458  0.00  0.00    -0.061 NA
ATOM     16  HN  UNL d   1       4.306  -3.322  -0.702  1.00  0.00     0.183 HD
ATOM     17  S   UNL d   1       1.821  -5.584   0.240  0.00  0.00    -0.010 SA
ATOM     18  C   UNL d   1       1.426  -4.002   0.761  0.00  0.00     0.101 A 
ENDBRANCH   1  13
TORSDOF 2
