REMARK  1 active torsions:
REMARK  status: ('A' for Active; 'I' for Inactive)
REMARK    1  A    between atoms: N_15  and  C_5 
ROOT
ATOM      1  C   UNL d   1      -0.053   0.617  -0.028  0.00  0.00     0.122 A 
ATOM      2  N   UNL d   1      -1.182   1.320  -0.056  0.00  0.00    -0.332 N 
ATOM      3  HN  UNL d   1      -1.160   2.338  -0.119  1.00  0.00     0.168 HD
ATOM      4  C   UNL d   1      -0.068  -0.764   0.049  0.00  0.00     0.061 A 
ATOM      5  C   UNL d   1       1.167  -1.415   0.078  0.00  0.00     0.094 A 
ATOM      6  N   UNL d   1       1.091   1.288  -0.073  0.00  0.00    -0.338 N 
ATOM      7  HN  UNL d   1       1.104   2.306  -0.140  1.00  0.00     0.168 HD
ATOM      8  N   UNL d   1       2.323  -0.750   0.048  0.00  0.00    -0.342 N 
ATOM      9  HN  UNL d   1       3.224  -1.227   0.080  1.00  0.00     0.167 HD
ATOM     10  N   UNL d   1      -2.472  -0.674   0.071  0.00  0.00    -0.355 N 
ATOM     11  HN  UNL d   1      -3.381  -1.136   0.101  1.00  0.00     0.166 HD
ATOM     12  C   UNL d   1      -1.320  -1.362   0.101  0.00  0.00     0.108 A 
ATOM     13  C   UNL d   1      -2.350   0.660   0.001  0.00  0.00     0.078 A 
ATOM     14  C   UNL d   1       2.224   0.582  -0.028  0.00  0.00     0.183 A 
ATOM     15  C   UNL d   1      -3.611   1.467  -0.011  0.00  0.00     0.089 C 
ENDROOT
BRANCH   5  16
ATOM     16  N   UNL d   1       1.278  -2.803   0.185  0.00  0.00    -0.288 NA
ATOM     17  H   UNL d   1       0.777  -3.293  -0.547  0.00  0.00     0.125 HD
ATOM     18  H   UNL d   1       2.271  -3.029   0.165  0.00  0.00     0.125 HD
ENDBRANCH   5  16
TORSDOF 1
