REMARK  8 active torsions:
REMARK  status: ('A' for Active; 'I' for Inactive)
REMARK    1  A    between atoms: N_8  and  C_1 
REMARK    2  A    between atoms: C_10  and  C_2 
REMARK    3  A    between atoms: N_6  and  C_15 
REMARK       I    between atoms: C_9  and  N_7 
REMARK       I    between atoms: C_12  and  N_8 
REMARK    4  A    between atoms: O_23  and  C_9 
REMARK    5  A    between atoms: O_24  and  C_10 
REMARK    6  A    between atoms: C_15  and  C_12 
REMARK    7  A    between atoms: C_27  and  O_23 
REMARK    8  A    between atoms: C_28  and  O_24 
ROOT
ATOM      1  C   UNL d   1       1.905   0.817  -0.268  0.00  0.00     0.094 A 
ATOM      2  C   UNL d   1       0.731   1.565  -0.188  0.00  0.00     0.080 A 
ATOM      3  C   UNL d   1      -0.078  -0.648  -0.291  0.00  0.00     0.010 A 
ATOM      4  C   UNL d   1      -0.428   0.680  -0.183  0.00  0.00    -0.023 A 
ATOM      5  S   UNL d   1       1.589  -0.858  -0.402  0.00  0.00    -0.074 SA
ATOM      6  N   UNL d   1      -2.381  -1.328  -0.452  0.00  0.00    -0.323 N 
ATOM      7  C   UNL d   1      -3.239  -1.788  -1.430  0.00  0.00     0.363 C 
ATOM      8  C   UNL d   1      -1.014  -1.825  -0.293  0.00  0.00     0.174 C 
ATOM      9  C   UNL d   1      -1.888   1.066  -0.096  0.00  0.00     0.061 C 
ATOM     10  C   UNL d   1      -2.738  -0.143   0.329  0.00  0.00     0.133 C 
ATOM     11  O   UNL d   1      -4.312  -1.260  -1.696  0.00  0.00    -0.238 OA
ENDROOT
BRANCH   1  12
ATOM     12  N   UNL d   1       3.228   1.250  -0.314  0.00  0.00    -0.319 N 
ATOM     13  C   UNL d   1       4.355   0.445  -0.146  0.00  0.00     0.240 C 
ATOM     14  O   UNL d   1       4.370  -0.732   0.216  0.00  0.00    -0.271 OA
ATOM     15  H   UNL d   1       3.365   2.247  -0.436  0.00  0.00     0.169 HD
BRANCH  13  16
ATOM     16  C   UNL d   1       5.684   1.159  -0.415  0.00  0.00     0.226 C 
BRANCH  16  17
ATOM     17  N   UNL d   1       6.072   1.157  -1.823  0.00  0.00    -0.371 N 
ATOM     18  C   UNL d   1       5.550   2.039  -2.763  0.00  0.00     0.037 A 
ATOM     19  C   UNL d   1       5.693   1.557  -4.069  0.00  0.00    -0.030 A 
ATOM     20  C   UNL d   1       5.005   3.293  -2.553  0.00  0.00     0.030 A 
ATOM     21  C   UNL d   1       5.310   2.299  -5.175  0.00  0.00     0.009 A 
ATOM     22  C   UNL d   1       6.355   0.219  -4.042  0.00  0.00     0.060 C 
ATOM     23  C   UNL d   1       4.747   3.556  -4.959  0.00  0.00     0.001 A 
ATOM     24  C   UNL d   1       4.593   4.049  -3.656  0.00  0.00     0.002 A 
ATOM     25  C   UNL d   1       6.275  -0.116  -2.538  0.00  0.00     0.128 C 
ENDBRANCH  16  17
ENDBRANCH  13  16
ENDBRANCH   1  12
BRANCH   2  26
ATOM     26  C   UNL d   1       0.615   3.027  -0.074  0.00  0.00     0.296 C 
ATOM     27  O   UNL d   1      -0.469   3.589   0.049  0.00  0.00    -0.259 OA
BRANCH  26  28
ATOM     28  O   UNL d   1       1.806   3.705  -0.083  0.00  0.00    -0.318 OA
BRANCH  28  29
ATOM     29  C   UNL d   1       1.667   5.114   0.201  0.00  0.00     0.174 C 
ATOM     30  C   UNL d   1       1.249   5.901  -1.030  0.00  0.00     0.034 C 
ENDBRANCH  28  29
ENDBRANCH  26  28
ENDBRANCH   2  26
BRANCH   7  31
ATOM     31  O   UNL d   1      -2.765  -2.894  -2.061  0.00  0.00    -0.304 OA
BRANCH  31  32
ATOM     32  C   UNL d   1      -3.562  -3.388  -3.147  0.00  0.00     0.176 C 
ATOM     33  C   UNL d   1      -4.693  -4.263  -2.639  0.00  0.00     0.034 C 
ENDBRANCH  31  32
ENDBRANCH   7  31
TORSDOF 8
