REMARK  3 active torsions:
REMARK  status: ('A' for Active; 'I' for Inactive)
REMARK    1  A    between atoms: C_11  and  N_1 
REMARK    2  A    between atoms: N_7  and  C_2 
REMARK    3  A    between atoms: C_15  and  C_6 
ROOT
ATOM      1  N   UNL d   1       0.038  -1.053  -0.034  0.00  0.00    -0.238 N 
ATOM      2  C   UNL d   1       1.341  -0.595   0.087  0.00  0.00     0.156 C 
ATOM      3  N   UNL d   1      -0.836  -0.016  -0.191  0.00  0.00    -0.294 N 
ATOM      4  HN  UNL d   1      -1.824  -0.068  -0.438  1.00  0.00     0.187 HD
ATOM      5  C   UNL d   1       1.265   0.780   0.182  0.00  0.00     0.115 C 
ATOM      6  C   UNL d   1      -0.111   1.088   0.053  0.00  0.00     0.064 C 
ATOM      7  C   UNL d   1       2.335   1.723   0.231  0.00  0.00     0.105 C 
ATOM      8  N   UNL d   1       3.190   2.507   0.234  0.00  0.00    -0.191 NA
ENDROOT
BRANCH   2   9
ATOM      9  N   UNL d   1       2.493  -1.385   0.014  0.00  0.00    -0.316 N 
ATOM     10  C   UNL d   1       2.655  -2.563  -0.692  0.00  0.00     0.098 A 
ATOM     11  C   UNL d   1       3.942  -3.026  -0.528  0.00  0.00     0.019 A 
ATOM     12  C   UNL d   1       4.613  -2.098   0.286  0.00  0.00     0.019 A 
ATOM     13  C   UNL d   1       3.713  -1.102   0.597  0.00  0.00     0.098 A 
ENDBRANCH   2   9
BRANCH   6  14
ATOM     14  C   UNL d   1      -0.757   2.442   0.069  0.00  0.00     0.184 C 
ATOM     15  C   UNL d   1      -0.546   3.098   1.370  0.00  0.00     0.065 C 
ATOM     16  N   UNL d   1      -0.358   3.616   2.390  0.00  0.00    -0.197 NA
ENDBRANCH   6  14
BRANCH   1  17
ATOM     17  C   UNL d   1      -0.455  -2.383   0.053  0.00  0.00     0.058 A 
ATOM     18  C   UNL d   1       0.133  -3.300   0.936  0.00  0.00     0.031 A 
ATOM     19  C   UNL d   1      -0.238  -4.643   0.896  0.00  0.00     0.002 A 
ATOM     20  C   UNL d   1      -1.205  -5.069  -0.012  0.00  0.00     0.000 A 
ATOM     21  C   UNL d   1      -1.841  -4.146  -0.844  0.00  0.00     0.002 A 
ATOM     22  C   UNL d   1      -1.488  -2.793  -0.798  0.00  0.00     0.031 A 
ENDBRANCH   1  17
TORSDOF 3
