REMARK  5 active torsions:
REMARK  status: ('A' for Active; 'I' for Inactive)
REMARK    1  A    between atoms: C_7  and  N_1 
REMARK    2  A    between atoms: S_8  and  C_2 
REMARK    3  A    between atoms: C_12  and  S_8 
REMARK    4  A    between atoms: C_10  and  C_12 
REMARK    5  A    between atoms: C_11  and  C_10 
ROOT
ATOM      1  N   UNL d   1       0.718   0.445   0.452  0.00  0.00    -0.219 N 
ATOM      2  C   UNL d   1       1.136  -0.883   0.372  0.00  0.00     0.177 A 
ATOM      3  N   UNL d   1       0.101  -1.676   0.546  0.00  0.00    -0.264 N 
ATOM      4  HN  UNL d   1       0.100  -2.696   0.517  1.00  0.00     0.186 HD
ATOM      5  N   UNL d   1      -0.969  -0.862   0.772  0.00  0.00    -0.006 NA
ATOM      6  N   UNL d   1      -0.616   0.412   0.739  0.00  0.00     0.001 NA
ENDROOT
BRANCH   2   7
ATOM      7  S   UNL d   1       2.762  -1.449   0.196  0.00  0.00    -0.084 SA
BRANCH   7   8
ATOM      8  C   UNL d   1       2.528  -3.239   0.029  0.00  0.00     0.166 C 
BRANCH   8   9
ATOM      9  C   UNL d   1       3.860  -3.961  -0.153  0.00  0.00     0.169 C 
ATOM     10  O   UNL d   1       4.949  -3.393  -0.176  0.00  0.00    -0.291 OA
BRANCH   9  11
ATOM     11  C   UNL d   1       3.830  -5.451  -0.313  0.00  0.00     0.011 A 
ATOM     12  C   UNL d   1       2.635  -6.179  -0.332  0.00  0.00     0.015 A 
ATOM     13  C   UNL d   1       2.660  -7.568  -0.492  0.00  0.00     0.007 A 
ATOM     14  C   UNL d   1       3.873  -8.250  -0.635  0.00  0.00    -0.062 A 
ATOM     15  C   UNL d   1       5.068  -7.524  -0.610  0.00  0.00     0.007 A 
ATOM     16  C   UNL d   1       3.875  -9.741  -0.804  0.00  0.00     0.048 C 
ATOM     17  C   UNL d   1       5.046  -6.134  -0.452  0.00  0.00     0.015 A 
ENDBRANCH   9  11
ENDBRANCH   8   9
ENDBRANCH   7   8
ENDBRANCH   2   7
BRANCH   1  18
ATOM     18  C   UNL d   1       1.382   1.702   0.315  0.00  0.00     0.058 A 
ATOM     19  C   UNL d   1       2.702   1.818  -0.136  0.00  0.00     0.055 A 
ATOM     20  C   UNL d   1       3.322   3.070  -0.192  0.00  0.00     0.036 A 
ATOM     21 CL   UNL d   1       4.959   3.181  -0.715  0.00  0.00    -0.084 Cl
ATOM     22  C   UNL d   1       2.637   4.223   0.171  0.00  0.00     0.024 A 
ATOM     23  C   UNL d   1       1.310   4.130   0.578  0.00  0.00     0.004 A 
ATOM     24  C   UNL d   1       0.683   2.881   0.647  0.00  0.00     0.031 A 
ENDBRANCH   1  18
TORSDOF 5
