REMARK  9 active torsions:
REMARK  status: ('A' for Active; 'I' for Inactive)
REMARK    1  A    between atoms: C_3  and  N_1 
REMARK    2  A    between atoms: C_6  and  N_1 
REMARK    3  A    between atoms: S_2  and  C_7 
REMARK    4  A    between atoms: C_4  and  S_2 
REMARK    5  A    between atoms: C_5  and  C_6 
REMARK    6  A    between atoms: C_7  and  C_5 
REMARK    7  A    between atoms: O_18  and  C_5 
REMARK    8  A    between atoms: O_19  and  C_8 
REMARK    9  A    between atoms: O_20  and  C_9 
ROOT
ATOM      1  C   UNL d   1       2.998  -1.510  -0.147  0.00  0.00     0.141 C 
ENDROOT
BRANCH   1   2
ATOM      2  C   UNL d   1       2.539  -0.045  -0.018  0.00  0.00     0.124 C 
BRANCH   2   3
ATOM      3  N   UNL d   1       3.104   0.578   1.177  0.00  0.00    -0.291 NA
ATOM      4  H   UNL d   1       4.101   0.358   1.274  0.00  0.00     0.127 HD
BRANCH   3   5
ATOM      5  C   UNL d   1       2.478   0.516   2.422  0.00  0.00     0.008 A 
ATOM      6  C   UNL d   1       1.204  -0.015   2.639  0.00  0.00     0.026 A 
ATOM      7  C   UNL d   1       0.596   0.039   3.904  0.00  0.00     0.038 A 
ATOM      8  C   UNL d   1       1.244   0.660   4.966  0.00  0.00     0.068 A 
ATOM      9  C   UNL d   1       2.516   1.187   4.771  0.00  0.00     0.038 A 
ATOM     10  C   UNL d   1       3.118   1.128   3.510  0.00  0.00     0.026 A 
BRANCH   8  11
ATOM     11  O   UNL d   1       0.741   0.780   6.233  0.00  0.00    -0.356 OA
ATOM     12  C   UNL d   1      -0.678   0.858   6.315  0.00  0.00     0.210 C 
ENDBRANCH   8  11
ENDBRANCH   3   5
ENDBRANCH   2   3
ENDBRANCH   1   2
BRANCH   1  13
ATOM     13  C   UNL d   1       2.405  -2.155  -1.412  0.00  0.00     0.112 C 
BRANCH  13  14
ATOM     14  S   UNL d   1       2.875  -3.923  -1.510  0.00  0.00    -0.127 SA
BRANCH  14  15
ATOM     15  C   UNL d   1       2.136  -4.407  -3.058  0.00  0.00     0.000 A 
ATOM     16  C   UNL d   1       2.423  -3.751  -4.259  0.00  0.00     0.021 A 
ATOM     17  C   UNL d   1       1.889  -4.213  -5.469  0.00  0.00     0.038 A 
ATOM     18  C   UNL d   1       1.067  -5.339  -5.488  0.00  0.00     0.068 A 
ATOM     19  C   UNL d   1       0.797  -6.008  -4.294  0.00  0.00     0.038 A 
ATOM     20  C   UNL d   1       1.324  -5.544  -3.086  0.00  0.00     0.021 A 
BRANCH  18  21
ATOM     21  O   UNL d   1       0.530  -5.908  -6.609  0.00  0.00    -0.356 OA
ATOM     22  C   UNL d   1       0.261  -5.016  -7.685  0.00  0.00     0.210 C 
ENDBRANCH  18  21
ENDBRANCH  14  15
ENDBRANCH  13  14
ENDBRANCH   1  13
BRANCH   1  23
ATOM     23  O   UNL d   1       4.440  -1.526  -0.183  0.00  0.00    -0.394 OA
ATOM     24  H   UNL d   1       4.733  -1.018  -0.957  0.00  0.00     0.210 HD
ENDBRANCH   1  23
TORSDOF 9
