REMARK  7 active torsions:
REMARK  status: ('A' for Active; 'I' for Inactive)
REMARK    1  A    between atoms: C_4  and  C_1 
REMARK    2  A    between atoms: C_2  and  C_5 
REMARK    3  A    between atoms: C_3  and  C_6 
REMARK       I    between atoms: N_7  and  C_3 
REMARK    4  A    between atoms: C_9  and  N_7 
REMARK    5  A    between atoms: O_13  and  C_8 
REMARK    6  A    between atoms: C_23  and  O_13 
REMARK    7  A    between atoms: O_29  and  C_24 
ROOT
ATOM      1  C   UNL d   1       0.160   6.134   0.042  0.00  0.00     0.256 C 
ATOM      2  N   UNL d   1       1.306   5.420  -0.247  0.00  0.00    -0.319 N 
ATOM      3  O   UNL d   1      -0.870   6.117  -0.632  0.00  0.00    -0.267 OA
ATOM      4  H   UNL d   1       2.194   5.755   0.112  0.00  0.00     0.169 HD
ENDROOT
BRANCH   2   5
ATOM      5  C   UNL d   1       1.373   4.393  -1.226  0.00  0.00     0.087 A 
ATOM      6  C   UNL d   1       2.583   4.061  -1.847  0.00  0.00     0.175 A 
ATOM      7  N   UNL d   1       2.730   3.038  -2.730  0.00  0.00    -0.345 N 
ATOM      8  C   UNL d   1       1.619   2.353  -3.063  0.00  0.00     0.090 A 
ATOM      9  HN  UNL d   1       3.640   2.801  -3.123  1.00  0.00     0.167 HD
ATOM     10  C   UNL d   1       0.370   2.621  -2.537  0.00  0.00     0.019 A 
ATOM     11  C   UNL d   1       0.253   3.646  -1.598  0.00  0.00     0.035 A 
BRANCH   6  12
ATOM     12  O   UNL d   1       3.688   4.867  -1.579  0.00  0.00    -0.292 OA
BRANCH  12  13
ATOM     13  C   UNL d   1       4.574   5.067  -2.619  0.00  0.00     0.078 A 
ATOM     14  C   UNL d   1       4.172   5.305  -3.938  0.00  0.00     0.040 A 
ATOM     15  C   UNL d   1       5.123   5.465  -4.952  0.00  0.00     0.039 A 
ATOM     16  C   UNL d   1       6.483   5.424  -4.647  0.00  0.00     0.068 A 
ATOM     17  C   UNL d   1       6.879   5.256  -3.316  0.00  0.00     0.039 A 
ATOM     18  C   UNL d   1       5.931   5.081  -2.303  0.00  0.00     0.040 A 
BRANCH  16  19
ATOM     19  O   UNL d   1       7.509   5.543  -5.543  0.00  0.00    -0.356 OA
ATOM     20  C   UNL d   1       7.162   5.496  -6.923  0.00  0.00     0.210 C 
ENDBRANCH  16  19
ENDBRANCH  12  13
ENDBRANCH   6  12
ENDBRANCH   2   5
BRANCH   1  21
ATOM     21  C   UNL d   1       0.185   7.026   1.230  0.00  0.00     0.034 A 
ATOM     22  C   UNL d   1       0.876   6.690   2.399  0.00  0.00     0.033 A 
ATOM     23  C   UNL d   1       0.754   7.491   3.551  0.00  0.00     0.049 A 
ATOM     24  C   UNL d   1      -0.058   8.639   3.507  0.00  0.00     0.032 A 
ATOM     25  C   UNL d   1      -0.753   8.990   2.339  0.00  0.00     0.049 A 
ATOM     26  C   UNL d   1      -0.626   8.171   1.208  0.00  0.00     0.033 A 
BRANCH  23  27
ATOM     27  C   UNL d   1       1.473   7.103   4.824  0.00  0.00     0.417 C 
ATOM     28  F   UNL d   1       1.169   7.900   5.885  0.00  0.00    -0.166 F 
ATOM     29  F   UNL d   1       2.826   7.159   4.686  0.00  0.00    -0.166 F 
ATOM     30  F   UNL d   1       1.186   5.832   5.215  0.00  0.00    -0.166 F 
ENDBRANCH  23  27
BRANCH  25  31
ATOM     31  C   UNL d   1      -1.648  10.207   2.287  0.00  0.00     0.417 C 
ATOM     32  F   UNL d   1      -1.683  10.902   3.458  0.00  0.00    -0.166 F 
ATOM     33  F   UNL d   1      -1.255  11.097   1.335  0.00  0.00    -0.166 F 
ATOM     34  F   UNL d   1      -2.940   9.891   2.000  0.00  0.00    -0.166 F 
ENDBRANCH  25  31
ENDBRANCH   1  21
TORSDOF 7
