REMARK  3 active torsions:
REMARK  status: ('A' for Active; 'I' for Inactive)
REMARK    1  A    between atoms: N_3  and  C_1 
REMARK    2  A    between atoms: C_7  and  C_1 
REMARK       I    between atoms: C_2  and  N_4 
REMARK       I    between atoms: N_11  and  C_2 
REMARK    3  A    between atoms: N_4  and  N_3 
ROOT
ATOM      1  C   UNL d   1       0.912  -0.114   0.031  0.00  0.00     0.141 C 
ATOM      2  N   UNL d   1       0.232   0.998   0.085  0.00  0.00    -0.383 N 
ATOM      3  HN  UNL d   1       0.597   1.945   0.187  1.00  0.00     0.157 HD
ATOM      4  H   UNL d   1      -0.751   0.712   0.002  0.00  0.00     0.157 HD
ENDROOT
BRANCH   1   5
ATOM      5  N   UNL d   1       0.270  -1.331  -0.030  0.00  0.00    -0.280 N 
ATOM      6  H   UNL d   1       0.856  -2.166   0.073  0.00  0.00     0.188 HD
BRANCH   5   7
ATOM      7  N   UNL d   1      -1.005  -1.389   0.561  0.00  0.00    -0.250 N 
ATOM      8  C   UNL d   1      -1.803  -2.472   0.244  0.00  0.00     0.334 C 
ATOM      9  O   UNL d   1      -1.504  -3.336  -0.573  0.00  0.00    -0.246 OA
ATOM     10  N   UNL d   1      -2.991  -2.444   0.935  0.00  0.00    -0.346 N 
ATOM     11  C   UNL d   1      -4.060  -3.376   0.672  0.00  0.00     0.151 C 
ATOM     12  H   UNL d   1      -3.178  -1.663   1.544  0.00  0.00     0.163 HD
ATOM     13  H   UNL d   1      -1.045  -1.021   1.506  0.00  0.00     0.192 HD
ENDBRANCH   5   7
ENDBRANCH   1   5
BRANCH   1  14
ATOM     14  C   UNL d   1       2.412  -0.090   0.033  0.00  0.00     0.077 A 
ATOM     15  N   UNL d   1       3.017  -1.308   0.094  0.00  0.00    -0.363 N 
ATOM     16  C   UNL d   1       4.369  -1.296   0.084  0.00  0.00     0.088 A 
ATOM     17  HN  UNL d   1       2.484  -2.176   0.144  1.00  0.00     0.165 HD
ATOM     18  C   UNL d   1       5.137  -0.141   0.024  0.00  0.00     0.017 A 
ATOM     19  C   UNL d   1       4.485   1.087  -0.029  0.00  0.00     0.004 A 
ATOM     20  C   UNL d   1       3.095   1.118  -0.024  0.00  0.00     0.033 A 
ENDBRANCH   1  14
TORSDOF 3
