REMARK  6 active torsions:
REMARK  status: ('A' for Active; 'I' for Inactive)
REMARK    1  A    between atoms: C_2  and  C_1 
REMARK    2  A    between atoms: C_5  and  C_2 
REMARK    3  A    between atoms: C_20  and  C_5 
REMARK    4  A    between atoms: C_9  and  C_21 
REMARK    5  A    between atoms: O_23  and  C_11 
REMARK    6  A    between atoms: N_14  and  N_12 
ROOT
ATOM      1  C   UNL d   1      -4.019   1.140  -0.169  0.00  0.00     0.109 C 
ATOM      2  N   UNL d   1      -5.226   1.635  -0.052  0.00  0.00    -0.296 N 
ATOM      3  HN  UNL d   1      -6.057   1.050   0.029  1.00  0.00     0.187 HD
ENDROOT
BRANCH   1   4
ATOM      4  C   UNL d   1      -3.875  -0.386  -0.080  0.00  0.00     0.211 C 
ATOM      5  O   UNL d   1      -2.774  -0.857   0.199  0.00  0.00    -0.285 OA
BRANCH   4   6
ATOM      6  C   UNL d   1      -4.987  -1.361  -0.327  0.00  0.00     0.029 C 
ATOM      7  C   UNL d   1      -5.792  -1.323  -1.489  0.00  0.00    -0.041 C 
ATOM      8  C   UNL d   1      -6.704  -2.392  -1.726  0.00  0.00    -0.049 C 
ATOM      9  C   UNL d   1      -5.718  -0.190  -2.477  0.00  0.00     0.050 C 
ATOM     10  C   UNL d   1      -7.733  -2.312  -2.835  0.00  0.00     0.049 C 
ATOM     11  C   UNL d   1      -6.631  -3.581  -0.953  0.00  0.00    -0.049 C 
ATOM     12  C   UNL d   1      -5.767  -3.642   0.161  0.00  0.00    -0.049 C 
ATOM     13  C   UNL d   1      -7.500  -4.764  -1.333  0.00  0.00     0.049 C 
ATOM     14  C   UNL d   1      -5.061  -2.478   0.553  0.00  0.00    -0.041 C 
ATOM     15  C   UNL d   1      -5.584  -4.939   0.918  0.00  0.00     0.049 C 
ATOM     16  C   UNL d   1      -4.390  -2.446   1.909  0.00  0.00     0.050 C 
ENDBRANCH   4   6
ENDBRANCH   1   4
BRANCH   1  17
ATOM     17  C   UNL d   1      -2.762   1.944  -0.410  0.00  0.00    -0.004 A 
ATOM     18  C   UNL d   1      -2.746   2.958  -1.380  0.00  0.00     0.014 A 
ATOM     19  C   UNL d   1      -1.593   3.720  -1.603  0.00  0.00     0.001 A 
ATOM     20  C   UNL d   1      -0.430   3.450  -0.886  0.00  0.00     0.000 A 
ATOM     21  C   UNL d   1      -0.423   2.431   0.063  0.00  0.00     0.001 A 
ATOM     22  C   UNL d   1      -1.587   1.694   0.311  0.00  0.00     0.014 A 
ENDBRANCH   1  17
BRANCH   2  23
ATOM     23  N   UNL d   1      -5.279   3.028  -0.047  0.00  0.00    -0.310 N 
ATOM     24  C   UNL d   1      -6.301   3.502  -0.689  0.00  0.00     0.121 C 
ATOM     25  HN  UNL d   1      -4.583   3.615   0.414  1.00  0.00     0.186 HD
BRANCH  24  26
ATOM     26  C   UNL d   1      -6.487   4.963  -0.839  0.00  0.00     0.017 A 
ATOM     27  C   UNL d   1      -7.579   5.480  -1.542  0.00  0.00     0.099 A 
ATOM     28  C   UNL d   1      -7.735   6.868  -1.663  0.00  0.00     0.069 A 
ATOM     29 CL   UNL d   1      -9.084   7.521  -2.522  0.00  0.00    -0.081 Cl
ATOM     30  C   UNL d   1      -6.810   7.741  -1.100  0.00  0.00     0.050 A 
ATOM     31  C   UNL d   1      -5.712   7.220  -0.413  0.00  0.00     0.036 A 
ATOM     32  C   UNL d   1      -5.546   5.842  -0.280  0.00  0.00     0.039 A 
ATOM     33 CL   UNL d   1      -4.555   8.291   0.274  0.00  0.00    -0.084 Cl
BRANCH  27  34
ATOM     34  O   UNL d   1      -8.484   4.626  -2.118  0.00  0.00    -0.358 OA
ATOM     35  H   UNL d   1      -9.171   5.168  -2.552  0.00  0.00     0.217 HD
ENDBRANCH  27  34
ENDBRANCH  24  26
ENDBRANCH   2  23
TORSDOF 6
