REMARK  3 active torsions:
REMARK  status: ('A' for Active; 'I' for Inactive)
REMARK    1  A    between atoms: C_3  and  C_5 
REMARK    2  A    between atoms: N_9  and  C_4 
REMARK       I    between atoms: C_5  and  N_8 
REMARK    3  A    between atoms: N_8  and  N_9 
ROOT
ATOM      1  N   UNL d   1       3.634  -1.296   0.403  0.00  0.00    -0.285 N 
ATOM      2  H   UNL d   1       3.621  -2.307   0.540  0.00  0.00     0.188 HD
ENDROOT
BRANCH   1   3
ATOM      3  N   UNL d   1       4.806  -0.796  -0.170  0.00  0.00    -0.264 N 
ATOM      4  C   UNL d   1       6.011  -1.225   0.349  0.00  0.00     0.273 C 
ATOM      5  O   UNL d   1       6.099  -2.171   1.131  0.00  0.00    -0.266 OA
ATOM      6  H   UNL d   1       4.692   0.094  -0.663  0.00  0.00     0.190 HD
BRANCH   4   7
ATOM      7  C   UNL d   1       7.231  -0.491  -0.087  0.00  0.00     0.072 A 
ATOM      8  C   UNL d   1       7.210   0.478  -1.089  0.00  0.00     0.132 A 
ATOM      9  F   UNL d   1       6.066   0.822  -1.703  0.00  0.00    -0.205 F 
ATOM     10  C   UNL d   1       8.381   1.121  -1.495  0.00  0.00     0.043 A 
ATOM     11  C   UNL d   1       9.594   0.802  -0.888  0.00  0.00     0.003 A 
ATOM     12  C   UNL d   1       9.632  -0.158   0.122  0.00  0.00     0.001 A 
ATOM     13  C   UNL d   1       8.457  -0.804   0.522  0.00  0.00     0.020 A 
ENDBRANCH   4   7
ENDBRANCH   1   3
BRANCH   1  14
ATOM     14  C   UNL d   1       2.468  -0.593   0.135  0.00  0.00     0.106 A 
ATOM     15  N   UNL d   1       2.560   0.585  -0.416  0.00  0.00    -0.343 N 
ATOM     16  C   UNL d   1       1.451   1.375  -0.729  0.00  0.00     0.050 A 
ATOM     17  HN  UNL d   1       3.489   0.949  -0.629  1.00  0.00     0.167 HD
ATOM     18  C   UNL d   1       0.118   1.038  -0.482  0.00  0.00     0.027 A 
ATOM     19  C   UNL d   1       1.730   2.606  -1.344  0.00  0.00     0.031 A 
ATOM     20  S   UNL d   1      -0.375  -0.474   0.298  0.00  0.00    -0.120 SA
ATOM     21  C   UNL d   1      -0.904   1.927  -0.854  0.00  0.00     0.021 A 
ATOM     22  C   UNL d   1       1.195  -1.309   0.536  0.00  0.00     0.157 A 
ATOM     23  C   UNL d   1      -0.610   3.144  -1.470  0.00  0.00     0.002 A 
ATOM     24  C   UNL d   1       0.713   3.486  -1.715  0.00  0.00     0.002 A 
ENDBRANCH   1  14
TORSDOF 3
