REMARK  5 active torsions:
REMARK  status: ('A' for Active; 'I' for Inactive)
REMARK       I    between atoms: C_6  and  N_2 
REMARK       I    between atoms: N_10  and  C_6 
REMARK    1  A    between atoms: S_11  and  C_7 
REMARK    2  A    between atoms: C_19  and  N_10 
REMARK    3  A    between atoms: C_14  and  S_11 
REMARK    4  A    between atoms: C_13  and  C_14 
REMARK    5  A    between atoms: C_18  and  C_13 
ROOT
ATOM      1  C   UNL d   1       0.178   0.664   0.348  0.00  0.00     0.707 A 
ATOM      2  N   UNL d   1      -0.827   1.616   0.250  0.00  0.00    -0.131 N 
ATOM      3  N   UNL d   1      -0.126  -0.676   0.296  0.00  0.00    -0.159 N 
ATOM      4  N   UNL d   1       1.482   0.795   0.480  0.00  0.00    -0.129 N 
ATOM      5  HN  UNL d   1       1.994   1.675   0.532  1.00  0.00     0.205 HD
ATOM      6  C   UNL d   1      -0.581   2.989   0.149  0.00  0.00     0.341 C 
ATOM      7  C   UNL d   1       1.056  -1.341   0.405  0.00  0.00     0.177 A 
ATOM      8  N   UNL d   1       2.034  -0.476   0.535  0.00  0.00    -0.265 N 
ATOM      9  HN  UNL d   1       3.023  -0.698   0.656  1.00  0.00     0.189 HD
ATOM     10  N   UNL d   1       0.715   3.360  -0.136  0.00  0.00    -0.308 N 
ATOM     11  O   UNL d   1      -1.518   3.786   0.231  0.00  0.00    -0.246 OA
ATOM     12  C   UNL d   1      -1.464  -1.198   0.130  0.00  0.00     0.151 C 
ATOM     13  C   UNL d   1      -2.225   1.179   0.305  0.00  0.00     0.154 C 
ATOM     14  C   UNL d   1      -2.412  -0.143  -0.433  0.00  0.00     0.042 C 
ATOM     15  H   UNL d   1       1.427   2.653   0.028  0.00  0.00     0.170 HD
ENDROOT
BRANCH  10  16
ATOM     16  C   UNL d   1       1.155   4.606  -0.643  0.00  0.00     0.036 A 
ATOM     17  C   UNL d   1       0.295   5.642  -1.014  0.00  0.00     0.030 A 
ATOM     18  C   UNL d   1       0.788   6.810  -1.607  0.00  0.00     0.009 A 
ATOM     19  C   UNL d   1       2.157   6.969  -1.836  0.00  0.00    -0.062 A 
ATOM     20  C   UNL d   1       3.025   5.945  -1.445  0.00  0.00     0.009 A 
ATOM     21  C   UNL d   1       2.657   8.190  -2.548  0.00  0.00     0.048 C 
ATOM     22  C   UNL d   1       2.528   4.776  -0.851  0.00  0.00     0.030 A 
ENDBRANCH  10  16
BRANCH   7  23
ATOM     23  S   UNL d   1       1.193  -3.055   0.251  0.00  0.00    -0.084 SA
BRANCH  23  24
ATOM     24  C   UNL d   1       1.869  -3.520   1.866  0.00  0.00     0.166 C 
BRANCH  24  25
ATOM     25  C   UNL d   1       0.841  -3.447   2.987  0.00  0.00     0.169 C 
ATOM     26  O   UNL d   1      -0.263  -2.917   2.862  0.00  0.00    -0.291 OA
BRANCH  25  27
ATOM     27  C   UNL d   1       1.206  -4.045   4.316  0.00  0.00     0.010 A 
ATOM     28  C   UNL d   1       2.402  -4.747   4.524  0.00  0.00     0.015 A 
ATOM     29  C   UNL d   1       2.689  -5.294   5.781  0.00  0.00     0.001 A 
ATOM     30  C   UNL d   1       1.793  -5.140   6.834  0.00  0.00     0.000 A 
ATOM     31  C   UNL d   1       0.604  -4.442   6.639  0.00  0.00     0.001 A 
ATOM     32  C   UNL d   1       0.310  -3.899   5.385  0.00  0.00     0.015 A 
ENDBRANCH  25  27
ENDBRANCH  24  25
ENDBRANCH  23  24
ENDBRANCH   7  23
TORSDOF 5
