REMARK  4 active torsions:
REMARK  status: ('A' for Active; 'I' for Inactive)
REMARK    1  A    between atoms: C_2  and  S_1 
REMARK    2  A    between atoms: N_3  and  S_1 
REMARK    3  A    between atoms: C_4  and  N_9 
REMARK    4  A    between atoms: C_5  and  C_6 
ROOT
ATOM      1  N   UNL d   1       0.279   1.458  -0.387  0.00  0.00    -0.304 N 
ATOM      2  N   UNL d   1       0.270   3.471  -2.457  0.00  0.00    -0.363 N 
ATOM      3  C   UNL d   1      -0.586   1.321  -1.579  0.00  0.00     0.155 C 
ATOM      4  C   UNL d   1       0.472   2.870  -0.001  0.00  0.00     0.155 C 
ATOM      5  C   UNL d   1       0.906   3.784  -1.165  0.00  0.00     0.145 C 
ATOM      6  C   UNL d   1       0.061   2.049  -2.765  0.00  0.00     0.145 C 
ENDROOT
BRANCH   1   7
ATOM      7  S   UNL d   1       1.366   0.251   0.053  0.00  0.00     0.262 S 
ATOM      8  O   UNL d   1       2.209   0.747   1.124  0.00  0.00    -0.200 OA
ATOM      9  O   UNL d   1       0.585  -0.946   0.291  0.00  0.00    -0.200 OA
BRANCH   7  10
ATOM     10  C   UNL d   1       2.401  -0.040  -1.409  0.00  0.00     0.091 A 
ATOM     11  C   UNL d   1       3.575   0.729  -1.633  0.00  0.00    -0.038 A 
ATOM     12  C   UNL d   1       4.442   0.368  -2.691  0.00  0.00     0.015 A 
ATOM     13  C   UNL d   1       4.039   1.923  -0.844  0.00  0.00     0.050 C 
ATOM     14  C   UNL d   1       4.183  -0.717  -3.523  0.00  0.00    -0.061 A 
ATOM     15  C   UNL d   1       3.009  -1.435  -3.328  0.00  0.00     0.015 A 
ATOM     16  C   UNL d   1       5.163  -1.113  -4.587  0.00  0.00     0.048 C 
ATOM     17  C   UNL d   1       2.100  -1.114  -2.296  0.00  0.00    -0.038 A 
ATOM     18  C   UNL d   1       0.906  -2.034  -2.224  0.00  0.00     0.050 C 
ENDBRANCH   7  10
ENDBRANCH   1   7
BRANCH   2  19
ATOM     19  C   UNL d   1      -0.492   4.407  -3.139  0.00  0.00     0.125 A 
ATOM     20  N   UNL d   1      -1.643   3.953  -3.701  0.00  0.00    -0.350 N 
ATOM     21  C   UNL d   1      -2.434   4.809  -4.395  0.00  0.00     0.106 A 
ATOM     22  HN  UNL d   1      -1.911   2.974  -3.602  1.00  0.00     0.166 HD
ATOM     23  C   UNL d   1      -2.158   6.151  -4.559  0.00  0.00     0.065 A 
ATOM     24  C   UNL d   1      -0.966   6.623  -4.007  0.00  0.00     0.045 A 
ATOM     25  C   UNL d   1      -0.120   5.752  -3.314  0.00  0.00     0.078 A 
ATOM     26 CL   UNL d   1       1.407   6.412  -2.829  0.00  0.00    -0.080 Cl
BRANCH  23  27
ATOM     27  C   UNL d   1      -3.104   7.032  -5.311  0.00  0.00     0.418 C 
ATOM     28  F   UNL d   1      -2.711   8.335  -5.348  0.00  0.00    -0.166 F 
ATOM     29  F   UNL d   1      -3.256   6.651  -6.607  0.00  0.00    -0.166 F 
ATOM     30  F   UNL d   1      -4.352   7.034  -4.770  0.00  0.00    -0.166 F 
ENDBRANCH  23  27
ENDBRANCH   2  19
TORSDOF 4
