REMARK  3 active torsions:
REMARK  status: ('A' for Active; 'I' for Inactive)
REMARK       I    between atoms: C_4  and  N_1 
REMARK    1  A    between atoms: C_13  and  C_3 
REMARK    2  A    between atoms: C_10  and  C_4 
REMARK    3  A    between atoms: C_5  and  C_12 
ROOT
ATOM      1  N   UNL d   1      -2.516   0.344  -0.383  0.00  0.00    -0.335 N 
ATOM      2  C   UNL d   1      -0.183   0.815   0.106  0.00  0.00    -0.017 A 
ATOM      3  C   UNL d   1      -1.599   1.339   0.207  0.00  0.00     0.155 C 
ATOM      4  C   UNL d   1      -3.522   0.581  -1.323  0.00  0.00     0.254 C 
ATOM      5  C   UNL d   1       0.098  -0.527  -0.091  0.00  0.00    -0.007 A 
ATOM      6  C   UNL d   1      -2.331  -1.045   0.084  0.00  0.00     0.132 C 
ATOM      7  S   UNL d   1       1.764  -0.855  -0.167  0.00  0.00    -0.106 SA
ATOM      8  C   UNL d   1      -0.937  -1.595  -0.264  0.00  0.00     0.067 C 
ATOM      9  C   UNL d   1       1.023   1.586   0.146  0.00  0.00     0.018 A 
ATOM     10  C   UNL d   1       2.149   0.801   0.020  0.00  0.00     0.051 A 
ATOM     11  O   UNL d   1      -4.273  -0.305  -1.727  0.00  0.00    -0.267 OA
ENDROOT
BRANCH   3  12
ATOM     12  C   UNL d   1      -1.905   1.676   1.664  0.00  0.00    -0.031 A 
ATOM     13  C   UNL d   1      -2.826   2.709   1.921  0.00  0.00     0.010 A 
ATOM     14  C   UNL d   1      -3.137   3.094   3.228  0.00  0.00     0.017 A 
ATOM     15  C   UNL d   1      -2.544   2.447   4.321  0.00  0.00     0.047 A 
ATOM     16  C   UNL d   1      -1.641   1.407   4.077  0.00  0.00     0.017 A 
ATOM     17  C   UNL d   1      -1.332   1.022   2.768  0.00  0.00     0.010 A 
BRANCH  15  18
ATOM     18  C   UNL d   1      -2.886   2.874   5.727  0.00  0.00     0.417 C 
ATOM     19  F   UNL d   1      -2.242   2.154   6.688  0.00  0.00    -0.166 F 
ATOM     20  F   UNL d   1      -2.572   4.178   5.966  0.00  0.00    -0.166 F 
ATOM     21  F   UNL d   1      -4.215   2.754   5.998  0.00  0.00    -0.166 F 
ENDBRANCH  15  18
ENDBRANCH   3  12
BRANCH   4  22
ATOM     22  C   UNL d   1      -3.776   1.947  -1.860  0.00  0.00     0.032 A 
ATOM     23  C   UNL d   1      -2.762   2.770  -2.363  0.00  0.00     0.018 A 
ATOM     24  C   UNL d   1      -3.059   4.068  -2.789  0.00  0.00     0.025 A 
ATOM     25  C   UNL d   1      -4.380   4.512  -2.796  0.00  0.00     0.034 A 
ATOM     26  C   UNL d   1      -5.410   3.663  -2.399  0.00  0.00     0.025 A 
ATOM     27 CL   UNL d   1      -4.741   6.112  -3.314  0.00  0.00    -0.084 Cl
ATOM     28  C   UNL d   1      -5.108   2.382  -1.928  0.00  0.00     0.018 A 
ENDBRANCH   4  22
TORSDOF 3
