REMARK  4 active torsions:
REMARK  status: ('A' for Active; 'I' for Inactive)
REMARK    1  A    between atoms: O_5  and  S_1 
REMARK    2  A    between atoms: C_6  and  S_1 
REMARK    3  A    between atoms: N_2  and  C_8 
REMARK    4  A    between atoms: C_7  and  O_5 
ROOT
ATOM      1  C   UNL d   1       0.387   0.443  -1.632  0.00  0.00     0.086 A 
ATOM      2  C   UNL d   1      -0.551   1.388  -4.121  0.00  0.00     0.045 A 
ATOM      3  C   UNL d   1      -0.331  -0.407  -2.469  0.00  0.00     0.028 A 
ATOM      4  C   UNL d   1       0.610   1.768  -1.998  0.00  0.00     0.028 A 
ATOM      5  C   UNL d   1      -0.796   0.068  -3.701  0.00  0.00     0.032 A 
ATOM      6  C   UNL d   1       0.148   2.228  -3.237  0.00  0.00     0.032 A 
ENDROOT
BRANCH   1   7
ATOM      7  S   UNL d   1       0.994  -0.150  -0.071  0.00  0.00     0.303 S 
ATOM      8  O   UNL d   1       1.041   0.990   0.826  0.00  0.00    -0.193 OA
ATOM      9  O   UNL d   1       0.220  -1.328   0.269  0.00  0.00    -0.193 OA
BRANCH   7  10
ATOM     10  O   UNL d   1       2.521  -0.605  -0.427  0.00  0.00    -0.229 OA
BRANCH  10  11
ATOM     11  C   UNL d   1       3.356  -1.169   0.506  0.00  0.00     0.092 A 
ATOM     12  C   UNL d   1       3.047  -1.350   1.856  0.00  0.00     0.062 A 
ATOM     13  C   UNL d   1       3.980  -1.941   2.707  0.00  0.00     0.038 A 
ATOM     14 CL   UNL d   1       3.589  -2.164   4.368  0.00  0.00    -0.084 Cl
ATOM     15  C   UNL d   1       5.221  -2.353   2.232  0.00  0.00     0.048 A 
ATOM     16  C   UNL d   1       5.527  -2.167   0.887  0.00  0.00     0.038 A 
ATOM     17  C   UNL d   1       4.604  -1.576   0.024  0.00  0.00     0.062 A 
ATOM     18 CL   UNL d   1       7.057  -2.672   0.285  0.00  0.00    -0.084 Cl
ENDBRANCH  10  11
ENDBRANCH   7  10
ENDBRANCH   1   7
BRANCH   2  19
ATOM     19  N   UNL d   1      -0.976   1.849  -5.406  0.00  0.00    -0.252 N 
ATOM     20  C   UNL d   1      -0.426   2.929  -6.061  0.00  0.00     0.231 A 
ATOM     21  C   UNL d   1      -1.046   3.055  -7.419  0.00  0.00     0.113 A 
ATOM     22  O   UNL d   1       0.471   3.680  -5.701  0.00  0.00    -0.273 OA
ATOM     23  C   UNL d   1      -2.112   1.992  -7.456  0.00  0.00     0.113 A 
ATOM     24  C   UNL d   1      -1.964   1.256  -6.160  0.00  0.00     0.231 A 
ATOM     25  O   UNL d   1      -2.690   0.312  -5.877  0.00  0.00    -0.273 OA
ENDBRANCH   2  19
TORSDOF 4
