REMARK  6 active torsions:
REMARK  status: ('A' for Active; 'I' for Inactive)
REMARK    1  A    between atoms: C_2  and  C_1 
REMARK       I    between atoms: N_7  and  C_2 
REMARK    2  A    between atoms: O_9  and  C_3 
REMARK    3  A    between atoms: C_4  and  C_6 
REMARK    4  A    between atoms: C_5  and  C_10 
REMARK    5  A    between atoms: C_8  and  N_7 
REMARK    6  A    between atoms: C_17  and  O_9 
ROOT
ATOM      1  C   UNL d   1       1.106   1.356   0.023  0.00  0.00     0.098 A 
ATOM      2  C   UNL d   1      -0.243   1.005  -0.110  0.00  0.00     0.164 A 
ATOM      3  C   UNL d   1       2.045   0.309   0.094  0.00  0.00     0.069 A 
ATOM      4  N   UNL d   1      -0.685  -0.283  -0.131  0.00  0.00    -0.346 N 
ATOM      5  HN  UNL d   1      -1.679  -0.494  -0.219  1.00  0.00     0.167 HD
ATOM      6  C   UNL d   1       0.220  -1.265  -0.033  0.00  0.00     0.091 A 
ATOM      7  C   UNL d   1       1.572  -1.021   0.064  0.00  0.00     0.034 A 
ENDROOT
BRANCH   1   8
ATOM      8  C   UNL d   1       1.440   2.795   0.181  0.00  0.00     0.261 C 
ATOM      9  N   UNL d   1       2.347   3.313  -0.727  0.00  0.00    -0.320 N 
ATOM     10  H   UNL d   1       2.879   2.650  -1.274  0.00  0.00     0.169 HD
ATOM     11  O   UNL d   1       0.947   3.378   1.138  0.00  0.00    -0.267 OA
BRANCH   9  12
ATOM     12  C   UNL d   1       2.864   4.637  -0.735  0.00  0.00     0.074 A 
ATOM     13  C   UNL d   1       2.199   5.770  -0.248  0.00  0.00     0.146 A 
ATOM     14  C   UNL d   1       2.788   7.032  -0.307  0.00  0.00     0.086 A 
ATOM     15  F   UNL d   1       0.940   5.704   0.207  0.00  0.00    -0.204 F 
ATOM     16  C   UNL d   1       4.052   7.171  -0.861  0.00  0.00     0.119 A 
ATOM     17  C   UNL d   1       4.731   6.071  -1.366  0.00  0.00     0.044 A 
ATOM     18  F   UNL d   1       4.621   8.382  -0.925  0.00  0.00    -0.206 F 
ATOM     19  C   UNL d   1       4.134   4.807  -1.311  0.00  0.00     0.036 A 
ENDBRANCH   9  12
ENDBRANCH   1   8
BRANCH   2  20
ATOM     20  O   UNL d   1      -1.201   2.006  -0.267  0.00  0.00    -0.293 OA
BRANCH  20  21
ATOM     21  C   UNL d   1      -2.361   1.610  -0.899  0.00  0.00     0.078 A 
ATOM     22  C   UNL d   1      -3.540   1.518  -0.154  0.00  0.00     0.053 A 
ATOM     23  C   UNL d   1      -4.723   1.062  -0.770  0.00  0.00     0.050 A 
ATOM     24  C   UNL d   1      -4.700   0.746  -2.139  0.00  0.00     0.016 A 
ATOM     25  C   UNL d   1      -3.525   0.874  -2.882  0.00  0.00     0.004 A 
ATOM     26  C   UNL d   1      -2.357   1.315  -2.263  0.00  0.00     0.037 A 
BRANCH  23  27
ATOM     27  C   UNL d   1      -6.003   0.929   0.014  0.00  0.00     0.417 C 
ATOM     28  F   UNL d   1      -5.812   0.793   1.355  0.00  0.00    -0.166 F 
ATOM     29  F   UNL d   1      -6.819   2.009  -0.141  0.00  0.00    -0.166 F 
ATOM     30  F   UNL d   1      -6.744  -0.152  -0.365  0.00  0.00    -0.166 F 
ENDBRANCH  23  27
ENDBRANCH  20  21
ENDBRANCH   2  20
BRANCH   3  31
ATOM     31  C   UNL d   1       3.534   0.460   0.238  0.00  0.00     0.418 C 
ATOM     32  F   UNL d   1       4.026   1.709   0.067  0.00  0.00    -0.166 F 
ATOM     33  F   UNL d   1       3.992   0.027   1.440  0.00  0.00    -0.166 F 
ATOM     34  F   UNL d   1       4.187  -0.293  -0.698  0.00  0.00    -0.166 F 
ENDBRANCH   3  31
TORSDOF 6
