REMARK  4 active torsions:
REMARK  status: ('A' for Active; 'I' for Inactive)
REMARK    1  A    between atoms: C_15  and  N_4 
REMARK       I    between atoms: C_12  and  N_10 
REMARK    2  A    between atoms: O_19  and  C_12 
REMARK    3  A    between atoms: C_20  and  C_15 
REMARK    4  A    between atoms: C_27  and  O_19 
ROOT
ATOM      1  C   UNL d   1       0.662   0.404   0.028  0.00  0.00     0.073 A 
ATOM      2  C   UNL d   1       1.200  -0.863   0.041  0.00  0.00     0.091 A 
ATOM      3  C   UNL d   1       1.579   1.530   0.052  0.00  0.00     0.262 A 
ATOM      4  N   UNL d   1       2.925   1.173   0.088  0.00  0.00    -0.305 N 
ATOM      5  C   UNL d   1      -0.769   0.390   0.024  0.00  0.00    -0.023 A 
ATOM      6  C   UNL d   1      -1.258  -0.906   0.027  0.00  0.00     0.010 A 
ATOM      7  N   UNL d   1       2.519  -1.179   0.089  0.00  0.00    -0.346 N 
ATOM      8  HN  UNL d   1       2.859  -2.141   0.103  1.00  0.00     0.167 HD
ATOM      9  S   UNL d   1      -0.011  -2.068   0.005  0.00  0.00    -0.074 SA
ATOM     10  N   UNL d   1      -3.516  -0.108   0.346  0.00  0.00    -0.323 N 
ATOM     11  C   UNL d   1       3.311  -0.153   0.115  0.00  0.00     0.187 A 
ATOM     12  C   UNL d   1      -4.435  -0.069   1.373  0.00  0.00     0.363 C 
ATOM     13  C   UNL d   1      -2.712  -1.297   0.036  0.00  0.00     0.174 C 
ATOM     14  C   UNL d   1      -1.703   1.567   0.067  0.00  0.00     0.061 C 
ATOM     15  C   UNL d   1      -3.130   1.139  -0.321  0.00  0.00     0.133 C 
ATOM     16  O   UNL d   1       1.183   2.690   0.049  0.00  0.00    -0.267 OA
ATOM     17  O   UNL d   1      -4.984   0.956   1.760  0.00  0.00    -0.238 OA
ENDROOT
BRANCH   4  18
ATOM     18  C   UNL d   1       3.922   2.238   0.095  0.00  0.00     0.171 C 
BRANCH  18  19
ATOM     19  C   UNL d   1       4.331   2.640  -1.308  0.00  0.00    -0.040 A 
ATOM     20  C   UNL d   1       3.635   3.652  -1.990  0.00  0.00     0.010 A 
ATOM     21  C   UNL d   1       3.924   3.939  -3.327  0.00  0.00     0.024 A 
ATOM     22  C   UNL d   1       4.915   3.220  -3.989  0.00  0.00     0.034 A 
ATOM     23  C   UNL d   1       5.647   2.247  -3.314  0.00  0.00     0.024 A 
ATOM     24 CL   UNL d   1       5.217   3.515  -5.657  0.00  0.00    -0.084 Cl
ATOM     25  C   UNL d   1       5.361   1.961  -1.976  0.00  0.00     0.010 A 
ENDBRANCH  18  19
ENDBRANCH   4  18
BRANCH  12  26
ATOM     26  O   UNL d   1      -4.619  -1.286   1.952  0.00  0.00    -0.304 OA
BRANCH  26  27
ATOM     27  C   UNL d   1      -5.098  -1.249   3.303  0.00  0.00     0.176 C 
ATOM     28  C   UNL d   1      -3.890  -1.090   4.209  0.00  0.00     0.034 C 
ENDBRANCH  26  27
ENDBRANCH  12  26
TORSDOF 4
