REMARK  3 active torsions:
REMARK  status: ('A' for Active; 'I' for Inactive)
REMARK    1  A    between atoms: C_2  and  C_13 
REMARK    2  A    between atoms: O_12  and  C_7 
REMARK    3  A    between atoms: C_17  and  O_12 
ROOT
ATOM      1  C   UNL d   1       3.023   4.590  -0.831  0.00  0.00     0.100 A 
ATOM      2  C   UNL d   1       2.422   3.329  -0.666  0.00  0.00     0.098 A 
ATOM      3  C   UNL d   1       2.561   5.735  -0.104  0.00  0.00     0.104 C 
ATOM      4  N   UNL d   1       2.184   6.671   0.472  0.00  0.00    -0.191 NA
ATOM      5  C   UNL d   1       4.116   4.706  -1.702  0.00  0.00     0.057 A 
ATOM      6 CL   UNL d   1       4.867   6.228  -2.041  0.00  0.00    -0.083 Cl
ATOM      7  C   UNL d   1       2.977   2.200  -1.284  0.00  0.00     0.039 A 
ATOM      8  C   UNL d   1       4.088   2.321  -2.114  0.00  0.00     0.005 A 
ATOM      9  C   UNL d   1       4.646   3.577  -2.339  0.00  0.00     0.025 A 
ENDROOT
BRANCH   2  10
ATOM     10  O   UNL d   1       1.361   3.065   0.170  0.00  0.00    -0.309 OA
BRANCH  10  11
ATOM     11  C   UNL d   1       0.178   3.757   0.032  0.00  0.00     0.076 A 
ATOM     12  C   UNL d   1      -0.229   4.454  -1.106  0.00  0.00     0.038 A 
ATOM     13  C   UNL d   1      -1.426   5.181  -1.091  0.00  0.00     0.018 A 
ATOM     14  C   UNL d   1      -2.260   5.180   0.037  0.00  0.00     0.017 A 
ATOM     15  C   UNL d   1      -1.871   4.423   1.150  0.00  0.00     0.018 A 
ATOM     16  C   UNL d   1      -0.662   3.718   1.147  0.00  0.00     0.038 A 
BRANCH  14  17
ATOM     17  C   UNL d   1      -3.509   5.932   0.073  0.00  0.00     0.173 A 
ATOM     18  N   UNL d   1      -4.434   6.004   1.011  0.00  0.00    -0.278 N 
ATOM     19  N   UNL d   1      -5.415   6.851   0.533  0.00  0.00    -0.288 N 
ATOM     20  HN  UNL d   1      -4.426   5.527   1.912  1.00  0.00     0.189 HD
ATOM     21  C   UNL d   1      -5.014   7.234  -0.655  0.00  0.00     0.251 A 
ATOM     22  HN  UNL d   1      -6.276   7.124   1.008  1.00  0.00     0.188 HD
ATOM     23  O   UNL d   1      -3.819   6.698  -1.025  0.00  0.00    -0.286 OA
ENDBRANCH  14  17
ENDBRANCH  10  11
ENDBRANCH   2  10
TORSDOF 3
