REMARK  5 active torsions:
REMARK  status: ('A' for Active; 'I' for Inactive)
REMARK    1  A    between atoms: C_8  and  S_1 
REMARK    2  A    between atoms: N_9  and  S_1 
REMARK    3  A    between atoms: C_2  and  C_13 
REMARK    4  A    between atoms: C_13  and  N_9 
REMARK    5  A    between atoms: N_14  and  C_10 
ROOT
ATOM      1  S   UNL d   1       1.003  -0.031  -0.061  0.00  0.00     0.260 S 
ATOM      2  O   UNL d   1       0.238   0.550   1.032  0.00  0.00    -0.200 OA
ATOM      3  O   UNL d   1       2.446  -0.075  -0.039  0.00  0.00    -0.200 OA
ENDROOT
BRANCH   1   4
ATOM      4  C   UNL d   1       0.489   0.767  -1.538  0.00  0.00     0.095 A 
ATOM      5  C   UNL d   1       1.331   0.799  -2.622  0.00  0.00     0.115 A 
ATOM      6  N   UNL d   1       1.014   1.401  -3.796  0.00  0.00    -0.351 N 
ATOM      7  C   UNL d   1      -0.187   2.014  -3.909  0.00  0.00     0.103 A 
ATOM      8  HN  UNL d   1       1.668   1.391  -4.579  1.00  0.00     0.166 HD
ATOM      9  C   UNL d   1      -1.081   2.025  -2.834  0.00  0.00     0.050 A 
ATOM     10  C   UNL d   1      -0.737   1.419  -1.625  0.00  0.00     0.030 A 
BRANCH   7  11
ATOM     11  N   UNL d   1      -0.477   2.709  -5.062  0.00  0.00    -0.363 N 
ATOM     12  C   UNL d   1       0.623   3.161  -5.920  0.00  0.00     0.150 C 
ATOM     13  C   UNL d   1       0.629   2.416  -7.260  0.00  0.00     0.187 C 
ATOM     14  O   UNL d   1      -0.654   2.475  -7.905  0.00  0.00    -0.388 OA
ATOM     15  C   UNL d   1      -1.654   1.872  -7.070  0.00  0.00     0.187 C 
ATOM     16  C   UNL d   1      -1.782   2.598  -5.719  0.00  0.00     0.150 C 
ENDBRANCH   7  11
ENDBRANCH   1   4
BRANCH   1  17
ATOM     17  N   UNL d   1       0.413  -1.569  -0.281  0.00  0.00    -0.311 N 
ATOM     18  H   UNL d   1      -0.438  -1.834   0.213  0.00  0.00     0.172 HD
BRANCH  17  19
ATOM     19  C   UNL d   1       1.265  -2.586  -0.874  0.00  0.00     0.174 C 
BRANCH  19  20
ATOM     20  C   UNL d   1       0.513  -3.874  -0.941  0.00  0.00     0.008 A 
ATOM     21  C   UNL d   1      -0.290  -4.305  -1.989  0.00  0.00     0.034 A 
ATOM     22  N   UNL d   1      -0.733  -5.553  -1.640  0.00  0.00    -0.300 N 
ATOM     23  C   UNL d   1      -0.634  -3.589  -3.244  0.00  0.00     0.070 C 
ATOM     24  C   UNL d   1      -1.598  -6.458  -2.359  0.00  0.00     0.177 C 
ATOM     25  N   UNL d   1      -0.307  -5.942  -0.427  0.00  0.00    -0.303 N 
ATOM     26  C   UNL d   1       0.437  -4.926   0.018  0.00  0.00     0.032 A 
ATOM     27  HN  UNL d   1      -0.507  -6.821   0.050  1.00  0.00     0.186 HD
ATOM     28  C   UNL d   1       1.023  -5.014   1.381  0.00  0.00     0.070 C 
ENDBRANCH  19  20
ENDBRANCH  17  19
ENDBRANCH   1  17
TORSDOF 5
