REMARK  2 active torsions:
REMARK  status: ('A' for Active; 'I' for Inactive)
REMARK       I    between atoms: N_3  and  C_1 
REMARK    1  A    between atoms: C_4  and  C_1 
REMARK    2  A    between atoms: C_2  and  N_3 
ROOT
ATOM      1  C   UNL d   1       1.273   0.052  -2.429  0.00  0.00     0.077 A 
ATOM      2  C   UNL d   1       2.596  -0.342  -2.641  0.00  0.00     0.076 A 
ATOM      3  C   UNL d   1       1.079   0.566  -4.812  0.00  0.00     0.067 A 
ATOM      4  C   UNL d   1       0.524   0.482  -3.535  0.00  0.00     0.144 A 
ATOM      5  C   UNL d   1       3.155  -0.265  -3.916  0.00  0.00     0.136 A 
ATOM      6  C   UNL d   1       2.409   0.198  -4.996  0.00  0.00     0.052 A 
ATOM      7  F   UNL d   1      -0.755   0.850  -3.365  0.00  0.00    -0.204 F 
ATOM      8  F   UNL d   1       4.431  -0.647  -4.078  0.00  0.00    -0.205 F 
ATOM      9 BR   UNL d   1       3.191   0.341  -6.712  0.00  0.00    -0.048 Br
ENDROOT
BRANCH   1  10
ATOM     10  N   UNL d   1       0.646   0.051  -1.162  0.00  0.00    -0.319 N 
ATOM     11  C   UNL d   1       1.264  -0.106   0.067  0.00  0.00     0.280 C 
ATOM     12  O   UNL d   1       2.474  -0.260   0.221  0.00  0.00    -0.265 OA
ATOM     13  H   UNL d   1      -0.345   0.282  -1.137  0.00  0.00     0.169 HD
BRANCH  11  14
ATOM     14  C   UNL d   1       0.365  -0.041   1.202  0.00  0.00     0.142 A 
ATOM     15  O   UNL d   1      -0.989   0.060   1.014  0.00  0.00    -0.317 OA
ATOM     16  C   UNL d   1      -1.558   0.077   2.249  0.00  0.00     0.143 A 
ATOM     17  C   UNL d   1      -0.597   0.003   3.230  0.00  0.00     0.027 A 
ATOM     18  C   UNL d   1       0.643  -0.071   2.556  0.00  0.00     0.045 A 
ENDBRANCH  11  14
ENDBRANCH   1  10
TORSDOF 2
