REMARK  3 active torsions:
REMARK  status: ('A' for Active; 'I' for Inactive)
REMARK    1  A    between atoms: C_7  and  C_1 
REMARK    2  A    between atoms: C_8  and  C_3 
REMARK       I    between atoms: N_9  and  C_7 
REMARK    3  A    between atoms: C_17  and  N_9 
ROOT
ATOM      1  C   UNL d   1      -0.221  -1.052  -0.223  0.00  0.00     0.097 A 
ATOM      2  S   UNL d   1       1.306  -0.304  -0.424  0.00  0.00    -0.064 SA
ATOM      3  C   UNL d   1       0.601   1.254  -0.182  0.00  0.00     0.085 A 
ATOM      4  N   UNL d   1      -0.709   1.232  -0.042  0.00  0.00    -0.352 N 
ATOM      5  HN  UNL d   1      -1.294   2.062   0.057  1.00  0.00     0.166 HD
ATOM      6  C   UNL d   1      -1.187  -0.072  -0.046  0.00  0.00     0.029 A 
ATOM      7  C   UNL d   1      -2.648  -0.288   0.152  0.00  0.00     0.070 C 
ENDROOT
BRANCH   1   8
ATOM      8  C   UNL d   1      -0.418  -2.498  -0.212  0.00  0.00     0.265 C 
ATOM      9  N   UNL d   1       0.691  -3.259  -0.558  0.00  0.00    -0.322 N 
ATOM     10  H   UNL d   1       1.513  -2.744  -0.846  0.00  0.00     0.169 HD
ATOM     11  O   UNL d   1      -1.507  -2.978   0.081  0.00  0.00    -0.267 OA
BRANCH   9  12
ATOM     12  C   UNL d   1       0.803  -4.669  -0.537  0.00  0.00     0.035 A 
ATOM     13  C   UNL d   1      -0.211  -5.528  -0.103  0.00  0.00     0.029 A 
ATOM     14  C   UNL d   1      -0.014  -6.912  -0.073  0.00  0.00     0.002 A 
ATOM     15  C   UNL d   1       1.199  -7.456  -0.480  0.00  0.00     0.000 A 
ATOM     16  C   UNL d   1       2.215  -6.615  -0.927  0.00  0.00     0.002 A 
ATOM     17  C   UNL d   1       2.018  -5.229  -0.955  0.00  0.00     0.029 A 
ENDBRANCH   9  12
ENDBRANCH   1   8
BRANCH   3  18
ATOM     18  C   UNL d   1       1.415   2.491  -0.162  0.00  0.00    -0.002 A 
ATOM     19  C   UNL d   1       0.772   3.739  -0.307  0.00  0.00     0.024 A 
ATOM     20  C   UNL d   1       1.530   4.901  -0.294  0.00  0.00    -0.022 A 
ATOM     21  C   UNL d   1       1.108   6.319  -0.366  0.00  0.00     0.068 C 
ATOM     22  C   UNL d   1       2.902   4.850  -0.119  0.00  0.00     0.075 A 
ATOM     23  C   UNL d   1       2.474   6.957  -0.628  0.00  0.00     0.180 C 
ATOM     24  O   UNL d   1       3.506   6.080  -0.118  0.00  0.00    -0.350 OA
ATOM     25  C   UNL d   1       3.567   3.659   0.059  0.00  0.00     0.038 A 
ATOM     26  C   UNL d   1       2.817   2.476   0.033  0.00  0.00     0.017 A 
ENDBRANCH   3  18
TORSDOF 3
