REMARK  2 active torsions:
REMARK  status: ('A' for Active; 'I' for Inactive)
REMARK    1  A    between atoms: C_6  and  N_1 
REMARK    2  A    between atoms: O_13  and  C_6 
ROOT
ATOM      1  N   UNL d   1      -2.379  -0.637   0.032  0.00  0.00    -0.258 N 
ATOM      2  C   UNL d   1      -1.365  -1.549  -0.044  0.00  0.00     0.264 A 
ATOM      3  C   UNL d   1      -1.910   0.646   0.024  0.00  0.00     0.263 A 
ATOM      4  C   UNL d   1      -0.129  -0.788  -0.019  0.00  0.00     0.063 A 
ATOM      5  C   UNL d   1      -0.451   0.551   0.022  0.00  0.00     0.051 A 
ATOM      6  O   UNL d   1      -1.438  -2.760  -0.117  0.00  0.00    -0.267 OA
ATOM      7  O   UNL d   1      -2.519   1.698  -0.018  0.00  0.00    -0.267 OA
ATOM      8  N   UNL d   1       2.172  -0.246  -0.011  0.00  0.00    -0.374 N 
ATOM      9  HN  UNL d   1       3.153  -0.527  -0.020  1.00  0.00     0.164 HD
ATOM     10  C   UNL d   1       1.181  -1.171  -0.034  0.00  0.00     0.105 A 
ATOM     11  C   UNL d   1       0.513   1.534   0.042  0.00  0.00     0.035 A 
ATOM     12  C   UNL d   1       1.820   1.074   0.026  0.00  0.00     0.088 A 
ENDROOT
BRANCH   1  13
ATOM     13  C   UNL d   1      -3.767  -0.986  -0.026  0.00  0.00     0.302 C 
BRANCH  13  14
ATOM     14  O   UNL d   1      -4.069  -1.816   1.082  0.00  0.00    -0.382 OA
ATOM     15  H   UNL d   1      -3.472  -2.584   1.002  0.00  0.00     0.211 HD
ENDBRANCH  13  14
ENDBRANCH   1  13
TORSDOF 2
