REMARK  10 active torsions:
REMARK  status: ('A' for Active; 'I' for Inactive)
REMARK    1  A    between atoms: C_4  and  C_1 
REMARK    2  A    between atoms: N_5  and  C_2 
REMARK    3  A    between atoms: C_9  and  C_4 
REMARK       I    between atoms: C_8  and  N_5 
REMARK    4  A    between atoms: C_24  and  C_7 
REMARK    5  A    between atoms: C_21  and  C_8 
REMARK    6  A    between atoms: C_10  and  C_22 
REMARK    7  A    between atoms: O_18  and  C_10 
REMARK    8  A    between atoms: O_16  and  C_21 
REMARK    9  A    between atoms: C_22  and  O_16 
REMARK   10  A    between atoms: O_23  and  C_17 
ROOT
ATOM      1  C   UNL d   1       1.554   0.758   0.146  0.00  0.00     0.050 A 
ATOM      2  C   UNL d   1       0.292   1.317   0.109  0.00  0.00     0.091 A 
ATOM      3  S   UNL d   1      -0.964   0.176   0.220  0.00  0.00    -0.076 SA
ATOM      4  C   UNL d   1       1.439  -0.680   0.133  0.00  0.00     0.033 A 
ATOM      5  C   UNL d   1       0.133  -1.127   0.104  0.00  0.00    -0.015 A 
ENDROOT
BRANCH   2   6
ATOM      6  N   UNL d   1      -0.174   2.606   0.002  0.00  0.00    -0.319 N 
ATOM      7  C   UNL d   1       0.411   3.493  -0.885  0.00  0.00     0.246 C 
ATOM      8  O   UNL d   1       1.303   3.230  -1.689  0.00  0.00    -0.271 OA
ATOM      9  H   UNL d   1      -1.141   2.761   0.256  0.00  0.00     0.169 HD
BRANCH   7  10
ATOM     10  C   UNL d   1      -0.211   4.892  -0.810  0.00  0.00     0.271 C 
BRANCH  10  11
ATOM     11  O   UNL d   1       0.029   5.572   0.420  0.00  0.00    -0.372 OA
BRANCH  11  12
ATOM     12  C   UNL d   1       1.431   5.878   0.572  0.00  0.00     0.277 C 
BRANCH  12  13
ATOM     13  C   UNL d   1       1.639   6.621   1.883  0.00  0.00     0.164 C 
ATOM     14  O   UNL d   1       2.717   7.018   2.298  0.00  0.00    -0.648 OA
BRANCH  13  15
ATOM     15  O   UNL d   1       0.471   6.821   2.546  0.00  0.00    -0.775 OA
ATOM     16  H   UNL d   1      -0.245   6.411   2.008  0.00  0.00     0.167 HD
ENDBRANCH  13  15
ENDBRANCH  12  13
ENDBRANCH  11  12
ENDBRANCH  10  11
ENDBRANCH   7  10
ENDBRANCH   2   6
BRANCH   1  17
ATOM     17  C   UNL d   1       2.807   1.517   0.283  0.00  0.00     0.195 C 
ATOM     18  O   UNL d   1       2.869   2.597   0.861  0.00  0.00    -0.287 OA
BRANCH  17  19
ATOM     19  C   UNL d   1       4.070   0.876  -0.180  0.00  0.00     0.015 A 
ATOM     20  C   UNL d   1       5.204   0.922   0.645  0.00  0.00     0.018 A 
ATOM     21  C   UNL d   1       6.375   0.251   0.270  0.00  0.00     0.037 A 
ATOM     22  C   UNL d   1       6.420  -0.453  -0.936  0.00  0.00     0.068 A 
ATOM     23  C   UNL d   1       5.295  -0.478  -1.764  0.00  0.00     0.037 A 
ATOM     24  C   UNL d   1       4.129   0.200  -1.401  0.00  0.00     0.018 A 
BRANCH  22  25
ATOM     25  O   UNL d   1       7.481  -1.187  -1.387  0.00  0.00    -0.356 OA
ATOM     26  C   UNL d   1       8.765  -0.748  -0.961  0.00  0.00     0.210 C 
ENDBRANCH  22  25
ENDBRANCH  17  19
ENDBRANCH   1  17
BRANCH   5  27
ATOM     27  C   UNL d   1      -0.355  -2.540   0.024  0.00  0.00     0.042 C 
ATOM     28  C   UNL d   1      -0.393  -3.033  -1.417  0.00  0.00     0.010 C 
ENDBRANCH   5  27
TORSDOF 10
