REMARK  6 active torsions:
REMARK  status: ('A' for Active; 'I' for Inactive)
REMARK    1  A    between atoms: S_9  and  C_5 
REMARK    2  A    between atoms: O_11  and  C_6 
REMARK    3  A    between atoms: O_10  and  C_7 
REMARK    4  A    between atoms: C_12  and  C_8 
REMARK    5  A    between atoms: C_14  and  C_12 
REMARK    6  A    between atoms: C_15  and  C_14 
ROOT
ATOM      1  N   UNL d   1      -0.745   1.175  -0.066  0.00  0.00    -0.317 N 
ATOM      2  HN  UNL d   1      -1.229   2.072  -0.064  1.00  0.00     0.170 HD
ATOM      3  N   UNL d   1      -0.809  -1.192  -0.071  0.00  0.00    -0.317 N 
ATOM      4  HN  UNL d   1      -1.353  -2.055  -0.083  1.00  0.00     0.170 HD
ATOM      5  C   UNL d   1      -1.400   0.008  -0.074  0.00  0.00     0.147 A 
ATOM      6  C   UNL d   1       0.530  -1.208  -0.052  0.00  0.00     0.152 A 
ATOM      7  C   UNL d   1       0.587   1.082  -0.061  0.00  0.00     0.152 A 
ATOM      8  C   UNL d   1       1.324  -0.083  -0.059  0.00  0.00     0.043 A 
ENDROOT
BRANCH   8   9
ATOM      9  C   UNL d   1       2.825  -0.076  -0.025  0.00  0.00     0.047 C 
BRANCH   9  10
ATOM     10  C   UNL d   1       3.531  -0.769  -1.197  0.00  0.00     0.004 C 
BRANCH  10  11
ATOM     11  C   UNL d   1       3.220  -0.152  -2.561  0.00  0.00    -0.004 C 
ATOM     12  C   UNL d   1       3.990  -0.862  -3.665  0.00  0.00     0.005 C 
ENDBRANCH  10  11
ENDBRANCH   9  10
ENDBRANCH   8   9
BRANCH   6  13
ATOM     13  O   UNL d   1       1.037  -2.471   0.002  0.00  0.00    -0.346 OA
ATOM     14  H   UNL d   1       1.960  -2.430   0.286  0.00  0.00     0.219 HD
ENDBRANCH   6  13
BRANCH   7  15
ATOM     15  O   UNL d   1       1.193   2.299  -0.039  0.00  0.00    -0.346 OA
ATOM     16  H   UNL d   1       0.413   2.884  -0.027  0.00  0.00     0.219 HD
ENDBRANCH   7  15
BRANCH   5  17
ATOM     17  S   UNL d   1      -3.174   0.097  -0.055  0.00  0.00    -0.098 SA
ATOM     18  C   UNL d   1      -3.579  -1.667  -0.025  0.00  0.00     0.099 C 
ENDBRANCH   5  17
TORSDOF 6
