REMARK  7 active torsions:
REMARK  status: ('A' for Active; 'I' for Inactive)
REMARK    1  A    between atoms: C_3  and  S_1 
REMARK    2  A    between atoms: N_6  and  S_1 
REMARK       I    between atoms: C_2  and  N_10 
REMARK    3  A    between atoms: O_7  and  C_2 
REMARK    4  A    between atoms: C_14  and  N_6 
REMARK    5  A    between atoms: C_9  and  O_7 
REMARK    6  A    between atoms: N_10  and  C_18 
REMARK    7  A    between atoms: C_18  and  C_14 
ROOT
ATOM      1  N   UNL d   1       2.470   2.307  -1.708  0.00  0.00    -0.314 N 
ATOM      2  H   UNL d   1       3.020   3.116  -1.999  0.00  0.00     0.172 HD
ENDROOT
BRANCH   1   3
ATOM      3  S   UNL d   1       0.840   2.491  -2.048  0.00  0.00     0.258 S 
ATOM      4  O   UNL d   1       0.751   3.368  -3.192  0.00  0.00    -0.201 OA
ATOM      5  O   UNL d   1       0.237   1.173  -2.049  0.00  0.00    -0.201 OA
BRANCH   3   6
ATOM      6  C   UNL d   1       0.219   3.371  -0.632  0.00  0.00     0.079 A 
ATOM      7  C   UNL d   1       0.318   4.766  -0.587  0.00  0.00     0.027 A 
ATOM      8  C   UNL d   1      -0.198   5.453   0.515  0.00  0.00     0.025 A 
ATOM      9  C   UNL d   1      -0.808   4.747   1.553  0.00  0.00     0.034 A 
ATOM     10  C   UNL d   1      -0.908   3.356   1.504  0.00  0.00     0.025 A 
ATOM     11 CL   UNL d   1      -1.458   5.599   2.900  0.00  0.00    -0.084 Cl
ATOM     12  C   UNL d   1      -0.399   2.663   0.405  0.00  0.00     0.027 A 
ENDBRANCH   3   6
ENDBRANCH   1   3
BRANCH   1  13
ATOM     13  C   UNL d   1       2.872   1.681  -0.438  0.00  0.00     0.152 C 
BRANCH  13  14
ATOM     14  C   UNL d   1       4.404   1.606  -0.361  0.00  0.00     0.145 C 
BRANCH  14  15
ATOM     15  N   UNL d   1       5.097   2.847  -0.685  0.00  0.00    -0.335 N 
ATOM     16  C   UNL d   1       4.785   4.067  -0.159  0.00  0.00     0.361 C 
ATOM     17  O   UNL d   1       3.832   4.294   0.560  0.00  0.00    -0.238 OA
ATOM     18  H   UNL d   1       6.008   2.797  -1.121  0.00  0.00     0.164 HD
BRANCH  16  19
ATOM     19  O   UNL d   1       5.685   4.975  -0.599  0.00  0.00    -0.294 OA
BRANCH  19  20
ATOM     20  C   UNL d   1       5.583   6.368  -0.198  0.00  0.00     0.061 C 
ATOM     21  C   UNL d   1       5.638   6.511   1.330  0.00  0.00     0.046 C 
ATOM     22  C   UNL d   1       6.812   7.052  -0.826  0.00  0.00     0.046 C 
ATOM     23  C   UNL d   1       4.317   7.015  -0.775  0.00  0.00     0.046 C 
ENDBRANCH  19  20
ENDBRANCH  16  19
ENDBRANCH  14  15
ENDBRANCH  13  14
ENDBRANCH   1  13
TORSDOF 7
