REMARK  3 active torsions:
REMARK  status: ('A' for Active; 'I' for Inactive)
REMARK    1  A    between atoms: C_8  and  N_3 
REMARK    2  A    between atoms: C_10  and  C_8 
REMARK       I    between atoms: N_15  and  C_10 
REMARK    3  A    between atoms: N_16  and  N_15 
ROOT
ATOM      1  N   UNL d   1      -0.937   0.433  -0.015  0.00  0.00    -0.248 N 
ATOM      2  C   UNL d   1      -1.765  -0.626   0.158  0.00  0.00     0.117 A 
ATOM      3  N   UNL d   1      -3.065   1.013  -0.088  0.00  0.00    -0.232 N 
ATOM      4  C   UNL d   1      -1.765   1.528  -0.172  0.00  0.00     0.350 A 
ATOM      5  N   UNL d   1      -3.035  -0.336   0.145  0.00  0.00    -0.281 N 
ATOM      6  HN  UNL d   1      -3.825  -0.968   0.279  1.00  0.00     0.188 HD
ATOM      7  C   UNL d   1       0.472   0.387  -0.018  0.00  0.00     0.062 A 
ATOM      8  S   UNL d   1       0.254  -2.378  -0.447  0.00  0.00    -0.120 SA
ATOM      9  C   UNL d   1      -1.255  -2.000   0.461  0.00  0.00     0.158 C 
ATOM     10  C   UNL d   1       1.135  -0.850  -0.157  0.00  0.00     0.028 A 
ATOM     11  O   UNL d   1      -1.482   2.702  -0.349  0.00  0.00    -0.244 OA
ATOM     12  C   UNL d   1       1.245   1.549   0.111  0.00  0.00     0.031 A 
ATOM     13  C   UNL d   1       2.535  -0.905  -0.150  0.00  0.00     0.021 A 
ATOM     14  C   UNL d   1       2.641   1.483   0.133  0.00  0.00     0.002 A 
ATOM     15  C   UNL d   1       3.286   0.258   0.007  0.00  0.00     0.002 A 
ENDROOT
BRANCH   3  16
ATOM     16  C   UNL d   1      -4.295   1.764  -0.230  0.00  0.00     0.258 C 
BRANCH  16  17
ATOM     17  C   UNL d   1      -4.853   2.293   1.089  0.00  0.00     0.251 C 
ATOM     18  O   UNL d   1      -5.858   3.006   1.135  0.00  0.00    -0.270 OA
ATOM     19  N   UNL d   1      -4.165   1.903   2.230  0.00  0.00    -0.292 N 
ATOM     20  H   UNL d   1      -3.531   1.107   2.153  0.00  0.00     0.183 HD
BRANCH  19  21
ATOM     21  N   UNL d   1      -4.652   2.278   3.501  0.00  0.00    -0.247 NA
ATOM     22  H   UNL d   1      -5.624   2.593   3.366  0.00  0.00     0.143 HD
ATOM     23  H   UNL d   1      -4.163   3.134   3.779  0.00  0.00     0.143 HD
ENDBRANCH  19  21
ENDBRANCH  16  17
ENDBRANCH   3  16
TORSDOF 3
