REMARK  6 active torsions:
REMARK  status: ('A' for Active; 'I' for Inactive)
REMARK    1  A    between atoms: C_4  and  N_1 
REMARK    2  A    between atoms: C_2  and  N_8 
REMARK    3  A    between atoms: C_3  and  C_6 
REMARK       I    between atoms: N_5  and  C_3 
REMARK    4  A    between atoms: N_8  and  N_5 
REMARK    5  A    between atoms: C_14  and  N_12 
REMARK    6  A    between atoms: C_15  and  C_14 
ROOT
ATOM      1  C   UNL d   1      -0.004  -3.932  -3.221  0.00  0.00     0.270 C 
ATOM      2  N   UNL d   1      -0.265  -4.270  -4.532  0.00  0.00    -0.264 N 
ATOM      3  O   UNL d   1      -0.747  -3.212  -2.561  0.00  0.00    -0.266 OA
ATOM      4  H   UNL d   1       0.418  -4.720  -5.135  0.00  0.00     0.190 HD
ENDROOT
BRANCH   2   5
ATOM      5  N   UNL d   1      -1.256  -3.547  -5.207  0.00  0.00    -0.274 N 
ATOM      6  H   UNL d   1      -1.747  -2.865  -4.629  0.00  0.00     0.189 HD
BRANCH   5   7
ATOM      7  C   UNL d   1      -1.921  -4.090  -6.276  0.00  0.00     0.186 C 
ATOM      8  S   UNL d   1      -1.774  -5.665  -6.817  0.00  0.00    -0.040 SA
ATOM      9  N   UNL d   1      -2.709  -3.228  -6.982  0.00  0.00    -0.362 N 
ATOM     10  H   UNL d   1      -3.183  -3.653  -7.771  0.00  0.00     0.162 HD
BRANCH   9  11
ATOM     11  C   UNL d   1      -2.520  -1.789  -7.074  0.00  0.00     0.160 C 
BRANCH  11  12
ATOM     12  C   UNL d   1      -2.185  -1.370  -8.486  0.00  0.00    -0.041 A 
ATOM     13  C   UNL d   1      -2.941  -0.382  -9.131  0.00  0.00     0.009 A 
ATOM     14  C   UNL d   1      -2.625   0.017 -10.432  0.00  0.00     0.001 A 
ATOM     15  C   UNL d   1      -1.550  -0.564 -11.101  0.00  0.00     0.000 A 
ATOM     16  C   UNL d   1      -0.785  -1.542 -10.468  0.00  0.00     0.001 A 
ATOM     17  C   UNL d   1      -1.096  -1.939  -9.166  0.00  0.00     0.009 A 
ENDBRANCH  11  12
ENDBRANCH   9  11
ENDBRANCH   5   7
ENDBRANCH   2   5
BRANCH   1  18
ATOM     18  C   UNL d   1       1.286  -4.424  -2.647  0.00  0.00     0.036 A 
ATOM     19  C   UNL d   1       1.774  -3.787  -1.497  0.00  0.00     0.053 A 
ATOM     20  C   UNL d   1       3.021  -4.156  -0.976  0.00  0.00     0.103 A 
ATOM     21  C   UNL d   1       3.782  -5.161  -1.588  0.00  0.00     0.036 A 
ATOM     22  C   UNL d   1       3.282  -5.811  -2.716  0.00  0.00     0.003 A 
ATOM     23  C   UNL d   1       2.036  -5.453  -3.239  0.00  0.00     0.017 A 
BRANCH  20  24
ATOM     24  N   UNL d   1       3.544  -3.475   0.215  0.00  0.00    -0.116 N 
ATOM     25  O   UNL d   1       2.837  -2.605   0.740  0.00  0.00    -0.532 OA
ATOM     26  O   UNL d   1       4.665  -3.812   0.623  0.00  0.00    -0.532 OA
ENDBRANCH  20  24
ENDBRANCH   1  18
TORSDOF 6
