REMARK  3 active torsions:
REMARK  status: ('A' for Active; 'I' for Inactive)
REMARK    1  A    between atoms: S_3  and  N_1 
REMARK    2  A    between atoms: C_7  and  C_2 
REMARK    3  A    between atoms: C_10  and  C_7 
ROOT
ATOM      1  N   UNL d   1       1.603  -1.074   0.034  0.00  0.00    -0.250 N 
ATOM      2  C   UNL d   1       1.620   1.153  -0.003  0.00  0.00     0.045 A 
ATOM      3  C   UNL d   1       2.422   0.026   0.019  0.00  0.00     0.125 A 
ATOM      4  C   UNL d   1       0.260   0.688  -0.031  0.00  0.00     0.007 A 
ATOM      5  C   UNL d   1       0.274  -0.714   0.005  0.00  0.00     0.060 A 
ATOM      6  C   UNL d   1      -0.987   1.351  -0.049  0.00  0.00     0.015 A 
ATOM      7  C   UNL d   1      -0.916  -1.463   0.024  0.00  0.00     0.031 A 
ATOM      8  C   UNL d   1      -2.133  -0.777   0.002  0.00  0.00     0.002 A 
ATOM      9  C   UNL d   1      -2.171   0.611  -0.033  0.00  0.00     0.001 A 
ENDROOT
BRANCH   2  10
ATOM     10  C   UNL d   1       2.065   2.551   0.005  0.00  0.00     0.225 C 
ATOM     11  O   UNL d   1       1.361   3.433  -0.494  0.00  0.00    -0.286 OA
BRANCH  10  12
ATOM     12  C   UNL d   1       3.414   2.893   0.614  0.00  0.00     0.427 C 
ATOM     13  F   UNL d   1       3.749   2.092   1.666  0.00  0.00    -0.206 F 
ATOM     14  F   UNL d   1       4.431   2.784  -0.285  0.00  0.00    -0.206 F 
ENDBRANCH  10  12
ENDBRANCH   2  10
BRANCH   1  15
ATOM     15  S   UNL d   1       2.169  -2.683   0.024  0.00  0.00     0.233 S 
ATOM     16  O   UNL d   1       3.618  -2.580   0.023  0.00  0.00    -0.206 OA
ATOM     17  O   UNL d   1       1.462  -3.335   1.107  0.00  0.00    -0.206 OA
ATOM     18  C   UNL d   1       1.676  -3.432  -1.504  0.00  0.00     0.186 C 
ENDBRANCH   1  15
TORSDOF 3
