REMARK  2 active torsions:
REMARK  status: ('A' for Active; 'I' for Inactive)
REMARK       I    between atoms: C_9  and  N_11 
REMARK    1  A    between atoms: C_14  and  C_9 
REMARK    2  A    between atoms: N_11  and  C_10 
ROOT
ATOM      1  C   UNL d   1      -1.118   1.376   0.633  0.00  0.00     0.069 A 
ATOM      2  S   UNL d   1       0.840   2.695   1.138  0.00  0.00     0.068 SA
ATOM      3  C   UNL d   1       0.028   0.438   0.893  0.00  0.00     0.067 A 
ATOM      4  C   UNL d   1      -2.408   0.881   0.314  0.00  0.00     0.061 A 
ATOM      5  N   UNL d   1      -0.771   2.669   0.738  0.00  0.00    -0.310 N 
ATOM      6  HN  UNL d   1      -1.379   3.477   0.598  1.00  0.00     0.176 HD
ATOM      7  N   UNL d   1       1.175   1.067   1.188  0.00  0.00    -0.310 N 
ATOM      8  HN  UNL d   1       2.074   0.634   1.401  1.00  0.00     0.176 HD
ATOM      9  C   UNL d   1      -2.553  -0.518   0.254  0.00  0.00     0.037 A 
ATOM     10  C   UNL d   1      -0.154  -0.960   0.817  0.00  0.00     0.035 A 
ATOM     11  C   UNL d   1      -1.455  -1.394   0.492  0.00  0.00     0.032 A 
ENDROOT
BRANCH   9  12
ATOM     12  N   UNL d   1      -3.787  -1.147  -0.042  0.00  0.00    -0.323 N 
ATOM     13  C   UNL d   1      -5.009  -0.533  -0.259  0.00  0.00     0.256 C 
ATOM     14  O   UNL d   1      -5.234   0.670  -0.249  0.00  0.00    -0.267 OA
ATOM     15  H   UNL d   1      -3.752  -2.153  -0.137  0.00  0.00     0.169 HD
BRANCH  13  16
ATOM     16  C   UNL d   1      -6.144  -1.451  -0.560  0.00  0.00     0.034 A 
ATOM     17  C   UNL d   1      -6.248  -2.724   0.012  0.00  0.00     0.041 A 
ATOM     18  C   UNL d   1      -7.331  -3.539  -0.322  0.00  0.00     0.035 A 
ATOM     19 CL   UNL d   1      -7.453  -5.111   0.369  0.00  0.00    -0.084 Cl
ATOM     20  C   UNL d   1      -8.314  -3.095  -1.205  0.00  0.00     0.024 A 
ATOM     21  C   UNL d   1      -8.226  -1.817  -1.755  0.00  0.00     0.003 A 
ATOM     22  C   UNL d   1      -7.146  -0.995  -1.430  0.00  0.00     0.017 A 
ENDBRANCH  13  16
ENDBRANCH   9  12
TORSDOF 2
