REMARK  2 active torsions:
REMARK  status: ('A' for Active; 'I' for Inactive)
REMARK    1  A    between atoms: N_4  and  C_2 
REMARK    2  A    between atoms: C_5  and  N_4 
ROOT
ATOM      1  N   UNL d   1      -2.867  -1.688  -0.843  0.00  0.00    -0.262 NA
ATOM      2  H   UNL d   1      -3.475  -2.326  -0.326  0.00  0.00     0.133 HD
ENDROOT
BRANCH   1   3
ATOM      3  C   UNL d   1      -1.533  -1.853  -0.454  0.00  0.00    -0.002 C 
ATOM      4  C   UNL d   1      -0.507  -1.666  -1.309  0.00  0.00     0.036 C 
ATOM      5  C   UNL d   1       0.939  -1.868  -1.032  0.00  0.00     0.290 C 
ATOM      6  C   UNL d   1      -0.594  -1.307  -2.749  0.00  0.00     0.073 C 
ATOM      7  O   UNL d   1       1.568  -2.030  -2.233  0.00  0.00    -0.317 OA
ATOM      8  O   UNL d   1       1.495  -1.849   0.049  0.00  0.00    -0.260 OA
ATOM      9  C   UNL d   1       0.594  -2.065  -3.277  0.00  0.00     0.184 C 
ATOM     10  C   UNL d   1      -1.358  -2.353   0.963  0.00  0.00     0.062 C 
ENDBRANCH   1   3
BRANCH   1  11
ATOM     11  C   UNL d   1      -3.542  -0.430  -0.878  0.00  0.00     0.018 A 
ATOM     12  C   UNL d   1      -4.920  -0.386  -1.190  0.00  0.00    -0.041 A 
ATOM     13  C   UNL d   1      -5.743  -1.613  -1.479  0.00  0.00     0.050 C 
ATOM     14  C   UNL d   1      -5.590   0.853  -1.206  0.00  0.00     0.008 A 
ATOM     15  C   UNL d   1      -4.907   2.039  -0.955  0.00  0.00     0.001 A 
ATOM     16  C   UNL d   1      -3.543   2.006  -0.694  0.00  0.00     0.002 A 
ATOM     17  C   UNL d   1      -2.866   0.783  -0.665  0.00  0.00     0.024 A 
ENDBRANCH   1  11
TORSDOF 2
