REMARK  2 active torsions:
REMARK  status: ('A' for Active; 'I' for Inactive)
REMARK    1  A    between atoms: C_6  and  C_3 
REMARK    2  A    between atoms: C_14  and  C_4 
ROOT
ATOM      1  C   UNL d   1      -2.069   0.466   0.152  0.00  0.00     0.028 C 
ATOM      2  C   UNL d   1      -1.605   1.801   0.632  0.00  0.00     0.194 C 
ATOM      3  C   UNL d   1      -3.340   0.191  -0.200  0.00  0.00     0.028 C 
ATOM      4  C   UNL d   1      -0.968  -0.554  -0.004  0.00  0.00     0.199 C 
ATOM      5  O   UNL d   1      -0.095  -0.578   1.144  0.00  0.00    -0.335 OA
ATOM      6  C   UNL d   1      -0.246   1.840   1.208  0.00  0.00     0.048 A 
ATOM      7  C   UNL d   1       0.434   0.648   1.444  0.00  0.00     0.084 A 
ATOM      8  O   UNL d   1      -2.253   2.834   0.531  0.00  0.00    -0.287 OA
ATOM      9  C   UNL d   1       0.355   3.063   1.519  0.00  0.00     0.018 A 
ATOM     10  C   UNL d   1       1.706   0.669   2.016  0.00  0.00     0.038 A 
ATOM     11  C   UNL d   1       1.641   3.086   2.063  0.00  0.00     0.001 A 
ATOM     12  C   UNL d   1       2.313   1.889   2.314  0.00  0.00     0.003 A 
ENDROOT
BRANCH   3  13
ATOM     13  C   UNL d   1      -4.451   1.076  -0.226  0.00  0.00    -0.008 A 
ATOM     14  C   UNL d   1      -4.813   1.809  -1.334  0.00  0.00     0.100 A 
ATOM     15  N   UNL d   1      -5.929   2.528  -1.004  0.00  0.00    -0.364 N 
ATOM     16  C   UNL d   1      -6.325   2.236   0.283  0.00  0.00     0.043 A 
ATOM     17  H   UNL d   1      -6.404   3.180  -1.613  0.00  0.00     0.165 HD
ATOM     18  C   UNL d   1      -5.398   1.330   0.804  0.00  0.00     0.002 A 
ATOM     19  C   UNL d   1      -7.418   2.708   1.019  0.00  0.00     0.030 A 
ATOM     20  C   UNL d   1      -5.566   0.881   2.130  0.00  0.00     0.014 A 
ATOM     21  C   UNL d   1      -6.653   1.345   2.879  0.00  0.00     0.001 A 
ATOM     22  C   UNL d   1      -7.566   2.242   2.328  0.00  0.00     0.002 A 
ENDBRANCH   3  13
BRANCH   4  23
ATOM     23  C   UNL d   1      -0.154  -0.458  -1.301  0.00  0.00    -0.024 A 
ATOM     24  C   UNL d   1      -0.433   0.480  -2.310  0.00  0.00     0.010 A 
ATOM     25  C   UNL d   1       0.347   0.540  -3.467  0.00  0.00     0.001 A 
ATOM     26  C   UNL d   1       1.410  -0.340  -3.640  0.00  0.00     0.000 A 
ATOM     27  C   UNL d   1       1.694  -1.287  -2.659  0.00  0.00     0.001 A 
ATOM     28  C   UNL d   1       0.917  -1.348  -1.501  0.00  0.00     0.010 A 
ENDBRANCH   4  23
TORSDOF 2
