REMARK  3 active torsions:
REMARK  status: ('A' for Active; 'I' for Inactive)
REMARK    1  A    between atoms: C_7  and  N_1 
REMARK    2  A    between atoms: C_5  and  C_2 
REMARK    3  A    between atoms: C_9  and  C_10 
ROOT
ATOM      1  N   UNL d   1      -0.221  -1.309  -0.045  0.00  0.00    -0.239 N 
ATOM      2  C   UNL d   1       0.974  -0.680  -0.073  0.00  0.00     0.149 A 
ATOM      3  N   UNL d   1       0.878   0.605  -0.200  0.00  0.00    -0.238 N 
ATOM      4  HN  UNL d   1       1.640   1.280  -0.262  1.00  0.00     0.196 HD
ATOM      5  C   UNL d   1      -1.165  -0.335  -0.148  0.00  0.00     0.395 A 
ATOM      6  O   UNL d   1      -0.524   0.875  -0.235  0.00  0.00    -0.179 OA
ATOM      7  O   UNL d   1      -2.384  -0.458  -0.147  0.00  0.00    -0.235 OA
ENDROOT
BRANCH   2   8
ATOM      8  C   UNL d   1       2.286  -1.363  -0.076  0.00  0.00     0.041 A 
ATOM      9  C   UNL d   1       3.428  -0.856   0.562  0.00  0.00     0.064 A 
ATOM     10  C   UNL d   1       4.652  -1.532   0.373  0.00  0.00     0.034 A 
ATOM     11  C   UNL d   1       4.692  -2.675  -0.404  0.00  0.00     0.088 A 
ATOM     12  N   UNL d   1       3.610  -3.179  -1.020  0.00  0.00    -0.374 N 
ATOM     13  C   UNL d   1       2.445  -2.507  -0.860  0.00  0.00     0.103 A 
ATOM     14  HN  UNL d   1       3.663  -4.029  -1.581  1.00  0.00     0.164 HD
BRANCH   9  15
ATOM     15  C   UNL d   1       3.464   0.377   1.429  0.00  0.00     0.418 C 
ATOM     16  F   UNL d   1       2.273   0.790   1.927  0.00  0.00    -0.166 F 
ATOM     17  F   UNL d   1       4.242   0.171   2.535  0.00  0.00    -0.166 F 
ATOM     18  F   UNL d   1       4.026   1.440   0.792  0.00  0.00    -0.166 F 
ENDBRANCH   9  15
ENDBRANCH   2   8
BRANCH   1  19
ATOM     19  C   UNL d   1      -0.521  -2.677   0.090  0.00  0.00     0.052 A 
ATOM     20  C   UNL d   1      -1.190  -3.376  -0.935  0.00  0.00    -0.034 A 
ATOM     21  C   UNL d   1      -1.482  -4.738  -0.751  0.00  0.00     0.015 A 
ATOM     22  C   UNL d   1      -1.548  -2.767  -2.264  0.00  0.00     0.050 C 
ATOM     23  C   UNL d   1      -1.107  -5.414   0.416  0.00  0.00    -0.061 A 
ATOM     24  C   UNL d   1      -0.416  -4.716   1.411  0.00  0.00     0.009 A 
ATOM     25  C   UNL d   1      -1.433  -6.871   0.567  0.00  0.00     0.048 C 
ATOM     26  C   UNL d   1      -0.121  -3.357   1.247  0.00  0.00     0.031 A 
ENDBRANCH   1  19
TORSDOF 3
