REMARK  3 active torsions:
REMARK  status: ('A' for Active; 'I' for Inactive)
REMARK    1  A    between atoms: O_8  and  C_1 
REMARK    2  A    between atoms: O_14  and  C_4 
REMARK    3  A    between atoms: C_11  and  O_8 
ROOT
ATOM      1  C   UNL d   1       0.497   0.593  -1.352  0.00  0.00     0.072 C 
ATOM      2  C   UNL d   1      -1.527   0.255   0.134  0.00  0.00     0.018 C 
ATOM      3  C   UNL d   1       0.733   0.728   1.167  0.00  0.00     0.018 C 
ATOM      4  C   UNL d   1      -0.781   1.016   1.250  0.00  0.00     0.126 C 
ATOM      5  C   UNL d   1       1.252   1.261  -0.177  0.00  0.00     0.045 C 
ATOM      6  C   UNL d   1      -1.034   0.783  -1.224  0.00  0.00     0.045 C 
ATOM      7  C   UNL d   1       0.281  -1.500   0.081  0.00  0.00    -0.011 C 
ATOM      8  C   UNL d   1      -1.231  -1.254   0.210  0.00  0.00     0.012 C 
ATOM      9  C   UNL d   1       1.008  -0.785   1.231  0.00  0.00     0.012 C 
ATOM     10  C   UNL d   1       0.775  -0.931  -1.265  0.00  0.00     0.043 C 
ENDROOT
BRANCH   1  11
ATOM     11  O   UNL d   1       0.988   1.048  -2.632  0.00  0.00    -0.310 OA
BRANCH  11  12
ATOM     12  C   UNL d   1       0.880   2.366  -2.957  0.00  0.00     0.255 C 
ATOM     13  O   UNL d   1       0.390   3.243  -2.255  0.00  0.00    -0.266 OA
ATOM     14  C   UNL d   1       1.447   2.645  -4.312  0.00  0.00     0.126 C 
ENDBRANCH  11  12
ENDBRANCH   1  11
BRANCH   4  15
ATOM     15  O   UNL d   1      -1.299   0.688   2.532  0.00  0.00    -0.395 OA
ATOM     16  H   UNL d   1      -1.171  -0.259   2.699  0.00  0.00     0.210 HD
ENDBRANCH   4  15
TORSDOF 3
