REMARK  4 active torsions:
REMARK  status: ('A' for Active; 'I' for Inactive)
REMARK    1  A    between atoms: C_8  and  S_1 
REMARK    2  A    between atoms: O_16  and  S_1 
REMARK    3  A    between atoms: C_2  and  N_7 
REMARK    4  A    between atoms: N_7  and  C_19 
ROOT
ATOM      1  C   UNL d   1      -1.704  -2.281   5.914  0.00  0.00     0.119 A 
ATOM      2  C   UNL d   1      -1.552  -2.805   7.210  0.00  0.00     0.035 A 
ATOM      3  C   UNL d   1      -2.404  -2.263   8.183  0.00  0.00     0.048 A 
ATOM      4  N   UNL d   1      -2.608  -1.326   5.630  0.00  0.00    -0.338 N 
ATOM      5  HN  UNL d   1      -2.705  -0.943   4.689  1.00  0.00     0.168 HD
ATOM      6  N   UNL d   1      -3.316  -1.330   7.905  0.00  0.00    -0.351 N 
ATOM      7  HN  UNL d   1      -3.940  -0.961   8.623  1.00  0.00     0.166 HD
ATOM      8  C   UNL d   1      -0.591  -3.781   7.579  0.00  0.00     0.019 A 
ATOM      9  C   UNL d   1      -2.278  -2.702   9.496  0.00  0.00     0.054 A 
ATOM     10  C   UNL d   1      -3.373  -0.902   6.640  0.00  0.00     0.182 A 
ATOM     11  C   UNL d   1      -1.324  -3.653   9.856  0.00  0.00     0.036 A 
ATOM     12  C   UNL d   1      -0.478  -4.199   8.900  0.00  0.00     0.025 A 
ATOM     13 CL   UNL d   1      -1.177  -4.140  11.499  0.00  0.00    -0.084 Cl
ENDROOT
BRANCH   1  14
ATOM     14  N   UNL d   1      -0.870  -2.771   4.878  0.00  0.00    -0.342 N 
ATOM     15  H   UNL d   1      -1.015  -3.765   4.750  0.00  0.00     0.167 HD
BRANCH  14  16
ATOM     16  C   UNL d   1      -0.463  -2.096   3.713  0.00  0.00     0.033 A 
ATOM     17  C   UNL d   1      -0.307  -0.702   3.686  0.00  0.00     0.031 A 
ATOM     18  C   UNL d   1       0.175  -0.051   2.551  0.00  0.00     0.027 A 
ATOM     19  C   UNL d   1       0.521  -0.803   1.430  0.00  0.00     0.072 A 
ATOM     20  C   UNL d   1       0.390  -2.192   1.432  0.00  0.00     0.027 A 
ATOM     21  C   UNL d   1      -0.087  -2.833   2.579  0.00  0.00     0.031 A 
BRANCH  19  22
ATOM     22  S   UNL d   1       1.068   0.032  -0.030  0.00  0.00     0.129 S 
ATOM     23  O   UNL d   1       0.659  -0.760  -1.170  0.00  0.00    -0.598 OA
ATOM     24  O   UNL d   1       2.438   0.437   0.183  0.00  0.00    -0.598 OA
BRANCH  22  25
ATOM     25  O   UNL d   1       0.146   1.356  -0.091  0.00  0.00    -0.292 OA
ATOM     26  H   UNL d   1      -0.580   1.183  -0.727  0.00  0.00     0.232 HD
ENDBRANCH  22  25
ENDBRANCH  19  22
ENDBRANCH  14  16
ENDBRANCH   1  14
TORSDOF 4
