REMARK  6 active torsions:
REMARK  status: ('A' for Active; 'I' for Inactive)
REMARK    1  A    between atoms: C_2  and  C_1 
REMARK    2  A    between atoms: C_5  and  C_2 
REMARK    3  A    between atoms: O_16  and  C_2 
REMARK    4  A    between atoms: C_8  and  C_3 
REMARK    5  A    between atoms: O_17  and  C_3 
REMARK    6  A    between atoms: N_4  and  C_5 
ROOT
ATOM      1  C   UNL d   1      -1.478  -3.825   1.242  0.00  0.00     0.088 C 
ATOM      2  N   UNL d   1      -1.413  -1.353  -0.416  0.00  0.00     0.091 N 
ATOM      3  C   UNL d   1      -1.222  -2.425   1.826  0.00  0.00     0.073 C 
ATOM      4  C   UNL d   1      -2.278  -3.658  -0.063  0.00  0.00     0.073 C 
ATOM      5  C   UNL d   1      -1.614  -2.674  -1.033  0.00  0.00     0.276 C 
ATOM      6  C   UNL d   1      -0.594  -1.482   0.800  0.00  0.00     0.276 C 
ENDROOT
BRANCH   1   7
ATOM      7  C   UNL d   1      -2.134  -4.730   2.299  0.00  0.00    -0.024 A 
ATOM      8  C   UNL d   1      -3.377  -5.356   2.095  0.00  0.00     0.012 A 
ATOM      9  C   UNL d   1      -3.963  -6.152   3.089  0.00  0.00     0.024 A 
ATOM     10  C   UNL d   1      -3.308  -6.347   4.301  0.00  0.00     0.034 A 
ATOM     11  C   UNL d   1      -2.071  -5.756   4.526  0.00  0.00     0.024 A 
ATOM     12 CL   UNL d   1      -4.034  -7.312   5.524  0.00  0.00    -0.084 Cl
ATOM     13  C   UNL d   1      -1.491  -4.957   3.537  0.00  0.00     0.012 A 
ENDBRANCH   1   7
BRANCH   1  14
ATOM     14  O   UNL d   1      -0.209  -4.397   0.876  0.00  0.00    -0.385 OA
ATOM     15  H   UNL d   1       0.117  -4.938   1.613  0.00  0.00     0.211 HD
ENDBRANCH   1  14
BRANCH   2  16
ATOM     16  C   UNL d   1      -0.753  -0.403  -1.347  0.00  0.00     0.313 C 
BRANCH  16  17
ATOM     17  C   UNL d   1      -1.548  -0.018  -2.615  0.00  0.00     0.253 C 
BRANCH  17  18
ATOM     18  C   UNL d   1      -0.727   0.972  -3.467  0.00  0.00     0.414 C 
ATOM     19  F   UNL d   1       0.413   1.365  -2.855  0.00  0.00    -0.168 F 
ATOM     20  F   UNL d   1      -1.435   2.097  -3.730  0.00  0.00    -0.168 F 
ATOM     21  F   UNL d   1      -0.380   0.425  -4.655  0.00  0.00    -0.168 F 
ENDBRANCH  17  18
BRANCH  17  22
ATOM     22  O   UNL d   1      -2.849   0.497  -2.258  0.00  0.00    -0.385 OA
ATOM     23  H   UNL d   1      -2.722   1.379  -1.864  0.00  0.00     0.210 HD
ENDBRANCH  17  22
ENDBRANCH  16  17
ENDBRANCH   2  16
TORSDOF 6
