REMARK  3 active torsions:
REMARK  status: ('A' for Active; 'I' for Inactive)
REMARK    1  A    between atoms: C_7  and  C_1 
REMARK       I    between atoms: C_2  and  N_6 
REMARK       I    between atoms: N_13  and  C_2 
REMARK    2  A    between atoms: C_15  and  C_3 
REMARK    3  A    between atoms: N_6  and  C_14 
ROOT
ATOM      1  C   UNL d   1       1.018   0.089  -0.086  0.00  0.00     0.055 C 
ATOM      2  C   UNL d   1       0.491  -1.015   0.485  0.00  0.00     0.035 C 
ATOM      3  C   UNL d   1       2.310   0.043  -0.708  0.00  0.00     0.100 C 
ATOM      4  N   UNL d   1       3.364   0.031  -1.196  0.00  0.00    -0.191 NA
ENDROOT
BRANCH   1   5
ATOM      5  C   UNL d   1       0.281   1.384  -0.067  0.00  0.00    -0.015 A 
ATOM      6  C   UNL d   1       0.974   2.603  -0.002  0.00  0.00     0.015 A 
ATOM      7  C   UNL d   1       0.292   3.828  -0.029  0.00  0.00     0.030 A 
ATOM      8  C   UNL d   1      -1.102   3.869  -0.123  0.00  0.00     0.035 A 
ATOM      9  C   UNL d   1      -1.799   2.664  -0.193  0.00  0.00     0.030 A 
ATOM     10  C   UNL d   1      -1.117   1.439  -0.170  0.00  0.00     0.015 A 
BRANCH   8  11
ATOM     11  N   UNL d   1      -1.717   5.135  -0.152  0.00  0.00    -0.314 N 
ATOM     12  C   UNL d   1      -3.057   5.412  -0.203  0.00  0.00     0.296 C 
ATOM     13  O   UNL d   1      -3.996   4.631  -0.208  0.00  0.00    -0.254 OA
ATOM     14  N   UNL d   1      -3.300   6.755  -0.234  0.00  0.00    -0.254 NA
ATOM     15  H   UNL d   1      -2.682   7.333  -0.783  0.00  0.00     0.128 HD
ATOM     16  H   UNL d   1      -4.283   6.965  -0.359  0.00  0.00     0.128 HD
ATOM     17  H   UNL d   1      -1.115   5.938  -0.044  0.00  0.00     0.170 HD
ENDBRANCH   8  11
ENDBRANCH   1   5
BRANCH   2  18
ATOM     18  C   UNL d   1       1.139  -2.333   0.489  0.00  0.00    -0.032 A 
ATOM     19  C   UNL d   1       1.979  -2.703   1.538  0.00  0.00     0.028 A 
ATOM     20  C   UNL d   1       2.593  -3.943   1.476  0.00  0.00     0.088 A 
ATOM     21  N   UNL d   1       2.421  -4.817   0.462  0.00  0.00    -0.375 N 
ATOM     22  C   UNL d   1       1.604  -4.432  -0.542  0.00  0.00     0.088 A 
ATOM     23  HN  UNL d   1       2.885  -5.726   0.454  1.00  0.00     0.164 HD
ATOM     24  C   UNL d   1       0.945  -3.214  -0.573  0.00  0.00     0.028 A 
ENDBRANCH   2  18
TORSDOF 3
