REMARK  10 active torsions:
REMARK  status: ('A' for Active; 'I' for Inactive)
REMARK    1  A    between atoms: O_15  and  C_1 
REMARK    2  A    between atoms: C_2  and  N_6 
REMARK    3  A    between atoms: N_7  and  C_2 
REMARK    4  A    between atoms: O_18  and  C_3 
REMARK    5  A    between atoms: O_17  and  C_4 
REMARK    6  A    between atoms: C_5  and  C_16 
REMARK       I    between atoms: N_9  and  C_5 
REMARK    7  A    between atoms: N_6  and  N_9 
REMARK    8  A    between atoms: C_14  and  N_7 
REMARK    9  A    between atoms: C_20  and  C_12 
REMARK   10  A    between atoms: C_16  and  C_20 
ROOT
ATOM      1  C   UNL d   1      -4.997  -0.418  -0.909  0.00  0.00     0.236 C 
ATOM      2  N   UNL d   1      -5.569   0.704  -0.332  0.00  0.00    -0.268 N 
ATOM      3  O   UNL d   1      -5.571  -1.095  -1.758  0.00  0.00    -0.272 OA
ATOM      4  H   UNL d   1      -5.093   1.318   0.317  0.00  0.00     0.190 HD
ENDROOT
BRANCH   1   5
ATOM      5  C   UNL d   1      -3.627  -0.797  -0.384  0.00  0.00     0.109 C 
BRANCH   5   6
ATOM      6  C   UNL d   1      -2.678   0.393  -0.266  0.00  0.00     0.048 C 
BRANCH   6   7
ATOM      7  C   UNL d   1      -1.238  -0.006  -0.057  0.00  0.00    -0.052 A 
ATOM      8  C   UNL d   1      -0.535  -0.667  -1.069  0.00  0.00     0.047 A 
ATOM      9  C   UNL d   1       0.806  -1.034  -0.904  0.00  0.00     0.104 A 
ATOM     10  C   UNL d   1       1.474  -0.707   0.286  0.00  0.00     0.135 A 
ATOM     11  C   UNL d   1       0.797   0.033   1.281  0.00  0.00     0.104 A 
ATOM     12  C   UNL d   1      -0.563   0.333   1.121  0.00  0.00     0.047 A 
BRANCH   9  13
ATOM     13  O   UNL d   1       1.341  -1.631  -2.016  0.00  0.00    -0.353 OA
ATOM     14  C   UNL d   1       2.277  -2.673  -1.781  0.00  0.00     0.210 C 
ENDBRANCH   9  13
BRANCH  10  15
ATOM     15  O   UNL d   1       2.820  -0.961   0.391  0.00  0.00    -0.351 OA
ATOM     16  C   UNL d   1       3.161  -1.795   1.499  0.00  0.00     0.210 C 
ENDBRANCH  10  15
BRANCH  11  17
ATOM     17  O   UNL d   1       1.534   0.439   2.366  0.00  0.00    -0.353 OA
ATOM     18  C   UNL d   1       1.032   1.545   3.108  0.00  0.00     0.210 C 
ENDBRANCH  11  17
ENDBRANCH   6   7
ENDBRANCH   5   6
ENDBRANCH   1   5
BRANCH   2  19
ATOM     19  N   UNL d   1      -6.862   1.085  -0.736  0.00  0.00    -0.274 N 
ATOM     20  H   UNL d   1      -6.931   1.225  -1.744  0.00  0.00     0.189 HD
BRANCH  19  21
ATOM     21  C   UNL d   1      -7.965   0.426  -0.211  0.00  0.00     0.191 C 
ATOM     22  S   UNL d   1      -7.990  -0.510   1.175  0.00  0.00    -0.039 SA
BRANCH  21  23
ATOM     23  N   UNL d   1      -9.105   0.525  -0.972  0.00  0.00    -0.332 N 
ATOM     24  H   UNL d   1      -9.746  -0.256  -0.875  0.00  0.00     0.168 HD
BRANCH  23  25
ATOM     25  C   UNL d   1      -9.509   1.593  -1.794  0.00  0.00     0.034 A 
ATOM     26  C   UNL d   1     -10.387   1.322  -2.845  0.00  0.00     0.032 A 
ATOM     27  C   UNL d   1     -10.839   2.367  -3.664  0.00  0.00     0.044 A 
ATOM     28  C   UNL d   1     -10.445   3.668  -3.393  0.00  0.00     0.116 A 
ATOM     29  C   UNL d   1      -9.600   3.955  -2.330  0.00  0.00     0.044 A 
ATOM     30  F   UNL d   1     -10.896   4.669  -4.164  0.00  0.00    -0.206 F 
ATOM     31  C   UNL d   1      -9.121   2.913  -1.533  0.00  0.00     0.032 A 
ENDBRANCH  23  25
ENDBRANCH  21  23
ENDBRANCH  19  21
ENDBRANCH   2  19
TORSDOF 10
