REMARK  3 active torsions:
REMARK  status: ('A' for Active; 'I' for Inactive)
REMARK    1  A    between atoms: C_6  and  C_2 
REMARK       I    between atoms: C_4  and  N_5 
REMARK    2  A    between atoms: C_13  and  C_4 
REMARK    3  A    between atoms: N_5  and  C_6 
ROOT
ATOM      1  C   UNL d   1      -0.566  -0.868  -1.097  0.00  0.00     0.043 A 
ATOM      2  C   UNL d   1      -1.268  -1.294   0.042  0.00  0.00    -0.019 A 
ATOM      3  C   UNL d   1       0.620  -0.133  -0.974  0.00  0.00     0.048 A 
ATOM      4  C   UNL d   1      -0.763  -0.937   1.306  0.00  0.00     0.012 A 
ATOM      5  C   UNL d   1       1.105   0.192   0.290  0.00  0.00     0.035 A 
ATOM      6 CL   UNL d   1      -1.116  -1.229  -2.695  0.00  0.00    -0.084 Cl
ATOM      7  C   UNL d   1       0.417  -0.204   1.431  0.00  0.00     0.024 A 
ATOM      8 CL   UNL d   1       2.565   1.090   0.443  0.00  0.00    -0.084 Cl
ENDROOT
BRANCH   2   9
ATOM      9  C   UNL d   1      -2.533  -2.116  -0.017  0.00  0.00     0.162 C 
BRANCH   9  10
ATOM     10  N   UNL d   1      -3.726  -1.301  -0.050  0.00  0.00    -0.357 N 
ATOM     11  C   UNL d   1      -4.400  -0.925   1.093  0.00  0.00     0.217 C 
ATOM     12  O   UNL d   1      -4.026  -1.213   2.226  0.00  0.00    -0.274 OA
ATOM     13  H   UNL d   1      -4.090  -1.027  -0.953  0.00  0.00     0.162 HD
BRANCH  11  14
ATOM     14  C   UNL d   1      -5.662  -0.137   0.796  0.00  0.00     0.098 C 
ATOM     15  C   UNL d   1      -6.388   0.316   2.050  0.00  0.00     0.014 C 
ENDBRANCH  11  14
ENDBRANCH   9  10
ENDBRANCH   2   9
TORSDOF 3
