REMARK  6 active torsions:
REMARK  status: ('A' for Active; 'I' for Inactive)
REMARK       I    between atoms: C_2  and  N_1 
REMARK    1  A    between atoms: C_9  and  C_2 
REMARK    2  A    between atoms: N_8  and  C_9 
REMARK    3  A    between atoms: C_11  and  N_8 
REMARK    4  A    between atoms: C_12  and  N_8 
REMARK    5  A    between atoms: C_14  and  C_11 
REMARK    6  A    between atoms: C_13  and  C_12 
ROOT
ATOM      1  N   UNL d   1       1.324  -2.081   2.749  0.00  0.00    -0.279 N 
ATOM      2  C   UNL d   1       0.009  -1.942   2.248  0.00  0.00     0.246 C 
ATOM      3  S   UNL d   1       4.206  -3.133   2.215  0.00  0.00    -0.086 SA
ATOM      4  C   UNL d   1       2.323  -1.097   2.380  0.00  0.00     0.059 A 
ATOM      5  C   UNL d   1       1.794  -3.134   3.617  0.00  0.00     0.059 A 
ATOM      6  C   UNL d   1       3.082  -3.690   3.474  0.00  0.00     0.033 A 
ATOM      7  C   UNL d   1       3.667  -1.441   2.158  0.00  0.00     0.033 A 
ATOM      8  O   UNL d   1      -0.311  -1.023   1.480  0.00  0.00    -0.271 OA
ATOM      9  C   UNL d   1       1.974   0.264   2.277  0.00  0.00     0.031 A 
ATOM     10  C   UNL d   1       1.022  -3.584   4.701  0.00  0.00     0.031 A 
ATOM     11  C   UNL d   1       4.614  -0.457   1.833  0.00  0.00     0.021 A 
ATOM     12  C   UNL d   1       3.530  -4.709   4.330  0.00  0.00     0.021 A 
ATOM     13  C   UNL d   1       1.471  -4.599   5.555  0.00  0.00     0.002 A 
ATOM     14  C   UNL d   1       2.917   1.241   1.954  0.00  0.00     0.002 A 
ATOM     15  C   UNL d   1       4.241   0.882   1.734  0.00  0.00     0.002 A 
ATOM     16  C   UNL d   1       2.721  -5.169   5.363  0.00  0.00     0.002 A 
ENDROOT
BRANCH   2  17
ATOM     17  C   UNL d   1      -1.050  -3.006   2.609  0.00  0.00     0.221 C 
BRANCH  17  18
ATOM     18  N   UNL d   1      -2.190  -2.960   1.674  0.00  0.00    -0.396 N 
BRANCH  18  19
ATOM     19  C   UNL d   1      -1.966  -3.537   0.353  0.00  0.00     0.156 C 
BRANCH  19  20
ATOM     20  C   UNL d   1      -1.547  -4.990   0.311  0.00  0.00    -0.041 A 
ATOM     21  C   UNL d   1      -2.496  -6.020   0.278  0.00  0.00     0.009 A 
ATOM     22  C   UNL d   1      -2.089  -7.354   0.195  0.00  0.00     0.001 A 
ATOM     23  C   UNL d   1      -0.731  -7.672   0.156  0.00  0.00     0.000 A 
ATOM     24  C   UNL d   1       0.222  -6.658   0.199  0.00  0.00     0.001 A 
ATOM     25  C   UNL d   1      -0.183  -5.325   0.270  0.00  0.00     0.009 A 
ENDBRANCH  19  20
ENDBRANCH  18  19
BRANCH  18  26
ATOM     26  C   UNL d   1      -3.487  -3.222   2.284  0.00  0.00     0.156 C 
BRANCH  26  27
ATOM     27  C   UNL d   1      -3.947  -2.074   3.176  0.00  0.00    -0.041 A 
ATOM     28  C   UNL d   1      -3.644  -0.738   2.853  0.00  0.00     0.009 A 
ATOM     29  C   UNL d   1      -4.057   0.312   3.674  0.00  0.00     0.001 A 
ATOM     30  C   UNL d   1      -4.806   0.047   4.817  0.00  0.00     0.000 A 
ATOM     31  C   UNL d   1      -5.143  -1.269   5.135  0.00  0.00     0.001 A 
ATOM     32  C   UNL d   1      -4.718  -2.324   4.317  0.00  0.00     0.009 A 
ENDBRANCH  26  27
ENDBRANCH  18  26
ENDBRANCH  17  18
ENDBRANCH   2  17
TORSDOF 6
