REMARK  3 active torsions:
REMARK  status: ('A' for Active; 'I' for Inactive)
REMARK       I    between atoms: C_2  and  N_1 
REMARK    1  A    between atoms: C_5  and  C_2 
REMARK    2  A    between atoms: C_11  and  C_4 
REMARK    3  A    between atoms: O_22  and  C_18 
ROOT
ATOM      1  N   UNL d   1      -2.628   0.369  -0.286  0.00  0.00    -0.335 N 
ATOM      2  C   UNL d   1      -3.613   0.528  -1.276  0.00  0.00     0.256 C 
ATOM      3  C   UNL d   1      -0.234   0.838  -0.008  0.00  0.00    -0.017 A 
ATOM      4  C   UNL d   1      -1.638   1.388   0.164  0.00  0.00     0.155 C 
ATOM      5  C   UNL d   1       0.019  -0.510  -0.199  0.00  0.00    -0.007 A 
ATOM      6  C   UNL d   1      -2.391  -1.010   0.182  0.00  0.00     0.132 C 
ATOM      7  S   UNL d   1       1.677  -0.869  -0.300  0.00  0.00    -0.106 SA
ATOM      8  C   UNL d   1      -1.040  -1.562  -0.309  0.00  0.00     0.067 C 
ATOM      9  C   UNL d   1       0.991   1.585   0.024  0.00  0.00     0.018 A 
ATOM     10  C   UNL d   1       2.100   0.778  -0.106  0.00  0.00     0.051 A 
ATOM     11  O   UNL d   1      -4.360  -0.401  -1.609  0.00  0.00    -0.267 OA
ENDROOT
BRANCH   2  12
ATOM     12  C   UNL d   1      -3.839   1.826  -1.960  0.00  0.00     0.053 A 
ATOM     13  C   UNL d   1      -3.943   1.924  -3.356  0.00  0.00     0.049 A 
ATOM     14 CL   UNL d   1      -3.762   0.574  -4.420  0.00  0.00    -0.083 Cl
ATOM     15  C   UNL d   1      -4.201   3.167  -3.956  0.00  0.00     0.025 A 
ATOM     16  C   UNL d   1      -4.336   4.316  -3.176  0.00  0.00     0.002 A 
ATOM     17  C   UNL d   1      -4.280   4.216  -1.790  0.00  0.00     0.001 A 
ATOM     18  C   UNL d   1      -4.085   2.969  -1.190  0.00  0.00     0.019 A 
ENDBRANCH   2  12
BRANCH   4  19
ATOM     19  C   UNL d   1      -1.777   1.757   1.653  0.00  0.00    -0.031 A 
ATOM     20  C   UNL d   1      -2.445   2.937   2.023  0.00  0.00     0.012 A 
ATOM     21  C   UNL d   1      -2.681   3.266   3.367  0.00  0.00     0.037 A 
ATOM     22  C   UNL d   1      -2.210   2.445   4.386  0.00  0.00     0.068 A 
ATOM     23  C   UNL d   1      -1.498   1.298   4.046  0.00  0.00     0.037 A 
ATOM     24  C   UNL d   1      -1.294   0.953   2.705  0.00  0.00     0.012 A 
BRANCH  22  25
ATOM     25  O   UNL d   1      -2.357   2.656   5.728  0.00  0.00    -0.356 OA
ATOM     26  C   UNL d   1      -3.172   3.753   6.120  0.00  0.00     0.210 C 
ENDBRANCH  22  25
ENDBRANCH   4  19
TORSDOF 3
