REMARK  3 active torsions:
REMARK  status: ('A' for Active; 'I' for Inactive)
REMARK    1  A    between atoms: C_9  and  C_1 
REMARK    2  A    between atoms: N_11  and  N_7 
REMARK    3  A    between atoms: C_15  and  N_11 
ROOT
ATOM      1  C   UNL d   1       3.985   3.920   0.093  0.00  0.00     0.064 A 
ATOM      2  C   UNL d   1       2.557   4.344   0.042  0.00  0.00     0.300 A 
ATOM      3  C   UNL d   1       4.951   4.855   0.167  0.00  0.00     0.034 A 
ATOM      4  O   UNL d   1       2.284   5.705   0.110  0.00  0.00    -0.274 OA
ATOM      5  C   UNL d   1       4.636   6.279   0.226  0.00  0.00     0.000 A 
ATOM      6  C   UNL d   1       3.301   6.662   0.201  0.00  0.00     0.089 A 
ATOM      7  O   UNL d   1       1.624   3.555  -0.059  0.00  0.00    -0.259 OA
ATOM      8  C   UNL d   1       5.611   7.275   0.318  0.00  0.00     0.033 A 
ATOM      9  C   UNL d   1       2.907   8.000   0.267  0.00  0.00     0.039 A 
ATOM     10  C   UNL d   1       5.229   8.621   0.388  0.00  0.00     0.011 A 
ATOM     11  C   UNL d   1       3.883   8.988   0.363  0.00  0.00     0.022 A 
ATOM     12 BR   UNL d   1       6.553   9.966   0.524  0.00  0.00    -0.051 Br
ENDROOT
BRANCH   1  13
ATOM     13  C   UNL d   1       4.405   2.457   0.037  0.00  0.00     0.038 C 
ATOM     14  N   UNL d   1       5.679   2.158   0.021  0.00  0.00    -0.304 N 
ATOM     15  HN  UNL d   1       6.376   2.899   0.105  1.00  0.00     0.186 HD
ATOM     16  C   UNL d   1       3.295   1.417  -0.020  0.00  0.00     0.071 C 
BRANCH  14  17
ATOM     17  N   UNL d   1       6.077   0.869  -0.108  0.00  0.00    -0.301 N 
ATOM     18  H   UNL d   1       5.456   0.078   0.019  0.00  0.00     0.187 HD
BRANCH  17  19
ATOM     19  C   UNL d   1       7.444   0.536  -0.032  0.00  0.00     0.048 A 
ATOM     20  C   UNL d   1       8.445   1.492   0.167  0.00  0.00     0.031 A 
ATOM     21  C   UNL d   1       9.794   1.126   0.198  0.00  0.00     0.002 A 
ATOM     22  C   UNL d   1      10.162  -0.203   0.001  0.00  0.00     0.000 A 
ATOM     23  C   UNL d   1       9.183  -1.163  -0.240  0.00  0.00     0.002 A 
ATOM     24  C   UNL d   1       7.835  -0.793  -0.260  0.00  0.00     0.031 A 
ENDBRANCH  17  19
ENDBRANCH  14  17
ENDBRANCH   1  13
TORSDOF 3
