REMARK  5 active torsions:
REMARK  status: ('A' for Active; 'I' for Inactive)
REMARK    1  A    between atoms: C_6  and  C_1 
REMARK    2  A    between atoms: C_8  and  N_2 
REMARK    3  A    between atoms: C_7  and  C_4 
REMARK    4  A    between atoms: O_13  and  C_6 
REMARK    5  A    between atoms: C_20  and  O_13 
ROOT
ATOM      1  C   UNL d   1      -0.345   1.184  -0.029  0.00  0.00     0.064 A 
ATOM      2  N   UNL d   1       0.988  -0.659  -0.007  0.00  0.00    -0.314 N 
ATOM      3  C   UNL d   1       0.974   0.743  -0.011  0.00  0.00     0.030 A 
ATOM      4  C   UNL d   1      -0.351  -1.110  -0.026  0.00  0.00     0.051 A 
ATOM      5  C   UNL d   1      -1.155   0.022  -0.040  0.00  0.00     0.050 A 
ATOM      6  C   UNL d   1       2.176   1.636   0.108  0.00  0.00     0.070 C 
ENDROOT
BRANCH   4   7
ATOM      7  C   UNL d   1      -0.838  -2.511  -0.073  0.00  0.00    -0.009 A 
ATOM      8  C   UNL d   1      -0.183  -3.508  -0.812  0.00  0.00     0.015 A 
ATOM      9  C   UNL d   1      -0.566  -4.850  -0.717  0.00  0.00     0.024 A 
ATOM     10  C   UNL d   1      -1.683  -5.199   0.032  0.00  0.00     0.034 A 
ATOM     11  C   UNL d   1      -2.418  -4.215   0.685  0.00  0.00     0.024 A 
ATOM     12 CL   UNL d   1      -2.154  -6.849   0.148  0.00  0.00    -0.084 Cl
ATOM     13  C   UNL d   1      -1.990  -2.881   0.643  0.00  0.00     0.015 A 
ENDBRANCH   4   7
BRANCH   2  14
ATOM     14  C   UNL d   1       2.166  -1.478   0.004  0.00  0.00     0.039 A 
ATOM     15  C   UNL d   1       2.213  -2.668   0.742  0.00  0.00     0.030 A 
ATOM     16  C   UNL d   1       3.296  -3.542   0.603  0.00  0.00     0.002 A 
ATOM     17  C   UNL d   1       4.379  -3.192  -0.199  0.00  0.00     0.000 A 
ATOM     18  C   UNL d   1       4.375  -1.975  -0.876  0.00  0.00     0.002 A 
ATOM     19  C   UNL d   1       3.261  -1.137  -0.801  0.00  0.00     0.030 A 
ENDBRANCH   2  14
BRANCH   1  20
ATOM     20  C   UNL d   1      -0.778   2.576   0.034  0.00  0.00     0.295 C 
ATOM     21  O   UNL d   1      -0.003   3.534   0.076  0.00  0.00    -0.259 OA
BRANCH  20  22
ATOM     22  O   UNL d   1      -2.132   2.697   0.140  0.00  0.00    -0.318 OA
BRANCH  22  23
ATOM     23  C   UNL d   1      -2.587   3.945   0.683  0.00  0.00     0.174 C 
ATOM     24  C   UNL d   1      -2.642   3.797   2.192  0.00  0.00     0.034 C 
ENDBRANCH  22  23
ENDBRANCH  20  22
ENDBRANCH   1  20
TORSDOF 5
