REMARK  4 active torsions:
REMARK  status: ('A' for Active; 'I' for Inactive)
REMARK    1  A    between atoms: C_3  and  C_1 
REMARK    2  A    between atoms: C_10  and  N_2 
REMARK       I    between atoms: N_6  and  C_3 
REMARK    3  A    between atoms: C_11  and  C_8 
REMARK    4  A    between atoms: C_15  and  C_10 
ROOT
ATOM      1  C   UNL d   1      -0.474  -1.129   0.097  0.00  0.00     0.121 C 
ATOM      2  N   UNL d   1       0.815  -0.617   0.202  0.00  0.00    -0.282 N 
ATOM      3  N   UNL d   1       0.846   0.734   0.260  0.00  0.00    -0.301 N 
ATOM      4  HN  UNL d   1       1.668   1.335   0.302  1.00  0.00     0.187 HD
ATOM      5  C   UNL d   1      -1.266  -0.018   0.365  0.00  0.00     0.064 C 
ATOM      6  C   UNL d   1      -0.429   1.106   0.251  0.00  0.00     0.036 C 
ENDROOT
BRANCH   1   7
ATOM      7  C   UNL d   1      -0.846  -2.526  -0.179  0.00  0.00     0.276 C 
ATOM      8  N   UNL d   1      -2.141  -2.822  -0.732  0.00  0.00    -0.312 N 
ATOM      9  C   UNL d   1      -2.728  -4.155  -0.718  0.00  0.00     0.043 A 
ATOM     10  C   UNL d   1      -3.025  -1.766  -1.240  0.00  0.00     0.133 C 
ATOM     11  C   UNL d   1      -3.938  -4.416  -1.403  0.00  0.00    -0.031 A 
ATOM     12  C   UNL d   1      -2.178  -5.219   0.015  0.00  0.00     0.030 A 
ATOM     13  C   UNL d   1      -4.559  -5.683  -1.322  0.00  0.00     0.009 A 
ATOM     14  C   UNL d   1      -4.668  -3.392  -2.223  0.00  0.00     0.042 C 
ATOM     15  C   UNL d   1      -3.996  -6.708  -0.579  0.00  0.00     0.001 A 
ATOM     16  C   UNL d   1      -2.800  -6.476   0.085  0.00  0.00     0.002 A 
ATOM     17  C   UNL d   1      -3.892  -2.118  -2.429  0.00  0.00     0.025 C 
ATOM     18  O   UNL d   1      -0.015  -3.406   0.040  0.00  0.00    -0.265 OA
ENDBRANCH   1   7
BRANCH   2  19
ATOM     19  C   UNL d   1       2.112  -1.291   0.280  0.00  0.00     0.188 C 
BRANCH  19  20
ATOM     20  C   UNL d   1       2.856  -1.207  -1.030  0.00  0.00    -0.038 A 
ATOM     21  C   UNL d   1       3.516  -0.026  -1.413  0.00  0.00     0.009 A 
ATOM     22  C   UNL d   1       4.146   0.070  -2.659  0.00  0.00     0.001 A 
ATOM     23  C   UNL d   1       4.123  -1.022  -3.527  0.00  0.00     0.000 A 
ATOM     24  C   UNL d   1       3.492  -2.205  -3.144  0.00  0.00     0.001 A 
ATOM     25  C   UNL d   1       2.862  -2.301  -1.904  0.00  0.00     0.009 A 
ENDBRANCH  19  20
ENDBRANCH   2  19
BRANCH   6  26
ATOM     26  C   UNL d   1      -0.821   2.564   0.141  0.00  0.00    -0.007 C 
ATOM     27  C   UNL d   1      -1.174   3.103   1.535  0.00  0.00     0.021 C 
ATOM     28  C   UNL d   1       0.325   3.409  -0.460  0.00  0.00     0.021 C 
ATOM     29  C   UNL d   1      -2.041   2.719  -0.793  0.00  0.00     0.021 C 
ENDBRANCH   6  26
TORSDOF 4
