REMARK  8 active torsions:
REMARK  status: ('A' for Active; 'I' for Inactive)
REMARK    1  A    between atoms: C_2  and  C_1 
REMARK    2  A    between atoms: C_3  and  C_1 
REMARK    3  A    between atoms: S_5  and  C_1 
REMARK    4  A    between atoms: C_4  and  C_2 
REMARK    5  A    between atoms: C_9  and  C_4 
REMARK    6  A    between atoms: C_11  and  S_5 
REMARK    7  A    between atoms: C_6  and  C_11 
REMARK    8  A    between atoms: O_13  and  C_6 
ROOT
ATOM      1  C   UNL d   1       1.227  -0.004   0.021  0.00  0.00     0.089 C 
ENDROOT
BRANCH   1   2
ATOM      2  C   UNL d   1       0.555  -1.031  -0.910  0.00  0.00     0.104 C 
BRANCH   2   3
ATOM      3  C   UNL d   1       0.854  -0.857  -2.383  0.00  0.00     0.161 C 
ATOM      4  O   UNL d   1       1.082   0.237  -2.886  0.00  0.00    -0.292 OA
BRANCH   3   5
ATOM      5  C   UNL d   1       0.884  -2.083  -3.226  0.00  0.00     0.010 A 
ATOM      6  C   UNL d   1      -0.005  -3.137  -2.990  0.00  0.00     0.015 A 
ATOM      7  C   UNL d   1       0.059  -4.290  -3.776  0.00  0.00     0.001 A 
ATOM      8  C   UNL d   1       1.010  -4.393  -4.791  0.00  0.00     0.000 A 
ATOM      9  C   UNL d   1       1.895  -3.341  -5.030  0.00  0.00     0.001 A 
ATOM     10  C   UNL d   1       1.829  -2.182  -4.254  0.00  0.00     0.015 A 
ENDBRANCH   3   5
ENDBRANCH   2   3
ENDBRANCH   1   2
BRANCH   1  11
ATOM     11  C   UNL d   1       0.611  -0.156   1.423  0.00  0.00    -0.022 A 
ATOM     12  C   UNL d   1      -0.136   0.854   2.053  0.00  0.00     0.041 A 
ATOM     13 CL   UNL d   1      -0.452   2.377   1.303  0.00  0.00    -0.084 Cl
ATOM     14  C   UNL d   1      -0.672   0.653   3.334  0.00  0.00     0.024 A 
ATOM     15  C   UNL d   1      -0.484  -0.554   4.005  0.00  0.00     0.002 A 
ATOM     16  C   UNL d   1       0.242  -1.571   3.397  0.00  0.00     0.001 A 
ATOM     17  C   UNL d   1       0.778  -1.375   2.123  0.00  0.00     0.010 A 
ENDBRANCH   1  11
BRANCH   1  18
ATOM     18  S   UNL d   1       3.083  -0.193   0.219  0.00  0.00    -0.148 SA
BRANCH  18  19
ATOM     19  C   UNL d   1       3.684   0.214  -1.456  0.00  0.00     0.184 C 
BRANCH  19  20
ATOM     20  C   UNL d   1       5.197   0.297  -1.507  0.00  0.00     0.149 C 
ATOM     21  O   UNL d   1       5.843   0.113  -2.530  0.00  0.00    -0.649 OA
BRANCH  20  22
ATOM     22  O   UNL d   1       5.787   0.646  -0.341  0.00  0.00    -0.776 OA
ATOM     23  H   UNL d   1       5.118   0.696   0.378  0.00  0.00     0.167 HD
ENDBRANCH  20  22
ENDBRANCH  19  20
ENDBRANCH  18  19
ENDBRANCH   1  18
TORSDOF 8
