REMARK  5 active torsions:
REMARK  status: ('A' for Active; 'I' for Inactive)
REMARK    1  A    between atoms: C_10  and  C_1 
REMARK    2  A    between atoms: C_2  and  C_11 
REMARK    3  A    between atoms: N_5  and  C_3 
REMARK    4  A    between atoms: N_7  and  C_4 
REMARK    5  A    between atoms: O_23  and  C_9 
ROOT
ATOM      1  C   UNL d   1      -0.920  -2.571  -1.833  0.00  0.00     0.059 A 
ATOM      2  C   UNL d   1      -0.198  -3.761  -1.517  0.00  0.00     0.057 A 
ATOM      3  C   UNL d   1       0.601  -1.248  -0.422  0.00  0.00     0.050 A 
ATOM      4  C   UNL d   1      -0.497  -1.339  -1.290  0.00  0.00     0.048 A 
ATOM      5  C   UNL d   1       0.860  -3.647  -0.592  0.00  0.00     0.032 A 
ATOM      6  C   UNL d   1       1.252  -2.421  -0.051  0.00  0.00     0.018 A 
ENDROOT
BRANCH   1   7
ATOM      7  N   UNL d   1      -2.126  -2.653  -2.578  0.00  0.00    -0.363 N 
ATOM      8  C   UNL d   1      -2.471  -1.710  -3.395  0.00  0.00     0.102 C 
ATOM      9  HN  UNL d   1      -2.730  -3.468  -2.468  1.00  0.00     0.165 HD
BRANCH   8  10
ATOM     10  C   UNL d   1      -3.729  -1.796  -4.174  0.00  0.00     0.016 A 
ATOM     11  C   UNL d   1      -4.115  -0.729  -4.988  0.00  0.00     0.099 A 
ATOM     12  C   UNL d   1      -5.299  -0.811  -5.732  0.00  0.00     0.069 A 
ATOM     13 CL   UNL d   1      -5.790   0.498  -6.742  0.00  0.00    -0.081 Cl
ATOM     14  C   UNL d   1      -6.097  -1.957  -5.664  0.00  0.00     0.050 A 
ATOM     15  C   UNL d   1      -5.704  -3.018  -4.847  0.00  0.00     0.036 A 
ATOM     16  C   UNL d   1      -4.527  -2.944  -4.101  0.00  0.00     0.039 A 
ATOM     17 CL   UNL d   1      -6.685  -4.428  -4.762  0.00  0.00    -0.084 Cl
BRANCH  11  18
ATOM     18  O   UNL d   1      -3.332   0.394  -5.053  0.00  0.00    -0.358 OA
ATOM     19  H   UNL d   1      -3.768   1.028  -5.657  0.00  0.00     0.217 HD
ENDBRANCH  11  18
ENDBRANCH   8  10
ENDBRANCH   1   7
BRANCH   2  20
ATOM     20  N   UNL d   1      -0.468  -4.997  -2.089  0.00  0.00    -0.375 N 
ATOM     21  C   UNL d   1      -0.968  -5.129  -3.466  0.00  0.00     0.149 C 
ATOM     22  C   UNL d   1      -0.086  -6.128  -4.238  0.00  0.00     0.187 C 
ATOM     23  O   UNL d   1       0.022  -7.394  -3.565  0.00  0.00    -0.388 OA
ATOM     24  C   UNL d   1       0.584  -7.209  -2.255  0.00  0.00     0.187 C 
ATOM     25  C   UNL d   1      -0.286  -6.279  -1.396  0.00  0.00     0.149 C 
ENDBRANCH   2  20
BRANCH   3  26
ATOM     26  C   UNL d   1       1.077   0.078   0.107  0.00  0.00     0.417 C 
ATOM     27  F   UNL d   1       0.373   1.143  -0.369  0.00  0.00    -0.166 F 
ATOM     28  F   UNL d   1       2.379   0.325  -0.209  0.00  0.00    -0.166 F 
ATOM     29  F   UNL d   1       1.003   0.157   1.465  0.00  0.00    -0.166 F 
ENDBRANCH   3  26
TORSDOF 5
