REMARK  10 active torsions:
REMARK  status: ('A' for Active; 'I' for Inactive)
REMARK    1  A    between atoms: C_6  and  C_1 
REMARK    2  A    between atoms: C_7  and  C_1 
REMARK    3  A    between atoms: N_9  and  N_2 
REMARK    4  A    between atoms: C_4  and  C_10 
REMARK    5  A    between atoms: C_5  and  N_9 
REMARK    6  A    between atoms: O_26  and  C_6 
REMARK    7  A    between atoms: O_25  and  C_7 
REMARK    8  A    between atoms: C_8  and  C_17 
REMARK    9  A    between atoms: O_13  and  C_12 
REMARK   10  A    between atoms: C_17  and  O_13 
ROOT
ATOM      1  C   UNL d   1       0.375  -2.884   1.915  0.00  0.00     0.082 A 
ATOM      2  C   UNL d   1      -1.327  -4.641   1.738  0.00  0.00     0.050 A 
ATOM      3  C   UNL d   1      -0.728  -3.464   1.264  0.00  0.00     0.050 A 
ATOM      4  C   UNL d   1       0.810  -3.445   3.131  0.00  0.00     0.097 A 
ATOM      5  C   UNL d   1      -0.842  -5.214   2.920  0.00  0.00     0.019 A 
ATOM      6  C   UNL d   1       0.213  -4.615   3.613  0.00  0.00     0.040 A 
ENDROOT
BRANCH   1   7
ATOM      7  N   UNL d   1       1.038  -1.780   1.347  0.00  0.00    -0.297 N 
ATOM      8  H   UNL d   1       2.060  -1.884   1.341  0.00  0.00     0.187 HD
BRANCH   7   9
ATOM      9  N   UNL d   1       0.395  -0.971   0.463  0.00  0.00    -0.290 N 
ATOM     10  C   UNL d   1       1.117  -0.342  -0.430  0.00  0.00     0.199 C 
ATOM     11  HN  UNL d   1      -0.618  -0.857   0.495  1.00  0.00     0.187 HD
BRANCH  10  12
ATOM     12  C   UNL d   1       0.437   0.705  -1.289  0.00  0.00     0.317 C 
ATOM     13  O   UNL d   1       1.033   1.694  -1.675  0.00  0.00    -0.257 OA
BRANCH  12  14
ATOM     14  O   UNL d   1      -0.859   0.398  -1.509  0.00  0.00    -0.321 OA
ATOM     15  C   UNL d   1      -1.580   1.403  -2.221  0.00  0.00     0.213 C 
ENDBRANCH  12  14
ENDBRANCH  10  12
BRANCH  10  16
ATOM     16  C   UNL d   1       2.602  -0.594  -0.609  0.00  0.00     0.317 C 
ATOM     17  O   UNL d   1       3.336  -0.856   0.334  0.00  0.00    -0.257 OA
BRANCH  16  18
ATOM     18  O   UNL d   1       2.926  -0.589  -1.915  0.00  0.00    -0.321 OA
ATOM     19  C   UNL d   1       4.304  -0.873  -2.164  0.00  0.00     0.213 C 
ENDBRANCH  16  18
ENDBRANCH  10  16
ENDBRANCH   7   9
ENDBRANCH   1   7
BRANCH   4  20
ATOM     20  O   UNL d   1       1.841  -2.983   3.913  0.00  0.00    -0.340 OA
BRANCH  20  21
ATOM     21  C   UNL d   1       1.958  -1.555   4.044  0.00  0.00     0.293 C 
BRANCH  21  22
ATOM     22  C   UNL d   1       2.488  -1.143   5.415  0.00  0.00     0.408 C 
ATOM     23  F   UNL d   1       2.664  -2.188   6.252  0.00  0.00    -0.169 F 
ATOM     24  F   UNL d   1       3.681  -0.510   5.302  0.00  0.00    -0.169 F 
ATOM     25  F   UNL d   1       1.638  -0.279   6.021  0.00  0.00    -0.169 F 
ENDBRANCH  21  22
ENDBRANCH  20  21
ENDBRANCH   4  20
BRANCH   2  26
ATOM     26  C   UNL d   1      -2.438  -5.311   0.969  0.00  0.00     0.417 C 
ATOM     27  F   UNL d   1      -2.795  -4.652  -0.169  0.00  0.00    -0.166 F 
ATOM     28  F   UNL d   1      -2.104  -6.573   0.574  0.00  0.00    -0.166 F 
ATOM     29  F   UNL d   1      -3.579  -5.440   1.700  0.00  0.00    -0.166 F 
ENDBRANCH   2  26
TORSDOF 10
