REMARK  5 active torsions:
REMARK  status: ('A' for Active; 'I' for Inactive)
REMARK    1  A    between atoms: C_9  and  O_13 
REMARK    2  A    between atoms: C_24  and  C_9 
REMARK    3  A    between atoms: O_13  and  C_10 
REMARK    4  A    between atoms: C_19  and  O_25 
REMARK    5  A    between atoms: O_25  and  C_22 
ROOT
ATOM      1  C   UNL d   1      -2.973   0.275  -1.625  0.00  0.00     0.005 C 
ATOM      2  C   UNL d   1      -2.483   1.725  -1.392  0.00  0.00     0.056 C 
ATOM      3  C   UNL d   1      -0.887  -0.082  -3.170  0.00  0.00    -0.002 C 
ATOM      4  C   UNL d   1      -0.727  -2.512  -4.225  0.00  0.00    -0.013 C 
ATOM      5  C   UNL d   1      -1.784  -0.647  -2.030  0.00  0.00     0.002 C 
ATOM      6  C   UNL d   1      -0.769  -0.964  -4.437  0.00  0.00     0.001 C 
ATOM      7  C   UNL d   1      -2.300   2.131  -2.856  0.00  0.00     0.142 C 
ATOM      8  C   UNL d   1      -1.135   1.413  -3.568  0.00  0.00     0.039 C 
ATOM      9  C   UNL d   1       0.700  -2.925  -4.673  0.00  0.00     0.140 C 
ATOM     10  O   UNL d   1      -3.497   1.677  -3.512  0.00  0.00    -0.383 OA
ATOM     11  C   UNL d   1      -3.915   0.480  -2.844  0.00  0.00     0.179 C 
ATOM     12  C   UNL d   1      -3.512   2.582  -0.603  0.00  0.00     0.057 C 
ATOM     13  C   UNL d   1      -0.988  -2.918  -2.771  0.00  0.00     0.012 C 
ATOM     14  C   UNL d   1      -3.785  -0.362  -0.474  0.00  0.00     0.016 C 
ATOM     15  C   UNL d   1      -2.155  -2.132  -2.190  0.00  0.00     0.007 C 
ATOM     16  C   UNL d   1       0.525  -0.618  -5.212  0.00  0.00     0.008 C 
ATOM     17  C   UNL d   1       1.026  -1.930  -5.777  0.00  0.00     0.034 C 
ATOM     18  C   UNL d   1      -3.996   1.865   0.683  0.00  0.00     0.133 C 
ATOM     19 BR   UNL d   1      -0.718   1.986  -0.506  0.00  0.00    -0.082 Br
ATOM     20  C   UNL d   1      -4.729   0.598   0.245  0.00  0.00     0.033 C 
ATOM     21  C   UNL d   1      -1.801  -3.178  -5.123  0.00  0.00     0.018 C 
ENDROOT
BRANCH   9  22
ATOM     22  O   UNL d   1       0.772  -4.241  -5.226  0.00  0.00    -0.311 OA
BRANCH  22  23
ATOM     23  C   UNL d   1       1.277  -5.221  -4.440  0.00  0.00     0.293 C 
ATOM     24  O   UNL d   1       1.613  -5.108  -3.273  0.00  0.00    -0.259 OA
BRANCH  23  25
ATOM     25  C   UNL d   1       1.407  -6.480  -5.227  0.00  0.00     0.039 A 
ATOM     26  C   UNL d   1       0.958  -6.585  -6.553  0.00  0.00     0.017 A 
ATOM     27  C   UNL d   1       1.122  -7.779  -7.258  0.00  0.00     0.001 A 
ATOM     28  C   UNL d   1       1.732  -8.874  -6.648  0.00  0.00     0.000 A 
ATOM     29  C   UNL d   1       2.181  -8.778  -5.331  0.00  0.00     0.001 A 
ATOM     30  C   UNL d   1       2.019  -7.585  -4.621  0.00  0.00     0.017 A 
ENDBRANCH  23  25
ENDBRANCH  22  23
ENDBRANCH   9  22
BRANCH  18  31
ATOM     31  O   UNL d   1      -2.813   1.594   1.469  0.00  0.00    -0.316 OA
BRANCH  31  32
ATOM     32  C   UNL d   1      -2.786   0.686   2.470  0.00  0.00     0.255 C 
ATOM     33  O   UNL d   1      -3.760   0.216   3.042  0.00  0.00    -0.266 OA
ATOM     34  C   UNL d   1      -1.366   0.241   2.686  0.00  0.00     0.126 C 
ENDBRANCH  31  32
ENDBRANCH  18  31
TORSDOF 5
