REMARK  4 active torsions:
REMARK  status: ('A' for Active; 'I' for Inactive)
REMARK    1  A    between atoms: C_2  and  S_1 
REMARK    2  A    between atoms: C_3  and  S_1 
REMARK    3  A    between atoms: N_13  and  N_4 
REMARK    4  A    between atoms: C_15  and  N_13 
ROOT
ATOM      1  C   UNL d   1       0.541   1.388  -0.903  0.00  0.00     0.229 C 
ATOM      2  N   UNL d   1      -0.240   1.286  -1.940  0.00  0.00    -0.281 N 
ATOM      3  HN  UNL d   1      -0.605   2.127  -2.388  1.00  0.00     0.188 HD
ATOM      4  C   UNL d   1       1.083   0.213  -0.284  0.00  0.00     0.132 C 
ATOM      5  N   UNL d   1       1.481  -0.765   0.205  0.00  0.00    -0.189 NA
ENDROOT
BRANCH   1   6
ATOM      6  S   UNL d   1       0.964   2.915  -0.191  0.00  0.00     0.234 S 
ATOM      7  O   UNL d   1       2.381   3.131  -0.412  0.00  0.00    -0.215 OA
ATOM      8  O   UNL d   1       0.361   2.967   1.127  0.00  0.00    -0.215 OA
BRANCH   6   9
ATOM      9  C   UNL d   1       0.167   4.181  -1.066  0.00  0.00     0.073 A 
ATOM     10  C   UNL d   1      -1.253   4.309  -1.174  0.00  0.00     0.031 A 
ATOM     11  C   UNL d   1      -1.616   5.426  -1.894  0.00  0.00     0.051 A 
ATOM     12  S   UNL d   1      -0.257   6.315  -2.434  0.00  0.00    -0.112 SA
ATOM     13  C   UNL d   1       0.828   5.214  -1.699  0.00  0.00     0.073 A 
ENDBRANCH   6   9
ENDBRANCH   1   6
BRANCH   2  14
ATOM     14  N   UNL d   1      -0.572   0.050  -2.430  0.00  0.00    -0.299 N 
ATOM     15  H   UNL d   1      -0.786  -0.713  -1.782  0.00  0.00     0.187 HD
BRANCH  14  16
ATOM     16  C   UNL d   1      -1.431   0.042  -3.556  0.00  0.00     0.048 A 
ATOM     17  C   UNL d   1      -1.421   1.083  -4.492  0.00  0.00     0.031 A 
ATOM     18  C   UNL d   1      -2.262   1.057  -5.607  0.00  0.00     0.009 A 
ATOM     19  C   UNL d   1      -3.132  -0.018  -5.813  0.00  0.00    -0.062 A 
ATOM     20  C   UNL d   1      -3.124  -1.078  -4.901  0.00  0.00     0.009 A 
ATOM     21  C   UNL d   1      -4.042  -0.021  -7.004  0.00  0.00     0.048 C 
ATOM     22  C   UNL d   1      -2.272  -1.054  -3.790  0.00  0.00     0.031 A 
ENDBRANCH  14  16
ENDBRANCH   2  14
TORSDOF 4
