REMARK  6 active torsions:
REMARK  status: ('A' for Active; 'I' for Inactive)
REMARK    1  A    between atoms: C_3  and  C_1 
REMARK    2  A    between atoms: N_5  and  C_2 
REMARK       I    between atoms: C_4  and  N_6 
REMARK    3  A    between atoms: C_7  and  C_4 
REMARK    4  A    between atoms: S_16  and  C_22 
REMARK    5  A    between atoms: C_20  and  S_16 
REMARK    6  A    between atoms: C_22  and  C_21 
ROOT
ATOM      1  C   UNL d   1      -3.923   5.721   0.675  0.00  0.00     0.253 C 
ATOM      2  N   UNL d   1      -1.326   2.403   0.554  0.00  0.00    -0.266 NA
ATOM      3  N   UNL d   1      -2.919   4.764   0.740  0.00  0.00    -0.346 N 
ATOM      4  C   UNL d   1      -1.731   3.093  -0.697  0.00  0.00     0.117 C 
ATOM      5  C   UNL d   1      -2.361   2.531   1.603  0.00  0.00     0.117 C 
ATOM      6  C   UNL d   1      -2.499   4.025   1.941  0.00  0.00     0.141 C 
ATOM      7  C   UNL d   1      -2.006   4.590  -0.403  0.00  0.00     0.141 C 
ATOM      8  O   UNL d   1      -4.036   6.504  -0.267  0.00  0.00    -0.267 OA
ENDROOT
BRANCH   1   9
ATOM      9  C   UNL d   1      -4.934   5.804   1.764  0.00  0.00     0.032 A 
ATOM     10  C   UNL d   1      -5.359   7.069   2.192  0.00  0.00     0.025 A 
ATOM     11  C   UNL d   1      -6.334   7.200   3.196  0.00  0.00    -0.048 A 
ATOM     12  C   UNL d   1      -6.871   6.033   3.763  0.00  0.00     0.008 A 
ATOM     13  C   UNL d   1      -6.467   4.772   3.324  0.00  0.00     0.002 A 
ATOM     14  C   UNL d   1      -5.529   4.658   2.301  0.00  0.00     0.017 A 
BRANCH  11  15
ATOM     15  C   UNL d   1      -6.872   8.575   3.529  0.00  0.00     0.117 C 
BRANCH  15  16
ATOM     16  S   UNL d   1      -7.193   8.857   5.301  0.00  0.00    -0.125 SA
BRANCH  16  17
ATOM     17  C   UNL d   1      -7.850  10.512   5.221  0.00  0.00     0.000 A 
ATOM     18  C   UNL d   1      -9.002  10.810   4.488  0.00  0.00     0.019 A 
ATOM     19  C   UNL d   1      -9.480  12.123   4.427  0.00  0.00     0.008 A 
ATOM     20  C   UNL d   1      -8.820  13.151   5.109  0.00  0.00    -0.062 A 
ATOM     21  C   UNL d   1      -7.682  12.844   5.862  0.00  0.00     0.008 A 
ATOM     22  C   UNL d   1      -9.328  14.559   5.020  0.00  0.00     0.048 C 
ATOM     23  C   UNL d   1      -7.204  11.532   5.922  0.00  0.00     0.019 A 
ENDBRANCH  16  17
ENDBRANCH  15  16
ENDBRANCH  11  15
ENDBRANCH   1   9
BRANCH   2  24
ATOM     24  C   UNL d   1      -0.829   1.111   0.399  0.00  0.00     0.097 A 
ATOM     25  C   UNL d   1       0.014   0.536   1.356  0.00  0.00     0.086 A 
ATOM     26  C   UNL d   1       0.474  -0.777   1.139  0.00  0.00     0.021 A 
ATOM     27  C   UNL d   1       0.124  -1.465  -0.011  0.00  0.00     0.018 A 
ATOM     28  C   UNL d   1      -0.684  -0.810  -0.918  0.00  0.00     0.089 A 
ATOM     29  N   UNL d   1      -1.157   0.437  -0.733  0.00  0.00    -0.356 N 
ATOM     30  HN  UNL d   1      -1.756   0.871  -1.435  1.00  0.00     0.166 HD
BRANCH  25  31
ATOM     31  C   UNL d   1       0.475   1.237   2.600  0.00  0.00     0.420 C 
ATOM     32  F   UNL d   1       0.232   2.573   2.693  0.00  0.00    -0.166 F 
ATOM     33  F   UNL d   1      -0.096   0.693   3.718  0.00  0.00    -0.166 F 
ATOM     34  F   UNL d   1       1.822   1.111   2.794  0.00  0.00    -0.166 F 
ENDBRANCH  25  31
ENDBRANCH   2  24
TORSDOF 6
