REMARK  2 active torsions:
REMARK  status: ('A' for Active; 'I' for Inactive)
REMARK    1  A    between atoms: N_2  and  C_1 
REMARK    2  A    between atoms: N_11  and  C_3 
ROOT
ATOM      1  N   UNL d   1       1.614  -2.314   0.154  0.00  0.00    -0.219 N 
ATOM      2  C   UNL d   1       2.859  -2.421   0.779  0.00  0.00     0.145 A 
ATOM      3  N   UNL d   1       1.255  -3.463  -0.463  0.00  0.00    -0.300 N 
ATOM      4  HN  UNL d   1       0.379  -3.666  -0.943  1.00  0.00     0.186 HD
ATOM      5  C   UNL d   1       3.330  -3.674   0.446  0.00  0.00     0.106 A 
ATOM      6  C   UNL d   1       2.305  -4.271  -0.304  0.00  0.00     0.134 A 
ATOM      7  C   UNL d   1       4.561  -4.267   0.839  0.00  0.00     0.104 C 
ATOM      8  N   UNL d   1       5.566  -4.742   1.171  0.00  0.00    -0.191 NA
ATOM      9  N   UNL d   1       3.393  -1.461   1.588  0.00  0.00    -0.383 N 
ATOM     10  H   UNL d   1       2.773  -0.837   2.107  0.00  0.00     0.157 HD
ATOM     11  H   UNL d   1       4.218  -1.687   2.148  0.00  0.00     0.157 HD
ENDROOT
BRANCH   1  12
ATOM     12  C   UNL d   1       0.726  -1.256   0.051  0.00  0.00     0.180 A 
ATOM     13  C   UNL d   1      -0.651  -1.309  -0.070  0.00  0.00     0.173 A 
ATOM     14  C   UNL d   1      -1.080   0.037  -0.071  0.00  0.00     0.059 A 
ATOM     15  C   UNL d   1      -2.457   0.591  -0.080  0.00  0.00     0.072 C 
ATOM     16  N   UNL d   1      -0.037   0.876  -0.005  0.00  0.00    -0.299 N 
ATOM     17  N   UNL d   1       1.050   0.073   0.001  0.00  0.00    -0.277 N 
ATOM     18  HN  UNL d   1      -0.059   1.895   0.033  1.00  0.00     0.187 HD
ATOM     19  C   UNL d   1       2.329   0.715  -0.213  0.00  0.00     0.179 C 
BRANCH  13  20
ATOM     20  N   UNL d   1      -1.486  -2.466  -0.045  0.00  0.00    -0.110 N 
ATOM     21  O   UNL d   1      -1.425  -3.174   0.968  0.00  0.00    -0.532 OA
ATOM     22  O   UNL d   1      -2.267  -2.603  -0.995  0.00  0.00    -0.532 OA
ENDBRANCH  13  20
ENDBRANCH   1  12
TORSDOF 2
