REMARK  2 active torsions:
REMARK  status: ('A' for Active; 'I' for Inactive)
REMARK    1  A    between atoms: C_7  and  C_2 
REMARK       I    between atoms: C_8  and  N_9 
REMARK    2  A    between atoms: N_9  and  C_13 
ROOT
ATOM      1  C   UNL d   1       2.439  -1.651   0.039  0.00  0.00    -0.008 A 
ATOM      2  C   UNL d   1       2.597  -2.570  -1.006  0.00  0.00     0.016 A 
ATOM      3  C   UNL d   1       3.441  -1.575   1.014  0.00  0.00     0.016 A 
ATOM      4  C   UNL d   1       4.734  -3.305  -0.100  0.00  0.00     0.034 A 
ATOM      5  C   UNL d   1       4.575  -2.393   0.943  0.00  0.00     0.030 A 
ATOM      6  C   UNL d   1       3.735  -3.385  -1.076  0.00  0.00     0.030 A 
ENDROOT
BRANCH   1   7
ATOM      7  C   UNL d   1       1.244  -0.818   0.104  0.00  0.00     0.063 A 
ATOM      8  N   UNL d   1       0.049  -1.224  -0.483  0.00  0.00    -0.292 N 
ATOM      9  N   UNL d   1      -0.917  -0.338  -0.304  0.00  0.00    -0.061 NA
ATOM     10  HN  UNL d   1      -0.069  -2.101  -0.990  1.00  0.00     0.183 HD
ATOM     11  S   UNL d   1      -0.415   1.008   0.551  0.00  0.00    -0.010 SA
ATOM     12  C   UNL d   1       1.188   0.421   0.720  0.00  0.00     0.096 A 
ENDBRANCH   1   7
BRANCH   4  13
ATOM     13  N   UNL d   1       5.845  -4.165  -0.229  0.00  0.00    -0.328 N 
ATOM     14  C   UNL d   1       6.932  -4.261   0.621  0.00  0.00     0.218 C 
ATOM     15  O   UNL d   1       7.131  -3.604   1.638  0.00  0.00    -0.274 OA
ATOM     16  C   UNL d   1       7.936  -5.302   0.190  0.00  0.00     0.117 C 
ATOM     17  H   UNL d   1       5.831  -4.783  -1.031  0.00  0.00     0.169 HD
ENDBRANCH   4  13
TORSDOF 2
