REMARK  4 active torsions:
REMARK  status: ('A' for Active; 'I' for Inactive)
REMARK    1  A    between atoms: C_9  and  N_1 
REMARK    2  A    between atoms: C_7  and  C_2 
REMARK    3  A    between atoms: N_10  and  C_8 
REMARK    4  A    between atoms: C_11  and  N_10 
ROOT
ATOM      1  N   UNL d   1       3.699   0.689   0.054  0.00  0.00    -0.225 N 
ATOM      2  C   UNL d   1       3.635  -0.707   0.036  0.00  0.00     0.139 C 
ATOM      3  N   UNL d   1       5.696  -0.079   0.044  0.00  0.00    -0.007 NA
ATOM      4  N   UNL d   1       5.001   1.042  -0.073  0.00  0.00     0.001 NA
ATOM      5  N   UNL d   1       4.868  -1.167   0.126  0.00  0.00    -0.270 N 
ATOM      6  HN  UNL d   1       5.150  -2.142   0.236  1.00  0.00     0.185 HD
ENDROOT
BRANCH   2   7
ATOM      7  C   UNL d   1       2.414  -1.383  -0.206  0.00  0.00     0.068 C 
ATOM      8  C   UNL d   1       2.170  -2.655   0.129  0.00  0.00     0.092 C 
BRANCH   8   9
ATOM      9  N   UNL d   1       2.949  -3.590   0.758  0.00  0.00    -0.366 N 
ATOM     10  H   UNL d   1       3.913  -3.308   0.934  0.00  0.00     0.165 HD
BRANCH   9  11
ATOM     11  C   UNL d   1       2.631  -4.932   1.044  0.00  0.00     0.032 A 
ATOM     12  C   UNL d   1       1.418  -5.534   0.672  0.00  0.00     0.031 A 
ATOM     13  C   UNL d   1       1.124  -6.860   1.012  0.00  0.00     0.026 A 
ATOM     14  C   UNL d   1       2.040  -7.604   1.743  0.00  0.00     0.034 A 
ATOM     15  C   UNL d   1       3.243  -7.031   2.141  0.00  0.00     0.026 A 
ATOM     16 CL   UNL d   1       1.680  -9.233   2.158  0.00  0.00    -0.084 Cl
ATOM     17  C   UNL d   1       3.533  -5.703   1.796  0.00  0.00     0.031 A 
ENDBRANCH   9  11
ENDBRANCH   8   9
ENDBRANCH   2   7
BRANCH   1  18
ATOM     18  C   UNL d   1       2.679   1.670   0.189  0.00  0.00     0.056 A 
ATOM     19  C   UNL d   1       1.481   1.382   0.861  0.00  0.00     0.031 A 
ATOM     20  C   UNL d   1       0.478   2.349   0.955  0.00  0.00     0.002 A 
ATOM     21  C   UNL d   1       0.664   3.606   0.386  0.00  0.00     0.000 A 
ATOM     22  C   UNL d   1       1.866   3.910  -0.254  0.00  0.00     0.002 A 
ATOM     23  C   UNL d   1       2.881   2.954  -0.339  0.00  0.00     0.031 A 
ENDBRANCH   1  18
TORSDOF 4
