REMARK  5 active torsions:
REMARK  status: ('A' for Active; 'I' for Inactive)
REMARK    1  A    between atoms: C_11  and  N_1 
REMARK    2  A    between atoms: C_2  and  C_5 
REMARK    3  A    between atoms: C_9  and  N_14 
REMARK    4  A    between atoms: N_14  and  N_12 
REMARK    5  A    between atoms: C_22  and  C_24 
ROOT
ATOM      1  N   UNL d   1       6.554  -3.837   0.719  0.00  0.00    -0.311 N 
ATOM      2  HN  UNL d   1       6.447  -3.195   1.504  1.00  0.00     0.186 HD
ATOM      3  C   UNL d   1       5.672  -3.909  -0.229  0.00  0.00     0.118 C 
ENDROOT
BRANCH   1   4
ATOM      4  N   UNL d   1       7.623  -4.657   0.613  0.00  0.00    -0.299 N 
ATOM      5  H   UNL d   1       7.893  -5.080  -0.276  0.00  0.00     0.187 HD
BRANCH   4   6
ATOM      6  C   UNL d   1       8.687  -4.485   1.527  0.00  0.00     0.069 A 
ATOM      7  C   UNL d   1       9.859  -5.256   1.435  0.00  0.00     0.062 A 
ATOM      8  C   UNL d   1      10.883  -5.136   2.384  0.00  0.00     0.042 A 
ATOM      9 CL   UNL d   1      10.076  -6.378   0.137  0.00  0.00    -0.082 Cl
ATOM     10  C   UNL d   1      10.757  -4.247   3.461  0.00  0.00     0.049 A 
ATOM     11  C   UNL d   1       9.586  -3.486   3.570  0.00  0.00     0.018 A 
ATOM     12  C   UNL d   1       8.565  -3.615   2.624  0.00  0.00     0.033 A 
BRANCH  10  13
ATOM     13  C   UNL d   1      11.846  -4.099   4.495  0.00  0.00     0.417 C 
ATOM     14  F   UNL d   1      12.908  -4.925   4.287  0.00  0.00    -0.166 F 
ATOM     15  F   UNL d   1      12.354  -2.838   4.535  0.00  0.00    -0.166 F 
ATOM     16  F   UNL d   1      11.405  -4.366   5.754  0.00  0.00    -0.166 F 
ENDBRANCH  10  13
ENDBRANCH   4   6
ENDBRANCH   1   4
BRANCH   3  17
ATOM     17  C   UNL d   1       4.457  -3.070  -0.177  0.00  0.00    -0.019 A 
ATOM     18  C   UNL d   1       4.209  -2.265   0.942  0.00  0.00     0.015 A 
ATOM     19  C   UNL d   1       3.051  -1.488   1.004  0.00  0.00     0.031 A 
ATOM     20  C   UNL d   1       2.139  -1.490  -0.057  0.00  0.00     0.039 A 
ATOM     21  C   UNL d   1       2.398  -2.293  -1.180  0.00  0.00     0.031 A 
ATOM     22  C   UNL d   1       3.550  -3.088  -1.236  0.00  0.00     0.015 A 
BRANCH  20  23
ATOM     23  N   UNL d   1       0.958  -0.686   0.012  0.00  0.00    -0.320 N 
ATOM     24  C   UNL d   1      -0.319  -1.049  -0.427  0.00  0.00     0.013 A 
ATOM     25  C   UNL d   1      -1.181   0.003  -0.180  0.00  0.00     0.027 A 
ATOM     26  C   UNL d   1      -0.712  -2.381  -0.972  0.00  0.00     0.068 C 
ATOM     27  C   UNL d   1      -0.450   1.024   0.442  0.00  0.00     0.027 A 
ATOM     28  C   UNL d   1       0.863   0.605   0.546  0.00  0.00     0.013 A 
ATOM     29  C   UNL d   1       1.998   1.429   1.057  0.00  0.00     0.068 C 
ENDBRANCH  20  23
ENDBRANCH   3  17
TORSDOF 5
