REMARK  8 active torsions:
REMARK  status: ('A' for Active; 'I' for Inactive)
REMARK    1  A    between atoms: O_4  and  C_1 
REMARK    2  A    between atoms: C_3  and  O_4 
REMARK    3  A    between atoms: N_6  and  C_7 
REMARK       I    between atoms: C_8  and  N_6 
REMARK    4  A    between atoms: C_20  and  C_8 
REMARK    5  A    between atoms: C_11  and  C_21 
REMARK    6  A    between atoms: O_17  and  C_11 
REMARK    7  A    between atoms: C_22  and  C_20 
REMARK    8  A    between atoms: C_21  and  C_22 
ROOT
ATOM      1  C   UNL d   1      -0.616   1.178   0.278  0.00  0.00     0.175 A 
ATOM      2  C   UNL d   1       0.783   1.213   0.189  0.00  0.00     0.086 A 
ATOM      3  N   UNL d   1      -1.326   0.034   0.064  0.00  0.00    -0.345 N 
ATOM      4  HN  UNL d   1      -2.346   0.041   0.082  1.00  0.00     0.167 HD
ATOM      5  C   UNL d   1       1.445   0.013  -0.111  0.00  0.00     0.035 A 
ATOM      6  C   UNL d   1      -0.648  -1.106  -0.171  0.00  0.00     0.090 A 
ATOM      7  C   UNL d   1       0.726  -1.168  -0.263  0.00  0.00     0.019 A 
ENDROOT
BRANCH   1   8
ATOM      8  O   UNL d   1      -1.328   2.369   0.444  0.00  0.00    -0.291 OA
BRANCH   8   9
ATOM      9  C   UNL d   1      -2.651   2.272   0.825  0.00  0.00     0.084 A 
ATOM     10  C   UNL d   1      -3.598   3.087   0.209  0.00  0.00    -0.017 A 
ATOM     11  C   UNL d   1      -4.963   2.954   0.513  0.00  0.00    -0.043 A 
ATOM     12  C   UNL d   1      -3.380   4.116  -0.852  0.00  0.00     0.042 C 
ATOM     13  C   UNL d   1      -5.799   3.874  -0.321  0.00  0.00     0.040 C 
ATOM     14  C   UNL d   1      -5.414   2.013   1.437  0.00  0.00    -0.055 A 
ATOM     15  C   UNL d   1      -4.757   4.789  -0.973  0.00  0.00     0.009 C 
ATOM     16  C   UNL d   1      -4.452   1.262   2.120  0.00  0.00     0.010 A 
ATOM     17  C   UNL d   1      -6.874   1.803   1.699  0.00  0.00     0.049 C 
ATOM     18  C   UNL d   1      -3.087   1.410   1.833  0.00  0.00     0.038 A 
ENDBRANCH   8   9
ENDBRANCH   1   8
BRANCH   2  19
ATOM     19  N   UNL d   1       1.613   2.346   0.353  0.00  0.00    -0.324 N 
ATOM     20  C   UNL d   1       1.457   3.289   1.351  0.00  0.00     0.222 C 
ATOM     21  O   UNL d   1       0.594   3.275   2.222  0.00  0.00    -0.273 OA
ATOM     22  H   UNL d   1       2.547   2.267  -0.032  0.00  0.00     0.169 HD
BRANCH  20  23
ATOM     23  C   UNL d   1       2.555   4.343   1.325  0.00  0.00     0.103 C 
BRANCH  23  24
ATOM     24  C   UNL d   1       3.024   4.753   2.725  0.00  0.00     0.019 C 
BRANCH  24  25
ATOM     25  C   UNL d   1       3.620   3.607   3.551  0.00  0.00     0.110 C 
BRANCH  25  26
ATOM     26  C   UNL d   1       4.844   2.993   2.917  0.00  0.00     0.139 C 
ATOM     27  O   UNL d   1       5.568   3.548   2.104  0.00  0.00    -0.650 OA
BRANCH  26  28
ATOM     28  O   UNL d   1       5.080   1.731   3.344  0.00  0.00    -0.776 OA
ATOM     29  H   UNL d   1       4.440   1.411   4.011  0.00  0.00     0.167 HD
ENDBRANCH  26  28
ENDBRANCH  25  26
ENDBRANCH  24  25
ENDBRANCH  23  24
ENDBRANCH  20  23
ENDBRANCH   2  19
TORSDOF 8
