REMARK  3 active torsions:
REMARK  status: ('A' for Active; 'I' for Inactive)
REMARK    1  A    between atoms: N_6  and  C_1 
REMARK       I    between atoms: C_8  and  N_6 
REMARK    2  A    between atoms: C_12  and  C_7 
REMARK       I    between atoms: N_9  and  C_8 
REMARK    3  A    between atoms: C_10  and  N_9 
ROOT
ATOM      1  N   UNL d   1      -0.290  -2.477   0.137  0.00  0.00    -0.293 N 
ATOM      2  C   UNL d   1      -1.660  -2.796  -0.074  0.00  0.00     0.326 C 
ATOM      3  N   UNL d   1      -2.583  -2.005   0.532  0.00  0.00    -0.309 N 
ATOM      4  O   UNL d   1      -1.823  -3.771  -0.784  0.00  0.00    -0.247 OA
ATOM      5  H   UNL d   1       0.294  -3.201  -0.265  0.00  0.00     0.172 HD
ATOM      6  H   UNL d   1      -2.265  -1.275   1.139  0.00  0.00     0.170 HD
ENDROOT
BRANCH   1   7
ATOM      7  C   UNL d   1       0.346  -1.415   0.757  0.00  0.00     0.127 C 
ATOM      8  C   UNL d   1      -0.124  -0.193   1.186  0.00  0.00     0.082 C 
ATOM      9  C   UNL d   1       0.952   0.409   1.904  0.00  0.00     0.062 C 
ATOM     10  N   UNL d   1       2.065  -0.322   1.762  0.00  0.00    -0.296 N 
ATOM     11  N   UNL d   1       1.687  -1.393   1.059  0.00  0.00    -0.281 N 
ATOM     12  HN  UNL d   1       2.998  -0.108   2.114  1.00  0.00     0.187 HD
ATOM     13  C   UNL d   1       2.659  -2.427   0.783  0.00  0.00     0.179 C 
BRANCH   9  14
ATOM     14  C   UNL d   1       0.930   1.599   2.767  0.00  0.00    -0.008 A 
ATOM     15  C   UNL d   1      -0.277   2.210   3.139  0.00  0.00     0.014 A 
ATOM     16  C   UNL d   1      -0.289   3.247   4.077  0.00  0.00     0.001 A 
ATOM     17  C   UNL d   1       0.902   3.692   4.646  0.00  0.00     0.000 A 
ATOM     18  C   UNL d   1       2.110   3.118   4.263  0.00  0.00     0.001 A 
ATOM     19  C   UNL d   1       2.124   2.082   3.327  0.00  0.00     0.014 A 
ENDBRANCH   9  14
ENDBRANCH   1   7
BRANCH   3  20
ATOM     20  C   UNL d   1      -3.977  -2.048   0.318  0.00  0.00     0.037 A 
ATOM     21  C   UNL d   1      -4.634  -3.129  -0.276  0.00  0.00     0.036 A 
ATOM     22  C   UNL d   1      -6.010  -3.076  -0.531  0.00  0.00    -0.059 A 
ATOM     23  C   UNL d   1      -6.714  -4.230  -1.184  0.00  0.00     0.048 C 
ATOM     24  C   UNL d   1      -6.724  -1.917  -0.205  0.00  0.00     0.013 A 
ATOM     25  C   UNL d   1      -6.085  -0.832   0.405  0.00  0.00    -0.059 A 
ATOM     26  C   UNL d   1      -4.717  -0.918   0.689  0.00  0.00     0.036 A 
ATOM     27  C   UNL d   1      -6.853   0.430   0.673  0.00  0.00     0.048 C 
ENDBRANCH   3  20
TORSDOF 3
