REMARK  4 active torsions:
REMARK  status: ('A' for Active; 'I' for Inactive)
REMARK    1  A    between atoms: C_8  and  C_1 
REMARK    2  A    between atoms: C_13  and  C_5 
REMARK    3  A    between atoms: C_7  and  C_12 
REMARK    4  A    between atoms: C_18  and  N_10 
ROOT
ATOM      1  C   UNL d   1       1.895   1.005   0.035  0.00  0.00     0.080 A 
ATOM      2  N   UNL d   1       1.325  -1.225  -0.019  0.00  0.00    -0.334 N 
ATOM      3  HN  UNL d   1       1.380  -2.242  -0.073  1.00  0.00     0.168 HD
ATOM      4  C   UNL d   1       0.258  -0.480   0.039  0.00  0.00     0.147 A 
ATOM      5  C   UNL d   1       2.369  -0.311   0.009  0.00  0.00     0.073 A 
ATOM      6  N   UNL d   1       0.543   0.843   0.083  0.00  0.00    -0.324 N 
ATOM      7  S   UNL d   1      -1.423  -0.816   0.017  0.00  0.00    -0.092 SA
ATOM      8  C   UNL d   1      -0.574   1.756   0.158  0.00  0.00     0.142 C 
ATOM      9  C   UNL d   1      -1.826   0.959  -0.230  0.00  0.00     0.102 C 
ENDROOT
BRANCH   1  10
ATOM     10  C   UNL d   1       2.613   2.246   0.006  0.00  0.00     0.120 C 
ATOM     11  N   UNL d   1       2.049   3.373   0.305  0.00  0.00    -0.364 N 
ATOM     12  HN  UNL d   1       1.055   3.434   0.523  1.00  0.00     0.165 HD
BRANCH  11  13
ATOM     13  C   UNL d   1       2.880   4.509   0.313  0.00  0.00     0.032 A 
ATOM     14  C   UNL d   1       3.757   4.811  -0.737  0.00  0.00     0.045 A 
ATOM     15  C   UNL d   1       4.618   5.918  -0.672  0.00  0.00     0.050 A 
ATOM     16  C   UNL d   1       4.553   6.762   0.446  0.00  0.00     0.016 A 
ATOM     17  C   UNL d   1       3.658   6.493   1.480  0.00  0.00     0.003 A 
ATOM     18  C   UNL d   1       2.830   5.369   1.412  0.00  0.00     0.029 A 
BRANCH  15  19
ATOM     19  C   UNL d   1       5.604   6.195  -1.779  0.00  0.00     0.417 C 
ATOM     20  F   UNL d   1       5.633   5.224  -2.734  0.00  0.00    -0.166 F 
ATOM     21  F   UNL d   1       5.340   7.358  -2.434  0.00  0.00    -0.166 F 
ATOM     22  F   UNL d   1       6.882   6.302  -1.321  0.00  0.00    -0.166 F 
ENDBRANCH  15  19
ENDBRANCH  11  13
ENDBRANCH   1  10
BRANCH   5  23
ATOM     23  C   UNL d   1       3.763  -0.741  -0.027  0.00  0.00    -0.007 A 
ATOM     24  C   UNL d   1       4.107  -1.894  -0.746  0.00  0.00     0.014 A 
ATOM     25  C   UNL d   1       5.439  -2.312  -0.830  0.00  0.00     0.001 A 
ATOM     26  C   UNL d   1       6.442  -1.579  -0.199  0.00  0.00     0.000 A 
ATOM     27  C   UNL d   1       6.112  -0.449   0.544  0.00  0.00     0.001 A 
ATOM     28  C   UNL d   1       4.778  -0.047   0.648  0.00  0.00     0.014 A 
ENDBRANCH   5  23
TORSDOF 4
