REMARK  3 active torsions:
REMARK  status: ('A' for Active; 'I' for Inactive)
REMARK       I    between atoms: N_2  and  C_1 
REMARK    1  A    between atoms: C_3  and  C_1 
REMARK       I    between atoms: C_4  and  N_2 
REMARK    2  A    between atoms: C_5  and  C_4 
REMARK       I    between atoms: N_6  and  C_5 
REMARK    3  A    between atoms: C_12  and  N_6 
ROOT
ATOM      1  C   UNL d   1      -0.763   0.051  -0.600  0.00  0.00     0.263 C 
ATOM      2  N   UNL d   1       0.540  -0.013  -1.064  0.00  0.00    -0.285 N 
ATOM      3  C   UNL d   1       0.930  -0.509  -2.296  0.00  0.00     0.316 C 
ATOM      4  O   UNL d   1      -1.751  -0.213  -1.270  0.00  0.00    -0.267 OA
ATOM      5  O   UNL d   1       0.244  -0.886  -3.232  0.00  0.00    -0.262 OA
ATOM      6  H   UNL d   1       1.310   0.188  -0.433  0.00  0.00     0.172 HD
ENDROOT
BRANCH   1   7
ATOM      7  C   UNL d   1      -0.936   0.463   0.823  0.00  0.00     0.092 A 
ATOM      8  C   UNL d   1      -2.021   1.236   1.262  0.00  0.00     0.052 A 
ATOM      9 CL   UNL d   1      -3.176   1.956   0.196  0.00  0.00    -0.083 Cl
ATOM     10  C   UNL d   1      -2.185   1.513   2.631  0.00  0.00     0.025 A 
ATOM     11  C   UNL d   1      -1.272   1.030   3.569  0.00  0.00     0.005 A 
ATOM     12  C   UNL d   1      -0.186   0.277   3.140  0.00  0.00     0.043 A 
ATOM     13  C   UNL d   1      -0.028  -0.001   1.781  0.00  0.00     0.133 A 
ATOM     14  F   UNL d   1       1.031  -0.738   1.414  0.00  0.00    -0.205 F 
ENDBRANCH   1   7
BRANCH   3  15
ATOM     15  C   UNL d   1       2.467  -0.534  -2.447  0.00  0.00     0.310 C 
ATOM     16  N   UNL d   1       2.893  -0.917  -3.700  0.00  0.00    -0.345 N 
ATOM     17  H   UNL d   1       2.145  -1.190  -4.336  0.00  0.00     0.163 HD
ATOM     18  O   UNL d   1       3.162  -0.211  -1.494  0.00  0.00    -0.262 OA
BRANCH  16  19
ATOM     19  C   UNL d   1       4.286  -1.017  -4.155  0.00  0.00     0.022 C 
ATOM     20  C   UNL d   1       5.041  -2.110  -3.384  0.00  0.00     0.037 C 
ATOM     21  C   UNL d   1       4.280  -1.383  -5.652  0.00  0.00     0.037 C 
ATOM     22  C   UNL d   1       5.016   0.326  -3.996  0.00  0.00     0.037 C 
ENDBRANCH  16  19
ENDBRANCH   3  15
TORSDOF 3
