REMARK  3 active torsions:
REMARK  status: ('A' for Active; 'I' for Inactive)
REMARK       I    between atoms: C_2  and  N_1 
REMARK    1  A    between atoms: C_4  and  C_2 
REMARK    2  A    between atoms: O_13  and  C_6 
REMARK    3  A    between atoms: O_14  and  C_8 
ROOT
ATOM      1  N   UNL d   1      -1.021   1.402  -0.103  0.00  0.00    -0.313 N 
ATOM      2  C   UNL d   1      -1.239   2.629  -0.778  0.00  0.00     0.258 C 
ATOM      3  C   UNL d   1      -2.084   0.699   0.590  0.00  0.00     0.043 A 
ATOM      4  O   UNL d   1      -2.288   3.277  -0.786  0.00  0.00    -0.267 OA
ATOM      5  C   UNL d   1      -1.776  -0.353   1.486  0.00  0.00    -0.031 A 
ATOM      6  C   UNL d   1       0.308   0.770  -0.035  0.00  0.00     0.133 C 
ATOM      7  C   UNL d   1      -3.439   1.016   0.416  0.00  0.00     0.030 A 
ATOM      8  C   UNL d   1       0.645   0.218   1.333  0.00  0.00     0.025 C 
ATOM      9  C   UNL d   1      -0.369  -0.831   1.722  0.00  0.00     0.042 C 
ATOM     10  C   UNL d   1      -2.801  -1.023   2.184  0.00  0.00     0.009 A 
ATOM     11  C   UNL d   1      -4.451   0.347   1.119  0.00  0.00     0.002 A 
ATOM     12  C   UNL d   1      -4.132  -0.667   2.009  0.00  0.00     0.001 A 
ENDROOT
BRANCH   2  13
ATOM     13  C   UNL d   1      -0.113   3.291  -1.486  0.00  0.00     0.035 A 
ATOM     14  C   UNL d   1       0.688   2.609  -2.408  0.00  0.00     0.056 A 
ATOM     15  C   UNL d   1       1.847   3.205  -2.930  0.00  0.00     0.102 A 
ATOM     16  C   UNL d   1       2.122   4.551  -2.627  0.00  0.00     0.101 A 
ATOM     17  C   UNL d   1       1.241   5.261  -1.795  0.00  0.00     0.040 A 
ATOM     18  C   UNL d   1       0.141   4.635  -1.213  0.00  0.00     0.020 A 
BRANCH  15  19
ATOM     19  O   UNL d   1       2.711   2.513  -3.740  0.00  0.00    -0.353 OA
ATOM     20  C   UNL d   1       2.698   1.093  -3.631  0.00  0.00     0.210 C 
ENDBRANCH  15  19
BRANCH  16  21
ATOM     21  O   UNL d   1       3.174   5.326  -3.037  0.00  0.00    -0.353 OA
ATOM     22  C   UNL d   1       4.263   4.707  -3.702  0.00  0.00     0.210 C 
ENDBRANCH  16  21
ENDBRANCH   2  13
TORSDOF 3
