REMARK  7 active torsions:
REMARK  status: ('A' for Active; 'I' for Inactive)
REMARK    1  A    between atoms: N_13  and  C_1 
REMARK    2  A    between atoms: C_17  and  N_2 
REMARK    3  A    between atoms: C_18  and  N_3 
REMARK    4  A    between atoms: C_4  and  S_15 
REMARK    5  A    between atoms: O_21  and  C_5 
REMARK       I    between atoms: C_16  and  N_13 
REMARK    6  A    between atoms: S_15  and  C_20 
REMARK    7  A    between atoms: C_20  and  C_16 
ROOT
ATOM      1  N   UNL d   1      -1.064  -2.426  -0.284  0.00  0.00    -0.311 N 
ATOM      2  C   UNL d   1      -2.392  -2.643   0.051  0.00  0.00     0.233 C 
ATOM      3  O   UNL d   1      -3.221  -1.741   0.175  0.00  0.00    -0.272 OA
ATOM      4  H   UNL d   1      -0.518  -3.184  -0.682  0.00  0.00     0.170 HD
ENDROOT
BRANCH   2   5
ATOM      5  C   UNL d   1      -2.740  -4.124   0.167  0.00  0.00     0.185 C 
BRANCH   5   6
ATOM      6  S   UNL d   1      -4.356  -4.306   0.965  0.00  0.00    -0.083 SA
BRANCH   6   7
ATOM      7  C   UNL d   1      -4.586  -6.019   0.965  0.00  0.00     0.169 A 
ATOM      8  N   UNL d   1      -5.735  -6.648   1.417  0.00  0.00    -0.255 N 
ATOM      9  C   UNL d   1      -5.369  -7.987   1.452  0.00  0.00     0.245 A 
ATOM     10  N   UNL d   1      -4.130  -8.138   1.043  0.00  0.00    -0.263 N 
ATOM     11  N   UNL d   1      -3.639  -6.897   0.724  0.00  0.00    -0.276 N 
ATOM     12  HN  UNL d   1      -3.623  -9.020   0.975  1.00  0.00     0.190 HD
ATOM     13  HN  UNL d   1      -2.707  -6.692   0.364  1.00  0.00     0.189 HD
BRANCH   8  14
ATOM     14  C   UNL d   1      -6.988  -6.085   1.786  0.00  0.00     0.045 A 
ATOM     15  C   UNL d   1      -7.526  -5.009   1.067  0.00  0.00     0.030 A 
ATOM     16  C   UNL d   1      -8.742  -4.442   1.455  0.00  0.00     0.002 A 
ATOM     17  C   UNL d   1      -9.429  -4.949   2.554  0.00  0.00     0.000 A 
ATOM     18  C   UNL d   1      -8.905  -6.027   3.264  0.00  0.00     0.002 A 
ATOM     19  C   UNL d   1      -7.688  -6.599   2.886  0.00  0.00     0.030 A 
ENDBRANCH   8  14
BRANCH   9  20
ATOM     20  O   UNL d   1      -6.152  -9.017   1.746  0.00  0.00    -0.331 OA
ATOM     21  H   UNL d   1      -7.078  -8.737   1.659  0.00  0.00     0.221 HD
ENDBRANCH   9  20
ENDBRANCH   6   7
ENDBRANCH   5   6
ENDBRANCH   2   5
BRANCH   1  22
ATOM     22  C   UNL d   1      -0.552  -1.135  -0.343  0.00  0.00     0.132 C 
ATOM     23  N   UNL d   1       0.459  -0.719  -1.206  0.00  0.00    -0.240 N 
ATOM     24  N   UNL d   1       0.953   0.494  -0.835  0.00  0.00    -0.297 N 
ATOM     25  C   UNL d   1       0.076   0.953   0.063  0.00  0.00     0.026 C 
ATOM     26  HN  UNL d   1       1.802   0.951  -1.168  1.00  0.00     0.187 HD
ATOM     27  C   UNL d   1      -0.883  -0.022   0.401  0.00  0.00     0.076 C 
ATOM     28  C   UNL d   1       0.190   2.331   0.597  0.00  0.00     0.070 C 
BRANCH  23  29
ATOM     29  C   UNL d   1       0.897  -1.332  -2.415  0.00  0.00     0.058 A 
ATOM     30  C   UNL d   1       0.080  -2.244  -3.102  0.00  0.00     0.031 A 
ATOM     31  C   UNL d   1       0.508  -2.803  -4.306  0.00  0.00     0.002 A 
ATOM     32  C   UNL d   1       1.746  -2.452  -4.837  0.00  0.00     0.000 A 
ATOM     33  C   UNL d   1       2.550  -1.524  -4.175  0.00  0.00     0.002 A 
ATOM     34  C   UNL d   1       2.127  -0.957  -2.972  0.00  0.00     0.031 A 
ENDBRANCH  23  29
ENDBRANCH   1  22
TORSDOF 7
