REMARK  4 active torsions:
REMARK  status: ('A' for Active; 'I' for Inactive)
REMARK    1  A    between atoms: C_4  and  C_1 
REMARK       I    between atoms: C_2  and  N_3 
REMARK       I    between atoms: N_8  and  C_2 
REMARK    2  A    between atoms: N_3  and  C_7 
REMARK    3  A    between atoms: C_11  and  N_8 
REMARK    4  A    between atoms: O_19  and  C_18 
ROOT
ATOM      1  C   UNL d   1      -0.325  -6.189  -0.754  0.00  0.00     0.326 C 
ATOM      2  N   UNL d   1      -0.853  -5.046  -1.277  0.00  0.00    -0.294 N 
ATOM      3  N   UNL d   1       0.910  -6.095  -0.178  0.00  0.00    -0.309 N 
ATOM      4  O   UNL d   1      -1.009  -7.208  -0.854  0.00  0.00    -0.247 OA
ATOM      5  H   UNL d   1      -1.758  -5.210  -1.693  0.00  0.00     0.172 HD
ATOM      6  H   UNL d   1       1.324  -5.168  -0.238  0.00  0.00     0.170 HD
ENDROOT
BRANCH   2   7
ATOM      7  C   UNL d   1      -0.316  -3.763  -1.353  0.00  0.00     0.108 A 
ATOM      8  C   UNL d   1      -1.062  -2.801  -2.025  0.00  0.00     0.049 A 
ATOM      9  C   UNL d   1      -0.521  -1.529  -2.201  0.00  0.00     0.021 A 
ATOM     10  C   UNL d   1       0.747  -1.241  -1.693  0.00  0.00     0.063 A 
ATOM     11  C   UNL d   1       1.397  -2.248  -0.997  0.00  0.00     0.106 A 
ATOM     12  N   UNL d   1       0.898  -3.497  -0.822  0.00  0.00    -0.351 N 
ATOM     13  HN  UNL d   1       1.419  -4.208  -0.308  1.00  0.00     0.166 HD
BRANCH  10  14
ATOM     14  C   UNL d   1       1.402   0.085  -1.931  0.00  0.00     0.418 C 
ATOM     15  F   UNL d   1       2.608   0.216  -1.313  0.00  0.00    -0.166 F 
ATOM     16  F   UNL d   1       0.644   1.130  -1.501  0.00  0.00    -0.166 F 
ATOM     17  F   UNL d   1       1.634   0.311  -3.253  0.00  0.00    -0.166 F 
ENDBRANCH  10  14
ENDBRANCH   2   7
BRANCH   3  18
ATOM     18  C   UNL d   1       1.645  -7.101   0.480  0.00  0.00     0.039 A 
ATOM     19  C   UNL d   1       1.166  -8.399   0.682  0.00  0.00     0.066 A 
ATOM     20  C   UNL d   1       1.917  -9.339   1.395  0.00  0.00     0.070 A 
ATOM     21  C   UNL d   1       3.176  -8.984   1.881  0.00  0.00     0.037 A 
ATOM     22  C   UNL d   1       3.675  -7.699   1.670  0.00  0.00     0.005 A 
ATOM     23  C   UNL d   1       2.909  -6.760   0.976  0.00  0.00     0.030 A 
BRANCH  20  24
ATOM     24  O   UNL d   1       1.525 -10.619   1.683  0.00  0.00    -0.356 OA
ATOM     25  C   UNL d   1       0.200 -10.977   1.304  0.00  0.00     0.210 C 
ENDBRANCH  20  24
ENDBRANCH   3  18
TORSDOF 4
