REMARK  3 active torsions:
REMARK  status: ('A' for Active; 'I' for Inactive)
REMARK    1  A    between atoms: C_8  and  N_1 
REMARK    2  A    between atoms: C_4  and  C_11 
REMARK       I    between atoms: N_7  and  C_4 
REMARK    3  A    between atoms: N_9  and  N_7 
REMARK       I    between atoms: C_10  and  N_9 
ROOT
ATOM      1  C   UNL d   1       2.129  -1.413  -0.107  0.00  0.00     0.039 A 
ATOM      2  C   UNL d   1       4.544  -2.878  -0.071  0.00  0.00     0.033 A 
ATOM      3  C   UNL d   1       2.422  -2.320  -1.131  0.00  0.00     0.031 A 
ATOM      4  C   UNL d   1       3.042  -1.260   0.945  0.00  0.00     0.031 A 
ATOM      5  C   UNL d   1       3.617  -3.049  -1.109  0.00  0.00     0.019 A 
ATOM      6  C   UNL d   1       4.242  -1.984   0.963  0.00  0.00     0.019 A 
ENDROOT
BRANCH   2   7
ATOM      7  C   UNL d   1       5.808  -3.676  -0.121  0.00  0.00     0.270 C 
ATOM      8  N   UNL d   1       6.809  -3.337   0.768  0.00  0.00    -0.263 N 
ATOM      9  H   UNL d   1       6.779  -2.569   1.433  0.00  0.00     0.190 HD
ATOM     10  O   UNL d   1       5.944  -4.587  -0.935  0.00  0.00    -0.266 OA
BRANCH   8  11
ATOM     11  N   UNL d   1       8.002  -4.065   0.736  0.00  0.00    -0.268 N 
ATOM     12  C   UNL d   1       8.925  -3.838   1.729  0.00  0.00     0.232 C 
ATOM     13  O   UNL d   1       8.785  -2.968   2.586  0.00  0.00    -0.272 OA
ATOM     14  C   UNL d   1      10.143  -4.718   1.656  0.00  0.00     0.119 C 
ATOM     15  H   UNL d   1       8.053  -4.824   0.060  0.00  0.00     0.190 HD
ENDBRANCH   8  11
ENDBRANCH   2   7
BRANCH   1  16
ATOM     16  N   UNL d   1       0.921  -0.646  -0.133  0.00  0.00    -0.320 N 
ATOM     17  C   UNL d   1      -0.342  -1.094  -0.532  0.00  0.00     0.013 A 
ATOM     18  C   UNL d   1      -1.233  -0.044  -0.416  0.00  0.00     0.027 A 
ATOM     19  C   UNL d   1      -0.690  -2.491  -0.922  0.00  0.00     0.068 C 
ATOM     20  C   UNL d   1      -0.533   1.065   0.077  0.00  0.00     0.027 A 
ATOM     21  C   UNL d   1       0.790   0.698   0.234  0.00  0.00     0.013 A 
ATOM     22  C   UNL d   1       1.904   1.609   0.630  0.00  0.00     0.068 C 
ENDBRANCH   1  16
TORSDOF 3
