REMARK  4 active torsions:
REMARK  status: ('A' for Active; 'I' for Inactive)
REMARK    1  A    between atoms: C_5  and  C_1 
REMARK    2  A    between atoms: C_6  and  C_5 
REMARK    3  A    between atoms: N_10  and  C_6 
REMARK    4  A    between atoms: C_13  and  N_10 
ROOT
ATOM      1  C   UNL d   1      -3.781  -0.075  -0.045  0.00  0.00     0.221 C 
ATOM      2  C   UNL d   1      -4.279  -1.471   0.042  0.00  0.00     0.079 C 
ATOM      3  N   UNL d   1      -4.648  -2.572   0.083  0.00  0.00    -0.196 NA
ENDROOT
BRANCH   1   4
ATOM      4  C   UNL d   1      -2.273  -0.079  -0.030  0.00  0.00     0.107 A 
ATOM      5  N   UNL d   1      -1.493   0.521   0.849  0.00  0.00    -0.343 N 
ATOM      6  C   UNL d   1      -0.202   0.257   0.453  0.00  0.00     0.060 A 
ATOM      7  HN  UNL d   1      -1.787   1.070   1.656  1.00  0.00     0.167 HD
ATOM      8  C   UNL d   1       1.017   0.664   1.013  0.00  0.00     0.032 A 
ATOM      9  C   UNL d   1      -0.193  -0.541  -0.682  0.00  0.00     0.060 A 
ATOM     10  C   UNL d   1       2.207   0.237   0.409  0.00  0.00     0.002 A 
ATOM     11  C   UNL d   1       2.184  -0.572  -0.728  0.00  0.00     0.002 A 
ATOM     12  C   UNL d   1       0.975  -0.979  -1.307  0.00  0.00     0.032 A 
ATOM     13  N   UNL d   1      -1.516  -0.745  -0.969  0.00  0.00    -0.343 N 
ATOM     14  H   UNL d   1      -1.873  -1.281  -1.751  0.00  0.00     0.167 HD
ENDBRANCH   1   4
BRANCH   1  15
ATOM     15  C   UNL d   1      -4.294   0.655  -1.297  0.00  0.00     0.103 C 
ATOM     16  S   UNL d   1      -4.340  -0.088  -2.824  0.00  0.00    -0.063 SA
BRANCH  15  17
ATOM     17  N   UNL d   1      -4.816   1.921  -1.270  0.00  0.00    -0.349 N 
ATOM     18  H   UNL d   1      -5.317   2.156  -2.124  0.00  0.00     0.166 HD
BRANCH  17  19
ATOM     19  C   UNL d   1      -4.788   2.943  -0.305  0.00  0.00     0.032 A 
ATOM     20  C   UNL d   1      -3.808   3.073   0.674  0.00  0.00     0.029 A 
ATOM     21  C   UNL d   1      -3.869   4.111   1.610  0.00  0.00     0.002 A 
ATOM     22  C   UNL d   1      -4.904   5.039   1.562  0.00  0.00     0.000 A 
ATOM     23  C   UNL d   1      -5.855   4.955   0.549  0.00  0.00     0.002 A 
ATOM     24  C   UNL d   1      -5.785   3.924  -0.391  0.00  0.00     0.029 A 
ENDBRANCH  17  19
ENDBRANCH  15  17
ENDBRANCH   1  15
TORSDOF 4
