REMARK  2 active torsions:
REMARK  status: ('A' for Active; 'I' for Inactive)
REMARK    1  A    between atoms: C_13  and  C_4 
REMARK    2  A    between atoms: C_14  and  C_15 
ROOT
ATOM      1  N   UNL d   1       0.683   0.177  -0.956  0.00  0.00    -0.317 N 
ATOM      2  HN  UNL d   1       1.283   0.378  -1.756  1.00  0.00     0.169 HD
ATOM      3  C   UNL d   1       0.179  -0.981  -0.579  0.00  0.00     0.208 A 
ATOM      4  C   UNL d   1       0.201   1.049  -0.003  0.00  0.00     0.138 A 
ATOM      5  C   UNL d   1       0.389  -2.212  -1.266  0.00  0.00     0.153 A 
ATOM      6  N   UNL d   1      -0.561   0.460   0.933  0.00  0.00    -0.242 N 
ATOM      7  HN  UNL d   1      -1.019   0.893   1.735  1.00  0.00     0.196 HD
ATOM      8  O   UNL d   1      -0.579  -0.877   0.554  0.00  0.00    -0.215 OA
ATOM      9  N   UNL d   1       0.186  -4.410  -1.730  0.00  0.00    -0.272 N 
ATOM     10  HN  UNL d   1      -0.094  -5.390  -1.686  1.00  0.00     0.194 HD
ATOM     11  O   UNL d   1      -0.194  -3.388  -0.877  0.00  0.00    -0.234 OA
ATOM     12  C   UNL d   1       1.161  -2.468  -2.381  0.00  0.00     0.063 A 
ATOM     13  C   UNL d   1       0.997  -3.841  -2.623  0.00  0.00     0.117 A 
ENDROOT
BRANCH   4  14
ATOM     14  C   UNL d   1       0.497   2.478  -0.023  0.00  0.00     0.010 A 
ATOM     15  C   UNL d   1       1.272   3.041  -1.042  0.00  0.00     0.016 A 
ATOM     16  C   UNL d   1       1.550   4.417  -1.053  0.00  0.00     0.009 A 
ATOM     17  C   UNL d   1       1.070   5.273  -0.042  0.00  0.00    -0.051 A 
ATOM     18  C   UNL d   1       0.290   4.692   0.969  0.00  0.00     0.009 A 
ATOM     19  C   UNL d   1       0.008   3.320   0.980  0.00  0.00     0.016 A 
BRANCH  17  20
ATOM     20  C   UNL d   1       1.413   6.774  -0.056  0.00  0.00    -0.024 C 
ATOM     21  C   UNL d   1       0.814   7.550   1.140  0.00  0.00     0.019 C 
ATOM     22  C   UNL d   1       2.943   6.956   0.001  0.00  0.00     0.019 C 
ATOM     23  C   UNL d   1       0.873   7.434  -1.342  0.00  0.00     0.019 C 
ENDBRANCH  17  20
ENDBRANCH   4  14
TORSDOF 2
