REMARK  6 active torsions:
REMARK  status: ('A' for Active; 'I' for Inactive)
REMARK       I    between atoms: N_4  and  C_1 
REMARK       I    between atoms: N_5  and  C_1 
REMARK    1  A    between atoms: C_8  and  N_4 
REMARK    2  A    between atoms: C_9  and  N_5 
REMARK    3  A    between atoms: O_15  and  C_6 
REMARK    4  A    between atoms: O_10  and  C_12 
REMARK    5  A    between atoms: C_14  and  O_10 
REMARK    6  A    between atoms: C_21  and  C_14 
ROOT
ATOM      1  C   UNL d   1       1.021   0.058  -0.672  0.00  0.00     0.325 C 
ATOM      2  N   UNL d   1       2.364  -0.285  -0.668  0.00  0.00    -0.307 N 
ATOM      3  N   UNL d   1       0.213  -1.068  -0.705  0.00  0.00    -0.309 N 
ATOM      4  O   UNL d   1       0.608   1.210  -0.665  0.00  0.00    -0.247 OA
ATOM      5  H   UNL d   1       2.594  -1.246  -0.863  0.00  0.00     0.170 HD
ATOM      6  H   UNL d   1       0.653  -1.949  -0.494  0.00  0.00     0.170 HD
ENDROOT
BRANCH   3   7
ATOM      7  C   UNL d   1      -1.195  -1.085  -0.823  0.00  0.00     0.036 A 
ATOM      8  C   UNL d   1      -1.968   0.048  -1.089  0.00  0.00     0.032 A 
ATOM      9  C   UNL d   1      -3.361  -0.038  -1.153  0.00  0.00     0.039 A 
ATOM     10  C   UNL d   1      -4.004  -1.256  -0.951  0.00  0.00     0.069 A 
ATOM     11  C   UNL d   1      -3.240  -2.403  -0.743  0.00  0.00     0.039 A 
ATOM     12  C   UNL d   1      -1.843  -2.315  -0.674  0.00  0.00     0.032 A 
BRANCH  10  13
ATOM     13  O   UNL d   1      -5.369  -1.204  -0.989  0.00  0.00    -0.347 OA
BRANCH  13  14
ATOM     14  C   UNL d   1      -6.050  -2.268  -0.323  0.00  0.00     0.214 C 
BRANCH  14  15
ATOM     15  C   UNL d   1      -7.442  -1.819   0.050  0.00  0.00    -0.034 A 
ATOM     16  C   UNL d   1      -8.561  -2.578  -0.319  0.00  0.00     0.009 A 
ATOM     17  C   UNL d   1      -9.840  -2.195   0.087  0.00  0.00     0.001 A 
ATOM     18  C   UNL d   1     -10.013  -1.052   0.867  0.00  0.00     0.000 A 
ATOM     19  C   UNL d   1      -8.909  -0.287   1.237  0.00  0.00     0.001 A 
ATOM     20  C   UNL d   1      -7.630  -0.668   0.831  0.00  0.00     0.009 A 
ENDBRANCH  14  15
ENDBRANCH  13  14
ENDBRANCH  10  13
ENDBRANCH   3   7
BRANCH   2  21
ATOM     21  C   UNL d   1       3.437   0.636  -0.659  0.00  0.00     0.051 A 
ATOM     22  C   UNL d   1       3.306   2.005  -0.433  0.00  0.00     0.119 A 
ATOM     23  N   UNL d   1       4.331   2.892  -0.483  0.00  0.00    -0.345 N 
ATOM     24  C   UNL d   1       5.548   2.397  -0.769  0.00  0.00     0.141 A 
ATOM     25  HN  UNL d   1       4.185   3.887  -0.311  1.00  0.00     0.167 HD
ATOM     26  C   UNL d   1       5.796   1.049  -0.972  0.00  0.00     0.058 A 
ATOM     27  C   UNL d   1       4.724   0.157  -0.909  0.00  0.00     0.035 A 
BRANCH  24  28
ATOM     28  O   UNL d   1       6.625   3.254  -0.880  0.00  0.00    -0.341 OA
ATOM     29  C   UNL d   1       6.243   4.623  -0.771  0.00  0.00     0.211 C 
ENDBRANCH  24  28
ENDBRANCH   2  21
TORSDOF 6
