REMARK  6 active torsions:
REMARK  status: ('A' for Active; 'I' for Inactive)
REMARK    1  A    between atoms: C_6  and  N_1 
REMARK    2  A    between atoms: C_9  and  C_4 
REMARK       I    between atoms: C_8  and  N_11 
REMARK       I    between atoms: N_14  and  C_8 
REMARK    3  A    between atoms: O_18  and  C_9 
REMARK    4  A    between atoms: N_11  and  C_10 
REMARK    5  A    between atoms: C_21  and  N_14 
REMARK    6  A    between atoms: C_23  and  O_18 
ROOT
ATOM      1  C   UNL d   1      -0.480  -2.415   0.014  0.00  0.00     0.154 A 
ATOM      2  C   UNL d   1      -0.203  -3.292   1.082  0.00  0.00     0.082 A 
ATOM      3  N   UNL d   1      -1.112  -2.831  -1.123  0.00  0.00    -0.349 N 
ATOM      4  HN  UNL d   1      -1.224  -2.206  -1.921  1.00  0.00     0.167 HD
ATOM      5  C   UNL d   1      -0.751  -4.577   1.022  0.00  0.00     0.035 A 
ATOM      6  C   UNL d   1      -1.583  -4.094  -1.155  0.00  0.00     0.090 A 
ATOM      7  C   UNL d   1      -1.460  -4.983  -0.104  0.00  0.00     0.019 A 
ENDROOT
BRANCH   1   8
ATOM      8  N   UNL d   1      -0.096  -1.031   0.089  0.00  0.00    -0.241 N 
ATOM      9  N   UNL d   1       0.110  -0.449   1.302  0.00  0.00    -0.296 N 
ATOM     10  C   UNL d   1       0.371   0.833   1.043  0.00  0.00     0.041 A 
ATOM     11  HN  UNL d   1       0.071  -0.898   2.217  1.00  0.00     0.187 HD
ATOM     12  C   UNL d   1       0.589   1.763   2.183  0.00  0.00     0.071 C 
ATOM     13  C   UNL d   1       0.447   1.095  -0.353  0.00  0.00     0.087 A 
ATOM     14  C   UNL d   1       0.076  -0.115  -0.946  0.00  0.00     0.050 A 
ATOM     15  C   UNL d   1      -0.047  -0.487  -2.385  0.00  0.00     0.071 C 
BRANCH  13  16
ATOM     16  C   UNL d   1       0.877   2.312  -1.023  0.00  0.00     0.297 C 
ATOM     17  O   UNL d   1       1.052   2.406  -2.228  0.00  0.00    -0.259 OA
BRANCH  16  18
ATOM     18  O   UNL d   1       1.174   3.301  -0.134  0.00  0.00    -0.318 OA
BRANCH  18  19
ATOM     19  C   UNL d   1       2.064   4.322  -0.605  0.00  0.00     0.174 C 
ATOM     20  C   UNL d   1       3.487   3.848  -0.377  0.00  0.00     0.034 C 
ENDBRANCH  18  19
ENDBRANCH  16  18
ENDBRANCH  13  16
ENDBRANCH   1   8
BRANCH   2  21
ATOM     21  N   UNL d   1       0.603  -2.919   2.183  0.00  0.00    -0.305 N 
ATOM     22  C   UNL d   1       1.665  -3.575   2.756  0.00  0.00     0.321 C 
ATOM     23  N   UNL d   1       2.094  -4.712   2.131  0.00  0.00    -0.339 N 
ATOM     24  O   UNL d   1       2.251  -3.073   3.711  0.00  0.00    -0.247 OA
ATOM     25  H   UNL d   1       1.604  -4.995   1.300  0.00  0.00     0.164 HD
ATOM     26  H   UNL d   1       0.637  -1.914   2.379  0.00  0.00     0.171 HD
BRANCH  23  27
ATOM     27  C   UNL d   1       3.340  -5.421   2.411  0.00  0.00     0.078 C 
ATOM     28  C   UNL d   1       4.583  -4.534   2.333  0.00  0.00     0.032 C 
ATOM     29  C   UNL d   1       3.296  -6.189   3.727  0.00  0.00     0.032 C 
ENDBRANCH  23  27
ENDBRANCH   2  21
TORSDOF 6
