REMARK  6 active torsions:
REMARK  status: ('A' for Active; 'I' for Inactive)
REMARK    1  A    between atoms: C_2  and  N_1 
REMARK       I    between atoms: C_3  and  N_1 
REMARK    2  A    between atoms: N_7  and  C_2 
REMARK    3  A    between atoms: O_13  and  C_3 
REMARK    4  A    between atoms: N_4  and  N_7 
REMARK    5  A    between atoms: C_12  and  C_8 
REMARK    6  A    between atoms: C_15  and  O_13 
ROOT
ATOM      1  N   UNL d   1      -1.089  -0.081  -1.471  0.00  0.00    -0.276 N 
ATOM      2  H   UNL d   1      -1.512  -0.059  -0.547  0.00  0.00     0.189 HD
ENDROOT
BRANCH   1   3
ATOM      3  N   UNL d   1      -1.841  -0.098  -2.602  0.00  0.00    -0.308 N 
ATOM      4  C   UNL d   1      -3.128  -0.149  -2.480  0.00  0.00     0.136 C 
ATOM      5  HN  UNL d   1      -1.402  -0.071  -3.522  1.00  0.00     0.186 HD
BRANCH   4   6
ATOM      6  C   UNL d   1      -3.961  -0.114  -3.701  0.00  0.00     0.049 A 
ATOM      7  N   UNL d   1      -5.299  -0.156  -3.520  0.00  0.00    -0.365 N 
ATOM      8  C   UNL d   1      -6.047  -0.066  -4.645  0.00  0.00     0.088 A 
ATOM      9  HN  UNL d   1      -5.719  -0.249  -2.595  1.00  0.00     0.165 HD
ATOM     10  C   UNL d   1      -5.520   0.066  -5.925  0.00  0.00     0.017 A 
ATOM     11  C   UNL d   1      -4.140   0.095  -6.074  0.00  0.00     0.004 A 
ATOM     12  C   UNL d   1      -3.342  -0.001  -4.944  0.00  0.00     0.031 A 
ENDBRANCH   4   6
ENDBRANCH   1   3
BRANCH   1  13
ATOM     13  C   UNL d   1       0.294  -0.013  -1.595  0.00  0.00     0.195 C 
ATOM     14  S   UNL d   1       1.247   0.060  -0.235  0.00  0.00    -0.039 SA
BRANCH  13  15
ATOM     15  N   UNL d   1       0.690  -0.017  -2.927  0.00  0.00    -0.278 N 
ATOM     16  C   UNL d   1       1.920   0.029  -3.528  0.00  0.00     0.366 C 
ATOM     17  O   UNL d   1       3.006   0.121  -2.976  0.00  0.00    -0.238 OA
ATOM     18  H   UNL d   1      -0.098  -0.082  -3.555  0.00  0.00     0.173 HD
BRANCH  16  19
ATOM     19  O   UNL d   1       1.754  -0.047  -4.880  0.00  0.00    -0.304 OA
BRANCH  19  20
ATOM     20  C   UNL d   1       2.968  -0.054  -5.651  0.00  0.00     0.176 C 
ATOM     21  C   UNL d   1       3.557  -1.453  -5.692  0.00  0.00     0.034 C 
ENDBRANCH  19  20
ENDBRANCH  16  19
ENDBRANCH  13  15
ENDBRANCH   1  13
TORSDOF 6
