REMARK  2 active torsions:
REMARK  status: ('A' for Active; 'I' for Inactive)
REMARK       I    between atoms: C_4  and  N_1 
REMARK       I    between atoms: N_5  and  C_3 
REMARK       I    between atoms: N_8  and  C_3 
REMARK       I    between atoms: N_9  and  C_4 
REMARK    1  A    between atoms: C_10  and  N_5 
REMARK    2  A    between atoms: O_16  and  C_11 
ROOT
ATOM      1  N   UNL d   1       1.096   3.557  -0.243  0.00  0.00    -0.310 N 
ATOM      2  HN  UNL d   1       2.109   3.513  -0.127  1.00  0.00     0.171 HD
ATOM      3  C   UNL d   1       0.509   2.700  -1.016  0.00  0.00     0.157 C 
ATOM      4  C   UNL d   1       0.399   4.503   0.411  0.00  0.00     0.150 C 
ATOM      5  N   UNL d   1       1.158   1.682  -1.666  0.00  0.00    -0.333 N 
ATOM      6  N   UNL d   1       0.691   4.654   1.653  0.00  0.00    -0.376 N 
ATOM      7  HN  UNL d   1       0.296   5.321   2.316  1.00  0.00     0.158 HD
ATOM      8  N   UNL d   1      -0.825   2.640  -1.304  0.00  0.00    -0.274 NA
ATOM      9  N   UNL d   1      -0.498   5.328  -0.177  0.00  0.00    -0.274 NA
ATOM     10  H   UNL d   1       0.689   0.790  -1.582  0.00  0.00     0.168 HD
ATOM     11  H   UNL d   1       1.417   3.945   1.823  0.00  0.00     0.158 HD
ATOM     12  H   UNL d   1      -1.320   3.479  -1.002  0.00  0.00     0.127 HD
ATOM     13  H   UNL d   1      -1.001   2.457  -2.285  0.00  0.00     0.127 HD
ATOM     14  H   UNL d   1      -0.150   5.655  -1.070  0.00  0.00     0.127 HD
ATOM     15  H   UNL d   1      -0.668   6.104   0.454  0.00  0.00     0.127 HD
ENDROOT
BRANCH   5  16
ATOM     16  C   UNL d   1       2.557   1.593  -1.818  0.00  0.00     0.034 A 
ATOM     17  C   UNL d   1       3.205   0.353  -1.754  0.00  0.00     0.032 A 
ATOM     18  C   UNL d   1       4.598   0.261  -1.892  0.00  0.00     0.039 A 
ATOM     19  C   UNL d   1       5.357   1.411  -2.108  0.00  0.00     0.068 A 
ATOM     20  C   UNL d   1       4.718   2.643  -2.211  0.00  0.00     0.039 A 
ATOM     21  C   UNL d   1       3.335   2.733  -2.059  0.00  0.00     0.032 A 
BRANCH  19  22
ATOM     22  O   UNL d   1       6.712   1.447  -2.279  0.00  0.00    -0.356 OA
ATOM     23  C   UNL d   1       7.442   0.455  -1.569  0.00  0.00     0.210 C 
ENDBRANCH  19  22
ENDBRANCH   5  16
TORSDOF 2
