REMARK  2 active torsions:
REMARK  status: ('A' for Active; 'I' for Inactive)
REMARK    1  A    between atoms: C_10  and  C_1 
REMARK       I    between atoms: N_5  and  C_10 
REMARK       I    between atoms: C_6  and  N_5 
REMARK       I    between atoms: N_11  and  C_6 
REMARK    2  A    between atoms: C_14  and  C_9 
ROOT
ATOM      1  C   UNL d   1      -0.715  -1.112  -0.274  0.00  0.00     0.234 A 
ATOM      2  O   UNL d   1      -1.809  -0.310  -0.514  0.00  0.00    -0.268 OA
ATOM      3  N   UNL d   1       0.433  -0.490  -0.470  0.00  0.00    -0.273 N 
ATOM      4  HN  UNL d   1       1.369  -0.877  -0.350  1.00  0.00     0.189 HD
ATOM      5  N   UNL d   1       0.113   0.784  -0.869  0.00  0.00    -0.277 N 
ATOM      6  HN  UNL d   1       0.770   1.525  -1.114  1.00  0.00     0.189 HD
ATOM      7  C   UNL d   1      -1.206   0.872  -0.878  0.00  0.00     0.175 A 
ENDROOT
BRANCH   1   8
ATOM      8  C   UNL d   1      -0.836  -2.495   0.150  0.00  0.00     0.302 C 
ATOM      9  N   UNL d   1       0.402  -3.073   0.440  0.00  0.00    -0.272 N 
ATOM     10  C   UNL d   1       0.604  -4.338   0.935  0.00  0.00     0.325 C 
ATOM     11  H   UNL d   1       1.184  -2.439   0.428  0.00  0.00     0.174 HD
ATOM     12  N   UNL d   1       1.932  -4.729   1.089  0.00  0.00    -0.330 N 
ATOM     13  O   UNL d   1      -0.316  -5.092   1.241  0.00  0.00    -0.247 OA
ATOM     14  C   UNL d   1       3.135  -3.950   0.757  0.00  0.00     0.153 C 
ATOM     15  C   UNL d   1       2.192  -5.890   1.955  0.00  0.00     0.153 C 
ATOM     16  C   UNL d   1       4.330  -4.847   0.388  0.00  0.00     0.187 C 
ATOM     17  O   UNL d   1       4.553  -5.869   1.367  0.00  0.00    -0.388 OA
ATOM     18  C   UNL d   1       3.393  -6.706   1.480  0.00  0.00     0.187 C 
ATOM     19  O   UNL d   1      -1.920  -3.074   0.215  0.00  0.00    -0.263 OA
ENDBRANCH   1   8
BRANCH   7  20
ATOM     20  C   UNL d   1      -2.032   2.042  -1.176  0.00  0.00     0.017 A 
ATOM     21  C   UNL d   1      -3.431   2.051  -1.101  0.00  0.00     0.016 A 
ATOM     22  C   UNL d   1      -4.150   3.231  -1.353  0.00  0.00     0.001 A 
ATOM     23  C   UNL d   1      -3.482   4.409  -1.688  0.00  0.00     0.000 A 
ATOM     24  C   UNL d   1      -2.095   4.411  -1.783  0.00  0.00     0.001 A 
ATOM     25  C   UNL d   1      -1.381   3.238  -1.532  0.00  0.00     0.016 A 
ENDBRANCH   7  20
TORSDOF 2
