REMARK  4 active torsions:
REMARK  status: ('A' for Active; 'I' for Inactive)
REMARK    1  A    between atoms: N_6  and  C_4 
REMARK    2  A    between atoms: S_8  and  C_4 
REMARK    3  A    between atoms: C_11  and  N_6 
REMARK    4  A    between atoms: C_12  and  C_7 
ROOT
ATOM      1  N   UNL d   1       2.859  -0.884   2.090  0.00  0.00    -0.274 N 
ATOM      2  HN  UNL d   1       2.546  -0.289   2.857  1.00  0.00     0.180 HD
ATOM      3  C   UNL d   1       2.985  -2.197   2.296  0.00  0.00     0.183 C 
ATOM      4  C   UNL d   1       3.123  -0.349   0.949  0.00  0.00     0.153 C 
ATOM      5  N   UNL d   1       3.094  -3.331   2.505  0.00  0.00    -0.172 NA
ENDROOT
BRANCH   4   6
ATOM      6  N   UNL d   1       2.974   0.985   0.668  0.00  0.00    -0.336 N 
ATOM      7  H   UNL d   1       3.253   1.287  -0.255  0.00  0.00     0.168 HD
BRANCH   6   8
ATOM      8  C   UNL d   1       2.207   1.923   1.389  0.00  0.00     0.034 A 
ATOM      9  C   UNL d   1       2.550   3.277   1.315  0.00  0.00     0.030 A 
ATOM     10  C   UNL d   1       1.847   4.243   2.047  0.00  0.00     0.010 A 
ATOM     11  C   UNL d   1       0.771   3.883   2.869  0.00  0.00    -0.055 A 
ATOM     12  C   UNL d   1       0.444   2.526   2.966  0.00  0.00     0.010 A 
ATOM     13  C   UNL d   1       1.158   1.564   2.241  0.00  0.00     0.030 A 
BRANCH  11  14
ATOM     14  C   UNL d   1      -0.050   4.916   3.622  0.00  0.00     0.010 C 
ATOM     15  C   UNL d   1       0.789   5.695   4.636  0.00  0.00     0.015 C 
ATOM     16  C   UNL d   1      -0.756   5.874   2.658  0.00  0.00     0.015 C 
ENDBRANCH  11  14
ENDBRANCH   6   8
ENDBRANCH   4   6
BRANCH   4  17
ATOM     17  S   UNL d   1       3.745  -1.239  -0.449  0.00  0.00    -0.098 SA
ATOM     18  C   UNL d   1       5.499  -1.315  -0.017  0.00  0.00     0.099 C 
ENDBRANCH   4  17
TORSDOF 4
