REMARK  5 active torsions:
REMARK  status: ('A' for Active; 'I' for Inactive)
REMARK    1  A    between atoms: C_12  and  N_1 
REMARK    2  A    between atoms: C_10  and  C_4 
REMARK    3  A    between atoms: C_7  and  N_13 
REMARK    4  A    between atoms: N_8  and  C_10 
REMARK    5  A    between atoms: N_13  and  N_8 
ROOT
ATOM      1  N   UNL d   1      -0.381   1.012  -0.034  0.00  0.00    -0.267 N 
ATOM      2  N   UNL d   1       0.916   0.629  -0.157  0.00  0.00    -0.298 N 
ATOM      3  HN  UNL d   1       1.731   1.230  -0.280  1.00  0.00     0.187 HD
ATOM      4  C   UNL d   1      -0.422  -1.210   0.014  0.00  0.00     0.022 A 
ATOM      5  C   UNL d   1      -1.210  -0.079   0.065  0.00  0.00     0.131 A 
ATOM      6  C   UNL d   1       0.895  -0.706  -0.084  0.00  0.00     0.035 A 
ATOM      7  C   UNL d   1       2.169  -1.465  -0.094  0.00  0.00     0.070 C 
ENDROOT
BRANCH   4   8
ATOM      8  C   UNL d   1      -0.888  -2.575   0.063  0.00  0.00     0.122 C 
BRANCH   8   9
ATOM      9  N   UNL d   1      -2.159  -2.785   0.168  0.00  0.00    -0.309 N 
ATOM     10  HN  UNL d   1      -2.829  -2.019   0.237  1.00  0.00     0.186 HD
BRANCH   9  11
ATOM     11  N   UNL d   1      -2.550  -4.094   0.182  0.00  0.00    -0.277 N 
ATOM     12  H   UNL d   1      -1.878  -4.845   0.063  0.00  0.00     0.189 HD
BRANCH  11  13
ATOM     13  C   UNL d   1      -3.874  -4.423   0.299  0.00  0.00     0.184 C 
ATOM     14  S   UNL d   1      -4.407  -5.992   0.275  0.00  0.00    -0.040 SA
ATOM     15  N   UNL d   1      -4.723  -3.377   0.441  0.00  0.00    -0.375 N 
ATOM     16  H   UNL d   1      -4.321  -2.451   0.389  0.00  0.00     0.158 HD
ATOM     17  H   UNL d   1      -5.722  -3.508   0.498  0.00  0.00     0.158 HD
ENDBRANCH  11  13
ENDBRANCH   9  11
ENDBRANCH   8   9
ENDBRANCH   4   8
BRANCH   1  18
ATOM     18  C   UNL d   1      -0.746   2.386  -0.003  0.00  0.00     0.056 A 
ATOM     19  C   UNL d   1       0.236   3.372  -0.176  0.00  0.00     0.031 A 
ATOM     20  C   UNL d   1      -0.115   4.723  -0.140  0.00  0.00     0.002 A 
ATOM     21  C   UNL d   1      -1.439   5.097   0.080  0.00  0.00     0.000 A 
ATOM     22  C   UNL d   1      -2.419   4.123   0.258  0.00  0.00     0.002 A 
ATOM     23  C   UNL d   1      -2.078   2.769   0.212  0.00  0.00     0.031 A 
ENDBRANCH   1  18
TORSDOF 5
