REMARK  4 active torsions:
REMARK  status: ('A' for Active; 'I' for Inactive)
REMARK    1  A    between atoms: C_6  and  N_1 
REMARK    2  A    between atoms: C_5  and  C_6 
REMARK       I    between atoms: N_11  and  C_5 
REMARK    3  A    between atoms: N_8  and  N_11 
REMARK    4  A    between atoms: C_15  and  C_14 
ROOT
ATOM      1  C   UNL d   1       2.610   2.830  -0.487  0.00  0.00     0.254 C 
ATOM      2  N   UNL d   1       3.625   2.278  -1.263  0.00  0.00    -0.269 N 
ATOM      3  O   UNL d   1       2.765   3.579   0.478  0.00  0.00    -0.270 OA
ATOM      4  H   UNL d   1       3.382   1.391  -1.716  0.00  0.00     0.190 HD
ENDROOT
BRANCH   1   5
ATOM      5  C   UNL d   1       1.213   2.337  -0.922  0.00  0.00     0.236 C 
BRANCH   5   6
ATOM      6  N   UNL d   1       0.756   1.118  -0.229  0.00  0.00    -0.307 N 
ATOM      7  C   UNL d   1       1.634   0.025  -0.257  0.00  0.00     0.234 C 
ATOM      8  C   UNL d   1       1.349  -1.046   0.764  0.00  0.00     0.182 C 
ATOM      9  O   UNL d   1       2.600  -0.048  -1.021  0.00  0.00    -0.272 OA
ATOM     10  S   UNL d   1      -0.131  -1.917   0.256  0.00  0.00    -0.118 SA
ATOM     11  C   UNL d   1      -1.167  -0.471   0.055  0.00  0.00     0.028 A 
ATOM     12  C   UNL d   1      -0.669   0.850  -0.102  0.00  0.00     0.054 A 
ATOM     13  C   UNL d   1      -2.547  -0.729   0.037  0.00  0.00     0.021 A 
ATOM     14  C   UNL d   1      -1.620   1.881  -0.205  0.00  0.00     0.031 A 
ATOM     15  C   UNL d   1      -2.996   1.613  -0.208  0.00  0.00     0.002 A 
ATOM     16  C   UNL d   1      -3.459   0.309  -0.102  0.00  0.00     0.002 A 
ENDBRANCH   5   6
ENDBRANCH   1   5
BRANCH   2  17
ATOM     17  N   UNL d   1       4.942   2.452  -0.923  0.00  0.00    -0.308 N 
ATOM     18  C   UNL d   1       5.736   1.588  -1.478  0.00  0.00     0.118 C 
ATOM     19  HN  UNL d   1       5.266   3.188  -0.296  1.00  0.00     0.186 HD
BRANCH  18  20
ATOM     20  C   UNL d   1       7.182   1.535  -1.193  0.00  0.00    -0.019 A 
ATOM     21  C   UNL d   1       7.788   2.482  -0.361  0.00  0.00     0.016 A 
ATOM     22  C   UNL d   1       9.149   2.373  -0.068  0.00  0.00     0.043 A 
ATOM     23  C   UNL d   1       9.887   1.322  -0.605  0.00  0.00     0.116 A 
ATOM     24  C   UNL d   1       9.294   0.381  -1.442  0.00  0.00     0.043 A 
ATOM     25  F   UNL d   1      11.188   1.210  -0.308  0.00  0.00    -0.206 F 
ATOM     26  C   UNL d   1       7.934   0.487  -1.741  0.00  0.00     0.016 A 
ENDBRANCH  18  20
ENDBRANCH   2  17
TORSDOF 4
