REMARK  6 active torsions:
REMARK  status: ('A' for Active; 'I' for Inactive)
REMARK    1  A    between atoms: C_3  and  C_1 
REMARK    2  A    between atoms: O_9  and  C_1 
REMARK    3  A    between atoms: C_4  and  C_2 
REMARK    4  A    between atoms: C_11  and  C_2 
REMARK    5  A    between atoms: N_5  and  C_4 
REMARK    6  A    between atoms: C_15  and  O_9 
ROOT
ATOM      1  N   UNL d   1       6.603   4.121   3.536  0.00  0.00    -0.191 NA
ATOM      2  C   UNL d   1       5.864   3.436   2.963  0.00  0.00     0.099 C 
ATOM      3  C   UNL d   1       3.188   0.949   0.775  0.00  0.00     0.076 A 
ATOM      4  C   UNL d   1       4.951   2.588   2.243  0.00  0.00     0.044 A 
ATOM      5  C   UNL d   1       3.703   3.073   1.833  0.00  0.00     0.025 A 
ATOM      6  C   UNL d   1       4.435   0.465   1.187  0.00  0.00     0.039 A 
ATOM      7  C   UNL d   1       2.830   2.263   1.089  0.00  0.00     0.039 A 
ATOM      8  C   UNL d   1       5.314   1.277   1.919  0.00  0.00     0.025 A 
ENDROOT
BRANCH   3   9
ATOM      9  O   UNL d   1       2.429   0.088   0.009  0.00  0.00    -0.304 OA
BRANCH   9  10
ATOM     10  C   UNL d   1       1.026   0.103   0.048  0.00  0.00     0.179 C 
ATOM     11  C   UNL d   1       0.316  -0.209  -1.066  0.00  0.00     0.075 C 
BRANCH  11  12
ATOM     12  C   UNL d   1      -1.204  -0.209  -1.066  0.00  0.00    -0.033 C 
BRANCH  12  13
ATOM     13  N   UNL d   1      -2.465  -0.209  -1.066  0.00  0.00    -0.365 N 
ATOM     14  HN2 UNL d   1      -1.445  -0.209  -1.066  1.00  0.00     0.165 HD
ATOM     15  HN1 UNL d   1      -3.485  -0.209  -1.066  1.00  0.00     0.165 HD
ENDBRANCH  12  13
ENDBRANCH  11  12
BRANCH  11  16
ATOM     16  C   UNL d   1       0.936  -0.606  -2.340  0.00  0.00    -0.014 A 
ATOM     17  C   UNL d   1       1.137  -1.968  -2.611  0.00  0.00     0.013 A 
ATOM     18  C   UNL d   1       1.634  -2.375  -3.850  0.00  0.00     0.001 A 
ATOM     19  C   UNL d   1       1.933  -1.427  -4.825  0.00  0.00     0.000 A 
ATOM     20  C   UNL d   1       1.733  -0.071  -4.564  0.00  0.00     0.001 A 
ATOM     21  C   UNL d   1       1.235   0.342  -3.326  0.00  0.00     0.013 A 
ENDBRANCH  11  16
BRANCH  10  22
ATOM     22  C   UNL d   1       0.341   0.276   1.386  0.00  0.00     0.441 C 
ATOM     23  F   UNL d   1       1.183   0.243   2.449  0.00  0.00    -0.164 F 
ATOM     24  F   UNL d   1      -0.326   1.457   1.446  0.00  0.00    -0.164 F 
ATOM     25  F   UNL d   1      -0.569  -0.707   1.611  0.00  0.00    -0.164 F 
ENDBRANCH  10  22
ENDBRANCH   9  10
ENDBRANCH   3   9
TORSDOF 6
